MODEL 1
REMARK VINA RESULT:     -12.0      0.000      0.000
REMARK SMILES O=C(COc1ccc(Br)cc1/C=C1\C(=O)Nc2ccc(Br)cc21)OCCOC(=O)c1ccc(-c2c3nc(c(-c4cc(S(=O)(=O)[O-])ccc4F)c4ccc([nH]4)c(-c4cc(S(=O)(=O)[O-])ccc4F)c4nc(c(-c5cc(S(=O)(=O)[O-])ccc5F)c5ccc2[nH]5)C=C4)C=C3)cc1
REMARK SMILES IDX 25 1 24 2 2 3 1 4 3 5 4 6 5 7 6 8 11 9 7 10 10 11 8 12 9 13
REMARK SMILES IDX 12 14 13 15 14 16 23 17 15 18 16 19 17 20 22 21 18 23 20 24
REMARK SMILES IDX 19 25 21 26 26 27 27 28 28 29 29 30 30 31 31 32 92 33 32 34
REMARK SMILES IDX 91 35 33 36 34 37 35 38 85 39 36 40 90 41 84 42 86 43 37 44
REMARK SMILES IDX 89 45 83 46 82 47 38 49 70 50 50 51 69 52 51 53 54 54 68 55
REMARK SMILES IDX 87 56 52 57 53 58 67 60 88 61 55 62 39 63 40 64 48 65 41 66
REMARK SMILES IDX 47 67 49 68 46 69 42 70 43 71 44 72 45 73 71 74 72 75 80 76
REMARK SMILES IDX 73 77 79 78 81 79 78 80 74 81 75 82 76 83 77 84 56 85 57 86
REMARK SMILES IDX 65 87 58 88 64 89 66 90 63 91 59 92 60 93 61 94 62 95
REMARK H PARENT 16 22 86 48 54 59
REMARK Flexibility Score: inf
ROOT
ATOM      1  C   UNL A   1      36.197  20.888  24.998  1.00  0.00     0.274 C 
ENDROOT
BRANCH   1   2
ATOM      2  O   UNL A   1      35.978  22.215  25.516  1.00  0.00    -0.460 OA
BRANCH   2   3
ATOM      3  C   UNL A   1      35.664  23.264  24.716  1.00  0.00     0.344 C 
ATOM      4  O   UNL A   1      35.498  23.091  23.510  1.00  0.00    -0.248 OA
BRANCH   3   5
ATOM      5  C   UNL A   1      35.419  24.624  25.375  1.00  0.00     0.352 C 
BRANCH   5   6
ATOM      6  O   UNL A   1      34.111  24.806  25.944  1.00  0.00    -0.481 OA
BRANCH   6   7
ATOM      7  C   UNL A   1      33.416  25.743  25.204  1.00  0.00     0.127 A 
ATOM      8  C   UNL A   1      33.672  27.100  25.474  1.00  0.00     0.048 A 
ATOM      9  C   UNL A   1      32.431  25.348  24.275  1.00  0.00     0.018 A 
ATOM     10  C   UNL A   1      32.847  28.091  24.959  1.00  0.00     0.019 A 
ATOM     11  C   UNL A   1      31.578  26.374  23.834  1.00  0.00     0.027 A 
ATOM     12  C   UNL A   1      31.780  27.717  24.165  1.00  0.00     0.018 A 
ATOM     13  Br  UNL A   1      30.579  29.032  23.524  1.00  0.00    -0.051 Br
BRANCH   9  14
ATOM     14  C   UNL A   1      32.259  23.914  23.884  1.00  0.00     0.026 C 
ATOM     15  C   UNL A   1      31.738  22.877  24.575  1.00  0.00     0.050 C 
ATOM     16  C   UNL A   1      31.253  22.898  26.002  1.00  0.00     0.256 C 
ATOM     17  C   UNL A   1      32.111  21.477  24.317  1.00  0.00     0.012 A 
ATOM     18  O   UNL A   1      30.411  23.603  26.492  1.00  0.00    -0.269 OA
ATOM     19  N   UNL A   1      31.922  21.829  26.582  1.00  0.00    -0.321 N 
ATOM     20  C   UNL A   1      32.388  20.967  25.592  1.00  0.00     0.049 A 
ATOM     21  C   UNL A   1      32.153  20.643  23.216  1.00  0.00     0.026 A 
ATOM     22  H   UNL A   1      32.048  21.699  27.550  1.00  0.00     0.170 HD
ATOM     23  C   UNL A   1      32.904  19.712  25.791  1.00  0.00     0.028 A 
ATOM     24  C   UNL A   1      32.586  19.323  23.422  1.00  0.00     0.018 A 
ATOM     25  C   UNL A   1      33.021  18.879  24.683  1.00  0.00     0.018 A 
ATOM     26  Br  UNL A   1      32.514  18.077  22.000  1.00  0.00    -0.051 Br
ENDBRANCH   9  14
ENDBRANCH   6   7
ENDBRANCH   5   6
ENDBRANCH   3   5
ENDBRANCH   2   3
ENDBRANCH   1   2
BRANCH   1  27
ATOM     27  C   UNL A   1      37.683  20.530  25.077  1.00  0.00     0.275 C 
BRANCH  27  28
ATOM     28  O   UNL A   1      38.423  21.687  25.506  1.00  0.00    -0.458 OA
BRANCH  28  29
ATOM     29  C   UNL A   1      39.427  21.462  26.395  1.00  0.00     0.338 C 
ATOM     30  O   UNL A   1      39.946  20.391  26.651  1.00  0.00    -0.246 OA
BRANCH  29  31
ATOM     31  C   UNL A   1      39.925  22.779  26.857  1.00  0.00     0.060 A 
ATOM     32  C   UNL A   1      40.938  22.874  27.817  1.00  0.00     0.016 A 
ATOM     33  C   UNL A   1      39.328  23.939  26.349  1.00  0.00     0.016 A 
ATOM     34  C   UNL A   1      41.354  24.132  28.264  1.00  0.00     0.010 A 
ATOM     35  C   UNL A   1      39.746  25.196  26.798  1.00  0.00     0.010 A 
ATOM     36  C   UNL A   1      40.768  25.302  27.752  1.00  0.00    -0.014 A 
BRANCH  36  37
ATOM     37  C   UNL A   1      41.349  26.627  28.087  1.00  0.00     0.031 A 
ATOM     38  C   UNL A   1      42.773  26.978  27.775  1.00  0.00     0.074 A 
ATOM     39  C   UNL A   1      40.552  27.523  28.702  1.00  0.00     0.049 A 
ATOM     40  N   UNL A   1      43.391  28.113  27.975  1.00  0.00    -0.248 NA
ATOM     41  C   UNL A   1      43.613  25.939  27.158  1.00  0.00     0.031 C 
ATOM     42  C   UNL A   1      39.158  27.276  29.076  1.00  0.00     0.029 A 
ATOM     43  N   UNL A   1      40.790  28.807  29.123  1.00  0.00    -0.354 N 
ATOM     44  C   UNL A   1      44.683  27.937  27.501  1.00  0.00     0.074 A 
ATOM     45  C   UNL A   1      44.774  26.574  27.021  1.00  0.00     0.031 C 
ATOM     46  C   UNL A   1      38.664  28.374  29.668  1.00  0.00     0.029 A 
ATOM     47  C   UNL A   1      39.710  29.392  29.742  1.00  0.00     0.049 A 
ATOM     48  H   UNL A   1      41.651  29.265  28.995  1.00  0.00     0.167 HD
ATOM     49  C   UNL A   1      45.687  28.844  27.458  1.00  0.00     0.034 A 
ATOM     50  C   UNL A   1      39.569  30.608  30.310  1.00  0.00     0.034 A 
ATOM     51  C   UNL A   1      45.580  30.204  27.914  1.00  0.00     0.049 A 
ATOM     52  C   UNL A   1      40.712  31.586  30.250  1.00  0.00     0.074 A 
ATOM     53  C   UNL A   1      46.543  31.196  27.840  1.00  0.00     0.029 A 
ATOM     54  N   UNL A   1      44.469  30.768  28.517  1.00  0.00    -0.354 N 
ATOM     55  N   UNL A   1      41.889  31.437  29.692  1.00  0.00    -0.248 NA
ATOM     56  C   UNL A   1      40.510  32.901  30.877  1.00  0.00     0.031 C 
ATOM     57  C   UNL A   1      46.027  32.352  28.423  1.00  0.00     0.029 A 
ATOM     58  C   UNL A   1      44.729  32.092  28.832  1.00  0.00     0.049 A 
ATOM     59  H   UNL A   1      43.621  30.300  28.693  1.00  0.00     0.167 HD
ATOM     60  C   UNL A   1      42.556  32.645  29.874  1.00  0.00     0.074 A 
ATOM     61  C   UNL A   1      41.646  33.522  30.578  1.00  0.00     0.031 C 
ATOM     62  C   UNL A   1      43.812  32.986  29.494  1.00  0.00     0.034 A 
BRANCH  49  63
ATOM     63  C   UNL A   1      46.998  28.475  26.822  1.00  0.00     0.023 A 
ATOM     64  C   UNL A   1      47.124  28.372  25.425  1.00  0.00     0.031 A 
ATOM     65  C   UNL A   1      48.022  27.953  27.628  1.00  0.00     0.131 A 
ATOM     66  C   UNL A   1      48.256  27.750  24.879  1.00  0.00     0.055 A 
ATOM     67  C   UNL A   1      49.143  27.331  27.075  1.00  0.00     0.041 A 
ATOM     68  F   UNL A   1      47.927  28.005  28.967  1.00  0.00    -0.206 F 
ATOM     69  C   UNL A   1      49.267  27.233  25.697  1.00  0.00     0.022 A 
BRANCH  66  70
ATOM     70  S   UNL A   1      48.399  27.454  23.094  1.00  0.00     0.124 S 
ATOM     71  O   UNL A   1      48.278  25.999  23.033  1.00  0.00    -0.237 OA
ATOM     72  O   UNL A   1      47.258  28.196  22.563  1.00  0.00    -0.237 OA
ATOM     73  O   UNL A   1      49.710  27.994  22.757  1.00  0.00    -0.744 OA
ENDBRANCH  66  70
ENDBRANCH  49  63
BRANCH  50  74
ATOM     74  C   UNL A   1      38.259  30.966  30.925  1.00  0.00     0.023 A 
ATOM     75  C   UNL A   1      37.252  31.587  30.164  1.00  0.00     0.031 A 
ATOM     76  C   UNL A   1      38.044  30.802  32.303  1.00  0.00     0.131 A 
ATOM     77  C   UNL A   1      36.107  32.083  30.798  1.00  0.00     0.055 A 
ATOM     78  C   UNL A   1      36.870  31.236  32.920  1.00  0.00     0.041 A 
ATOM     79  F   UNL A   1      38.984  30.229  33.070  1.00  0.00    -0.206 F 
ATOM     80  C   UNL A   1      35.902  31.897  32.169  1.00  0.00     0.022 A 
BRANCH  77  81
ATOM     81  S   UNL A   1      34.910  33.102  29.894  1.00  0.00     0.124 S 
ATOM     82  O   UNL A   1      34.331  32.140  28.964  1.00  0.00    -0.237 OA
ATOM     83  O   UNL A   1      34.028  33.549  30.970  1.00  0.00    -0.237 OA
ATOM     84  O   UNL A   1      35.732  34.147  29.292  1.00  0.00    -0.744 OA
ENDBRANCH  77  81
ENDBRANCH  50  74
BRANCH  62  85
ATOM     85  C   UNL A   1      44.326  34.371  29.798  1.00  0.00     0.023 A 
ATOM     86  C   UNL A   1      44.243  35.381  28.820  1.00  0.00     0.031 A 
ATOM     87  C   UNL A   1      45.075  34.625  30.958  1.00  0.00     0.131 A 
ATOM     88  C   UNL A   1      44.948  36.578  28.994  1.00  0.00     0.055 A 
ATOM     89  C   UNL A   1      45.738  35.838  31.148  1.00  0.00     0.041 A 
ATOM     90  F   UNL A   1      45.196  33.687  31.911  1.00  0.00    -0.206 F 
ATOM     91  C   UNL A   1      45.692  36.814  30.155  1.00  0.00     0.022 A 
BRANCH  88  92
ATOM     92  S   UNL A   1      45.017  37.824  27.676  1.00  0.00     0.124 S 
ATOM     93  O   UNL A   1      45.656  38.948  28.356  1.00  0.00    -0.237 OA
ATOM     94  O   UNL A   1      45.836  37.157  26.666  1.00  0.00    -0.237 OA
ATOM     95  O   UNL A   1      43.619  38.030  27.313  1.00  0.00    -0.744 OA
ENDBRANCH  88  92
ENDBRANCH  62  85
ENDBRANCH  36  37
ENDBRANCH  29  31
ENDBRANCH  28  29
ENDBRANCH  27  28
ENDBRANCH   1  27
TORSDOF 17
ENDMDL
MODEL 2
REMARK VINA RESULT:     -12.0      4.885      9.635
REMARK SMILES O=C(COc1ccc(Br)cc1/C=C1\C(=O)Nc2ccc(Br)cc21)OCCOC(=O)c1ccc(-c2c3nc(c(-c4cc(S(=O)(=O)[O-])ccc4F)c4ccc([nH]4)c(-c4cc(S(=O)(=O)[O-])ccc4F)c4nc(c(-c5cc(S(=O)(=O)[O-])ccc5F)c5ccc2[nH]5)C=C4)C=C3)cc1
REMARK SMILES IDX 25 1 24 2 2 3 1 4 3 5 4 6 5 7 6 8 11 9 7 10 10 11 8 12 9 13
REMARK SMILES IDX 12 14 13 15 14 16 23 17 15 18 16 19 17 20 22 21 18 23 20 24
REMARK SMILES IDX 19 25 21 26 26 27 27 28 28 29 29 30 30 31 31 32 92 33 32 34
REMARK SMILES IDX 91 35 33 36 34 37 35 38 85 39 36 40 90 41 84 42 86 43 37 44
REMARK SMILES IDX 89 45 83 46 82 47 38 49 70 50 50 51 69 52 51 53 54 54 68 55
REMARK SMILES IDX 87 56 52 57 53 58 67 60 88 61 55 62 39 63 40 64 48 65 41 66
REMARK SMILES IDX 47 67 49 68 46 69 42 70 43 71 44 72 45 73 71 74 72 75 80 76
REMARK SMILES IDX 73 77 79 78 81 79 78 80 74 81 75 82 76 83 77 84 56 85 57 86
REMARK SMILES IDX 65 87 58 88 64 89 66 90 63 91 59 92 60 93 61 94 62 95
REMARK H PARENT 16 22 86 48 54 59
REMARK Flexibility Score: inf
ROOT
ATOM      1  C   UNL A   1      31.936  28.914  26.449  1.00  0.00     0.274 C 
ENDROOT
BRANCH   1   2
ATOM      2  O   UNL A   1      33.159  28.682  25.723  1.00  0.00    -0.460 OA
BRANCH   2   3
ATOM      3  C   UNL A   1      33.435  27.496  25.126  1.00  0.00     0.344 C 
ATOM      4  O   UNL A   1      33.432  26.458  25.786  1.00  0.00    -0.248 OA
BRANCH   3   5
ATOM      5  C   UNL A   1      33.635  27.483  23.608  1.00  0.00     0.352 C 
BRANCH   5   6
ATOM      6  O   UNL A   1      32.905  26.469  22.898  1.00  0.00    -0.481 OA
BRANCH   6   7
ATOM      7  C   UNL A   1      31.568  26.815  22.848  1.00  0.00     0.127 A 
ATOM      8  C   UNL A   1      31.250  28.094  22.356  1.00  0.00     0.048 A 
ATOM      9  C   UNL A   1      30.575  25.948  23.349  1.00  0.00     0.018 A 
ATOM     10  C   UNL A   1      29.968  28.609  22.502  1.00  0.00     0.019 A 
ATOM     11  C   UNL A   1      29.312  26.533  23.543  1.00  0.00     0.027 A 
ATOM     12  C   UNL A   1      29.011  27.834  23.128  1.00  0.00     0.018 A 
ATOM     13  Br  UNL A   1      27.282  28.538  23.431  1.00  0.00    -0.051 Br
BRANCH   9  14
ATOM     14  C   UNL A   1      30.895  24.538  23.738  1.00  0.00     0.026 C 
ATOM     15  C   UNL A   1      30.906  23.950  24.954  1.00  0.00     0.050 C 
ATOM     16  C   UNL A   1      30.664  24.620  26.281  1.00  0.00     0.256 C 
ATOM     17  C   UNL A   1      31.731  22.772  25.263  1.00  0.00     0.012 A 
ATOM     18  O   UNL A   1      29.702  25.250  26.634  1.00  0.00    -0.269 OA
ATOM     19  N   UNL A   1      31.761  24.232  27.039  1.00  0.00    -0.321 N 
ATOM     20  C   UNL A   1      32.363  23.115  26.465  1.00  0.00     0.049 A 
ATOM     21  C   UNL A   1      31.918  21.515  24.720  1.00  0.00     0.026 A 
ATOM     22  H   UNL A   1      32.068  24.681  27.860  1.00  0.00     0.170 HD
ATOM     23  C   UNL A   1      33.333  22.335  27.040  1.00  0.00     0.028 A 
ATOM     24  C   UNL A   1      32.837  20.666  25.357  1.00  0.00     0.018 A 
ATOM     25  C   UNL A   1      33.587  21.094  26.466  1.00  0.00     0.018 A 
ATOM     26  Br  UNL A   1      33.026  18.876  24.774  1.00  0.00    -0.051 Br
ENDBRANCH   9  14
ENDBRANCH   6   7
ENDBRANCH   5   6
ENDBRANCH   3   5
ENDBRANCH   2   3
ENDBRANCH   1   2
BRANCH   1  27
ATOM     27  C   UNL A   1      31.808  30.398  26.804  1.00  0.00     0.275 C 
BRANCH  27  28
ATOM     28  O   UNL A   1      33.024  31.074  26.439  1.00  0.00    -0.458 OA
BRANCH  28  29
ATOM     29  C   UNL A   1      33.452  32.044  27.292  1.00  0.00     0.338 C 
ATOM     30  O   UNL A   1      32.834  33.036  27.633  1.00  0.00    -0.246 OA
BRANCH  29  31
ATOM     31  C   UNL A   1      34.725  31.586  27.896  1.00  0.00     0.060 A 
ATOM     32  C   UNL A   1      35.815  32.453  28.032  1.00  0.00     0.016 A 
ATOM     33  C   UNL A   1      34.839  30.247  28.288  1.00  0.00     0.016 A 
ATOM     34  C   UNL A   1      37.017  31.978  28.565  1.00  0.00     0.010 A 
ATOM     35  C   UNL A   1      36.044  29.774  28.821  1.00  0.00     0.010 A 
ATOM     36  C   UNL A   1      37.137  30.637  28.971  1.00  0.00    -0.014 A 
BRANCH  36  37
ATOM     37  C   UNL A   1      38.346  30.196  29.712  1.00  0.00     0.031 A 
ATOM     38  C   UNL A   1      38.688  30.725  31.073  1.00  0.00     0.074 A 
ATOM     39  C   UNL A   1      39.153  29.297  29.115  1.00  0.00     0.049 A 
ATOM     40  N   UNL A   1      39.690  30.391  31.846  1.00  0.00    -0.248 NA
ATOM     41  C   UNL A   1      37.803  31.750  31.649  1.00  0.00     0.031 C 
ATOM     42  C   UNL A   1      38.929  28.736  27.782  1.00  0.00     0.029 A 
ATOM     43  N   UNL A   1      40.315  28.701  29.539  1.00  0.00    -0.354 N 
ATOM     44  C   UNL A   1      39.554  31.147  33.001  1.00  0.00     0.074 A 
ATOM     45  C   UNL A   1      38.384  31.980  32.824  1.00  0.00     0.031 C 
ATOM     46  C   UNL A   1      39.919  27.876  27.498  1.00  0.00     0.029 A 
ATOM     47  C   UNL A   1      40.863  27.844  28.613  1.00  0.00     0.049 A 
ATOM     48  H   UNL A   1      40.718  28.872  30.420  1.00  0.00     0.167 HD
ATOM     49  C   UNL A   1      40.331  31.124  34.109  1.00  0.00     0.034 A 
ATOM     50  C   UNL A   1      41.997  27.114  28.648  1.00  0.00     0.034 A 
ATOM     51  C   UNL A   1      41.479  30.274  34.285  1.00  0.00     0.049 A 
ATOM     52  C   UNL A   1      42.840  27.122  29.895  1.00  0.00     0.074 A 
ATOM     53  C   UNL A   1      42.275  30.156  35.412  1.00  0.00     0.029 A 
ATOM     54  N   UNL A   1      41.994  29.406  33.338  1.00  0.00    -0.354 N 
ATOM     55  N   UNL A   1      42.629  27.758  31.022  1.00  0.00    -0.248 NA
ATOM     56  C   UNL A   1      44.063  26.305  29.890  1.00  0.00     0.031 C 
ATOM     57  C   UNL A   1      43.287  29.239  35.139  1.00  0.00     0.029 A 
ATOM     58  C   UNL A   1      43.106  28.760  33.851  1.00  0.00     0.049 A 
ATOM     59  H   UNL A   1      41.625  29.268  32.436  1.00  0.00     0.167 HD
ATOM     60  C   UNL A   1      43.674  27.396  31.868  1.00  0.00     0.074 A 
ATOM     61  C   UNL A   1      44.508  26.472  31.130  1.00  0.00     0.031 C 
ATOM     62  C   UNL A   1      43.916  27.804  33.138  1.00  0.00     0.034 A 
BRANCH  49  63
ATOM     63  C   UNL A   1      39.962  31.969  35.296  1.00  0.00     0.023 A 
ATOM     64  C   UNL A   1      39.122  31.471  36.308  1.00  0.00     0.031 A 
ATOM     65  C   UNL A   1      40.218  33.348  35.256  1.00  0.00     0.131 A 
ATOM     66  C   UNL A   1      38.562  32.358  37.238  1.00  0.00     0.055 A 
ATOM     67  C   UNL A   1      39.652  34.224  36.184  1.00  0.00     0.041 A 
ATOM     68  F   UNL A   1      40.992  33.869  34.289  1.00  0.00    -0.206 F 
ATOM     69  C   UNL A   1      38.827  33.731  37.184  1.00  0.00     0.022 A 
BRANCH  66  70
ATOM     70  S   UNL A   1      37.354  31.794  38.468  1.00  0.00     0.124 S 
ATOM     71  O   UNL A   1      36.262  32.742  38.256  1.00  0.00    -0.237 OA
ATOM     72  O   UNL A   1      37.083  30.425  38.035  1.00  0.00    -0.237 OA
ATOM     73  O   UNL A   1      38.064  31.921  39.735  1.00  0.00    -0.744 OA
ENDBRANCH  66  70
ENDBRANCH  49  63
BRANCH  50  74
ATOM     74  C   UNL A   1      42.344  26.270  27.469  1.00  0.00     0.023 A 
ATOM     75  C   UNL A   1      41.893  24.941  27.377  1.00  0.00     0.031 A 
ATOM     76  C   UNL A   1      43.227  26.741  26.484  1.00  0.00     0.131 A 
ATOM     77  C   UNL A   1      42.380  24.110  26.361  1.00  0.00     0.055 A 
ATOM     78  C   UNL A   1      43.657  25.930  25.434  1.00  0.00     0.041 A 
ATOM     79  F   UNL A   1      43.695  27.998  26.542  1.00  0.00    -0.206 F 
ATOM     80  C   UNL A   1      43.248  24.601  25.379  1.00  0.00     0.022 A 
BRANCH  77  81
ATOM     81  S   UNL A   1      42.015  22.333  26.357  1.00  0.00     0.124 S 
ATOM     82  O   UNL A   1      42.519  21.922  25.051  1.00  0.00    -0.237 OA
ATOM     83  O   UNL A   1      42.788  21.869  27.507  1.00  0.00    -0.237 OA
ATOM     84  O   UNL A   1      40.566  22.279  26.521  1.00  0.00    -0.744 OA
ENDBRANCH  77  81
ENDBRANCH  50  74
BRANCH  62  85
ATOM     85  C   UNL A   1      45.122  27.268  33.869  1.00  0.00     0.023 A 
ATOM     86  C   UNL A   1      45.089  25.974  34.424  1.00  0.00     0.031 A 
ATOM     87  C   UNL A   1      46.203  28.105  34.190  1.00  0.00     0.131 A 
ATOM     88  C   UNL A   1      46.088  25.575  35.321  1.00  0.00     0.055 A 
ATOM     89  C   UNL A   1      47.221  27.685  35.048  1.00  0.00     0.041 A 
ATOM     90  F   UNL A   1      46.270  29.352  33.697  1.00  0.00    -0.206 F 
ATOM     91  C   UNL A   1      47.157  26.422  35.632  1.00  0.00     0.022 A 
BRANCH  88  92
ATOM     92  S   UNL A   1      45.979  23.991  36.198  1.00  0.00     0.124 S 
ATOM     93  O   UNL A   1      45.361  23.129  35.193  1.00  0.00    -0.237 OA
ATOM     94  O   UNL A   1      47.382  23.704  36.489  1.00  0.00    -0.237 OA
ATOM     95  O   UNL A   1      45.147  24.287  37.360  1.00  0.00    -0.744 OA
ENDBRANCH  88  92
ENDBRANCH  62  85
ENDBRANCH  36  37
ENDBRANCH  29  31
ENDBRANCH  28  29
ENDBRANCH  27  28
ENDBRANCH   1  27
TORSDOF 17
ENDMDL
MODEL 3
REMARK VINA RESULT:     -11.9      4.874     10.096
REMARK SMILES O=C(COc1ccc(Br)cc1/C=C1\C(=O)Nc2ccc(Br)cc21)OCCOC(=O)c1ccc(-c2c3nc(c(-c4cc(S(=O)(=O)[O-])ccc4F)c4ccc([nH]4)c(-c4cc(S(=O)(=O)[O-])ccc4F)c4nc(c(-c5cc(S(=O)(=O)[O-])ccc5F)c5ccc2[nH]5)C=C4)C=C3)cc1
REMARK SMILES IDX 25 1 24 2 2 3 1 4 3 5 4 6 5 7 6 8 11 9 7 10 10 11 8 12 9 13
REMARK SMILES IDX 12 14 13 15 14 16 23 17 15 18 16 19 17 20 22 21 18 23 20 24
REMARK SMILES IDX 19 25 21 26 26 27 27 28 28 29 29 30 30 31 31 32 92 33 32 34
REMARK SMILES IDX 91 35 33 36 34 37 35 38 85 39 36 40 90 41 84 42 86 43 37 44
REMARK SMILES IDX 89 45 83 46 82 47 38 49 70 50 50 51 69 52 51 53 54 54 68 55
REMARK SMILES IDX 87 56 52 57 53 58 67 60 88 61 55 62 39 63 40 64 48 65 41 66
REMARK SMILES IDX 47 67 49 68 46 69 42 70 43 71 44 72 45 73 71 74 72 75 80 76
REMARK SMILES IDX 73 77 79 78 81 79 78 80 74 81 75 82 76 83 77 84 56 85 57 86
REMARK SMILES IDX 65 87 58 88 64 89 66 90 63 91 59 92 60 93 61 94 62 95
REMARK H PARENT 16 22 86 48 54 59
REMARK Flexibility Score: inf
ROOT
ATOM      1  C   UNL A   1      32.038  28.927  27.224  1.00  0.00     0.274 C 
ENDROOT
BRANCH   1   2
ATOM      2  O   UNL A   1      32.010  28.141  26.016  1.00  0.00    -0.460 OA
BRANCH   2   3
ATOM      3  C   UNL A   1      33.131  27.610  25.468  1.00  0.00     0.344 C 
ATOM      4  O   UNL A   1      33.894  28.320  24.815  1.00  0.00    -0.248 OA
BRANCH   3   5
ATOM      5  C   UNL A   1      33.464  26.149  25.783  1.00  0.00     0.352 C 
BRANCH   5   6
ATOM      6  O   UNL A   1      34.086  25.415  24.715  1.00  0.00    -0.481 OA
BRANCH   6   7
ATOM      7  C   UNL A   1      33.646  24.105  24.742  1.00  0.00     0.127 A 
ATOM      8  C   UNL A   1      34.533  23.135  25.244  1.00  0.00     0.048 A 
ATOM      9  C   UNL A   1      32.389  23.751  24.211  1.00  0.00     0.018 A 
ATOM     10  C   UNL A   1      34.269  21.782  25.078  1.00  0.00     0.019 A 
ATOM     11  C   UNL A   1      32.194  22.376  23.998  1.00  0.00     0.027 A 
ATOM     12  C   UNL A   1      33.111  21.410  24.423  1.00  0.00     0.018 A 
ATOM     13  Br  UNL A   1      32.765  19.579  24.094  1.00  0.00    -0.051 Br
BRANCH   9  14
ATOM     14  C   UNL A   1      31.390  24.792  23.810  1.00  0.00     0.026 C 
ATOM     15  C   UNL A   1      31.403  25.663  22.777  1.00  0.00     0.050 C 
ATOM     16  C   UNL A   1      32.514  25.858  21.778  1.00  0.00     0.256 C 
ATOM     17  C   UNL A   1      30.681  26.944  22.804  1.00  0.00     0.012 A 
ATOM     18  O   UNL A   1      33.014  25.041  21.050  1.00  0.00    -0.269 OA
ATOM     19  N   UNL A   1      32.736  27.228  21.812  1.00  0.00    -0.321 N 
ATOM     20  C   UNL A   1      31.637  27.873  22.373  1.00  0.00     0.049 A 
ATOM     21  C   UNL A   1      29.385  27.352  23.053  1.00  0.00     0.026 A 
ATOM     22  H   UNL A   1      33.549  27.678  21.486  1.00  0.00     0.170 HD
ATOM     23  C   UNL A   1      31.408  29.225  22.378  1.00  0.00     0.028 A 
ATOM     24  C   UNL A   1      29.112  28.727  22.964  1.00  0.00     0.018 A 
ATOM     25  C   UNL A   1      30.127  29.663  22.695  1.00  0.00     0.018 A 
ATOM     26  Br  UNL A   1      27.331  29.347  23.127  1.00  0.00    -0.051 Br
ENDBRANCH   9  14
ENDBRANCH   6   7
ENDBRANCH   5   6
ENDBRANCH   3   5
ENDBRANCH   2   3
ENDBRANCH   1   2
BRANCH   1  27
ATOM     27  C   UNL A   1      32.115  30.417  26.882  1.00  0.00     0.275 C 
BRANCH  27  28
ATOM     28  O   UNL A   1      33.493  30.782  26.684  1.00  0.00    -0.458 OA
BRANCH  28  29
ATOM     29  C   UNL A   1      33.994  31.720  27.532  1.00  0.00     0.338 C 
ATOM     30  O   UNL A   1      33.434  32.734  27.907  1.00  0.00    -0.246 OA
BRANCH  29  31
ATOM     31  C   UNL A   1      35.264  31.196  28.086  1.00  0.00     0.060 A 
ATOM     32  C   UNL A   1      36.384  32.022  28.236  1.00  0.00     0.016 A 
ATOM     33  C   UNL A   1      35.345  29.838  28.415  1.00  0.00     0.016 A 
ATOM     34  C   UNL A   1      37.581  31.487  28.720  1.00  0.00     0.010 A 
ATOM     35  C   UNL A   1      36.544  29.305  28.899  1.00  0.00     0.010 A 
ATOM     36  C   UNL A   1      37.668  30.126  29.063  1.00  0.00    -0.014 A 
BRANCH  36  37
ATOM     37  C   UNL A   1      38.878  29.615  29.755  1.00  0.00     0.031 A 
ATOM     38  C   UNL A   1      39.309  30.129  31.096  1.00  0.00     0.074 A 
ATOM     39  C   UNL A   1      39.602  28.665  29.131  1.00  0.00     0.049 A 
ATOM     40  N   UNL A   1      40.320  29.737  31.828  1.00  0.00    -0.248 NA
ATOM     41  C   UNL A   1      38.515  31.210  31.701  1.00  0.00     0.031 C 
ATOM     42  C   UNL A   1      39.287  28.112  27.813  1.00  0.00     0.029 A 
ATOM     43  N   UNL A   1      40.742  28.001  29.510  1.00  0.00    -0.354 N 
ATOM     44  C   UNL A   1      40.281  30.507  32.982  1.00  0.00     0.074 A 
ATOM     45  C   UNL A   1      39.158  31.409  32.849  1.00  0.00     0.031 C 
ATOM     46  C   UNL A   1      40.209  27.191  27.494  1.00  0.00     0.029 A 
ATOM     47  C   UNL A   1      41.196  27.106  28.569  1.00  0.00     0.049 A 
ATOM     48  H   UNL A   1      41.192  28.151  30.372  1.00  0.00     0.167 HD
ATOM     49  C   UNL A   1      41.102  30.441  34.057  1.00  0.00     0.034 A 
ATOM     50  C   UNL A   1      42.283  26.308  28.561  1.00  0.00     0.034 A 
ATOM     51  C   UNL A   1      42.202  29.523  34.191  1.00  0.00     0.049 A 
ATOM     52  C   UNL A   1      43.178  26.270  29.771  1.00  0.00     0.074 A 
ATOM     53  C   UNL A   1      43.036  29.361  35.284  1.00  0.00     0.029 A 
ATOM     54  N   UNL A   1      42.621  28.620  33.229  1.00  0.00    -0.354 N 
ATOM     55  N   UNL A   1      43.055  26.924  30.902  1.00  0.00    -0.248 NA
ATOM     56  C   UNL A   1      44.347  25.380  29.721  1.00  0.00     0.031 C 
ATOM     57  C   UNL A   1      43.978  28.382  34.975  1.00  0.00     0.029 A 
ATOM     58  C   UNL A   1      43.712  27.908  33.700  1.00  0.00     0.049 A 
ATOM     59  H   UNL A   1      42.206  28.500  32.345  1.00  0.00     0.167 HD
ATOM     60  C   UNL A   1      44.111  26.502  31.705  1.00  0.00     0.074 A 
ATOM     61  C   UNL A   1      44.854  25.525  30.940  1.00  0.00     0.031 C 
ATOM     62  C   UNL A   1      44.431  26.900  32.961  1.00  0.00     0.034 A 
BRANCH  49  63
ATOM     63  C   UNL A   1      40.836  31.313  35.252  1.00  0.00     0.023 A 
ATOM     64  C   UNL A   1      39.686  31.133  36.040  1.00  0.00     0.031 A 
ATOM     65  C   UNL A   1      41.584  32.490  35.416  1.00  0.00     0.131 A 
ATOM     66  C   UNL A   1      39.314  32.128  36.956  1.00  0.00     0.055 A 
ATOM     67  C   UNL A   1      41.204  33.476  36.327  1.00  0.00     0.041 A 
ATOM     68  F   UNL A   1      42.673  32.714  34.663  1.00  0.00    -0.206 F 
ATOM     69  C   UNL A   1      40.070  33.296  37.106  1.00  0.00     0.022 A 
BRANCH  66  70
ATOM     70  S   UNL A   1      37.761  32.019  37.886  1.00  0.00     0.124 S 
ATOM     71  O   UNL A   1      37.413  30.612  37.702  1.00  0.00    -0.237 OA
ATOM     72  O   UNL A   1      38.179  32.385  39.237  1.00  0.00    -0.237 OA
ATOM     73  O   UNL A   1      36.888  32.977  37.219  1.00  0.00    -0.744 OA
ENDBRANCH  66  70
ENDBRANCH  49  63
BRANCH  50  74
ATOM     74  C   UNL A   1      42.527  25.438  27.376  1.00  0.00     0.023 A 
ATOM     75  C   UNL A   1      42.031  24.123  27.333  1.00  0.00     0.031 A 
ATOM     76  C   UNL A   1      43.359  25.869  26.329  1.00  0.00     0.131 A 
ATOM     77  C   UNL A   1      42.426  23.264  26.300  1.00  0.00     0.055 A 
ATOM     78  C   UNL A   1      43.694  25.031  25.265  1.00  0.00     0.041 A 
ATOM     79  F   UNL A   1      43.867  27.110  26.337  1.00  0.00    -0.206 F 
ATOM     80  C   UNL A   1      43.242  23.714  25.257  1.00  0.00     0.022 A 
BRANCH  77  81
ATOM     81  S   UNL A   1      42.007  21.499  26.346  1.00  0.00     0.124 S 
ATOM     82  O   UNL A   1      42.944  20.939  25.379  1.00  0.00    -0.237 OA
ATOM     83  O   UNL A   1      42.271  21.168  27.745  1.00  0.00    -0.237 OA
ATOM     84  O   UNL A   1      40.601  21.469  25.957  1.00  0.00    -0.744 OA
ENDBRANCH  77  81
ENDBRANCH  50  74
BRANCH  62  85
ATOM     85  C   UNL A   1      45.632  26.295  33.644  1.00  0.00     0.023 A 
ATOM     86  C   UNL A   1      45.472  25.172  34.479  1.00  0.00     0.031 A 
ATOM     87  C   UNL A   1      46.874  26.949  33.635  1.00  0.00     0.131 A 
ATOM     88  C   UNL A   1      46.521  24.772  35.316  1.00  0.00     0.055 A 
ATOM     89  C   UNL A   1      47.933  26.517  34.437  1.00  0.00     0.041 A 
ATOM     90  F   UNL A   1      47.069  28.032  32.867  1.00  0.00    -0.206 F 
ATOM     91  C   UNL A   1      47.752  25.436  35.296  1.00  0.00     0.022 A 
BRANCH  88  92
ATOM     92  S   UNL A   1      46.291  23.450  36.538  1.00  0.00     0.124 S 
ATOM     93  O   UNL A   1      47.627  22.859  36.599  1.00  0.00    -0.237 OA
ATOM     94  O   UNL A   1      45.884  24.197  37.726  1.00  0.00    -0.237 OA
ATOM     95  O   UNL A   1      45.262  22.601  35.949  1.00  0.00    -0.744 OA
ENDBRANCH  88  92
ENDBRANCH  62  85
ENDBRANCH  36  37
ENDBRANCH  29  31
ENDBRANCH  28  29
ENDBRANCH  27  28
ENDBRANCH   1  27
TORSDOF 17
ENDMDL
