MODEL 1
REMARK VINA RESULT:     -11.6      0.000      0.000
REMARK SMILES CC(C)(C)C[N@H+]1[C@@H](C(=O)OCCOC(=O)c2ccc(-c3c4nc(c(-c5cc(S(=O)(=O)[O-])ccc5F)c5ccc([nH]5)c(-c5cc(S(=O)(=O)[O-])ccc5F)c5nc(c(-c6cc(S(=O)(=O)[O-])ccc6F)c6ccc3[nH]6)C=C5)C=C4)cc2)CC[C@H]2CCCC[C@@H]21
REMARK SMILES IDX 12 1 11 2 10 3 8 4 9 5 7 6 6 7 86 8 79 10 81 11 85 12 80 13
REMARK SMILES IDX 82 14 84 15 83 16 5 17 2 18 1 19 3 20 4 21 13 22 14 23 15 24
REMARK SMILES IDX 16 25 17 26 78 27 18 28 77 29 19 30 20 31 21 32 71 33 22 34
REMARK SMILES IDX 76 35 70 36 72 37 23 38 75 39 69 40 68 41 24 43 56 44 36 45
REMARK SMILES IDX 55 46 37 47 40 48 54 49 73 50 38 51 39 52 53 54 74 55 41 56
REMARK SMILES IDX 25 57 26 58 34 59 27 60 33 61 35 62 32 63 28 64 29 65 30 66
REMARK SMILES IDX 31 67 57 68 58 69 66 70 59 71 65 72 67 73 64 74 60 75 61 76
REMARK SMILES IDX 62 77 63 78 42 79 43 80 51 81 44 82 50 83 52 84 49 85 45 86
REMARK SMILES IDX 46 87 47 88 48 89
REMARK H PARENT 6 9 72 42 40 53
REMARK Flexibility Score: inf
ROOT
ATOM      1  C   UNL A   1      36.171  21.203  25.442  1.00  0.00     0.275 C 
ENDROOT
BRANCH   1   2
ATOM      2  C   UNL A   1      35.057  21.777  24.559  1.00  0.00     0.274 C 
BRANCH   2   3
ATOM      3  O   UNL A   1      34.977  23.218  24.648  1.00  0.00    -0.458 OA
BRANCH   3   4
ATOM      4  C   UNL A   1      34.324  23.815  23.623  1.00  0.00     0.365 C 
ATOM      5  O   UNL A   1      34.532  23.526  22.443  1.00  0.00    -0.245 OA
BRANCH   4   6
ATOM      6  C   UNL A   1      33.433  25.002  23.980  1.00  0.00     0.295 C 
ATOM      7  N   UNL A   1      32.965  25.223  25.377  1.00  0.00    -0.320 N 
ATOM      8  C   UNL A   1      32.692  26.716  25.501  1.00  0.00     0.187 C 
ATOM      9  H   UNL A   1      33.712  24.799  25.926  1.00  0.00     0.349 HD
ATOM     10  C   UNL A   1      32.389  25.323  22.892  1.00  0.00     0.078 C 
ATOM     11  C   UNL A   1      32.406  27.452  24.154  1.00  0.00     0.048 C 
ATOM     12  C   UNL A   1      33.812  27.485  26.214  1.00  0.00     0.065 C 
ATOM     13  C   UNL A   1      31.582  26.583  23.215  1.00  0.00     0.016 C 
ATOM     14  C   UNL A   1      31.793  28.817  24.449  1.00  0.00     0.010 C 
ATOM     15  C   UNL A   1      33.356  28.932  26.478  1.00  0.00     0.006 C 
ATOM     16  C   UNL A   1      32.801  29.654  25.241  1.00  0.00     0.001 C 
BRANCH   7  17
ATOM     17  C   UNL A   1      31.723  24.567  25.896  1.00  0.00     0.269 C 
BRANCH  17  18
ATOM     18  C   UNL A   1      31.416  23.101  26.333  1.00  0.00     0.011 C 
ATOM     19  C   UNL A   1      30.066  23.000  27.037  1.00  0.00     0.017 C 
ATOM     20  C   UNL A   1      32.497  22.703  27.378  1.00  0.00     0.017 C 
ATOM     21  C   UNL A   1      31.510  22.074  25.206  1.00  0.00     0.017 C 
ENDBRANCH  17  18
ENDBRANCH   7  17
ENDBRANCH   4   6
ENDBRANCH   3   4
ENDBRANCH   2   3
ENDBRANCH   1   2
BRANCH   1  22
ATOM     22  O   UNL A   1      37.455  21.665  24.989  1.00  0.00    -0.458 OA
BRANCH  22  23
ATOM     23  C   UNL A   1      38.527  21.248  25.705  1.00  0.00     0.338 C 
ATOM     24  O   UNL A   1      38.880  20.090  25.862  1.00  0.00    -0.246 OA
BRANCH  23  25
ATOM     25  C   UNL A   1      39.262  22.407  26.276  1.00  0.00     0.060 A 
ATOM     26  C   UNL A   1      40.321  22.242  27.174  1.00  0.00     0.016 A 
ATOM     27  C   UNL A   1      38.821  23.697  25.972  1.00  0.00     0.016 A 
ATOM     28  C   UNL A   1      40.903  23.344  27.798  1.00  0.00     0.010 A 
ATOM     29  C   UNL A   1      39.473  24.806  26.522  1.00  0.00     0.010 A 
ATOM     30  C   UNL A   1      40.522  24.642  27.439  1.00  0.00    -0.014 A 
BRANCH  30  31
ATOM     31  C   UNL A   1      41.277  25.824  27.935  1.00  0.00     0.031 A 
ATOM     32  C   UNL A   1      40.585  26.911  28.709  1.00  0.00     0.074 A 
ATOM     33  C   UNL A   1      42.583  25.943  27.618  1.00  0.00     0.049 A 
ATOM     34  N   UNL A   1      41.008  28.113  29.003  1.00  0.00    -0.248 NA
ATOM     35  C   UNL A   1      39.235  26.609  29.205  1.00  0.00     0.031 C 
ATOM     36  C   UNL A   1      43.372  24.940  26.897  1.00  0.00     0.029 A 
ATOM     37  N   UNL A   1      43.472  26.964  27.838  1.00  0.00    -0.354 N 
ATOM     38  C   UNL A   1      39.966  28.729  29.689  1.00  0.00     0.074 A 
ATOM     39  C   UNL A   1      38.887  27.763  29.758  1.00  0.00     0.031 C 
ATOM     40  C   UNL A   1      44.624  25.390  26.741  1.00  0.00     0.029 A 
ATOM     41  C   UNL A   1      44.701  26.749  27.259  1.00  0.00     0.049 A 
ATOM     42  H   UNL A   1      43.253  27.771  28.358  1.00  0.00     0.167 HD
ATOM     43  C   UNL A   1      39.919  29.986  30.200  1.00  0.00     0.034 A 
ATOM     44  C   UNL A   1      45.755  27.572  27.093  1.00  0.00     0.034 A 
ATOM     45  C   UNL A   1      41.013  30.927  30.116  1.00  0.00     0.049 A 
ATOM     46  C   UNL A   1      45.660  28.977  27.612  1.00  0.00     0.074 A 
ATOM     47  C   UNL A   1      41.078  32.225  30.595  1.00  0.00     0.029 A 
ATOM     48  N   UNL A   1      42.237  30.672  29.508  1.00  0.00    -0.354 N 
ATOM     49  N   UNL A   1      44.649  29.566  28.208  1.00  0.00    -0.248 NA
ATOM     50  C   UNL A   1      46.839  29.829  27.430  1.00  0.00     0.031 C 
ATOM     51  C   UNL A   1      42.315  32.771  30.228  1.00  0.00     0.029 A 
ATOM     52  C   UNL A   1      43.052  31.793  29.580  1.00  0.00     0.049 A 
ATOM     53  H   UNL A   1      42.491  29.819  29.086  1.00  0.00     0.167 HD
ATOM     54  C   UNL A   1      45.076  30.860  28.482  1.00  0.00     0.074 A 
ATOM     55  C   UNL A   1      46.442  30.956  28.002  1.00  0.00     0.031 C 
ATOM     56  C   UNL A   1      44.402  31.877  29.075  1.00  0.00     0.034 A 
BRANCH  43  57
ATOM     57  C   UNL A   1      38.623  30.435  30.835  1.00  0.00     0.023 A 
ATOM     58  C   UNL A   1      37.597  31.044  30.091  1.00  0.00     0.031 A 
ATOM     59  C   UNL A   1      38.416  30.257  32.216  1.00  0.00     0.131 A 
ATOM     60  C   UNL A   1      36.439  31.503  30.740  1.00  0.00     0.055 A 
ATOM     61  C   UNL A   1      37.232  30.652  32.842  1.00  0.00     0.041 A 
ATOM     62  F   UNL A   1      39.367  29.700  32.983  1.00  0.00    -0.206 F 
ATOM     63  C   UNL A   1      36.240  31.292  32.106  1.00  0.00     0.022 A 
BRANCH  60  64
ATOM     64  S   UNL A   1      35.244  32.490  29.795  1.00  0.00     0.124 S 
ATOM     65  O   UNL A   1      34.802  31.534  28.783  1.00  0.00    -0.237 OA
ATOM     66  O   UNL A   1      34.259  32.848  30.809  1.00  0.00    -0.237 OA
ATOM     67  O   UNL A   1      36.044  33.601  29.284  1.00  0.00    -0.744 OA
ENDBRANCH  60  64
ENDBRANCH  43  57
BRANCH  44  68
ATOM     68  C   UNL A   1      46.949  27.102  26.337  1.00  0.00     0.023 A 
ATOM     69  C   UNL A   1      48.022  26.478  26.988  1.00  0.00     0.031 A 
ATOM     70  C   UNL A   1      47.022  27.259  24.939  1.00  0.00     0.131 A 
ATOM     71  C   UNL A   1      49.134  26.050  26.244  1.00  0.00     0.055 A 
ATOM     72  C   UNL A   1      48.106  26.787  24.200  1.00  0.00     0.041 A 
ATOM     73  F   UNL A   1      46.018  27.846  24.268  1.00  0.00    -0.206 F 
ATOM     74  C   UNL A   1      49.175  26.186  24.854  1.00  0.00     0.022 A 
BRANCH  71  75
ATOM     75  S   UNL A   1      50.557  25.362  27.131  1.00  0.00     0.124 S 
ATOM     76  O   UNL A   1      50.993  26.503  27.928  1.00  0.00    -0.237 OA
ATOM     77  O   UNL A   1      49.952  24.258  27.867  1.00  0.00    -0.237 OA
ATOM     78  O   UNL A   1      51.468  24.966  26.058  1.00  0.00    -0.744 OA
ENDBRANCH  71  75
ENDBRANCH  44  68
BRANCH  56  79
ATOM     79  C   UNL A   1      45.163  33.163  29.265  1.00  0.00     0.023 A 
ATOM     80  C   UNL A   1      45.138  34.182  28.297  1.00  0.00     0.031 A 
ATOM     81  C   UNL A   1      45.955  33.349  30.411  1.00  0.00     0.131 A 
ATOM     82  C   UNL A   1      45.938  35.321  28.467  1.00  0.00     0.055 A 
ATOM     83  C   UNL A   1      46.708  34.509  30.598  1.00  0.00     0.041 A 
ATOM     84  F   UNL A   1      46.015  32.404  31.361  1.00  0.00    -0.206 F 
ATOM     85  C   UNL A   1      46.713  35.497  29.617  1.00  0.00     0.022 A 
BRANCH  82  86
ATOM     86  S   UNL A   1      46.021  36.535  27.121  1.00  0.00     0.124 S 
ATOM     87  O   UNL A   1      46.409  35.703  25.987  1.00  0.00    -0.237 OA
ATOM     88  O   UNL A   1      44.661  37.062  27.091  1.00  0.00    -0.237 OA
ATOM     89  O   UNL A   1      47.041  37.480  27.575  1.00  0.00    -0.744 OA
ENDBRANCH  82  86
ENDBRANCH  56  79
ENDBRANCH  30  31
ENDBRANCH  23  25
ENDBRANCH  22  23
ENDBRANCH   1  22
TORSDOF 16
ENDMDL
MODEL 2
REMARK VINA RESULT:     -11.5      4.639      9.892
REMARK SMILES CC(C)(C)C[N@H+]1[C@@H](C(=O)OCCOC(=O)c2ccc(-c3c4nc(c(-c5cc(S(=O)(=O)[O-])ccc5F)c5ccc([nH]5)c(-c5cc(S(=O)(=O)[O-])ccc5F)c5nc(c(-c6cc(S(=O)(=O)[O-])ccc6F)c6ccc3[nH]6)C=C5)C=C4)cc2)CC[C@H]2CCCC[C@@H]21
REMARK SMILES IDX 12 1 11 2 10 3 8 4 9 5 7 6 6 7 86 8 79 10 81 11 85 12 80 13
REMARK SMILES IDX 82 14 84 15 83 16 5 17 2 18 1 19 3 20 4 21 13 22 14 23 15 24
REMARK SMILES IDX 16 25 17 26 78 27 18 28 77 29 19 30 20 31 21 32 71 33 22 34
REMARK SMILES IDX 76 35 70 36 72 37 23 38 75 39 69 40 68 41 24 43 56 44 36 45
REMARK SMILES IDX 55 46 37 47 40 48 54 49 73 50 38 51 39 52 53 54 74 55 41 56
REMARK SMILES IDX 25 57 26 58 34 59 27 60 33 61 35 62 32 63 28 64 29 65 30 66
REMARK SMILES IDX 31 67 57 68 58 69 66 70 59 71 65 72 67 73 64 74 60 75 61 76
REMARK SMILES IDX 62 77 63 78 42 79 43 80 51 81 44 82 50 83 52 84 49 85 45 86
REMARK SMILES IDX 46 87 47 88 48 89
REMARK H PARENT 6 9 72 42 40 53
REMARK Flexibility Score: inf
ROOT
ATOM      1  C   UNL A   1      31.797  29.432  26.614  1.00  0.00     0.275 C 
ENDROOT
BRANCH   1   2
ATOM      2  C   UNL A   1      31.685  28.181  25.737  1.00  0.00     0.274 C 
BRANCH   2   3
ATOM      3  O   UNL A   1      32.165  26.996  26.412  1.00  0.00    -0.458 OA
BRANCH   3   4
ATOM      4  C   UNL A   1      31.450  25.873  26.164  1.00  0.00     0.365 C 
ATOM      5  O   UNL A   1      30.271  25.746  26.498  1.00  0.00    -0.245 OA
BRANCH   4   6
ATOM      6  C   UNL A   1      32.224  24.683  25.600  1.00  0.00     0.295 C 
ATOM      7  N   UNL A   1      33.244  24.862  24.528  1.00  0.00    -0.320 N 
ATOM      8  C   UNL A   1      34.213  23.696  24.666  1.00  0.00     0.187 C 
ATOM      9  H   UNL A   1      33.571  25.813  24.696  1.00  0.00     0.349 HD
ATOM     10  C   UNL A   1      31.363  23.412  25.464  1.00  0.00     0.078 C 
ATOM     11  C   UNL A   1      33.636  22.436  25.386  1.00  0.00     0.048 C 
ATOM     12  C   UNL A   1      35.521  24.070  25.374  1.00  0.00     0.065 C 
ATOM     13  C   UNL A   1      32.181  22.202  25.006  1.00  0.00     0.016 C 
ATOM     14  C   UNL A   1      34.554  21.247  25.126  1.00  0.00     0.010 C 
ATOM     15  C   UNL A   1      36.513  22.894  25.279  1.00  0.00     0.006 C 
ATOM     16  C   UNL A   1      35.933  21.543  25.722  1.00  0.00     0.001 C 
BRANCH   7  17
ATOM     17  C   UNL A   1      32.860  24.867  23.081  1.00  0.00     0.269 C 
BRANCH  17  18
ATOM     18  C   UNL A   1      32.430  26.013  22.114  1.00  0.00     0.011 C 
ATOM     19  C   UNL A   1      32.528  25.578  20.654  1.00  0.00     0.017 C 
ATOM     20  C   UNL A   1      33.448  27.174  22.304  1.00  0.00     0.017 C 
ATOM     21  C   UNL A   1      31.050  26.600  22.406  1.00  0.00     0.017 C 
ENDBRANCH  17  18
ENDBRANCH   7  17
ENDBRANCH   4   6
ENDBRANCH   3   4
ENDBRANCH   2   3
ENDBRANCH   1   2
BRANCH   1  22
ATOM     22  O   UNL A   1      32.951  30.204  26.240  1.00  0.00    -0.458 OA
BRANCH  22  23
ATOM     23  C   UNL A   1      33.267  31.241  27.051  1.00  0.00     0.338 C 
ATOM     24  O   UNL A   1      32.581  32.232  27.251  1.00  0.00    -0.246 OA
BRANCH  23  25
ATOM     25  C   UNL A   1      34.578  31.013  27.713  1.00  0.00     0.060 A 
ATOM     26  C   UNL A   1      35.469  32.058  27.970  1.00  0.00     0.016 A 
ATOM     27  C   UNL A   1      34.964  29.702  28.004  1.00  0.00     0.016 A 
ATOM     28  C   UNL A   1      36.746  31.801  28.466  1.00  0.00     0.010 A 
ATOM     29  C   UNL A   1      36.207  29.454  28.596  1.00  0.00     0.010 A 
ATOM     30  C   UNL A   1      37.110  30.501  28.836  1.00  0.00    -0.014 A 
BRANCH  30  31
ATOM     31  C   UNL A   1      38.383  30.241  29.561  1.00  0.00     0.031 A 
ATOM     32  C   UNL A   1      39.416  29.307  28.996  1.00  0.00     0.074 A 
ATOM     33  C   UNL A   1      38.568  30.803  30.774  1.00  0.00     0.049 A 
ATOM     34  N   UNL A   1      40.454  28.770  29.583  1.00  0.00    -0.248 NA
ATOM     35  C   UNL A   1      39.250  28.917  27.589  1.00  0.00     0.031 C 
ATOM     36  C   UNL A   1      37.651  31.751  31.414  1.00  0.00     0.029 A 
ATOM     37  N   UNL A   1      39.572  30.645  31.695  1.00  0.00    -0.354 N 
ATOM     38  C   UNL A   1      41.050  27.949  28.631  1.00  0.00     0.074 A 
ATOM     39  C   UNL A   1      40.247  28.057  27.429  1.00  0.00     0.031 C 
ATOM     40  C   UNL A   1      38.136  32.093  32.615  1.00  0.00     0.029 A 
ATOM     41  C   UNL A   1      39.341  31.317  32.873  1.00  0.00     0.049 A 
ATOM     42  H   UNL A   1      40.378  30.104  31.530  1.00  0.00     0.167 HD
ATOM     43  C   UNL A   1      42.157  27.174  28.761  1.00  0.00     0.034 A 
ATOM     44  C   UNL A   1      39.979  31.267  34.057  1.00  0.00     0.034 A 
ATOM     45  C   UNL A   1      42.938  27.088  29.975  1.00  0.00     0.049 A 
ATOM     46  C   UNL A   1      41.165  30.357  34.199  1.00  0.00     0.074 A 
ATOM     47  C   UNL A   1      44.075  26.337  30.222  1.00  0.00     0.029 A 
ATOM     48  N   UNL A   1      42.661  27.777  31.150  1.00  0.00    -0.354 N 
ATOM     49  N   UNL A   1      41.686  29.542  33.310  1.00  0.00    -0.248 NA
ATOM     50  C   UNL A   1      41.844  30.353  35.498  1.00  0.00     0.031 C 
ATOM     51  C   UNL A   1      44.450  26.526  31.559  1.00  0.00     0.029 A 
ATOM     52  C   UNL A   1      43.589  27.450  32.129  1.00  0.00     0.049 A 
ATOM     53  H   UNL A   1      41.913  28.406  31.272  1.00  0.00     0.167 HD
ATOM     54  C   UNL A   1      42.762  28.933  33.943  1.00  0.00     0.074 A 
ATOM     55  C   UNL A   1      42.825  29.491  35.281  1.00  0.00     0.031 C 
ATOM     56  C   UNL A   1      43.621  27.999  33.465  1.00  0.00     0.034 A 
BRANCH  43  57
ATOM     57  C   UNL A   1      42.548  26.310  27.584  1.00  0.00     0.023 A 
ATOM     58  C   UNL A   1      42.063  25.000  27.425  1.00  0.00     0.031 A 
ATOM     59  C   UNL A   1      43.432  26.807  26.608  1.00  0.00     0.131 A 
ATOM     60  C   UNL A   1      42.509  24.214  26.348  1.00  0.00     0.055 A 
ATOM     61  C   UNL A   1      43.815  26.045  25.502  1.00  0.00     0.041 A 
ATOM     62  F   UNL A   1      43.944  28.043  26.716  1.00  0.00    -0.206 F 
ATOM     63  C   UNL A   1      43.363  24.735  25.374  1.00  0.00     0.022 A 
BRANCH  60  64
ATOM     64  S   UNL A   1      42.050  22.459  26.302  1.00  0.00     0.124 S 
ATOM     65  O   UNL A   1      42.645  21.963  27.541  1.00  0.00    -0.237 OA
ATOM     66  O   UNL A   1      40.593  22.515  26.271  1.00  0.00    -0.237 OA
ATOM     67  O   UNL A   1      42.682  21.971  25.078  1.00  0.00    -0.744 OA
ENDBRANCH  60  64
ENDBRANCH  43  57
BRANCH  44  68
ATOM     68  C   UNL A   1      39.455  32.045  35.214  1.00  0.00     0.023 A 
ATOM     69  C   UNL A   1      39.873  33.362  35.453  1.00  0.00     0.031 A 
ATOM     70  C   UNL A   1      38.511  31.479  36.092  1.00  0.00     0.131 A 
ATOM     71  C   UNL A   1      39.361  34.065  36.555  1.00  0.00     0.055 A 
ATOM     72  C   UNL A   1      37.968  32.199  37.155  1.00  0.00     0.041 A 
ATOM     73  F   UNL A   1      38.075  30.223  35.903  1.00  0.00    -0.206 F 
ATOM     74  C   UNL A   1      38.400  33.499  37.397  1.00  0.00     0.022 A 
BRANCH  71  75
ATOM     75  S   UNL A   1      40.013  35.719  36.908  1.00  0.00     0.124 S 
ATOM     76  O   UNL A   1      41.434  35.446  37.095  1.00  0.00    -0.237 OA
ATOM     77  O   UNL A   1      39.653  36.452  35.699  1.00  0.00    -0.237 OA
ATOM     78  O   UNL A   1      39.291  36.119  38.114  1.00  0.00    -0.744 OA
ENDBRANCH  71  75
ENDBRANCH  44  68
BRANCH  56  79
ATOM     79  C   UNL A   1      44.721  27.560  34.396  1.00  0.00     0.023 A 
ATOM     80  C   UNL A   1      44.586  26.420  35.208  1.00  0.00     0.031 A 
ATOM     81  C   UNL A   1      45.899  28.319  34.501  1.00  0.00     0.131 A 
ATOM     82  C   UNL A   1      45.591  26.103  36.132  1.00  0.00     0.055 A 
ATOM     83  C   UNL A   1      46.918  27.967  35.385  1.00  0.00     0.041 A 
ATOM     84  F   UNL A   1      46.072  29.418  33.750  1.00  0.00    -0.206 F 
ATOM     85  C   UNL A   1      46.762  26.862  36.217  1.00  0.00     0.022 A 
BRANCH  82  86
ATOM     86  S   UNL A   1      45.311  24.733  37.287  1.00  0.00     0.124 S 
ATOM     87  O   UNL A   1      44.796  23.692  36.404  1.00  0.00    -0.237 OA
ATOM     88  O   UNL A   1      46.646  24.504  37.831  1.00  0.00    -0.237 OA
ATOM     89  O   UNL A   1      44.342  25.277  38.237  1.00  0.00    -0.744 OA
ENDBRANCH  82  86
ENDBRANCH  56  79
ENDBRANCH  30  31
ENDBRANCH  23  25
ENDBRANCH  22  23
ENDBRANCH   1  22
TORSDOF 16
ENDMDL
MODEL 3
REMARK VINA RESULT:     -11.5      1.560      2.555
REMARK SMILES CC(C)(C)C[N@H+]1[C@@H](C(=O)OCCOC(=O)c2ccc(-c3c4nc(c(-c5cc(S(=O)(=O)[O-])ccc5F)c5ccc([nH]5)c(-c5cc(S(=O)(=O)[O-])ccc5F)c5nc(c(-c6cc(S(=O)(=O)[O-])ccc6F)c6ccc3[nH]6)C=C5)C=C4)cc2)CC[C@H]2CCCC[C@@H]21
REMARK SMILES IDX 12 1 11 2 10 3 8 4 9 5 7 6 6 7 86 8 79 10 81 11 85 12 80 13
REMARK SMILES IDX 82 14 84 15 83 16 5 17 2 18 1 19 3 20 4 21 13 22 14 23 15 24
REMARK SMILES IDX 16 25 17 26 78 27 18 28 77 29 19 30 20 31 21 32 71 33 22 34
REMARK SMILES IDX 76 35 70 36 72 37 23 38 75 39 69 40 68 41 24 43 56 44 36 45
REMARK SMILES IDX 55 46 37 47 40 48 54 49 73 50 38 51 39 52 53 54 74 55 41 56
REMARK SMILES IDX 25 57 26 58 34 59 27 60 33 61 35 62 32 63 28 64 29 65 30 66
REMARK SMILES IDX 31 67 57 68 58 69 66 70 59 71 65 72 67 73 64 74 60 75 61 76
REMARK SMILES IDX 62 77 63 78 42 79 43 80 51 81 44 82 50 83 52 84 49 85 45 86
REMARK SMILES IDX 46 87 47 88 48 89
REMARK H PARENT 6 9 72 42 40 53
REMARK Flexibility Score: inf
ROOT
ATOM      1  C   UNL A   1      36.969  21.055  24.776  1.00  0.00     0.275 C 
ENDROOT
BRANCH   1   2
ATOM      2  C   UNL A   1      35.543  21.533  24.482  1.00  0.00     0.274 C 
BRANCH   2   3
ATOM      3  O   UNL A   1      35.292  22.858  25.004  1.00  0.00    -0.458 OA
BRANCH   3   4
ATOM      4  C   UNL A   1      34.683  23.703  24.139  1.00  0.00     0.365 C 
ATOM      5  O   UNL A   1      35.141  23.959  23.024  1.00  0.00    -0.245 OA
BRANCH   4   6
ATOM      6  C   UNL A   1      33.478  24.474  24.673  1.00  0.00     0.295 C 
ATOM      7  N   UNL A   1      33.406  25.959  24.579  1.00  0.00    -0.320 N 
ATOM      8  C   UNL A   1      31.926  26.313  24.583  1.00  0.00     0.187 C 
ATOM      9  H   UNL A   1      33.970  26.151  23.752  1.00  0.00     0.349 HD
ATOM     10  C   UNL A   1      32.914  23.883  25.981  1.00  0.00     0.078 C 
ATOM     11  C   UNL A   1      30.989  25.242  25.225  1.00  0.00     0.048 C 
ATOM     12  C   UNL A   1      31.370  26.630  23.188  1.00  0.00     0.065 C 
ATOM     13  C   UNL A   1      31.640  24.597  26.439  1.00  0.00     0.016 C 
ATOM     14  C   UNL A   1      29.626  25.868  25.499  1.00  0.00     0.010 C 
ATOM     15  C   UNL A   1      29.936  27.177  23.317  1.00  0.00     0.006 C 
ATOM     16  C   UNL A   1      29.004  26.306  24.171  1.00  0.00     0.001 C 
BRANCH   7  17
ATOM     17  C   UNL A   1      34.008  26.836  25.633  1.00  0.00     0.269 C 
BRANCH  17  18
ATOM     18  C   UNL A   1      33.577  28.215  26.222  1.00  0.00     0.011 C 
ATOM     19  C   UNL A   1      33.239  29.212  25.117  1.00  0.00     0.017 C 
ATOM     20  C   UNL A   1      34.806  28.788  26.982  1.00  0.00     0.017 C 
ATOM     21  C   UNL A   1      32.440  28.138  27.239  1.00  0.00     0.017 C 
ENDBRANCH  17  18
ENDBRANCH   7  17
ENDBRANCH   4   6
ENDBRANCH   3   4
ENDBRANCH   2   3
ENDBRANCH   1   2
BRANCH   1  22
ATOM     22  O   UNL A   1      37.573  21.875  25.790  1.00  0.00    -0.458 OA
BRANCH  22  23
ATOM     23  C   UNL A   1      38.875  21.626  26.064  1.00  0.00     0.338 C 
ATOM     24  O   UNL A   1      39.462  20.573  25.871  1.00  0.00    -0.246 OA
BRANCH  23  25
ATOM     25  C   UNL A   1      39.537  22.834  26.624  1.00  0.00     0.060 A 
ATOM     26  C   UNL A   1      40.594  22.745  27.533  1.00  0.00     0.016 A 
ATOM     27  C   UNL A   1      39.025  24.092  26.295  1.00  0.00     0.016 A 
ATOM     28  C   UNL A   1      41.106  23.888  28.145  1.00  0.00     0.010 A 
ATOM     29  C   UNL A   1      39.605  25.245  26.834  1.00  0.00     0.010 A 
ATOM     30  C   UNL A   1      40.654  25.156  27.762  1.00  0.00    -0.014 A 
BRANCH  30  31
ATOM     31  C   UNL A   1      41.334  26.387  28.246  1.00  0.00     0.031 A 
ATOM     32  C   UNL A   1      40.564  27.465  28.956  1.00  0.00     0.074 A 
ATOM     33  C   UNL A   1      42.644  26.557  27.974  1.00  0.00     0.049 A 
ATOM     34  N   UNL A   1      40.919  28.694  29.226  1.00  0.00    -0.248 NA
ATOM     35  C   UNL A   1      39.211  27.116  29.411  1.00  0.00     0.031 C 
ATOM     36  C   UNL A   1      43.506  25.570  27.318  1.00  0.00     0.029 A 
ATOM     37  N   UNL A   1      43.477  27.625  28.193  1.00  0.00    -0.354 N 
ATOM     38  C   UNL A   1      39.824  29.281  29.851  1.00  0.00     0.074 A 
ATOM     39  C   UNL A   1      38.789  28.269  29.912  1.00  0.00     0.031 C 
ATOM     40  C   UNL A   1      44.741  26.073  27.193  1.00  0.00     0.029 A 
ATOM     41  C   UNL A   1      44.736  27.450  27.667  1.00  0.00     0.049 A 
ATOM     42  H   UNL A   1      43.201  28.437  28.677  1.00  0.00     0.167 HD
ATOM     43  C   UNL A   1      39.700  30.550  30.317  1.00  0.00     0.034 A 
ATOM     44  C   UNL A   1      45.757  28.315  27.513  1.00  0.00     0.034 A 
ATOM     45  C   UNL A   1      40.753  31.539  30.242  1.00  0.00     0.049 A 
ATOM     46  C   UNL A   1      45.578  29.731  27.981  1.00  0.00     0.074 A 
ATOM     47  C   UNL A   1      40.740  32.853  30.680  1.00  0.00     0.029 A 
ATOM     48  N   UNL A   1      42.010  31.323  29.690  1.00  0.00    -0.354 N 
ATOM     49  N   UNL A   1      44.519  30.291  28.519  1.00  0.00    -0.248 NA
ATOM     50  C   UNL A   1      46.723  30.631  27.815  1.00  0.00     0.031 C 
ATOM     51  C   UNL A   1      41.963  33.445  30.341  1.00  0.00     0.029 A 
ATOM     52  C   UNL A   1      42.769  32.483  29.755  1.00  0.00     0.049 A 
ATOM     53  H   UNL A   1      42.318  30.469  29.307  1.00  0.00     0.167 HD
ATOM     54  C   UNL A   1      44.875  31.611  28.765  1.00  0.00     0.074 A 
ATOM     55  C   UNL A   1      46.253  31.755  28.334  1.00  0.00     0.031 C 
ATOM     56  C   UNL A   1      44.133  32.613  29.298  1.00  0.00     0.034 A 
BRANCH  43  57
ATOM     57  C   UNL A   1      38.361  30.958  30.889  1.00  0.00     0.023 A 
ATOM     58  C   UNL A   1      37.363  31.556  30.100  1.00  0.00     0.031 A 
ATOM     59  C   UNL A   1      38.085  30.751  32.253  1.00  0.00     0.131 A 
ATOM     60  C   UNL A   1      36.161  31.978  30.692  1.00  0.00     0.055 A 
ATOM     61  C   UNL A   1      36.859  31.108  32.820  1.00  0.00     0.041 A 
ATOM     62  F   UNL A   1      39.005  30.203  33.061  1.00  0.00    -0.206 F 
ATOM     63  C   UNL A   1      35.893  31.737  32.041  1.00  0.00     0.022 A 
BRANCH  60  64
ATOM     64  S   UNL A   1      34.996  32.953  29.700  1.00  0.00     0.124 S 
ATOM     65  O   UNL A   1      35.870  33.981  29.139  1.00  0.00    -0.237 OA
ATOM     66  O   UNL A   1      34.482  31.968  28.756  1.00  0.00    -0.237 OA
ATOM     67  O   UNL A   1      34.029  33.438  30.683  1.00  0.00    -0.744 OA
ENDBRANCH  60  64
ENDBRANCH  43  57
BRANCH  44  68
ATOM     68  C   UNL A   1      46.999  27.878  26.819  1.00  0.00     0.023 A 
ATOM     69  C   UNL A   1      47.105  27.923  25.421  1.00  0.00     0.031 A 
ATOM     70  C   UNL A   1      48.110  27.420  27.553  1.00  0.00     0.131 A 
ATOM     71  C   UNL A   1      48.290  27.499  24.799  1.00  0.00     0.055 A 
ATOM     72  C   UNL A   1      49.302  27.048  26.932  1.00  0.00     0.041 A 
ATOM     73  F   UNL A   1      48.061  27.362  28.893  1.00  0.00    -0.206 F 
ATOM     74  C   UNL A   1      49.393  27.078  25.545  1.00  0.00     0.022 A 
BRANCH  71  75
ATOM     75  S   UNL A   1      48.349  27.453  22.987  1.00  0.00     0.124 S 
ATOM     76  O   UNL A   1      48.315  26.018  22.724  1.00  0.00    -0.237 OA
ATOM     77  O   UNL A   1      47.150  28.201  22.624  1.00  0.00    -0.237 OA
ATOM     78  O   UNL A   1      49.613  28.115  22.671  1.00  0.00    -0.744 OA
ENDBRANCH  71  75
ENDBRANCH  44  68
BRANCH  56  79
ATOM     79  C   UNL A   1      44.826  33.939  29.473  1.00  0.00     0.023 A 
ATOM     80  C   UNL A   1      44.784  34.928  28.475  1.00  0.00     0.031 A 
ATOM     81  C   UNL A   1      45.572  34.195  30.636  1.00  0.00     0.131 A 
ATOM     82  C   UNL A   1      45.524  36.109  28.635  1.00  0.00     0.055 A 
ATOM     83  C   UNL A   1      46.264  35.394  30.812  1.00  0.00     0.041 A 
ATOM     84  F   UNL A   1      45.646  33.280  31.615  1.00  0.00    -0.206 F 
ATOM     85  C   UNL A   1      46.253  36.353  29.803  1.00  0.00     0.022 A 
BRANCH  82  86
ATOM     86  S   UNL A   1      45.593  37.287  27.258  1.00  0.00     0.124 S 
ATOM     87  O   UNL A   1      46.212  38.450  27.886  1.00  0.00    -0.237 OA
ATOM     88  O   UNL A   1      46.412  36.578  26.280  1.00  0.00    -0.237 OA
ATOM     89  O   UNL A   1      44.191  37.458  26.882  1.00  0.00    -0.744 OA
ENDBRANCH  82  86
ENDBRANCH  56  79
ENDBRANCH  30  31
ENDBRANCH  23  25
ENDBRANCH  22  23
ENDBRANCH   1  22
TORSDOF 16
ENDMDL
