MODEL 1
REMARK VINA RESULT:     -11.7      0.000      0.000
REMARK SMILES C[C@H]1[C@@H]([NH2+]C[C@H]2CC[C@@H](C(=O)OCCOC(=O)c3ccc(-c4c5nc(c(-c6cc(S(=O)(=O)[O-])ccc6F)c6ccc([nH]6)c(-c6cc(S(=O)(=O)[O-])ccc6F)c6nc(c(-c7cc(S(=O)(=O)[O-])ccc7F)c7ccc4[nH]7)C=C6)C=C5)cc3)CC2)CCC[C@@H]1C
REMARK SMILES IDX 13 1 12 2 10 3 11 4 9 5 6 6 7 7 82 8 8 9 81 10 5 11 4 12
REMARK SMILES IDX 3 15 1 16 2 17 86 18 83 19 85 20 87 21 84 22 14 23 15 24
REMARK SMILES IDX 16 25 17 26 18 27 19 28 80 29 20 30 79 31 21 32 22 33 23 34
REMARK SMILES IDX 73 35 24 36 78 37 72 38 74 39 25 40 77 41 71 42 70 43 26 45
REMARK SMILES IDX 58 46 38 47 57 48 39 49 42 50 56 51 75 52 40 53 41 54 55 56
REMARK SMILES IDX 76 57 43 58 27 59 28 60 36 61 29 62 35 63 37 64 34 65 30 66
REMARK SMILES IDX 31 67 32 68 33 69 59 70 60 71 68 72 61 73 67 74 69 75 66 76
REMARK SMILES IDX 62 77 63 78 64 79 65 80 44 81 45 82 53 83 46 84 52 85 54 86
REMARK SMILES IDX 51 87 47 88 48 89 49 90 50 91
REMARK H PARENT 4 13 4 14 74 44 42 55
REMARK Flexibility Score: inf
ROOT
ATOM      1  C   UNL A   1      36.229  19.899  25.001  1.00  0.00     0.274 C 
ENDROOT
BRANCH   1   2
ATOM      2  O   UNL A   1      35.060  20.651  24.626  1.00  0.00    -0.462 OA
BRANCH   2   3
ATOM      3  C   UNL A   1      33.862  20.060  24.873  1.00  0.00     0.309 C 
ATOM      4  O   UNL A   1      33.510  18.983  24.405  1.00  0.00    -0.252 OA
BRANCH   3   5
ATOM      5  C   UNL A   1      32.956  20.891  25.773  1.00  0.00     0.099 C 
ATOM      6  C   UNL A   1      32.016  23.544  26.762  1.00  0.00     0.044 C 
ATOM      7  C   UNL A   1      31.214  22.706  25.752  1.00  0.00     0.010 C 
ATOM      8  C   UNL A   1      32.767  22.573  27.695  1.00  0.00     0.010 C 
ATOM      9  C   UNL A   1      32.112  21.817  24.901  1.00  0.00     0.016 C 
ATOM     10  C   UNL A   1      33.679  21.604  26.926  1.00  0.00     0.016 C 
BRANCH   6  11
ATOM     11  C   UNL A   1      33.014  24.558  26.139  1.00  0.00     0.264 C 
BRANCH  11  12
ATOM     12  N   UNL A   1      32.368  25.575  25.319  1.00  0.00    -0.343 N 
ATOM     13  H   UNL A   1      33.072  26.273  25.079  1.00  0.00     0.346 HD
ATOM     14  H   UNL A   1      31.979  25.070  24.523  1.00  0.00     0.346 HD
BRANCH  12  15
ATOM     15  C   UNL A   1      31.225  26.284  25.918  1.00  0.00     0.185 C 
ATOM     16  C   UNL A   1      29.848  25.645  23.854  1.00  0.00     0.014 C 
ATOM     17  C   UNL A   1      30.276  26.789  24.783  1.00  0.00     0.047 C 
ATOM     18  C   UNL A   1      30.896  27.988  24.002  1.00  0.00    -0.006 C 
ATOM     19  C   UNL A   1      31.551  27.476  26.844  1.00  0.00     0.065 C 
ATOM     20  C   UNL A   1      31.274  29.129  24.961  1.00  0.00     0.004 C 
ATOM     21  C   UNL A   1      29.961  28.528  22.915  1.00  0.00     0.008 C 
ATOM     22  C   UNL A   1      32.163  28.664  26.108  1.00  0.00     0.006 C 
ENDBRANCH  12  15
ENDBRANCH  11  12
ENDBRANCH   6  11
ENDBRANCH   3   5
ENDBRANCH   2   3
ENDBRANCH   1   2
BRANCH   1  23
ATOM     23  C   UNL A   1      37.510  20.649  24.632  1.00  0.00     0.275 C 
BRANCH  23  24
ATOM     24  O   UNL A   1      37.944  21.497  25.711  1.00  0.00    -0.458 OA
BRANCH  24  25
ATOM     25  C   UNL A   1      39.194  21.246  26.167  1.00  0.00     0.338 C 
ATOM     26  O   UNL A   1      39.839  20.221  26.036  1.00  0.00    -0.246 OA
BRANCH  25  27
ATOM     27  C   UNL A   1      39.741  22.464  26.780  1.00  0.00     0.060 A 
ATOM     28  C   UNL A   1      39.261  23.695  26.337  1.00  0.00     0.016 A 
ATOM     29  C   UNL A   1      40.791  22.404  27.693  1.00  0.00     0.016 A 
ATOM     30  C   UNL A   1      39.837  24.880  26.775  1.00  0.00     0.010 A 
ATOM     31  C   UNL A   1      41.352  23.598  28.161  1.00  0.00     0.010 A 
ATOM     32  C   UNL A   1      40.889  24.842  27.690  1.00  0.00    -0.014 A 
BRANCH  32  33
ATOM     33  C   UNL A   1      41.553  26.103  28.100  1.00  0.00     0.031 A 
ATOM     34  C   UNL A   1      40.765  27.144  28.842  1.00  0.00     0.074 A 
ATOM     35  C   UNL A   1      42.852  26.307  27.814  1.00  0.00     0.049 A 
ATOM     36  N   UNL A   1      41.090  28.374  29.141  1.00  0.00    -0.248 NA
ATOM     37  C   UNL A   1      39.425  26.743  29.291  1.00  0.00     0.031 C 
ATOM     38  C   UNL A   1      43.732  25.343  27.152  1.00  0.00     0.029 A 
ATOM     39  N   UNL A   1      43.654  27.400  28.030  1.00  0.00    -0.354 N 
ATOM     40  C   UNL A   1      39.977  28.913  29.779  1.00  0.00     0.074 A 
ATOM     41  C   UNL A   1      38.966  27.875  29.805  1.00  0.00     0.031 C 
ATOM     42  C   UNL A   1      44.946  25.894  26.999  1.00  0.00     0.029 A 
ATOM     43  C   UNL A   1      44.911  27.268  27.489  1.00  0.00     0.049 A 
ATOM     44  H   UNL A   1      43.358  28.199  28.523  1.00  0.00     0.167 HD
ATOM     45  C   UNL A   1      39.819  30.160  30.290  1.00  0.00     0.034 A 
ATOM     46  C   UNL A   1      45.903  28.169  27.352  1.00  0.00     0.034 A 
ATOM     47  C   UNL A   1      40.851  31.169  30.263  1.00  0.00     0.049 A 
ATOM     48  C   UNL A   1      45.690  29.566  27.872  1.00  0.00     0.074 A 
ATOM     49  C   UNL A   1      40.816  32.455  30.771  1.00  0.00     0.029 A 
ATOM     50  N   UNL A   1      42.107  31.006  29.688  1.00  0.00    -0.354 N 
ATOM     51  N   UNL A   1      44.626  30.079  28.446  1.00  0.00    -0.248 NA
ATOM     52  C   UNL A   1      46.809  30.505  27.722  1.00  0.00     0.031 C 
ATOM     53  C   UNL A   1      42.023  33.088  30.449  1.00  0.00     0.029 A 
ATOM     54  C   UNL A   1      42.841  32.177  29.800  1.00  0.00     0.049 A 
ATOM     55  H   UNL A   1      42.427  30.178  29.263  1.00  0.00     0.167 HD
ATOM     56  C   UNL A   1      44.951  31.400  28.734  1.00  0.00     0.074 A 
ATOM     57  C   UNL A   1      46.315  31.598  28.286  1.00  0.00     0.031 C 
ATOM     58  C   UNL A   1      44.193  32.362  29.322  1.00  0.00     0.034 A 
BRANCH  45  59
ATOM     59  C   UNL A   1      38.457  30.508  30.843  1.00  0.00     0.023 A 
ATOM     60  C   UNL A   1      37.456  31.097  30.051  1.00  0.00     0.031 A 
ATOM     61  C   UNL A   1      38.183  30.311  32.209  1.00  0.00     0.131 A 
ATOM     62  C   UNL A   1      36.269  31.551  30.648  1.00  0.00     0.055 A 
ATOM     63  C   UNL A   1      36.965  30.688  32.779  1.00  0.00     0.041 A 
ATOM     64  F   UNL A   1      39.107  29.773  33.021  1.00  0.00    -0.206 F 
ATOM     65  C   UNL A   1      36.008  31.331  32.002  1.00  0.00     0.022 A 
BRANCH  62  66
ATOM     66  S   UNL A   1      35.150  32.590  29.667  1.00  0.00     0.124 S 
ATOM     67  O   UNL A   1      36.069  33.591  29.129  1.00  0.00    -0.237 OA
ATOM     68  O   UNL A   1      34.603  31.642  28.704  1.00  0.00    -0.237 OA
ATOM     69  O   UNL A   1      34.200  33.098  30.655  1.00  0.00    -0.744 OA
ENDBRANCH  62  66
ENDBRANCH  45  59
BRANCH  46  70
ATOM     70  C   UNL A   1      47.142  27.796  26.618  1.00  0.00     0.023 A 
ATOM     71  C   UNL A   1      47.225  27.892  25.222  1.00  0.00     0.031 A 
ATOM     72  C   UNL A   1      48.274  27.340  27.320  1.00  0.00     0.131 A 
ATOM     73  C   UNL A   1      48.411  27.519  24.568  1.00  0.00     0.055 A 
ATOM     74  C   UNL A   1      49.463  27.012  26.670  1.00  0.00     0.041 A 
ATOM     75  F   UNL A   1      48.245  27.236  28.659  1.00  0.00    -0.206 F 
ATOM     76  C   UNL A   1      49.534  27.093  25.284  1.00  0.00     0.022 A 
BRANCH  73  77
ATOM     77  S   UNL A   1      48.457  27.562  22.756  1.00  0.00     0.124 S 
ATOM     78  O   UNL A   1      49.695  28.291  22.506  1.00  0.00    -0.237 OA
ATOM     79  O   UNL A   1      48.470  26.142  22.418  1.00  0.00    -0.237 OA
ATOM     80  O   UNL A   1      47.231  28.272  22.399  1.00  0.00    -0.744 OA
ENDBRANCH  73  77
ENDBRANCH  46  70
BRANCH  58  81
ATOM     81  C   UNL A   1      44.844  33.703  29.535  1.00  0.00     0.023 A 
ATOM     82  C   UNL A   1      44.665  34.763  28.629  1.00  0.00     0.031 A 
ATOM     83  C   UNL A   1      45.663  33.919  30.658  1.00  0.00     0.131 A 
ATOM     84  C   UNL A   1      45.332  35.980  28.840  1.00  0.00     0.055 A 
ATOM     85  C   UNL A   1      46.283  35.147  30.889  1.00  0.00     0.041 A 
ATOM     86  F   UNL A   1      45.868  32.938  31.551  1.00  0.00    -0.206 F 
ATOM     87  C   UNL A   1      46.128  36.183  29.971  1.00  0.00     0.022 A 
BRANCH  84  88
ATOM     88  S   UNL A   1      45.203  37.276  27.578  1.00  0.00     0.124 S 
ATOM     89  O   UNL A   1      44.921  38.458  28.385  1.00  0.00    -0.237 OA
ATOM     90  O   UNL A   1      46.519  37.231  26.948  1.00  0.00    -0.237 OA
ATOM     91  O   UNL A   1      44.098  36.823  26.733  1.00  0.00    -0.744 OA
ENDBRANCH  84  88
ENDBRANCH  58  81
ENDBRANCH  32  33
ENDBRANCH  25  27
ENDBRANCH  24  25
ENDBRANCH  23  24
ENDBRANCH   1  23
TORSDOF 17
ENDMDL
MODEL 2
REMARK VINA RESULT:     -11.7      5.160     10.230
REMARK SMILES C[C@H]1[C@@H]([NH2+]C[C@H]2CC[C@@H](C(=O)OCCOC(=O)c3ccc(-c4c5nc(c(-c6cc(S(=O)(=O)[O-])ccc6F)c6ccc([nH]6)c(-c6cc(S(=O)(=O)[O-])ccc6F)c6nc(c(-c7cc(S(=O)(=O)[O-])ccc7F)c7ccc4[nH]7)C=C6)C=C5)cc3)CC2)CCC[C@@H]1C
REMARK SMILES IDX 13 1 12 2 10 3 11 4 9 5 6 6 7 7 82 8 8 9 81 10 5 11 4 12
REMARK SMILES IDX 3 15 1 16 2 17 86 18 83 19 85 20 87 21 84 22 14 23 15 24
REMARK SMILES IDX 16 25 17 26 18 27 19 28 80 29 20 30 79 31 21 32 22 33 23 34
REMARK SMILES IDX 73 35 24 36 78 37 72 38 74 39 25 40 77 41 71 42 70 43 26 45
REMARK SMILES IDX 58 46 38 47 57 48 39 49 42 50 56 51 75 52 40 53 41 54 55 56
REMARK SMILES IDX 76 57 43 58 27 59 28 60 36 61 29 62 35 63 37 64 34 65 30 66
REMARK SMILES IDX 31 67 32 68 33 69 59 70 60 71 68 72 61 73 67 74 69 75 66 76
REMARK SMILES IDX 62 77 63 78 64 79 65 80 44 81 45 82 53 83 46 84 52 85 54 86
REMARK SMILES IDX 51 87 47 88 48 89 49 90 50 91
REMARK H PARENT 4 13 4 14 74 44 42 55
REMARK Flexibility Score: inf
ROOT
ATOM      1  C   UNL A   1      31.202  29.693  24.825  1.00  0.00     0.274 C 
ENDROOT
BRANCH   1   2
ATOM      2  O   UNL A   1      31.328  29.174  23.488  1.00  0.00    -0.462 OA
BRANCH   2   3
ATOM      3  C   UNL A   1      30.926  27.890  23.302  1.00  0.00     0.309 C 
ATOM      4  O   UNL A   1      30.522  27.437  22.237  1.00  0.00    -0.252 OA
BRANCH   3   5
ATOM      5  C   UNL A   1      30.984  27.052  24.572  1.00  0.00     0.099 C 
ATOM      6  C   UNL A   1      31.170  24.395  25.917  1.00  0.00     0.044 C 
ATOM      7  C   UNL A   1      32.371  25.349  25.800  1.00  0.00     0.010 C 
ATOM      8  C   UNL A   1      29.892  25.252  26.030  1.00  0.00     0.010 C 
ATOM      9  C   UNL A   1      32.278  26.243  24.569  1.00  0.00     0.016 C 
ATOM     10  C   UNL A   1      29.724  26.217  24.847  1.00  0.00     0.016 C 
BRANCH   6  11
ATOM     11  C   UNL A   1      31.021  23.371  24.758  1.00  0.00     0.264 C 
BRANCH  11  12
ATOM     12  N   UNL A   1      31.829  22.172  24.940  1.00  0.00    -0.343 N 
ATOM     13  H   UNL A   1      32.575  22.399  25.597  1.00  0.00     0.346 HD
ATOM     14  H   UNL A   1      31.178  21.457  25.263  1.00  0.00     0.346 HD
BRANCH  12  15
ATOM     15  C   UNL A   1      32.456  21.604  23.735  1.00  0.00     0.185 C 
ATOM     16  C   UNL A   1      33.249  19.636  25.171  1.00  0.00     0.014 C 
ATOM     17  C   UNL A   1      33.665  20.708  24.154  1.00  0.00     0.047 C 
ATOM     18  C   UNL A   1      34.873  21.561  24.649  1.00  0.00    -0.006 C 
ATOM     19  C   UNL A   1      32.941  22.604  22.663  1.00  0.00     0.065 C 
ATOM     20  C   UNL A   1      35.286  22.594  23.588  1.00  0.00     0.004 C 
ATOM     21  C   UNL A   1      36.086  20.702  25.021  1.00  0.00     0.008 C 
ATOM     22  C   UNL A   1      34.120  23.457  23.121  1.00  0.00     0.006 C 
ENDBRANCH  12  15
ENDBRANCH  11  12
ENDBRANCH   6  11
ENDBRANCH   3   5
ENDBRANCH   2   3
ENDBRANCH   1   2
BRANCH   1  23
ATOM     23  C   UNL A   1      32.566  30.088  25.394  1.00  0.00     0.275 C 
BRANCH  23  24
ATOM     24  O   UNL A   1      32.480  30.363  26.804  1.00  0.00    -0.458 OA
BRANCH  24  25
ATOM     25  C   UNL A   1      33.063  31.519  27.198  1.00  0.00     0.338 C 
ATOM     26  O   UNL A   1      32.565  32.630  27.221  1.00  0.00    -0.246 OA
BRANCH  25  27
ATOM     27  C   UNL A   1      34.406  31.232  27.721  1.00  0.00     0.060 A 
ATOM     28  C   UNL A   1      34.700  29.923  28.095  1.00  0.00     0.016 A 
ATOM     29  C   UNL A   1      35.326  32.254  27.947  1.00  0.00     0.016 A 
ATOM     30  C   UNL A   1      35.900  29.617  28.724  1.00  0.00     0.010 A 
ATOM     31  C   UNL A   1      36.549  31.943  28.551  1.00  0.00     0.010 A 
ATOM     32  C   UNL A   1      36.835  30.626  28.960  1.00  0.00    -0.014 A 
BRANCH  32  33
ATOM     33  C   UNL A   1      38.083  30.313  29.698  1.00  0.00     0.031 A 
ATOM     34  C   UNL A   1      39.077  29.363  29.098  1.00  0.00     0.074 A 
ATOM     35  C   UNL A   1      38.322  30.885  30.894  1.00  0.00     0.049 A 
ATOM     36  N   UNL A   1      40.137  28.820  29.636  1.00  0.00    -0.248 NA
ATOM     37  C   UNL A   1      38.829  28.961  27.706  1.00  0.00     0.031 C 
ATOM     38  C   UNL A   1      37.457  31.869  31.547  1.00  0.00     0.029 A 
ATOM     39  N   UNL A   1      39.355  30.706  31.778  1.00  0.00    -0.354 N 
ATOM     40  C   UNL A   1      40.664  27.976  28.664  1.00  0.00     0.074 A 
ATOM     41  C   UNL A   1      39.791  28.072  27.510  1.00  0.00     0.031 C 
ATOM     42  C   UNL A   1      37.986  32.193  32.737  1.00  0.00     0.029 A 
ATOM     43  C   UNL A   1      39.187  31.393  32.957  1.00  0.00     0.049 A 
ATOM     44  H   UNL A   1      40.139  30.143  31.588  1.00  0.00     0.167 HD
ATOM     45  C   UNL A   1      41.770  27.195  28.735  1.00  0.00     0.034 A 
ATOM     46  C   UNL A   1      39.887  31.341  34.107  1.00  0.00     0.034 A 
ATOM     47  C   UNL A   1      42.630  27.132  29.893  1.00  0.00     0.049 A 
ATOM     48  C   UNL A   1      41.078  30.425  34.190  1.00  0.00     0.074 A 
ATOM     49  C   UNL A   1      43.789  26.400  30.072  1.00  0.00     0.029 A 
ATOM     50  N   UNL A   1      42.416  27.828  31.078  1.00  0.00    -0.354 N 
ATOM     51  N   UNL A   1      41.554  29.607  33.279  1.00  0.00    -0.248 NA
ATOM     52  C   UNL A   1      41.824  30.422  35.454  1.00  0.00     0.031 C 
ATOM     53  C   UNL A   1      44.240  26.603  31.382  1.00  0.00     0.029 A 
ATOM     54  C   UNL A   1      43.403  27.516  32.002  1.00  0.00     0.049 A 
ATOM     55  H   UNL A   1      41.671  28.451  31.239  1.00  0.00     0.167 HD
ATOM     56  C   UNL A   1      42.662  28.997  33.858  1.00  0.00     0.074 A 
ATOM     57  C   UNL A   1      42.792  29.555  35.190  1.00  0.00     0.031 C 
ATOM     58  C   UNL A   1      43.500  28.065  33.335  1.00  0.00     0.034 A 
BRANCH  45  59
ATOM     59  C   UNL A   1      42.054  26.297  27.553  1.00  0.00     0.023 A 
ATOM     60  C   UNL A   1      41.565  24.981  27.479  1.00  0.00     0.031 A 
ATOM     61  C   UNL A   1      42.892  26.746  26.516  1.00  0.00     0.131 A 
ATOM     62  C   UNL A   1      41.990  24.134  26.443  1.00  0.00     0.055 A 
ATOM     63  C   UNL A   1      43.243  25.924  25.443  1.00  0.00     0.041 A 
ATOM     64  F   UNL A   1      43.408  27.985  26.541  1.00  0.00    -0.206 F 
ATOM     65  C   UNL A   1      42.808  24.604  25.413  1.00  0.00     0.022 A 
BRANCH  62  66
ATOM     66  S   UNL A   1      41.602  22.365  26.557  1.00  0.00     0.124 S 
ATOM     67  O   UNL A   1      42.323  21.828  25.403  1.00  0.00    -0.237 OA
ATOM     68  O   UNL A   1      42.138  22.010  27.866  1.00  0.00    -0.237 OA
ATOM     69  O   UNL A   1      40.146  22.325  26.444  1.00  0.00    -0.744 OA
ENDBRANCH  62  66
ENDBRANCH  45  59
BRANCH  46  70
ATOM     70  C   UNL A   1      39.421  32.115  35.290  1.00  0.00     0.023 A 
ATOM     71  C   UNL A   1      38.672  31.515  36.311  1.00  0.00     0.031 A 
ATOM     72  C   UNL A   1      39.734  33.482  35.412  1.00  0.00     0.131 A 
ATOM     73  C   UNL A   1      38.243  32.284  37.405  1.00  0.00     0.055 A 
ATOM     74  C   UNL A   1      39.343  34.232  36.521  1.00  0.00     0.041 A 
ATOM     75  F   UNL A   1      40.454  34.101  34.462  1.00  0.00    -0.206 F 
ATOM     76  C   UNL A   1      38.586  33.635  37.523  1.00  0.00     0.022 A 
BRANCH  73  77
ATOM     77  S   UNL A   1      37.195  31.505  38.662  1.00  0.00     0.124 S 
ATOM     78  O   UNL A   1      36.012  32.357  38.634  1.00  0.00    -0.237 OA
ATOM     79  O   UNL A   1      37.028  30.158  38.126  1.00  0.00    -0.237 OA
ATOM     80  O   UNL A   1      37.999  31.592  39.879  1.00  0.00    -0.744 OA
ENDBRANCH  73  77
ENDBRANCH  46  70
BRANCH  58  81
ATOM     81  C   UNL A   1      44.646  27.619  34.205  1.00  0.00     0.023 A 
ATOM     82  C   UNL A   1      44.531  26.516  35.070  1.00  0.00     0.031 A 
ATOM     83  C   UNL A   1      45.868  28.315  34.173  1.00  0.00     0.131 A 
ATOM     84  C   UNL A   1      45.608  26.167  35.900  1.00  0.00     0.055 A 
ATOM     85  C   UNL A   1      46.951  27.933  34.964  1.00  0.00     0.041 A 
ATOM     86  F   UNL A   1      46.027  29.377  33.367  1.00  0.00    -0.206 F 
ATOM     87  C   UNL A   1      46.821  26.859  35.842  1.00  0.00     0.022 A 
BRANCH  84  88
ATOM     88  S   UNL A   1      45.380  24.837  37.112  1.00  0.00     0.124 S 
ATOM     89  O   UNL A   1      43.935  24.854  37.311  1.00  0.00    -0.237 OA
ATOM     90  O   UNL A   1      45.915  23.677  36.408  1.00  0.00    -0.237 OA
ATOM     91  O   UNL A   1      46.169  25.282  38.260  1.00  0.00    -0.744 OA
ENDBRANCH  84  88
ENDBRANCH  58  81
ENDBRANCH  32  33
ENDBRANCH  25  27
ENDBRANCH  24  25
ENDBRANCH  23  24
ENDBRANCH   1  23
TORSDOF 17
ENDMDL
MODEL 3
REMARK VINA RESULT:     -11.6      5.122     10.206
REMARK SMILES C[C@H]1[C@@H]([NH2+]C[C@H]2CC[C@@H](C(=O)OCCOC(=O)c3ccc(-c4c5nc(c(-c6cc(S(=O)(=O)[O-])ccc6F)c6ccc([nH]6)c(-c6cc(S(=O)(=O)[O-])ccc6F)c6nc(c(-c7cc(S(=O)(=O)[O-])ccc7F)c7ccc4[nH]7)C=C6)C=C5)cc3)CC2)CCC[C@@H]1C
REMARK SMILES IDX 13 1 12 2 10 3 11 4 9 5 6 6 7 7 82 8 8 9 81 10 5 11 4 12
REMARK SMILES IDX 3 15 1 16 2 17 86 18 83 19 85 20 87 21 84 22 14 23 15 24
REMARK SMILES IDX 16 25 17 26 18 27 19 28 80 29 20 30 79 31 21 32 22 33 23 34
REMARK SMILES IDX 73 35 24 36 78 37 72 38 74 39 25 40 77 41 71 42 70 43 26 45
REMARK SMILES IDX 58 46 38 47 57 48 39 49 42 50 56 51 75 52 40 53 41 54 55 56
REMARK SMILES IDX 76 57 43 58 27 59 28 60 36 61 29 62 35 63 37 64 34 65 30 66
REMARK SMILES IDX 31 67 32 68 33 69 59 70 60 71 68 72 61 73 67 74 69 75 66 76
REMARK SMILES IDX 62 77 63 78 64 79 65 80 44 81 45 82 53 83 46 84 52 85 54 86
REMARK SMILES IDX 51 87 47 88 48 89 49 90 50 91
REMARK H PARENT 4 13 4 14 74 44 42 55
REMARK Flexibility Score: inf
ROOT
ATOM      1  C   UNL A   1      31.850  29.362  24.458  1.00  0.00     0.274 C 
ENDROOT
BRANCH   1   2
ATOM      2  O   UNL A   1      30.615  28.690  24.148  1.00  0.00    -0.462 OA
BRANCH   2   3
ATOM      3  C   UNL A   1      30.451  28.300  22.857  1.00  0.00     0.309 C 
ATOM      4  O   UNL A   1      29.934  28.990  21.985  1.00  0.00    -0.252 OA
BRANCH   3   5
ATOM      5  C   UNL A   1      30.942  26.883  22.590  1.00  0.00     0.099 C 
ATOM      6  C   UNL A   1      32.747  24.600  23.245  1.00  0.00     0.044 C 
ATOM      7  C   UNL A   1      31.266  24.629  23.659  1.00  0.00     0.010 C 
ATOM      8  C   UNL A   1      32.881  25.357  21.907  1.00  0.00     0.010 C 
ATOM      9  C   UNL A   1      30.751  26.050  23.853  1.00  0.00     0.016 C 
ATOM     10  C   UNL A   1      32.354  26.797  21.990  1.00  0.00     0.016 C 
BRANCH   6  11
ATOM     11  C   UNL A   1      33.739  25.186  24.286  1.00  0.00     0.264 C 
BRANCH  11  12
ATOM     12  N   UNL A   1      34.893  24.330  24.530  1.00  0.00    -0.343 N 
ATOM     13  H   UNL A   1      34.972  23.687  23.743  1.00  0.00     0.346 HD
ATOM     14  H   UNL A   1      35.681  24.968  24.639  1.00  0.00     0.346 HD
BRANCH  12  15
ATOM     15  C   UNL A   1      34.876  23.526  25.762  1.00  0.00     0.185 C 
ATOM     16  C   UNL A   1      37.434  23.672  25.798  1.00  0.00     0.014 C 
ATOM     17  C   UNL A   1      36.220  22.737  25.884  1.00  0.00     0.047 C 
ATOM     18  C   UNL A   1      36.298  21.566  24.857  1.00  0.00    -0.006 C 
ATOM     19  C   UNL A   1      33.710  22.527  25.928  1.00  0.00     0.065 C 
ATOM     20  C   UNL A   1      35.087  20.630  25.001  1.00  0.00     0.004 C 
ATOM     21  C   UNL A   1      37.588  20.751  24.992  1.00  0.00     0.008 C 
ATOM     22  C   UNL A   1      33.757  21.371  24.933  1.00  0.00     0.006 C 
ENDBRANCH  12  15
ENDBRANCH  11  12
ENDBRANCH   6  11
ENDBRANCH   3   5
ENDBRANCH   2   3
ENDBRANCH   1   2
BRANCH   1  23
ATOM     23  C   UNL A   1      31.681  30.304  25.650  1.00  0.00     0.275 C 
BRANCH  23  24
ATOM     24  O   UNL A   1      32.744  30.129  26.604  1.00  0.00    -0.458 OA
BRANCH  24  25
ATOM     25  C   UNL A   1      33.226  31.275  27.141  1.00  0.00     0.338 C 
ATOM     26  O   UNL A   1      32.646  32.340  27.256  1.00  0.00    -0.246 OA
BRANCH  25  27
ATOM     27  C   UNL A   1      34.567  31.029  27.689  1.00  0.00     0.060 A 
ATOM     28  C   UNL A   1      34.916  29.719  28.008  1.00  0.00     0.016 A 
ATOM     29  C   UNL A   1      35.427  32.082  27.992  1.00  0.00     0.016 A 
ATOM     30  C   UNL A   1      36.111  29.441  28.658  1.00  0.00     0.010 A 
ATOM     31  C   UNL A   1      36.647  31.801  28.617  1.00  0.00     0.010 A 
ATOM     32  C   UNL A   1      36.988  30.481  28.970  1.00  0.00    -0.014 A 
BRANCH  32  33
ATOM     33  C   UNL A   1      38.229  30.193  29.729  1.00  0.00     0.031 A 
ATOM     34  C   UNL A   1      39.246  29.252  29.152  1.00  0.00     0.074 A 
ATOM     35  C   UNL A   1      38.442  30.779  30.923  1.00  0.00     0.049 A 
ATOM     36  N   UNL A   1      40.306  28.730  29.711  1.00  0.00    -0.248 NA
ATOM     37  C   UNL A   1      39.024  28.834  27.761  1.00  0.00     0.031 C 
ATOM     38  C   UNL A   1      37.553  31.755  31.554  1.00  0.00     0.029 A 
ATOM     39  N   UNL A   1      39.464  30.623  31.824  1.00  0.00    -0.354 N 
ATOM     40  C   UNL A   1      40.859  27.886  28.754  1.00  0.00     0.074 A 
ATOM     41  C   UNL A   1      40.003  27.958  27.587  1.00  0.00     0.031 C 
ATOM     42  C   UNL A   1      38.060  32.098  32.749  1.00  0.00     0.029 A 
ATOM     43  C   UNL A   1      39.268  31.318  32.994  1.00  0.00     0.049 A 
ATOM     44  H   UNL A   1      40.259  30.070  31.650  1.00  0.00     0.167 HD
ATOM     45  C   UNL A   1      41.976  27.121  28.848  1.00  0.00     0.034 A 
ATOM     46  C   UNL A   1      39.952  31.286  34.155  1.00  0.00     0.034 A 
ATOM     47  C   UNL A   1      42.819  27.082  30.019  1.00  0.00     0.049 A 
ATOM     48  C   UNL A   1      41.155  30.389  34.263  1.00  0.00     0.074 A 
ATOM     49  C   UNL A   1      43.986  26.369  30.221  1.00  0.00     0.029 A 
ATOM     50  N   UNL A   1      42.577  27.785  31.195  1.00  0.00    -0.354 N 
ATOM     51  N   UNL A   1      41.656  29.570  33.367  1.00  0.00    -0.248 NA
ATOM     52  C   UNL A   1      41.882  30.407  35.538  1.00  0.00     0.031 C 
ATOM     53  C   UNL A   1      44.415  26.590  31.536  1.00  0.00     0.029 A 
ATOM     54  C   UNL A   1      43.554  27.496  32.136  1.00  0.00     0.049 A 
ATOM     55  H   UNL A   1      41.821  28.398  31.339  1.00  0.00     0.167 HD
ATOM     56  C   UNL A   1      42.764  28.982  33.968  1.00  0.00     0.074 A 
ATOM     57  C   UNL A   1      42.866  29.553  35.296  1.00  0.00     0.031 C 
ATOM     58  C   UNL A   1      43.624  28.057  33.465  1.00  0.00     0.034 A 
BRANCH  45  59
ATOM     59  C   UNL A   1      42.291  26.218  27.679  1.00  0.00     0.023 A 
ATOM     60  C   UNL A   1      41.788  24.908  27.590  1.00  0.00     0.031 A 
ATOM     61  C   UNL A   1      43.170  26.655  26.671  1.00  0.00     0.131 A 
ATOM     62  C   UNL A   1      42.239  24.054  26.571  1.00  0.00     0.055 A 
ATOM     63  C   UNL A   1      43.548  25.826  25.612  1.00  0.00     0.041 A 
ATOM     64  F   UNL A   1      43.699  27.887  26.712  1.00  0.00    -0.206 F 
ATOM     65  C   UNL A   1      43.099  24.511  25.570  1.00  0.00     0.022 A 
BRANCH  62  66
ATOM     66  S   UNL A   1      41.827  22.289  26.674  1.00  0.00     0.124 S 
ATOM     67  O   UNL A   1      42.647  21.859  27.805  1.00  0.00    -0.237 OA
ATOM     68  O   UNL A   1      40.387  22.316  26.903  1.00  0.00    -0.237 OA
ATOM     69  O   UNL A   1      42.245  21.763  25.377  1.00  0.00    -0.744 OA
ENDBRANCH  62  66
ENDBRANCH  45  59
BRANCH  46  70
ATOM     70  C   UNL A   1      39.458  32.063  35.324  1.00  0.00     0.023 A 
ATOM     71  C   UNL A   1      39.855  33.389  35.545  1.00  0.00     0.031 A 
ATOM     72  C   UNL A   1      38.563  31.477  36.240  1.00  0.00     0.131 A 
ATOM     73  C   UNL A   1      39.373  34.083  36.667  1.00  0.00     0.055 A 
ATOM     74  C   UNL A   1      38.055  32.184  37.329  1.00  0.00     0.041 A 
ATOM     75  F   UNL A   1      38.150  30.211  36.068  1.00  0.00    -0.206 F 
ATOM     76  C   UNL A   1      38.465  33.493  37.551  1.00  0.00     0.022 A 
BRANCH  73  77
ATOM     77  S   UNL A   1      39.979  35.763  36.980  1.00  0.00     0.124 S 
ATOM     78  O   UNL A   1      39.173  36.162  38.127  1.00  0.00    -0.237 OA
ATOM     79  O   UNL A   1      41.396  35.531  37.240  1.00  0.00    -0.237 OA
ATOM     80  O   UNL A   1      39.686  36.469  35.734  1.00  0.00    -0.744 OA
ENDBRANCH  73  77
ENDBRANCH  46  70
BRANCH  58  81
ATOM     81  C   UNL A   1      44.764  27.636  34.356  1.00  0.00     0.023 A 
ATOM     82  C   UNL A   1      44.662  26.521  35.207  1.00  0.00     0.031 A 
ATOM     83  C   UNL A   1      45.964  28.368  34.358  1.00  0.00     0.131 A 
ATOM     84  C   UNL A   1      45.731  26.195  36.057  1.00  0.00     0.055 A 
ATOM     85  C   UNL A   1      47.041  28.009  35.169  1.00  0.00     0.041 A 
ATOM     86  F   UNL A   1      46.109  29.442  33.566  1.00  0.00    -0.206 F 
ATOM     87  C   UNL A   1      46.923  26.923  36.033  1.00  0.00     0.022 A 
BRANCH  84  88
ATOM     88  S   UNL A   1      45.515  24.846  37.251  1.00  0.00     0.124 S 
ATOM     89  O   UNL A   1      46.453  23.848  36.752  1.00  0.00    -0.237 OA
ATOM     90  O   UNL A   1      45.873  25.485  38.513  1.00  0.00    -0.237 OA
ATOM     91  O   UNL A   1      44.103  24.492  37.116  1.00  0.00    -0.744 OA
ENDBRANCH  84  88
ENDBRANCH  58  81
ENDBRANCH  32  33
ENDBRANCH  25  27
ENDBRANCH  24  25
ENDBRANCH  23  24
ENDBRANCH   1  23
TORSDOF 17
ENDMDL
