MODEL 1
REMARK VINA RESULT:      -9.5      0.000      0.000
REMARK SMILES CS(=O)(=O)c1ccc(/C=C(/C(=O)OCCOC(=O)c2ccc(-c3c4nc(c(-c5cc(S(=O)(=O)[O-])ccc5F)c5ccc([nH]5)c(-c5cc(S(=O)(=O)[O-])ccc5F)c5nc(c(-c6cc(S(=O)(=O)[O-])ccc6F)c6ccc3[nH]6)C=C5)C=C4)cc2)c2ccc(-c3ccc(S(C)(=O)=O)cc3)cc2)cc1
REMARK SMILES IDX 14 1 13 2 11 3 12 4 10 5 9 6 8 7 5 8 6 9 99 10 7 11 98 12
REMARK SMILES IDX 2 13 1 14 3 15 4 16 82 17 83 18 97 19 84 20 96 21 85 22
REMARK SMILES IDX 86 23 87 24 95 25 88 26 94 27 89 28 90 29 91 30 92 31 93 32
REMARK SMILES IDX 15 33 16 34 17 35 18 36 19 37 20 38 81 39 21 40 80 41 22 42
REMARK SMILES IDX 23 43 24 44 74 45 25 46 79 47 73 48 75 49 26 50 78 51 72 52
REMARK SMILES IDX 71 53 27 55 59 56 39 57 58 58 40 59 43 60 57 61 76 62 41 63
REMARK SMILES IDX 42 64 56 66 77 67 44 68 28 69 29 70 37 71 30 72 36 73 38 74
REMARK SMILES IDX 35 75 31 76 32 77 33 78 34 79 60 80 61 81 69 82 62 83 68 84
REMARK SMILES IDX 70 85 67 86 63 87 64 88 65 89 66 90 45 91 46 92 54 93 47 94
REMARK SMILES IDX 53 95 55 96 52 97 48 98 49 99 50 100 51 101
REMARK H PARENT 75 54 43 65
REMARK Flexibility Score: inf
ROOT
ATOM      1  C   UNL A   1      34.556  31.824  27.627  1.00  0.00     0.275 C 
ENDROOT
BRANCH   1   2
ATOM      2  O   UNL A   1      35.958  31.605  27.884  1.00  0.00    -0.458 OA
BRANCH   2   3
ATOM      3  C   UNL A   1      36.327  30.303  27.999  1.00  0.00     0.338 C 
ATOM      4  O   UNL A   1      35.677  29.346  27.600  1.00  0.00    -0.246 OA
BRANCH   3   5
ATOM      5  C   UNL A   1      37.657  30.151  28.660  1.00  0.00     0.067 C 
ATOM      6  C   UNL A   1      37.874  30.812  29.820  1.00  0.00     0.024 C 
BRANCH   6   7
ATOM      7  C   UNL A   1      38.948  30.572  30.813  1.00  0.00    -0.025 A 
ATOM      8  C   UNL A   1      40.814  29.713  32.729  1.00  0.00     0.067 A 
ATOM      9  C   UNL A   1      41.242  30.027  31.444  1.00  0.00     0.021 A 
ATOM     10  C   UNL A   1      39.479  29.887  33.094  1.00  0.00     0.021 A 
ATOM     11  C   UNL A   1      40.315  30.496  30.510  1.00  0.00     0.009 A 
ATOM     12  C   UNL A   1      38.554  30.317  32.136  1.00  0.00     0.009 A 
BRANCH   8  13
ATOM     13  S   UNL A   1      41.969  29.012  33.878  1.00  0.00     0.175 S 
ATOM     14  C   UNL A   1      41.306  29.475  35.452  1.00  0.00     0.163 C 
ATOM     15  O   UNL A   1      43.236  29.685  33.699  1.00  0.00    -0.224 OA
ATOM     16  O   UNL A   1      41.873  27.564  33.767  1.00  0.00    -0.224 OA
ENDBRANCH   8  13
ENDBRANCH   6   7
BRANCH   5  17
ATOM     17  C   UNL A   1      38.587  29.149  28.112  1.00  0.00    -0.011 A 
ATOM     18  C   UNL A   1      39.444  29.509  27.066  1.00  0.00     0.009 A 
ATOM     19  C   UNL A   1      38.684  27.866  28.653  1.00  0.00     0.009 A 
ATOM     20  C   UNL A   1      40.393  28.602  26.579  1.00  0.00     0.009 A 
ATOM     21  C   UNL A   1      39.638  26.965  28.160  1.00  0.00     0.009 A 
ATOM     22  C   UNL A   1      40.511  27.304  27.109  1.00  0.00    -0.018 A 
BRANCH  22  23
ATOM     23  C   UNL A   1      41.506  26.338  26.577  1.00  0.00    -0.018 A 
ATOM     24  C   UNL A   1      41.341  24.947  26.739  1.00  0.00     0.010 A 
ATOM     25  C   UNL A   1      42.652  26.769  25.877  1.00  0.00     0.010 A 
ATOM     26  C   UNL A   1      42.255  24.030  26.207  1.00  0.00     0.021 A 
ATOM     27  C   UNL A   1      43.568  25.861  25.330  1.00  0.00     0.021 A 
ATOM     28  C   UNL A   1      43.359  24.494  25.496  1.00  0.00     0.067 A 
BRANCH  28  29
ATOM     29  S   UNL A   1      44.449  23.320  24.728  1.00  0.00     0.175 S 
ATOM     30  C   UNL A   1      45.010  22.317  26.073  1.00  0.00     0.163 C 
ATOM     31  O   UNL A   1      43.630  22.507  23.846  1.00  0.00    -0.224 OA
ATOM     32  O   UNL A   1      45.582  24.057  24.197  1.00  0.00    -0.224 OA
ENDBRANCH  28  29
ENDBRANCH  22  23
ENDBRANCH   5  17
ENDBRANCH   3   5
ENDBRANCH   2   3
ENDBRANCH   1   2
BRANCH   1  33
ATOM     33  C   UNL A   1      34.184  33.287  27.858  1.00  0.00     0.275 C 
BRANCH  33  34
ATOM     34  O   UNL A   1      33.150  33.380  28.854  1.00  0.00    -0.458 OA
BRANCH  34  35
ATOM     35  C   UNL A   1      33.204  34.469  29.655  1.00  0.00     0.338 C 
ATOM     36  O   UNL A   1      32.537  35.487  29.556  1.00  0.00    -0.246 OA
BRANCH  35  37
ATOM     37  C   UNL A   1      34.187  34.267  30.737  1.00  0.00     0.060 A 
ATOM     38  C   UNL A   1      34.644  35.357  31.466  1.00  0.00     0.016 A 
ATOM     39  C   UNL A   1      34.793  33.021  30.903  1.00  0.00     0.016 A 
ATOM     40  C   UNL A   1      35.799  35.233  32.239  1.00  0.00     0.010 A 
ATOM     41  C   UNL A   1      35.876  32.882  31.784  1.00  0.00     0.010 A 
ATOM     42  C   UNL A   1      36.447  34.000  32.417  1.00  0.00    -0.014 A 
BRANCH  42  43
ATOM     43  C   UNL A   1      37.733  33.901  33.191  1.00  0.00     0.031 A 
ATOM     44  C   UNL A   1      39.071  33.965  32.479  1.00  0.00     0.074 A 
ATOM     45  C   UNL A   1      37.739  33.780  34.536  1.00  0.00     0.049 A 
ATOM     46  N   UNL A   1      40.264  33.639  32.915  1.00  0.00    -0.248 NA
ATOM     47  C   UNL A   1      39.060  34.434  31.086  1.00  0.00     0.031 C 
ATOM     48  C   UNL A   1      36.555  33.774  35.396  1.00  0.00     0.029 A 
ATOM     49  N   UNL A   1      38.784  33.645  35.423  1.00  0.00    -0.354 N 
ATOM     50  C   UNL A   1      41.123  33.769  31.824  1.00  0.00     0.074 A 
ATOM     51  C   UNL A   1      40.312  34.216  30.712  1.00  0.00     0.031 C 
ATOM     52  C   UNL A   1      36.936  33.718  36.679  1.00  0.00     0.029 A 
ATOM     53  C   UNL A   1      38.378  33.523  36.735  1.00  0.00     0.049 A 
ATOM     54  H   UNL A   1      39.729  33.637  35.148  1.00  0.00     0.167 HD
ATOM     55  C   UNL A   1      42.458  33.526  31.760  1.00  0.00     0.034 A 
ATOM     56  C   UNL A   1      39.056  33.205  37.856  1.00  0.00     0.034 A 
ATOM     57  C   UNL A   1      43.267  33.164  32.900  1.00  0.00     0.049 A 
ATOM     58  C   UNL A   1      40.521  32.889  37.760  1.00  0.00     0.074 A 
ATOM     59  C   UNL A   1      44.641  32.991  32.960  1.00  0.00     0.029 A 
ATOM     60  N   UNL A   1      42.785  32.920  34.180  1.00  0.00    -0.354 N 
ATOM     61  N   UNL A   1      41.291  32.873  36.697  1.00  0.00    -0.248 NA
ATOM     62  C   UNL A   1      41.201  32.526  39.007  1.00  0.00     0.031 C 
ATOM     63  C   UNL A   1      44.982  32.602  34.260  1.00  0.00     0.029 A 
ATOM     64  C   UNL A   1      43.835  32.612  35.035  1.00  0.00     0.049 A 
ATOM     65  H   UNL A   1      41.838  32.961  34.442  1.00  0.00     0.167 HD
ATOM     66  C   UNL A   1      42.554  32.509  37.155  1.00  0.00     0.074 A 
ATOM     67  C   UNL A   1      42.442  32.326  38.587  1.00  0.00     0.031 C 
ATOM     68  C   UNL A   1      43.706  32.365  36.451  1.00  0.00     0.034 A 
BRANCH  55  69
ATOM     69  C   UNL A   1      43.127  33.589  30.403  1.00  0.00     0.023 A 
ATOM     70  C   UNL A   1      43.287  32.461  29.582  1.00  0.00     0.031 A 
ATOM     71  C   UNL A   1      43.619  34.820  29.926  1.00  0.00     0.131 A 
ATOM     72  C   UNL A   1      43.982  32.571  28.366  1.00  0.00     0.055 A 
ATOM     73  C   UNL A   1      44.237  34.939  28.678  1.00  0.00     0.041 A 
ATOM     74  F   UNL A   1      43.511  35.933  30.669  1.00  0.00    -0.206 F 
ATOM     75  C   UNL A   1      44.435  33.807  27.896  1.00  0.00     0.022 A 
BRANCH  72  76
ATOM     76  S   UNL A   1      44.412  31.051  27.474  1.00  0.00     0.124 S 
ATOM     77  O   UNL A   1      44.556  31.542  26.106  1.00  0.00    -0.237 OA
ATOM     78  O   UNL A   1      45.644  30.639  28.136  1.00  0.00    -0.237 OA
ATOM     79  O   UNL A   1      43.259  30.182  27.700  1.00  0.00    -0.744 OA
ENDBRANCH  72  76
ENDBRANCH  55  69
BRANCH  56  80
ATOM     80  C   UNL A   1      38.326  33.060  39.149  1.00  0.00     0.023 A 
ATOM     81  C   UNL A   1      38.476  33.996  40.183  1.00  0.00     0.031 A 
ATOM     82  C   UNL A   1      37.467  31.966  39.366  1.00  0.00     0.131 A 
ATOM     83  C   UNL A   1      37.790  33.809  41.393  1.00  0.00     0.055 A 
ATOM     84  C   UNL A   1      36.741  31.819  40.546  1.00  0.00     0.041 A 
ATOM     85  F   UNL A   1      37.293  31.038  38.410  1.00  0.00    -0.206 F 
ATOM     86  C   UNL A   1      36.907  32.741  41.573  1.00  0.00     0.022 A 
BRANCH  83  87
ATOM     87  S   UNL A   1      38.118  34.946  42.767  1.00  0.00     0.124 S 
ATOM     88  O   UNL A   1      36.803  35.043  43.391  1.00  0.00    -0.237 OA
ATOM     89  O   UNL A   1      39.139  34.224  43.519  1.00  0.00    -0.237 OA
ATOM     90  O   UNL A   1      38.581  36.160  42.099  1.00  0.00    -0.744 OA
ENDBRANCH  83  87
ENDBRANCH  56  80
BRANCH  68  91
ATOM     91  C   UNL A   1      44.939  32.020  37.246  1.00  0.00     0.023 A 
ATOM     92  C   UNL A   1      45.754  33.014  37.811  1.00  0.00     0.031 A 
ATOM     93  C   UNL A   1      45.329  30.676  37.396  1.00  0.00     0.131 A 
ATOM     94  C   UNL A   1      46.950  32.656  38.450  1.00  0.00     0.055 A 
ATOM     95  C   UNL A   1      46.489  30.322  38.085  1.00  0.00     0.041 A 
ATOM     96  F   UNL A   1      44.589  29.689  36.866  1.00  0.00    -0.206 F 
ATOM     97  C   UNL A   1      47.314  31.315  38.606  1.00  0.00     0.022 A 
BRANCH  94  98
ATOM     98  S   UNL A   1      48.075  33.972  38.990  1.00  0.00     0.124 S 
ATOM     99  O   UNL A   1      47.721  35.061  38.085  1.00  0.00    -0.237 OA
ATOM    100  O   UNL A   1      47.694  34.154  40.387  1.00  0.00    -0.237 OA
ATOM    101  O   UNL A   1      49.403  33.397  38.780  1.00  0.00    -0.744 OA
ENDBRANCH  94  98
ENDBRANCH  68  91
ENDBRANCH  42  43
ENDBRANCH  35  37
ENDBRANCH  34  35
ENDBRANCH  33  34
ENDBRANCH   1  33
TORSDOF 19
ENDMDL
MODEL 2
REMARK VINA RESULT:      -9.5      5.048      8.658
REMARK SMILES CS(=O)(=O)c1ccc(/C=C(/C(=O)OCCOC(=O)c2ccc(-c3c4nc(c(-c5cc(S(=O)(=O)[O-])ccc5F)c5ccc([nH]5)c(-c5cc(S(=O)(=O)[O-])ccc5F)c5nc(c(-c6cc(S(=O)(=O)[O-])ccc6F)c6ccc3[nH]6)C=C5)C=C4)cc2)c2ccc(-c3ccc(S(C)(=O)=O)cc3)cc2)cc1
REMARK SMILES IDX 14 1 13 2 11 3 12 4 10 5 9 6 8 7 5 8 6 9 99 10 7 11 98 12
REMARK SMILES IDX 2 13 1 14 3 15 4 16 82 17 83 18 97 19 84 20 96 21 85 22
REMARK SMILES IDX 86 23 87 24 95 25 88 26 94 27 89 28 90 29 91 30 92 31 93 32
REMARK SMILES IDX 15 33 16 34 17 35 18 36 19 37 20 38 81 39 21 40 80 41 22 42
REMARK SMILES IDX 23 43 24 44 74 45 25 46 79 47 73 48 75 49 26 50 78 51 72 52
REMARK SMILES IDX 71 53 27 55 59 56 39 57 58 58 40 59 43 60 57 61 76 62 41 63
REMARK SMILES IDX 42 64 56 66 77 67 44 68 28 69 29 70 37 71 30 72 36 73 38 74
REMARK SMILES IDX 35 75 31 76 32 77 33 78 34 79 60 80 61 81 69 82 62 83 68 84
REMARK SMILES IDX 70 85 67 86 63 87 64 88 65 89 66 90 45 91 46 92 54 93 47 94
REMARK SMILES IDX 53 95 55 96 52 97 48 98 49 99 50 100 51 101
REMARK H PARENT 75 54 43 65
REMARK Flexibility Score: inf
ROOT
ATOM      1  C   UNL A   1      34.854  34.254  30.585  1.00  0.00     0.275 C 
ENDROOT
BRANCH   1   2
ATOM      2  O   UNL A   1      33.981  33.306  29.939  1.00  0.00    -0.458 OA
BRANCH   2   3
ATOM      3  C   UNL A   1      34.120  33.220  28.591  1.00  0.00     0.338 C 
ATOM      4  O   UNL A   1      34.310  34.165  27.837  1.00  0.00    -0.246 OA
BRANCH   3   5
ATOM      5  C   UNL A   1      34.039  31.810  28.106  1.00  0.00     0.067 C 
ATOM      6  C   UNL A   1      32.872  31.382  27.572  1.00  0.00     0.024 C 
BRANCH   6   7
ATOM      7  C   UNL A   1      32.643  30.176  26.742  1.00  0.00    -0.025 A 
ATOM      8  C   UNL A   1      31.780  27.976  25.224  1.00  0.00     0.067 A 
ATOM      9  C   UNL A   1      32.478  29.007  24.606  1.00  0.00     0.021 A 
ATOM     10  C   UNL A   1      31.565  27.992  26.602  1.00  0.00     0.021 A 
ATOM     11  C   UNL A   1      32.942  30.076  25.376  1.00  0.00     0.009 A 
ATOM     12  C   UNL A   1      31.998  29.089  27.353  1.00  0.00     0.009 A 
BRANCH   8  13
ATOM     13  S   UNL A   1      31.094  26.678  24.228  1.00  0.00     0.175 S 
ATOM     14  C   UNL A   1      29.967  25.875  25.331  1.00  0.00     0.163 C 
ATOM     15  O   UNL A   1      32.160  25.755  23.909  1.00  0.00    -0.224 OA
ATOM     16  O   UNL A   1      30.310  27.303  23.173  1.00  0.00    -0.224 OA
ENDBRANCH   8  13
ENDBRANCH   6   7
BRANCH   5  17
ATOM     17  C   UNL A   1      35.284  31.024  28.066  1.00  0.00    -0.011 A 
ATOM     18  C   UNL A   1      36.515  31.690  28.096  1.00  0.00     0.009 A 
ATOM     19  C   UNL A   1      35.271  29.629  28.064  1.00  0.00     0.009 A 
ATOM     20  C   UNL A   1      37.714  30.966  28.139  1.00  0.00     0.009 A 
ATOM     21  C   UNL A   1      36.476  28.913  28.108  1.00  0.00     0.009 A 
ATOM     22  C   UNL A   1      37.726  29.560  28.140  1.00  0.00    -0.018 A 
BRANCH  22  23
ATOM     23  C   UNL A   1      39.000  28.796  28.166  1.00  0.00    -0.018 A 
ATOM     24  C   UNL A   1      40.208  29.363  27.711  1.00  0.00     0.010 A 
ATOM     25  C   UNL A   1      39.058  27.475  28.658  1.00  0.00     0.010 A 
ATOM     26  C   UNL A   1      41.418  28.662  27.769  1.00  0.00     0.021 A 
ATOM     27  C   UNL A   1      40.265  26.768  28.732  1.00  0.00     0.021 A 
ATOM     28  C   UNL A   1      41.440  27.371  28.290  1.00  0.00     0.067 A 
BRANCH  28  29
ATOM     29  S   UNL A   1      42.998  26.534  28.465  1.00  0.00     0.175 S 
ATOM     30  C   UNL A   1      42.820  25.089  27.460  1.00  0.00     0.163 C 
ATOM     31  O   UNL A   1      44.003  27.398  27.870  1.00  0.00    -0.224 OA
ATOM     32  O   UNL A   1      43.119  26.122  29.851  1.00  0.00    -0.224 OA
ENDBRANCH  28  29
ENDBRANCH  22  23
ENDBRANCH   5  17
ENDBRANCH   3   5
ENDBRANCH   2   3
ENDBRANCH   1   2
BRANCH   1  33
ATOM     33  C   UNL A   1      36.140  33.576  31.052  1.00  0.00     0.275 C 
BRANCH  33  34
ATOM     34  O   UNL A   1      35.840  32.289  31.620  1.00  0.00    -0.458 OA
BRANCH  34  35
ATOM     35  C   UNL A   1      36.335  32.065  32.859  1.00  0.00     0.338 C 
ATOM     36  O   UNL A   1      35.826  32.383  33.922  1.00  0.00    -0.246 OA
BRANCH  35  37
ATOM     37  C   UNL A   1      37.610  31.326  32.779  1.00  0.00     0.060 A 
ATOM     38  C   UNL A   1      38.676  31.701  33.586  1.00  0.00     0.016 A 
ATOM     39  C   UNL A   1      37.804  30.380  31.773  1.00  0.00     0.016 A 
ATOM     40  C   UNL A   1      39.961  31.247  33.285  1.00  0.00     0.010 A 
ATOM     41  C   UNL A   1      39.080  29.833  31.562  1.00  0.00     0.010 A 
ATOM     42  C   UNL A   1      40.200  30.309  32.268  1.00  0.00    -0.014 A 
BRANCH  42  43
ATOM     43  C   UNL A   1      41.598  29.890  31.907  1.00  0.00     0.031 A 
ATOM     44  C   UNL A   1      42.391  30.655  30.866  1.00  0.00     0.074 A 
ATOM     45  C   UNL A   1      42.200  28.844  32.515  1.00  0.00     0.049 A 
ATOM     46  N   UNL A   1      43.485  30.311  30.229  1.00  0.00    -0.248 NA
ATOM     47  C   UNL A   1      41.868  31.971  30.469  1.00  0.00     0.031 C 
ATOM     48  C   UNL A   1      41.623  28.036  33.590  1.00  0.00     0.029 A 
ATOM     49  N   UNL A   1      43.442  28.281  32.319  1.00  0.00    -0.354 N 
ATOM     50  C   UNL A   1      43.722  31.316  29.294  1.00  0.00     0.074 A 
ATOM     51  C   UNL A   1      42.663  32.290  29.457  1.00  0.00     0.031 C 
ATOM     52  C   UNL A   1      42.525  27.139  34.007  1.00  0.00     0.029 A 
ATOM     53  C   UNL A   1      43.686  27.194  33.129  1.00  0.00     0.049 A 
ATOM     54  H   UNL A   1      44.092  28.623  31.663  1.00  0.00     0.167 HD
ATOM     55  C   UNL A   1      44.723  31.409  28.380  1.00  0.00     0.034 A 
ATOM     56  C   UNL A   1      44.678  26.282  33.129  1.00  0.00     0.034 A 
ATOM     57  C   UNL A   1      45.820  30.473  28.290  1.00  0.00     0.049 A 
ATOM     58  C   UNL A   1      45.750  26.368  32.080  1.00  0.00     0.074 A 
ATOM     59  C   UNL A   1      46.932  30.531  27.465  1.00  0.00     0.029 A 
ATOM     60  N   UNL A   1      45.949  29.314  29.044  1.00  0.00    -0.354 N 
ATOM     61  N   UNL A   1      45.882  27.240  31.109  1.00  0.00    -0.248 NA
ATOM     62  C   UNL A   1      46.790  25.334  32.113  1.00  0.00     0.031 C 
ATOM     63  C   UNL A   1      47.709  29.389  27.690  1.00  0.00     0.029 A 
ATOM     64  C   UNL A   1      47.127  28.658  28.712  1.00  0.00     0.049 A 
ATOM     65  H   UNL A   1      45.300  29.004  29.715  1.00  0.00     0.167 HD
ATOM     66  C   UNL A   1      47.033  26.865  30.422  1.00  0.00     0.074 A 
ATOM     67  C   UNL A   1      47.559  25.696  31.096  1.00  0.00     0.031 C 
ATOM     68  C   UNL A   1      47.612  27.454  29.344  1.00  0.00     0.034 A 
BRANCH  55  69
ATOM     69  C   UNL A   1      44.657  32.531  27.365  1.00  0.00     0.023 A 
ATOM     70  C   UNL A   1      45.237  33.790  27.587  1.00  0.00     0.031 A 
ATOM     71  C   UNL A   1      43.989  32.324  26.142  1.00  0.00     0.131 A 
ATOM     72  C   UNL A   1      45.078  34.813  26.636  1.00  0.00     0.055 A 
ATOM     73  C   UNL A   1      43.905  33.320  25.165  1.00  0.00     0.041 A 
ATOM     74  F   UNL A   1      43.400  31.147  25.876  1.00  0.00    -0.206 F 
ATOM     75  C   UNL A   1      44.438  34.579  25.416  1.00  0.00     0.022 A 
BRANCH  72  76
ATOM     76  S   UNL A   1      45.593  36.495  27.079  1.00  0.00     0.124 S 
ATOM     77  O   UNL A   1      44.356  37.245  26.877  1.00  0.00    -0.237 OA
ATOM     78  O   UNL A   1      46.023  36.335  28.464  1.00  0.00    -0.237 OA
ATOM     79  O   UNL A   1      46.658  36.792  26.123  1.00  0.00    -0.744 OA
ENDBRANCH  72  76
ENDBRANCH  55  69
BRANCH  56  80
ATOM     80  C   UNL A   1      44.639  25.140  34.088  1.00  0.00     0.023 A 
ATOM     81  C   UNL A   1      45.056  25.289  35.420  1.00  0.00     0.031 A 
ATOM     82  C   UNL A   1      44.183  23.874  33.675  1.00  0.00     0.131 A 
ATOM     83  C   UNL A   1      45.026  24.183  36.284  1.00  0.00     0.055 A 
ATOM     84  C   UNL A   1      44.097  22.796  34.554  1.00  0.00     0.041 A 
ATOM     85  F   UNL A   1      43.779  23.678  32.409  1.00  0.00    -0.206 F 
ATOM     86  C   UNL A   1      44.529  22.945  35.867  1.00  0.00     0.022 A 
BRANCH  83  87
ATOM     87  S   UNL A   1      45.712  24.361  37.953  1.00  0.00     0.124 S 
ATOM     88  O   UNL A   1      45.657  22.988  38.443  1.00  0.00    -0.237 OA
ATOM     89  O   UNL A   1      47.042  24.895  37.676  1.00  0.00    -0.237 OA
ATOM     90  O   UNL A   1      44.792  25.292  38.601  1.00  0.00    -0.744 OA
ENDBRANCH  83  87
ENDBRANCH  56  80
BRANCH  68  91
ATOM     91  C   UNL A   1      48.902  26.845  28.858  1.00  0.00     0.023 A 
ATOM     92  C   UNL A   1      50.146  27.245  29.374  1.00  0.00     0.031 A 
ATOM     93  C   UNL A   1      48.887  25.887  27.829  1.00  0.00     0.131 A 
ATOM     94  C   UNL A   1      51.328  26.733  28.820  1.00  0.00     0.055 A 
ATOM     95  C   UNL A   1      50.064  25.335  27.323  1.00  0.00     0.041 A 
ATOM     96  F   UNL A   1      47.724  25.478  27.296  1.00  0.00    -0.206 F 
ATOM     97  C   UNL A   1      51.294  25.768  27.809  1.00  0.00     0.022 A 
BRANCH  94  98
ATOM     98  S   UNL A   1      52.914  27.418  29.370  1.00  0.00     0.124 S 
ATOM     99  O   UNL A   1      52.942  28.704  28.682  1.00  0.00    -0.237 OA
ATOM    100  O   UNL A   1      52.743  27.473  30.819  1.00  0.00    -0.237 OA
ATOM    101  O   UNL A   1      53.893  26.439  28.900  1.00  0.00    -0.744 OA
ENDBRANCH  94  98
ENDBRANCH  68  91
ENDBRANCH  42  43
ENDBRANCH  35  37
ENDBRANCH  34  35
ENDBRANCH  33  34
ENDBRANCH   1  33
TORSDOF 19
ENDMDL
MODEL 3
REMARK VINA RESULT:      -9.3      4.043     11.125
REMARK SMILES CS(=O)(=O)c1ccc(/C=C(/C(=O)OCCOC(=O)c2ccc(-c3c4nc(c(-c5cc(S(=O)(=O)[O-])ccc5F)c5ccc([nH]5)c(-c5cc(S(=O)(=O)[O-])ccc5F)c5nc(c(-c6cc(S(=O)(=O)[O-])ccc6F)c6ccc3[nH]6)C=C5)C=C4)cc2)c2ccc(-c3ccc(S(C)(=O)=O)cc3)cc2)cc1
REMARK SMILES IDX 14 1 13 2 11 3 12 4 10 5 9 6 8 7 5 8 6 9 99 10 7 11 98 12
REMARK SMILES IDX 2 13 1 14 3 15 4 16 82 17 83 18 97 19 84 20 96 21 85 22
REMARK SMILES IDX 86 23 87 24 95 25 88 26 94 27 89 28 90 29 91 30 92 31 93 32
REMARK SMILES IDX 15 33 16 34 17 35 18 36 19 37 20 38 81 39 21 40 80 41 22 42
REMARK SMILES IDX 23 43 24 44 74 45 25 46 79 47 73 48 75 49 26 50 78 51 72 52
REMARK SMILES IDX 71 53 27 55 59 56 39 57 58 58 40 59 43 60 57 61 76 62 41 63
REMARK SMILES IDX 42 64 56 66 77 67 44 68 28 69 29 70 37 71 30 72 36 73 38 74
REMARK SMILES IDX 35 75 31 76 32 77 33 78 34 79 60 80 61 81 69 82 62 83 68 84
REMARK SMILES IDX 70 85 67 86 63 87 64 88 65 89 66 90 45 91 46 92 54 93 47 94
REMARK SMILES IDX 53 95 55 96 52 97 48 98 49 99 50 100 51 101
REMARK H PARENT 75 54 43 65
REMARK Flexibility Score: inf
ROOT
ATOM      1  C   UNL A   1      34.161  33.909  29.514  1.00  0.00     0.275 C 
ENDROOT
BRANCH   1   2
ATOM      2  O   UNL A   1      34.290  32.654  30.214  1.00  0.00    -0.458 OA
BRANCH   2   3
ATOM      3  C   UNL A   1      34.756  32.750  31.486  1.00  0.00     0.338 C 
ATOM      4  O   UNL A   1      34.065  32.733  32.496  1.00  0.00    -0.246 OA
BRANCH   3   5
ATOM      5  C   UNL A   1      36.245  32.856  31.533  1.00  0.00     0.067 C 
ATOM      6  C   UNL A   1      36.925  32.834  30.363  1.00  0.00     0.024 C 
BRANCH   6   7
ATOM      7  C   UNL A   1      38.328  33.246  30.122  1.00  0.00    -0.025 A 
ATOM      8  C   UNL A   1      40.873  34.405  29.860  1.00  0.00     0.067 A 
ATOM      9  C   UNL A   1      40.706  33.289  30.671  1.00  0.00     0.021 A 
ATOM     10  C   UNL A   1      39.803  34.912  29.123  1.00  0.00     0.021 A 
ATOM     11  C   UNL A   1      39.446  32.691  30.761  1.00  0.00     0.009 A 
ATOM     12  C   UNL A   1      38.539  34.330  29.255  1.00  0.00     0.009 A 
BRANCH   8  13
ATOM     13  S   UNL A   1      42.444  35.228  29.836  1.00  0.00     0.175 S 
ATOM     14  C   UNL A   1      43.466  34.121  28.907  1.00  0.00     0.163 C 
ATOM     15  O   UNL A   1      42.939  35.277  31.194  1.00  0.00    -0.224 OA
ATOM     16  O   UNL A   1      42.289  36.447  29.056  1.00  0.00    -0.224 OA
ENDBRANCH   8  13
ENDBRANCH   6   7
BRANCH   5  17
ATOM     17  C   UNL A   1      36.872  33.167  32.829  1.00  0.00    -0.011 A 
ATOM     18  C   UNL A   1      37.105  34.503  33.174  1.00  0.00     0.009 A 
ATOM     19  C   UNL A   1      37.182  32.167  33.752  1.00  0.00     0.009 A 
ATOM     20  C   UNL A   1      37.626  34.832  34.431  1.00  0.00     0.009 A 
ATOM     21  C   UNL A   1      37.702  32.506  35.009  1.00  0.00     0.009 A 
ATOM     22  C   UNL A   1      37.945  33.843  35.379  1.00  0.00    -0.018 A 
BRANCH  22  23
ATOM     23  C   UNL A   1      38.516  34.194  36.705  1.00  0.00    -0.018 A 
ATOM     24  C   UNL A   1      38.216  33.441  37.858  1.00  0.00     0.010 A 
ATOM     25  C   UNL A   1      39.391  35.288  36.864  1.00  0.00     0.010 A 
ATOM     26  C   UNL A   1      38.782  33.744  39.102  1.00  0.00     0.021 A 
ATOM     27  C   UNL A   1      39.972  35.594  38.101  1.00  0.00     0.021 A 
ATOM     28  C   UNL A   1      39.665  34.814  39.213  1.00  0.00     0.067 A 
BRANCH  28  29
ATOM     29  S   UNL A   1      40.465  35.119  40.771  1.00  0.00     0.175 S 
ATOM     30  C   UNL A   1      41.782  33.939  40.811  1.00  0.00     0.163 C 
ATOM     31  O   UNL A   1      41.032  36.453  40.693  1.00  0.00    -0.224 OA
ATOM     32  O   UNL A   1      39.518  34.789  41.820  1.00  0.00    -0.224 OA
ENDBRANCH  28  29
ENDBRANCH  22  23
ENDBRANCH   5  17
ENDBRANCH   3   5
ENDBRANCH   2   3
ENDBRANCH   1   2
BRANCH   1  33
ATOM     33  C   UNL A   1      34.318  33.708  28.009  1.00  0.00     0.275 C 
BRANCH  33  34
ATOM     34  O   UNL A   1      35.319  32.709  27.747  1.00  0.00    -0.458 OA
BRANCH  34  35
ATOM     35  C   UNL A   1      34.865  31.440  27.626  1.00  0.00     0.338 C 
ATOM     36  O   UNL A   1      33.754  31.090  27.263  1.00  0.00    -0.246 OA
BRANCH  35  37
ATOM     37  C   UNL A   1      35.928  30.476  27.972  1.00  0.00     0.060 A 
ATOM     38  C   UNL A   1      35.809  29.698  29.116  1.00  0.00     0.016 A 
ATOM     39  C   UNL A   1      37.127  30.478  27.259  1.00  0.00     0.016 A 
ATOM     40  C   UNL A   1      36.933  29.050  29.628  1.00  0.00     0.010 A 
ATOM     41  C   UNL A   1      38.214  29.717  27.716  1.00  0.00     0.010 A 
ATOM     42  C   UNL A   1      38.162  29.042  28.949  1.00  0.00    -0.014 A 
BRANCH  42  43
ATOM     43  C   UNL A   1      39.382  28.403  29.553  1.00  0.00     0.031 A 
ATOM     44  C   UNL A   1      39.944  28.901  30.870  1.00  0.00     0.074 A 
ATOM     45  C   UNL A   1      39.995  27.354  28.961  1.00  0.00     0.049 A 
ATOM     46  N   UNL A   1      41.114  28.672  31.419  1.00  0.00    -0.248 NA
ATOM     47  C   UNL A   1      39.087  29.795  31.663  1.00  0.00     0.031 C 
ATOM     48  C   UNL A   1      39.556  26.694  27.731  1.00  0.00     0.029 A 
ATOM     49  N   UNL A   1      41.122  26.651  29.321  1.00  0.00    -0.354 N 
ATOM     50  C   UNL A   1      41.168  29.467  32.562  1.00  0.00     0.074 A 
ATOM     51  C   UNL A   1      39.907  30.174  32.633  1.00  0.00     0.031 C 
ATOM     52  C   UNL A   1      40.350  25.646  27.480  1.00  0.00     0.029 A 
ATOM     53  C   UNL A   1      41.450  25.648  28.434  1.00  0.00     0.049 A 
ATOM     54  H   UNL A   1      41.644  26.844  30.133  1.00  0.00     0.167 HD
ATOM     55  C   UNL A   1      42.180  29.601  33.458  1.00  0.00     0.034 A 
ATOM     56  C   UNL A   1      42.544  24.868  28.329  1.00  0.00     0.034 A 
ATOM     57  C   UNL A   1      43.397  28.823  33.420  1.00  0.00     0.049 A 
ATOM     58  C   UNL A   1      43.677  25.063  29.295  1.00  0.00     0.074 A 
ATOM     59  C   UNL A   1      44.439  28.813  34.333  1.00  0.00     0.029 A 
ATOM     60  N   UNL A   1      43.740  27.918  32.424  1.00  0.00    -0.354 N 
ATOM     61  N   UNL A   1      43.777  25.920  30.284  1.00  0.00    -0.248 NA
ATOM     62  C   UNL A   1      44.852  24.202  29.118  1.00  0.00     0.031 C 
ATOM     63  C   UNL A   1      45.427  27.937  33.868  1.00  0.00     0.029 A 
ATOM     64  C   UNL A   1      44.968  27.337  32.707  1.00  0.00     0.049 A 
ATOM     65  H   UNL A   1      43.191  27.718  31.632  1.00  0.00     0.167 HD
ATOM     66  C   UNL A   1      45.025  25.691  30.855  1.00  0.00     0.074 A 
ATOM     67  C   UNL A   1      45.634  24.611  30.107  1.00  0.00     0.031 C 
ATOM     68  C   UNL A   1      45.600  26.306  31.919  1.00  0.00     0.034 A 
BRANCH  55  69
ATOM     69  C   UNL A   1      42.046  30.662  34.529  1.00  0.00     0.023 A 
ATOM     70  C   UNL A   1      42.710  31.898  34.460  1.00  0.00     0.031 A 
ATOM     71  C   UNL A   1      41.228  30.420  35.651  1.00  0.00     0.131 A 
ATOM     72  C   UNL A   1      42.603  32.812  35.522  1.00  0.00     0.055 A 
ATOM     73  C   UNL A   1      41.061  31.367  36.665  1.00  0.00     0.041 A 
ATOM     74  F   UNL A   1      40.580  29.253  35.783  1.00  0.00    -0.206 F 
ATOM     75  C   UNL A   1      41.762  32.567  36.612  1.00  0.00     0.022 A 
BRANCH  72  76
ATOM     76  S   UNL A   1      43.690  34.264  35.528  1.00  0.00     0.124 S 
ATOM     77  O   UNL A   1      42.847  35.261  36.183  1.00  0.00    -0.237 OA
ATOM     78  O   UNL A   1      44.836  33.793  36.297  1.00  0.00    -0.237 OA
ATOM     79  O   UNL A   1      43.945  34.508  34.109  1.00  0.00    -0.744 OA
ENDBRANCH  72  76
ENDBRANCH  55  69
BRANCH  56  80
ATOM     80  C   UNL A   1      42.666  23.907  27.194  1.00  0.00     0.023 A 
ATOM     81  C   UNL A   1      42.107  22.622  27.260  1.00  0.00     0.031 A 
ATOM     82  C   UNL A   1      43.355  24.270  26.021  1.00  0.00     0.131 A 
ATOM     83  C   UNL A   1      42.265  21.740  26.179  1.00  0.00     0.055 A 
ATOM     84  C   UNL A   1      43.455  23.412  24.927  1.00  0.00     0.041 A 
ATOM     85  F   UNL A   1      43.914  25.487  25.910  1.00  0.00    -0.206 F 
ATOM     86  C   UNL A   1      42.915  22.134  25.006  1.00  0.00     0.022 A 
BRANCH  83  87
ATOM     87  S   UNL A   1      41.669  20.037  26.349  1.00  0.00     0.124 S 
ATOM     88  O   UNL A   1      42.133  19.693  27.688  1.00  0.00    -0.237 OA
ATOM     89  O   UNL A   1      40.229  20.204  26.186  1.00  0.00    -0.237 OA
ATOM     90  O   UNL A   1      42.338  19.333  25.257  1.00  0.00    -0.744 OA
ENDBRANCH  83  87
ENDBRANCH  56  80
BRANCH  68  91
ATOM     91  C   UNL A   1      46.950  25.789  32.345  1.00  0.00     0.023 A 
ATOM     92  C   UNL A   1      47.086  24.841  33.373  1.00  0.00     0.031 A 
ATOM     93  C   UNL A   1      48.120  26.290  31.745  1.00  0.00     0.131 A 
ATOM     94  C   UNL A   1      48.363  24.466  33.812  1.00  0.00     0.055 A 
ATOM     95  C   UNL A   1      49.388  25.868  32.145  1.00  0.00     0.041 A 
ATOM     96  F   UNL A   1      48.044  27.204  30.764  1.00  0.00    -0.206 F 
ATOM     97  C   UNL A   1      49.516  24.961  33.193  1.00  0.00     0.022 A 
BRANCH  94  98
ATOM     98  S   UNL A   1      48.503  23.397  35.271  1.00  0.00     0.124 S 
ATOM     99  O   UNL A   1      47.285  23.728  36.004  1.00  0.00    -0.237 OA
ATOM    100  O   UNL A   1      48.548  22.065  34.677  1.00  0.00    -0.237 OA
ATOM    101  O   UNL A   1      49.746  23.837  35.902  1.00  0.00    -0.744 OA
ENDBRANCH  94  98
ENDBRANCH  68  91
ENDBRANCH  42  43
ENDBRANCH  35  37
ENDBRANCH  34  35
ENDBRANCH  33  34
ENDBRANCH   1  33
TORSDOF 19
ENDMDL
