MODEL 1
REMARK VINA RESULT:     -12.1      0.000      0.000
REMARK SMILES CC[C@H]1CCCC[N@H+]1[C@@H]1CC(=O)N(c2nc(CC(=O)OCCOC(=O)c3ccc(-c4c5nc(c(-c6cc(S(=O)(=O)[O-])ccc6F)c6ccc([nH]6)c(-c6cc(S(=O)(=O)[O-])ccc6F)c6nc(c(-c7cc(S(=O)(=O)[O-])ccc7F)c7ccc4[nH]7)C=C6)C=C5)cc3)cs2)C1=O
REMARK SMILES IDX 21 1 20 2 18 3 19 4 17 5 16 6 14 7 15 8 90 9 89 10 13 11
REMARK SMILES IDX 9 12 10 13 91 14 11 15 92 16 12 17 8 18 3 19 4 20 5 21 7 22
REMARK SMILES IDX 6 24 2 25 1 26 22 27 23 28 24 29 25 30 26 31 27 32 88 33
REMARK SMILES IDX 28 34 87 35 29 36 30 37 31 38 81 39 32 40 86 41 80 42 82 43
REMARK SMILES IDX 33 44 85 45 79 46 78 47 34 49 66 50 46 51 65 52 47 53 50 54
REMARK SMILES IDX 64 55 83 56 48 57 49 58 63 60 84 61 51 62 35 63 36 64 44 65
REMARK SMILES IDX 37 66 43 67 45 68 42 69 38 70 39 71 40 72 41 73 67 74 68 75
REMARK SMILES IDX 76 76 69 77 75 78 77 79 74 80 70 81 71 82 72 83 73 84 52 85
REMARK SMILES IDX 53 86 61 87 54 88 60 89 62 90 59 91 55 92 56 93 57 94 58 95
REMARK H PARENT 8 23 82 48 50 59
REMARK Flexibility Score: inf
ROOT
ATOM      1  C   UNL A   1      31.251  29.409  24.444  1.00  0.00     0.274 C 
ENDROOT
BRANCH   1   2
ATOM      2  O   UNL A   1      30.740  28.130  24.025  1.00  0.00    -0.462 OA
BRANCH   2   3
ATOM      3  C   UNL A   1      30.594  27.951  22.684  1.00  0.00     0.312 C 
ATOM      4  O   UNL A   1      29.733  28.495  22.002  1.00  0.00    -0.252 OA
BRANCH   3   5
ATOM      5  C   UNL A   1      31.594  26.984  22.093  1.00  0.00     0.179 C 
BRANCH   5   6
ATOM      6  C   UNL A   1      32.402  26.234  23.095  1.00  0.00     0.065 A 
ATOM      7  C   UNL A   1      32.763  24.435  24.332  1.00  0.00     0.199 A 
ATOM      8  N   UNL A   1      32.001  24.946  23.395  1.00  0.00    -0.224 NA
ATOM      9  S   UNL A   1      34.014  25.454  24.901  1.00  0.00    -0.104 S 
ATOM     10  C   UNL A   1      33.553  26.636  23.749  1.00  0.00     0.093 A 
BRANCH   7  11
ATOM     11  N   UNL A   1      32.722  23.136  24.759  1.00  0.00    -0.219 N 
ATOM     12  C   UNL A   1      33.209  20.883  25.123  1.00  0.00     0.285 C 
ATOM     13  C   UNL A   1      31.856  21.228  25.730  1.00  0.00     0.176 C 
ATOM     14  C   UNL A   1      33.661  22.186  24.461  1.00  0.00     0.294 C 
ATOM     15  C   UNL A   1      31.751  22.713  25.620  1.00  0.00     0.242 C 
ATOM     16  O   UNL A   1      34.726  22.324  23.872  1.00  0.00    -0.267 OA
ATOM     17  O   UNL A   1      30.859  23.336  26.177  1.00  0.00    -0.274 OA
BRANCH  12  18
ATOM     18  N   UNL A   1      33.272  19.745  24.191  1.00  0.00    -0.322 N 
ATOM     19  C   UNL A   1      33.700  18.455  24.775  1.00  0.00     0.184 C 
ATOM     20  C   UNL A   1      34.104  17.523  23.613  1.00  0.00     0.065 C 
ATOM     21  C   UNL A   1      32.971  17.330  22.612  1.00  0.00     0.012 C 
ATOM     22  C   UNL A   1      32.153  19.635  23.247  1.00  0.00     0.263 C 
ATOM     23  H   UNL A   1      34.063  20.009  23.603  1.00  0.00     0.349 HD
ATOM     24  C   UNL A   1      32.493  18.682  22.100  1.00  0.00     0.062 C 
BRANCH  19  25
ATOM     25  C   UNL A   1      32.678  17.811  25.744  1.00  0.00     0.061 C 
ATOM     26  C   UNL A   1      32.673  16.289  25.756  1.00  0.00     0.010 C 
ENDBRANCH  19  25
ENDBRANCH  12  18
ENDBRANCH   7  11
ENDBRANCH   5   6
ENDBRANCH   3   5
ENDBRANCH   2   3
ENDBRANCH   1   2
BRANCH   1  27
ATOM     27  C   UNL A   1      31.982  29.271  25.777  1.00  0.00     0.275 C 
BRANCH  27  28
ATOM     28  O   UNL A   1      33.125  30.144  25.793  1.00  0.00    -0.458 OA
BRANCH  28  29
ATOM     29  C   UNL A   1      33.179  31.030  26.814  1.00  0.00     0.338 C 
ATOM     30  O   UNL A   1      32.350  31.868  27.116  1.00  0.00    -0.246 OA
BRANCH  29  31
ATOM     31  C   UNL A   1      34.433  30.831  27.554  1.00  0.00     0.060 A 
ATOM     32  C   UNL A   1      35.321  31.895  27.734  1.00  0.00     0.016 A 
ATOM     33  C   UNL A   1      34.753  29.555  28.012  1.00  0.00     0.016 A 
ATOM     34  C   UNL A   1      36.544  31.683  28.368  1.00  0.00     0.010 A 
ATOM     35  C   UNL A   1      35.955  29.356  28.694  1.00  0.00     0.010 A 
ATOM     36  C   UNL A   1      36.862  30.416  28.872  1.00  0.00    -0.014 A 
BRANCH  36  37
ATOM     37  C   UNL A   1      38.134  30.177  29.599  1.00  0.00     0.031 A 
ATOM     38  C   UNL A   1      39.155  29.235  29.029  1.00  0.00     0.074 A 
ATOM     39  C   UNL A   1      38.340  30.761  30.796  1.00  0.00     0.049 A 
ATOM     40  N   UNL A   1      40.213  28.718  29.596  1.00  0.00    -0.248 NA
ATOM     41  C   UNL A   1      38.947  28.814  27.636  1.00  0.00     0.031 C 
ATOM     42  C   UNL A   1      37.445  31.731  31.429  1.00  0.00     0.029 A 
ATOM     43  N   UNL A   1      39.356  30.603  31.705  1.00  0.00    -0.354 N 
ATOM     44  C   UNL A   1      40.786  27.886  28.640  1.00  0.00     0.074 A 
ATOM     45  C   UNL A   1      39.945  27.958  27.463  1.00  0.00     0.031 C 
ATOM     46  C   UNL A   1      37.945  32.073  32.626  1.00  0.00     0.029 A 
ATOM     47  C   UNL A   1      39.150  31.291  32.879  1.00  0.00     0.049 A 
ATOM     48  H   UNL A   1      40.154  30.053  31.534  1.00  0.00     0.167 HD
ATOM     49  C   UNL A   1      41.909  27.133  28.742  1.00  0.00     0.034 A 
ATOM     50  C   UNL A   1      39.817  31.247  34.048  1.00  0.00     0.034 A 
ATOM     51  C   UNL A   1      42.734  27.082  29.926  1.00  0.00     0.049 A 
ATOM     52  C   UNL A   1      40.997  30.320  34.177  1.00  0.00     0.074 A 
ATOM     53  C   UNL A   1      43.913  26.385  30.129  1.00  0.00     0.029 A 
ATOM     54  N   UNL A   1      42.458  27.747  31.115  1.00  0.00    -0.354 N 
ATOM     55  N   UNL A   1      41.518  29.518  33.277  1.00  0.00    -0.248 NA
ATOM     56  C   UNL A   1      41.666  30.278  35.484  1.00  0.00     0.031 C 
ATOM     57  C   UNL A   1      44.312  26.575  31.457  1.00  0.00     0.029 A 
ATOM     58  C   UNL A   1      43.420  27.442  32.067  1.00  0.00     0.049 A 
ATOM     59  H   UNL A   1      41.692  28.346  31.260  1.00  0.00     0.167 HD
ATOM     60  C   UNL A   1      42.583  28.882  33.908  1.00  0.00     0.074 A 
ATOM     61  C   UNL A   1      42.639  29.407  35.258  1.00  0.00     0.031 C 
ATOM     62  C   UNL A   1      43.439  27.950  33.417  1.00  0.00     0.034 A 
BRANCH  49  63
ATOM     63  C   UNL A   1      42.270  26.262  27.565  1.00  0.00     0.023 A 
ATOM     64  C   UNL A   1      41.873  24.916  27.487  1.00  0.00     0.031 A 
ATOM     65  C   UNL A   1      43.049  26.781  26.517  1.00  0.00     0.131 A 
ATOM     66  C   UNL A   1      42.310  24.119  26.417  1.00  0.00     0.055 A 
ATOM     67  C   UNL A   1      43.423  26.003  25.420  1.00  0.00     0.041 A 
ATOM     68  F   UNL A   1      43.476  28.054  26.549  1.00  0.00    -0.206 F 
ATOM     69  C   UNL A   1      43.064  24.659  25.372  1.00  0.00     0.022 A 
BRANCH  66  70
ATOM     70  S   UNL A   1      41.988  22.334  26.473  1.00  0.00     0.124 S 
ATOM     71  O   UNL A   1      40.543  22.287  26.266  1.00  0.00    -0.237 OA
ATOM     72  O   UNL A   1      42.807  21.831  25.377  1.00  0.00    -0.237 OA
ATOM     73  O   UNL A   1      42.431  21.948  27.811  1.00  0.00    -0.744 OA
ENDBRANCH  66  70
ENDBRANCH  49  63
BRANCH  50  74
ATOM     74  C   UNL A   1      39.336  32.036  35.217  1.00  0.00     0.023 A 
ATOM     75  C   UNL A   1      39.819  33.329  35.467  1.00  0.00     0.031 A 
ATOM     76  C   UNL A   1      38.408  31.489  36.123  1.00  0.00     0.131 A 
ATOM     77  C   UNL A   1      39.394  34.023  36.611  1.00  0.00     0.055 A 
ATOM     78  C   UNL A   1      37.953  32.203  37.232  1.00  0.00     0.041 A 
ATOM     79  F   UNL A   1      37.919  30.254  35.931  1.00  0.00    -0.206 F 
ATOM     80  C   UNL A   1      38.454  33.474  37.486  1.00  0.00     0.022 A 
BRANCH  77  81
ATOM     81  S   UNL A   1      40.142  35.634  36.977  1.00  0.00     0.124 S 
ATOM     82  O   UNL A   1      41.565  35.313  36.956  1.00  0.00    -0.237 OA
ATOM     83  O   UNL A   1      39.653  36.454  35.873  1.00  0.00    -0.237 OA
ATOM     84  O   UNL A   1      39.597  35.972  38.290  1.00  0.00    -0.744 OA
ENDBRANCH  77  81
ENDBRANCH  50  74
BRANCH  62  85
ATOM     85  C   UNL A   1      44.514  27.462  34.352  1.00  0.00     0.023 A 
ATOM     86  C   UNL A   1      44.356  26.281  35.098  1.00  0.00     0.031 A 
ATOM     87  C   UNL A   1      45.704  28.194  34.508  1.00  0.00     0.131 A 
ATOM     88  C   UNL A   1      45.354  25.888  36.001  1.00  0.00     0.055 A 
ATOM     89  C   UNL A   1      46.716  27.771  35.371  1.00  0.00     0.041 A 
ATOM     90  F   UNL A   1      45.902  29.329  33.821  1.00  0.00    -0.206 F 
ATOM     91  C   UNL A   1      46.539  26.618  36.131  1.00  0.00     0.022 A 
BRANCH  88  92
ATOM     92  S   UNL A   1      45.059  24.442  37.055  1.00  0.00     0.124 S 
ATOM     93  O   UNL A   1      44.424  23.515  36.125  1.00  0.00    -0.237 OA
ATOM     94  O   UNL A   1      46.407  24.088  37.488  1.00  0.00    -0.237 OA
ATOM     95  O   UNL A   1      44.188  24.958  38.109  1.00  0.00    -0.744 OA
ENDBRANCH  88  92
ENDBRANCH  62  85
ENDBRANCH  36  37
ENDBRANCH  29  31
ENDBRANCH  28  29
ENDBRANCH  27  28
ENDBRANCH   1  27
TORSDOF 18
ENDMDL
MODEL 2
REMARK VINA RESULT:     -11.6      2.125      2.670
REMARK SMILES CC[C@H]1CCCC[N@H+]1[C@@H]1CC(=O)N(c2nc(CC(=O)OCCOC(=O)c3ccc(-c4c5nc(c(-c6cc(S(=O)(=O)[O-])ccc6F)c6ccc([nH]6)c(-c6cc(S(=O)(=O)[O-])ccc6F)c6nc(c(-c7cc(S(=O)(=O)[O-])ccc7F)c7ccc4[nH]7)C=C6)C=C5)cc3)cs2)C1=O
REMARK SMILES IDX 21 1 20 2 18 3 19 4 17 5 16 6 14 7 15 8 90 9 89 10 13 11
REMARK SMILES IDX 9 12 10 13 91 14 11 15 92 16 12 17 8 18 3 19 4 20 5 21 7 22
REMARK SMILES IDX 6 24 2 25 1 26 22 27 23 28 24 29 25 30 26 31 27 32 88 33
REMARK SMILES IDX 28 34 87 35 29 36 30 37 31 38 81 39 32 40 86 41 80 42 82 43
REMARK SMILES IDX 33 44 85 45 79 46 78 47 34 49 66 50 46 51 65 52 47 53 50 54
REMARK SMILES IDX 64 55 83 56 48 57 49 58 63 60 84 61 51 62 35 63 36 64 44 65
REMARK SMILES IDX 37 66 43 67 45 68 42 69 38 70 39 71 40 72 41 73 67 74 68 75
REMARK SMILES IDX 76 76 69 77 75 78 77 79 74 80 70 81 71 82 72 83 73 84 52 85
REMARK SMILES IDX 53 86 61 87 54 88 60 89 62 90 59 91 55 92 56 93 57 94 58 95
REMARK H PARENT 8 23 82 48 50 59
REMARK Flexibility Score: inf
ROOT
ATOM      1  C   UNL A   1      31.291  29.811  24.667  1.00  0.00     0.274 C 
ENDROOT
BRANCH   1   2
ATOM      2  O   UNL A   1      31.284  29.418  23.282  1.00  0.00    -0.462 OA
BRANCH   2   3
ATOM      3  C   UNL A   1      30.141  28.835  22.828  1.00  0.00     0.312 C 
ATOM      4  O   UNL A   1      29.658  29.030  21.717  1.00  0.00    -0.252 OA
BRANCH   3   5
ATOM      5  C   UNL A   1      29.488  27.920  23.838  1.00  0.00     0.179 C 
BRANCH   5   6
ATOM      6  C   UNL A   1      30.039  26.536  23.871  1.00  0.00     0.065 A 
ATOM      7  C   UNL A   1      31.580  25.083  24.512  1.00  0.00     0.199 A 
ATOM      8  N   UNL A   1      31.176  26.326  24.626  1.00  0.00    -0.224 NA
ATOM      9  S   UNL A   1      30.617  24.086  23.508  1.00  0.00    -0.104 S 
ATOM     10  C   UNL A   1      29.533  25.393  23.277  1.00  0.00     0.093 A 
BRANCH   7  11
ATOM     11  N   UNL A   1      32.592  24.513  25.234  1.00  0.00    -0.219 N 
ATOM     12  C   UNL A   1      34.668  23.699  25.921  1.00  0.00     0.285 C 
ATOM     13  C   UNL A   1      33.599  23.323  26.938  1.00  0.00     0.176 C 
ATOM     14  C   UNL A   1      33.893  24.421  24.819  1.00  0.00     0.294 C 
ATOM     15  C   UNL A   1      32.377  24.064  26.504  1.00  0.00     0.242 C 
ATOM     16  O   UNL A   1      34.409  24.901  23.817  1.00  0.00    -0.267 OA
ATOM     17  O   UNL A   1      31.379  24.123  27.208  1.00  0.00    -0.274 OA
BRANCH  12  18
ATOM     18  N   UNL A   1      35.510  22.618  25.381  1.00  0.00    -0.322 N 
ATOM     19  C   UNL A   1      36.931  22.959  25.153  1.00  0.00     0.184 C 
ATOM     20  C   UNL A   1      37.530  21.884  24.222  1.00  0.00     0.065 C 
ATOM     21  C   UNL A   1      37.381  20.479  24.797  1.00  0.00     0.012 C 
ATOM     22  C   UNL A   1      35.298  21.292  25.974  1.00  0.00     0.263 C 
ATOM     23  H   UNL A   1      35.138  22.526  24.436  1.00  0.00     0.349 HD
ATOM     24  C   UNL A   1      35.917  20.197  25.105  1.00  0.00     0.062 C 
BRANCH  19  25
ATOM     25  C   UNL A   1      37.760  23.177  26.444  1.00  0.00     0.061 C 
ATOM     26  C   UNL A   1      38.465  24.524  26.535  1.00  0.00     0.010 C 
ENDBRANCH  19  25
ENDBRANCH  12  18
ENDBRANCH   7  11
ENDBRANCH   5   6
ENDBRANCH   3   5
ENDBRANCH   2   3
ENDBRANCH   1   2
BRANCH   1  27
ATOM     27  C   UNL A   1      32.707  29.725  25.230  1.00  0.00     0.275 C 
BRANCH  27  28
ATOM     28  O   UNL A   1      32.676  29.948  26.650  1.00  0.00    -0.458 OA
BRANCH  28  29
ATOM     29  C   UNL A   1      33.108  31.160  27.068  1.00  0.00     0.338 C 
ATOM     30  O   UNL A   1      32.556  32.236  26.928  1.00  0.00    -0.246 OA
BRANCH  29  31
ATOM     31  C   UNL A   1      34.398  30.999  27.754  1.00  0.00     0.060 A 
ATOM     32  C   UNL A   1      35.269  32.084  27.883  1.00  0.00     0.016 A 
ATOM     33  C   UNL A   1      34.766  29.736  28.212  1.00  0.00     0.016 A 
ATOM     34  C   UNL A   1      36.523  31.907  28.464  1.00  0.00     0.010 A 
ATOM     35  C   UNL A   1      36.002  29.572  28.843  1.00  0.00     0.010 A 
ATOM     36  C   UNL A   1      36.891  30.654  28.968  1.00  0.00    -0.014 A 
BRANCH  36  37
ATOM     37  C   UNL A   1      38.199  30.452  29.642  1.00  0.00     0.031 A 
ATOM     38  C   UNL A   1      39.233  29.564  29.012  1.00  0.00     0.074 A 
ATOM     39  C   UNL A   1      38.428  31.019  30.842  1.00  0.00     0.049 A 
ATOM     40  N   UNL A   1      40.332  29.078  29.527  1.00  0.00    -0.248 NA
ATOM     41  C   UNL A   1      38.989  29.163  27.619  1.00  0.00     0.031 C 
ATOM     42  C   UNL A   1      37.520  31.940  31.529  1.00  0.00     0.029 A 
ATOM     43  N   UNL A   1      39.483  30.885  31.708  1.00  0.00    -0.354 N 
ATOM     44  C   UNL A   1      40.901  28.290  28.533  1.00  0.00     0.074 A 
ATOM     45  C   UNL A   1      40.012  28.351  27.390  1.00  0.00     0.031 C 
ATOM     46  C   UNL A   1      38.052  32.277  32.713  1.00  0.00     0.029 A 
ATOM     47  C   UNL A   1      39.296  31.539  32.904  1.00  0.00     0.049 A 
ATOM     48  H   UNL A   1      40.296  30.371  31.495  1.00  0.00     0.167 HD
ATOM     49  C   UNL A   1      42.056  27.581  28.576  1.00  0.00     0.034 A 
ATOM     50  C   UNL A   1      40.010  31.499  34.045  1.00  0.00     0.034 A 
ATOM     51  C   UNL A   1      42.927  27.540  29.726  1.00  0.00     0.049 A 
ATOM     52  C   UNL A   1      41.229  30.618  34.109  1.00  0.00     0.074 A 
ATOM     53  C   UNL A   1      44.140  26.887  29.869  1.00  0.00     0.029 A 
ATOM     54  N   UNL A   1      42.672  28.169  30.938  1.00  0.00    -0.354 N 
ATOM     55  N   UNL A   1      41.747  29.857  33.173  1.00  0.00    -0.248 NA
ATOM     56  C   UNL A   1      41.950  30.577  35.389  1.00  0.00     0.031 C 
ATOM     57  C   UNL A   1      44.583  27.067  31.185  1.00  0.00     0.029 A 
ATOM     58  C   UNL A   1      43.681  27.884  31.847  1.00  0.00     0.049 A 
ATOM     59  H   UNL A   1      41.889  28.734  31.126  1.00  0.00     0.167 HD
ATOM     60  C   UNL A   1      42.859  29.252  33.749  1.00  0.00     0.074 A 
ATOM     61  C   UNL A   1      42.947  29.752  35.107  1.00  0.00     0.031 C 
ATOM     62  C   UNL A   1      43.732  28.365  33.206  1.00  0.00     0.034 A 
BRANCH  49  63
ATOM     63  C   UNL A   1      42.406  26.749  27.367  1.00  0.00     0.023 A 
ATOM     64  C   UNL A   1      42.207  25.358  27.339  1.00  0.00     0.031 A 
ATOM     65  C   UNL A   1      42.973  27.357  26.234  1.00  0.00     0.131 A 
ATOM     66  C   UNL A   1      42.632  24.613  26.228  1.00  0.00     0.055 A 
ATOM     67  C   UNL A   1      43.331  26.620  25.104  1.00  0.00     0.041 A 
ATOM     68  F   UNL A   1      43.206  28.679  26.213  1.00  0.00    -0.206 F 
ATOM     69  C   UNL A   1      43.172  25.238  25.102  1.00  0.00     0.022 A 
BRANCH  66  70
ATOM     70  S   UNL A   1      42.588  22.802  26.327  1.00  0.00     0.124 S 
ATOM     71  O   UNL A   1      41.202  22.561  26.722  1.00  0.00    -0.237 OA
ATOM     72  O   UNL A   1      42.944  22.404  24.971  1.00  0.00    -0.237 OA
ATOM     73  O   UNL A   1      43.583  22.490  27.351  1.00  0.00    -0.744 OA
ENDBRANCH  66  70
ENDBRANCH  49  63
BRANCH  50  74
ATOM     74  C   UNL A   1      39.543  32.245  35.249  1.00  0.00     0.023 A 
ATOM     75  C   UNL A   1      39.918  33.578  35.465  1.00  0.00     0.031 A 
ATOM     76  C   UNL A   1      38.740  31.616  36.219  1.00  0.00     0.131 A 
ATOM     77  C   UNL A   1      39.515  34.234  36.640  1.00  0.00     0.055 A 
ATOM     78  C   UNL A   1      38.302  32.288  37.360  1.00  0.00     0.041 A 
ATOM     79  F   UNL A   1      38.357  30.340  36.060  1.00  0.00    -0.206 F 
ATOM     80  C   UNL A   1      38.698  33.603  37.580  1.00  0.00     0.022 A 
BRANCH  77  81
ATOM     81  S   UNL A   1      40.133  35.910  36.954  1.00  0.00     0.124 S 
ATOM     82  O   UNL A   1      41.574  35.692  36.998  1.00  0.00    -0.237 OA
ATOM     83  O   UNL A   1      39.630  36.641  35.796  1.00  0.00    -0.237 OA
ATOM     84  O   UNL A   1      39.516  36.266  38.230  1.00  0.00    -0.744 OA
ENDBRANCH  77  81
ENDBRANCH  50  74
BRANCH  62  85
ATOM     85  C   UNL A   1      44.862  27.902  34.088  1.00  0.00     0.023 A 
ATOM     86  C   UNL A   1      46.075  28.609  34.156  1.00  0.00     0.031 A 
ATOM     87  C   UNL A   1      44.727  26.734  34.858  1.00  0.00     0.131 A 
ATOM     88  C   UNL A   1      47.125  28.116  34.944  1.00  0.00     0.055 A 
ATOM     89  C   UNL A   1      45.758  26.275  35.679  1.00  0.00     0.041 A 
ATOM     90  F   UNL A   1      43.590  26.022  34.825  1.00  0.00    -0.206 F 
ATOM     91  C   UNL A   1      46.968  26.962  35.717  1.00  0.00     0.022 A 
BRANCH  88  92
ATOM     92  S   UNL A   1      48.726  28.966  34.898  1.00  0.00     0.124 S 
ATOM     93  O   UNL A   1      48.598  29.911  36.004  1.00  0.00    -0.237 OA
ATOM     94  O   UNL A   1      49.670  27.872  35.101  1.00  0.00    -0.237 OA
ATOM     95  O   UNL A   1      48.756  29.570  33.568  1.00  0.00    -0.744 OA
ENDBRANCH  88  92
ENDBRANCH  62  85
ENDBRANCH  36  37
ENDBRANCH  29  31
ENDBRANCH  28  29
ENDBRANCH  27  28
ENDBRANCH   1  27
TORSDOF 18
ENDMDL
MODEL 3
REMARK VINA RESULT:     -11.4      1.842      2.645
REMARK SMILES CC[C@H]1CCCC[N@H+]1[C@@H]1CC(=O)N(c2nc(CC(=O)OCCOC(=O)c3ccc(-c4c5nc(c(-c6cc(S(=O)(=O)[O-])ccc6F)c6ccc([nH]6)c(-c6cc(S(=O)(=O)[O-])ccc6F)c6nc(c(-c7cc(S(=O)(=O)[O-])ccc7F)c7ccc4[nH]7)C=C6)C=C5)cc3)cs2)C1=O
REMARK SMILES IDX 21 1 20 2 18 3 19 4 17 5 16 6 14 7 15 8 90 9 89 10 13 11
REMARK SMILES IDX 9 12 10 13 91 14 11 15 92 16 12 17 8 18 3 19 4 20 5 21 7 22
REMARK SMILES IDX 6 24 2 25 1 26 22 27 23 28 24 29 25 30 26 31 27 32 88 33
REMARK SMILES IDX 28 34 87 35 29 36 30 37 31 38 81 39 32 40 86 41 80 42 82 43
REMARK SMILES IDX 33 44 85 45 79 46 78 47 34 49 66 50 46 51 65 52 47 53 50 54
REMARK SMILES IDX 64 55 83 56 48 57 49 58 63 60 84 61 51 62 35 63 36 64 44 65
REMARK SMILES IDX 37 66 43 67 45 68 42 69 38 70 39 71 40 72 41 73 67 74 68 75
REMARK SMILES IDX 76 76 69 77 75 78 77 79 74 80 70 81 71 82 72 83 73 84 52 85
REMARK SMILES IDX 53 86 61 87 54 88 60 89 62 90 59 91 55 92 56 93 57 94 58 95
REMARK H PARENT 8 23 82 48 50 59
REMARK Flexibility Score: inf
ROOT
ATOM      1  C   UNL A   1      31.391  30.563  25.638  1.00  0.00     0.274 C 
ENDROOT
BRANCH   1   2
ATOM      2  O   UNL A   1      30.643  29.600  24.873  1.00  0.00    -0.462 OA
BRANCH   2   3
ATOM      3  C   UNL A   1      29.955  30.086  23.804  1.00  0.00     0.312 C 
ATOM      4  O   UNL A   1      29.131  30.993  23.864  1.00  0.00    -0.252 OA
BRANCH   3   5
ATOM      5  C   UNL A   1      30.282  29.384  22.506  1.00  0.00     0.179 C 
BRANCH   5   6
ATOM      6  C   UNL A   1      31.568  28.630  22.513  1.00  0.00     0.065 A 
ATOM      7  C   UNL A   1      32.703  26.747  22.759  1.00  0.00     0.199 A 
ATOM      8  N   UNL A   1      31.499  27.265  22.715  1.00  0.00    -0.224 NA
ATOM      9  S   UNL A   1      33.990  27.855  22.546  1.00  0.00    -0.104 S 
ATOM     10  C   UNL A   1      32.847  29.107  22.293  1.00  0.00     0.093 A 
BRANCH   7  11
ATOM     11  N   UNL A   1      32.984  25.409  22.808  1.00  0.00    -0.219 N 
ATOM     12  C   UNL A   1      33.455  23.247  23.548  1.00  0.00     0.285 C 
ATOM     13  C   UNL A   1      33.571  23.315  22.031  1.00  0.00     0.176 C 
ATOM     14  C   UNL A   1      33.127  24.683  23.959  1.00  0.00     0.294 C 
ATOM     15  C   UNL A   1      33.053  24.667  21.665  1.00  0.00     0.242 C 
ATOM     16  O   UNL A   1      32.936  25.040  25.115  1.00  0.00    -0.267 OA
ATOM     17  O   UNL A   1      32.841  24.979  20.502  1.00  0.00    -0.274 OA
BRANCH  12  18
ATOM     18  N   UNL A   1      34.602  22.710  24.299  1.00  0.00    -0.322 N 
ATOM     19  C   UNL A   1      34.304  21.592  25.221  1.00  0.00     0.184 C 
ATOM     20  C   UNL A   1      35.493  21.455  26.195  1.00  0.00     0.065 C 
ATOM     21  C   UNL A   1      36.813  21.235  25.463  1.00  0.00     0.012 C 
ATOM     22  C   UNL A   1      35.841  22.542  23.531  1.00  0.00     0.263 C 
ATOM     23  H   UNL A   1      34.809  23.483  24.931  1.00  0.00     0.349 HD
ATOM     24  C   UNL A   1      37.042  22.356  24.459  1.00  0.00     0.062 C 
BRANCH  19  25
ATOM     25  C   UNL A   1      33.933  20.259  24.523  1.00  0.00     0.061 C 
ATOM     26  C   UNL A   1      32.728  19.539  25.113  1.00  0.00     0.010 C 
ENDBRANCH  19  25
ENDBRANCH  12  18
ENDBRANCH   7  11
ENDBRANCH   5   6
ENDBRANCH   3   5
ENDBRANCH   2   3
ENDBRANCH   1   2
BRANCH   1  27
ATOM     27  C   UNL A   1      32.832  30.087  25.815  1.00  0.00     0.275 C 
BRANCH  27  28
ATOM     28  O   UNL A   1      33.239  30.283  27.180  1.00  0.00    -0.458 OA
BRANCH  28  29
ATOM     29  C   UNL A   1      33.953  31.405  27.429  1.00  0.00     0.338 C 
ATOM     30  O   UNL A   1      33.625  32.558  27.217  1.00  0.00    -0.246 OA
BRANCH  29  31
ATOM     31  C   UNL A   1      35.242  31.030  28.028  1.00  0.00     0.060 A 
ATOM     32  C   UNL A   1      35.433  29.746  28.544  1.00  0.00     0.016 A 
ATOM     33  C   UNL A   1      36.243  31.993  28.135  1.00  0.00     0.016 A 
ATOM     34  C   UNL A   1      36.629  29.420  29.181  1.00  0.00     0.010 A 
ATOM     35  C   UNL A   1      37.461  31.649  28.726  1.00  0.00     0.010 A 
ATOM     36  C   UNL A   1      37.661  30.363  29.258  1.00  0.00    -0.014 A 
BRANCH  36  37
ATOM     37  C   UNL A   1      38.964  30.024  29.882  1.00  0.00     0.031 A 
ATOM     38  C   UNL A   1      39.862  29.010  29.233  1.00  0.00     0.074 A 
ATOM     39  C   UNL A   1      39.309  30.584  31.058  1.00  0.00     0.049 A 
ATOM     40  N   UNL A   1      40.919  28.411  29.714  1.00  0.00    -0.248 NA
ATOM     41  C   UNL A   1      39.513  28.614  27.861  1.00  0.00     0.031 C 
ATOM     42  C   UNL A   1      38.543  31.617  31.759  1.00  0.00     0.029 A 
ATOM     43  N   UNL A   1      40.379  30.345  31.884  1.00  0.00    -0.354 N 
ATOM     44  C   UNL A   1      41.350  27.543  28.716  1.00  0.00     0.074 A 
ATOM     45  C   UNL A   1      40.426  27.685  27.610  1.00  0.00     0.031 C 
ATOM     46  C   UNL A   1      39.162  31.913  32.913  1.00  0.00     0.029 A 
ATOM     47  C   UNL A   1      40.320  31.040  33.069  1.00  0.00     0.049 A 
ATOM     48  H   UNL A   1      41.117  29.737  31.649  1.00  0.00     0.167 HD
ATOM     49  C   UNL A   1      42.417  26.706  28.729  1.00  0.00     0.034 A 
ATOM     50  C   UNL A   1      41.073  30.939  34.182  1.00  0.00     0.034 A 
ATOM     51  C   UNL A   1      43.326  26.586  29.844  1.00  0.00     0.049 A 
ATOM     52  C   UNL A   1      42.184  29.924  34.217  1.00  0.00     0.074 A 
ATOM     53  C   UNL A   1      44.461  25.800  29.953  1.00  0.00     0.029 A 
ATOM     54  N   UNL A   1      43.198  27.264  31.050  1.00  0.00    -0.354 N 
ATOM     55  N   UNL A   1      42.570  29.090  33.279  1.00  0.00    -0.248 NA
ATOM     56  C   UNL A   1      42.950  29.825  35.467  1.00  0.00     0.031 C 
ATOM     57  C   UNL A   1      44.978  25.953  31.245  1.00  0.00     0.029 A 
ATOM     58  C   UNL A   1      44.206  26.882  31.923  1.00  0.00     0.049 A 
ATOM     59  H   UNL A   1      42.493  27.919  31.256  1.00  0.00     0.167 HD
ATOM     60  C   UNL A   1      43.629  28.371  33.824  1.00  0.00     0.074 A 
ATOM     61  C   UNL A   1      43.833  28.884  35.164  1.00  0.00     0.031 C 
ATOM     62  C   UNL A   1      44.370  27.380  33.268  1.00  0.00     0.034 A 
BRANCH  49  63
ATOM     63  C   UNL A   1      42.616  25.816  27.528  1.00  0.00     0.023 A 
ATOM     64  C   UNL A   1      42.069  24.523  27.462  1.00  0.00     0.031 A 
ATOM     65  C   UNL A   1      43.390  26.261  26.442  1.00  0.00     0.131 A 
ATOM     66  C   UNL A   1      42.358  23.698  26.363  1.00  0.00     0.055 A 
ATOM     67  C   UNL A   1      43.615  25.462  25.321  1.00  0.00     0.041 A 
ATOM     68  F   UNL A   1      43.954  27.480  26.460  1.00  0.00    -0.206 F 
ATOM     69  C   UNL A   1      43.109  24.166  25.283  1.00  0.00     0.022 A 
BRANCH  66  70
ATOM     70  S   UNL A   1      41.845  21.958  26.425  1.00  0.00     0.124 S 
ATOM     71  O   UNL A   1      42.276  21.570  27.766  1.00  0.00    -0.237 OA
ATOM     72  O   UNL A   1      40.405  22.047  26.217  1.00  0.00    -0.237 OA
ATOM     73  O   UNL A   1      42.597  21.340  25.335  1.00  0.00    -0.744 OA
ENDBRANCH  66  70
ENDBRANCH  49  63
BRANCH  50  74
ATOM     74  C   UNL A   1      40.748  31.757  35.385  1.00  0.00     0.023 A 
ATOM     75  C   UNL A   1      39.600  31.500  36.147  1.00  0.00     0.031 A 
ATOM     76  C   UNL A   1      41.570  32.833  35.768  1.00  0.00     0.131 A 
ATOM     77  C   UNL A   1      39.287  32.326  37.238  1.00  0.00     0.055 A 
ATOM     78  C   UNL A   1      41.281  33.621  36.882  1.00  0.00     0.041 A 
ATOM     79  F   UNL A   1      42.679  33.123  35.069  1.00  0.00    -0.206 F 
ATOM     80  C   UNL A   1      40.127  33.376  37.618  1.00  0.00     0.022 A 
BRANCH  77  81
ATOM     81  S   UNL A   1      37.724  32.052  38.117  1.00  0.00     0.124 S 
ATOM     82  O   UNL A   1      38.112  32.307  39.500  1.00  0.00    -0.237 OA
ATOM     83  O   UNL A   1      36.852  33.046  37.502  1.00  0.00    -0.237 OA
ATOM     84  O   UNL A   1      37.398  30.662  37.806  1.00  0.00    -0.744 OA
ENDBRANCH  77  81
ENDBRANCH  50  74
BRANCH  62  85
ATOM     85  C   UNL A   1      45.476  26.806  34.114  1.00  0.00     0.023 A 
ATOM     86  C   UNL A   1      45.234  25.768  35.030  1.00  0.00     0.031 A 
ATOM     87  C   UNL A   1      46.783  27.313  34.012  1.00  0.00     0.131 A 
ATOM     88  C   UNL A   1      46.276  25.299  35.842  1.00  0.00     0.055 A 
ATOM     89  C   UNL A   1      47.827  26.807  34.787  1.00  0.00     0.041 A 
ATOM     90  F   UNL A   1      47.065  28.306  33.154  1.00  0.00    -0.206 F 
ATOM     91  C   UNL A   1      47.574  25.802  35.716  1.00  0.00     0.022 A 
BRANCH  88  92
ATOM     92  S   UNL A   1      45.903  24.063  37.116  1.00  0.00     0.124 S 
ATOM     93  O   UNL A   1      47.042  24.204  38.018  1.00  0.00    -0.237 OA
ATOM     94  O   UNL A   1      44.619  24.524  37.635  1.00  0.00    -0.237 OA
ATOM     95  O   UNL A   1      45.854  22.806  36.372  1.00  0.00    -0.744 OA
ENDBRANCH  88  92
ENDBRANCH  62  85
ENDBRANCH  36  37
ENDBRANCH  29  31
ENDBRANCH  28  29
ENDBRANCH  27  28
ENDBRANCH   1  27
TORSDOF 18
ENDMDL
