MODEL 1
REMARK VINA RESULT:     -10.8      0.000      0.000
REMARK SMILES Cc1ncc(CNC(=O)N(CC(=O)OCCOC(=O)c2ccc(-c3c4nc(c(-c5cc(S(=O)(=O)[O-])ccc5F)c5ccc([nH]5)c(-c5cc(S(=O)(=O)[O-])ccc5F)c5nc(c(-c6cc(S(=O)(=O)[O-])ccc6F)c6ccc3[nH]6)C=C5)C=C4)cc2)C(C)(C)C)s1
REMARK SMILES IDX 15 1 14 2 12 3 13 4 11 5 10 6 8 7 7 8 9 10 6 11 5 12 1 13
REMARK SMILES IDX 2 14 3 15 87 16 4 17 83 18 84 19 85 20 86 21 16 22 17 23
REMARK SMILES IDX 18 24 19 25 20 26 21 27 82 28 22 29 81 30 23 31 24 32 25 33
REMARK SMILES IDX 75 34 26 35 80 36 74 37 76 38 27 39 79 40 73 41 72 42 28 44
REMARK SMILES IDX 60 45 40 46 59 47 41 48 44 49 58 50 77 51 42 52 43 53 57 55
REMARK SMILES IDX 78 56 45 57 29 58 30 59 38 60 31 61 37 62 39 63 36 64 32 65
REMARK SMILES IDX 33 66 34 67 35 68 61 69 62 70 70 71 63 72 69 73 71 74 68 75
REMARK SMILES IDX 64 76 65 77 66 78 67 79 46 80 47 81 55 82 48 83 54 84 56 85
REMARK SMILES IDX 53 86 49 87 50 88 51 89 52 90
REMARK H PARENT 7 9 76 43 44 54
REMARK Flexibility Score: inf
ROOT
ATOM      1  C   UNL A   1      36.546  22.832  23.754  1.00  0.00     0.274 C 
ENDROOT
BRANCH   1   2
ATOM      2  O   UNL A   1      35.442  22.610  22.855  1.00  0.00    -0.461 OA
BRANCH   2   3
ATOM      3  C   UNL A   1      34.404  23.478  23.005  1.00  0.00     0.325 C 
ATOM      4  O   UNL A   1      33.659  23.829  22.093  1.00  0.00    -0.250 OA
BRANCH   3   5
ATOM      5  C   UNL A   1      34.172  23.933  24.444  1.00  0.00     0.244 C 
BRANCH   5   6
ATOM      6  N   UNL A   1      33.251  23.141  25.260  1.00  0.00    -0.309 N 
BRANCH   6   7
ATOM      7  C   UNL A   1      33.614  21.951  25.846  1.00  0.00     0.318 C 
ATOM      8  N   UNL A   1      33.452  20.742  25.281  1.00  0.00    -0.333 N 
ATOM      9  H   UNL A   1      33.892  20.053  25.828  1.00  0.00     0.165 HD
ATOM     10  O   UNL A   1      34.143  21.888  26.960  1.00  0.00    -0.249 OA
BRANCH   8  11
ATOM     11  C   UNL A   1      32.832  20.134  24.121  1.00  0.00     0.166 C 
BRANCH  11  12
ATOM     12  C   UNL A   1      32.890  18.641  24.149  1.00  0.00     0.044 A 
ATOM     13  C   UNL A   1      33.051  14.956  25.375  1.00  0.00     0.079 C 
ATOM     14  C   UNL A   1      33.018  16.273  24.683  1.00  0.00     0.090 A 
ATOM     15  N   UNL A   1      33.279  16.452  23.406  1.00  0.00    -0.250 NA
ATOM     16  S   UNL A   1      32.630  17.697  25.560  1.00  0.00    -0.122 S 
ATOM     17  C   UNL A   1      33.222  17.796  23.106  1.00  0.00     0.128 A 
ENDBRANCH  11  12
ENDBRANCH   8  11
ENDBRANCH   6   7
BRANCH   6  18
ATOM     18  C   UNL A   1      31.854  23.689  25.524  1.00  0.00     0.037 C 
ATOM     19  C   UNL A   1      31.927  25.107  26.133  1.00  0.00     0.034 C 
ATOM     20  C   UNL A   1      31.028  23.714  24.215  1.00  0.00     0.034 C 
ATOM     21  C   UNL A   1      31.008  22.853  26.521  1.00  0.00     0.034 C 
ENDBRANCH   6  18
ENDBRANCH   5   6
ENDBRANCH   3   5
ENDBRANCH   2   3
ENDBRANCH   1   2
BRANCH   1  22
ATOM     22  C   UNL A   1      37.028  21.513  24.362  1.00  0.00     0.275 C 
BRANCH  22  23
ATOM     23  O   UNL A   1      37.395  21.715  25.737  1.00  0.00    -0.458 OA
BRANCH  23  24
ATOM     24  C   UNL A   1      38.693  21.498  26.043  1.00  0.00     0.338 C 
ATOM     25  O   UNL A   1      39.304  20.445  25.893  1.00  0.00    -0.246 OA
BRANCH  24  26
ATOM     26  C   UNL A   1      39.326  22.732  26.567  1.00  0.00     0.060 A 
ATOM     27  C   UNL A   1      38.927  24.001  26.139  1.00  0.00     0.016 A 
ATOM     28  C   UNL A   1      40.404  22.618  27.447  1.00  0.00     0.016 A 
ATOM     29  C   UNL A   1      39.645  25.137  26.519  1.00  0.00     0.010 A 
ATOM     30  C   UNL A   1      41.052  23.767  27.915  1.00  0.00     0.010 A 
ATOM     31  C   UNL A   1      40.693  25.042  27.445  1.00  0.00    -0.014 A 
BRANCH  31  32
ATOM     32  C   UNL A   1      41.388  26.264  27.948  1.00  0.00     0.031 A 
ATOM     33  C   UNL A   1      40.634  27.311  28.728  1.00  0.00     0.074 A 
ATOM     34  C   UNL A   1      42.692  26.461  27.661  1.00  0.00     0.049 A 
ATOM     35  N   UNL A   1      41.007  28.520  29.063  1.00  0.00    -0.248 NA
ATOM     36  C   UNL A   1      39.276  26.959  29.170  1.00  0.00     0.031 C 
ATOM     37  C   UNL A   1      43.552  25.527  26.926  1.00  0.00     0.029 A 
ATOM     38  N   UNL A   1      43.526  27.515  27.943  1.00  0.00    -0.354 N 
ATOM     39  C   UNL A   1      39.910  29.098  29.697  1.00  0.00     0.074 A 
ATOM     40  C   UNL A   1      38.860  28.101  29.703  1.00  0.00     0.031 C 
ATOM     41  C   UNL A   1      44.789  26.035  26.841  1.00  0.00     0.029 A 
ATOM     42  C   UNL A   1      44.795  27.369  27.427  1.00  0.00     0.049 A 
ATOM     43  H   UNL A   1      43.243  28.301  28.464  1.00  0.00     0.167 HD
ATOM     44  C   UNL A   1      39.792  30.346  30.216  1.00  0.00     0.034 A 
ATOM     45  C   UNL A   1      45.834  28.226  27.379  1.00  0.00     0.034 A 
ATOM     46  C   UNL A   1      40.866  31.311  30.258  1.00  0.00     0.049 A 
ATOM     47  C   UNL A   1      45.671  29.606  27.955  1.00  0.00     0.074 A 
ATOM     48  C   UNL A   1      40.865  32.572  30.832  1.00  0.00     0.029 A 
ATOM     49  N   UNL A   1      42.127  31.126  29.712  1.00  0.00    -0.354 N 
ATOM     50  N   UNL A   1      44.620  30.140  28.530  1.00  0.00    -0.248 NA
ATOM     51  C   UNL A   1      46.832  30.499  27.863  1.00  0.00     0.031 C 
ATOM     52  C   UNL A   1      42.105  33.171  30.582  1.00  0.00     0.029 A 
ATOM     53  C   UNL A   1      42.902  32.260  29.908  1.00  0.00     0.049 A 
ATOM     54  H   UNL A   1      42.428  30.309  29.253  1.00  0.00     0.167 HD
ATOM     55  C   UNL A   1      44.999  31.433  28.878  1.00  0.00     0.074 A 
ATOM     56  C   UNL A   1      46.381  31.585  28.472  1.00  0.00     0.031 C 
ATOM     57  C   UNL A   1      44.271  32.408  29.476  1.00  0.00     0.034 A 
BRANCH  44  58
ATOM     58  C   UNL A   1      38.439  30.768  30.732  1.00  0.00     0.023 A 
ATOM     59  C   UNL A   1      37.486  31.402  29.917  1.00  0.00     0.031 A 
ATOM     60  C   UNL A   1      38.094  30.507  32.071  1.00  0.00     0.131 A 
ATOM     61  C   UNL A   1      36.253  31.794  30.462  1.00  0.00     0.055 A 
ATOM     62  C   UNL A   1      36.843  30.845  32.590  1.00  0.00     0.041 A 
ATOM     63  F   UNL A   1      38.973  29.920  32.899  1.00  0.00    -0.206 F 
ATOM     64  C   UNL A   1      35.917  31.500  31.786  1.00  0.00     0.022 A 
BRANCH  61  65
ATOM     65  S   UNL A   1      35.124  32.781  29.441  1.00  0.00     0.124 S 
ATOM     66  O   UNL A   1      36.033  33.775  28.873  1.00  0.00    -0.237 OA
ATOM     67  O   UNL A   1      34.596  31.793  28.509  1.00  0.00    -0.237 OA
ATOM     68  O   UNL A   1      34.160  33.308  30.405  1.00  0.00    -0.744 OA
ENDBRANCH  61  65
ENDBRANCH  44  58
BRANCH  45  69
ATOM     69  C   UNL A   1      47.100  27.835  26.697  1.00  0.00     0.023 A 
ATOM     70  C   UNL A   1      47.233  27.940  25.304  1.00  0.00     0.031 A 
ATOM     71  C   UNL A   1      48.182  27.308  27.426  1.00  0.00     0.131 A 
ATOM     72  C   UNL A   1      48.405  27.490  24.679  1.00  0.00     0.055 A 
ATOM     73  C   UNL A   1      49.367  26.912  26.806  1.00  0.00     0.041 A 
ATOM     74  F   UNL A   1      48.106  27.186  28.761  1.00  0.00    -0.206 F 
ATOM     75  C   UNL A   1      49.478  26.990  25.421  1.00  0.00     0.022 A 
BRANCH  72  76
ATOM     76  S   UNL A   1      48.475  27.485  22.867  1.00  0.00     0.124 S 
ATOM     77  O   UNL A   1      47.247  28.191  22.519  1.00  0.00    -0.237 OA
ATOM     78  O   UNL A   1      49.719  28.202  22.611  1.00  0.00    -0.237 OA
ATOM     79  O   UNL A   1      48.494  26.064  22.530  1.00  0.00    -0.744 OA
ENDBRANCH  72  76
ENDBRANCH  45  69
BRANCH  57  80
ATOM     80  C   UNL A   1      44.982  33.709  29.748  1.00  0.00     0.023 A 
ATOM     81  C   UNL A   1      45.049  34.724  28.779  1.00  0.00     0.031 A 
ATOM     82  C   UNL A   1      45.643  33.912  30.971  1.00  0.00     0.131 A 
ATOM     83  C   UNL A   1      45.815  35.873  29.023  1.00  0.00     0.055 A 
ATOM     84  C   UNL A   1      46.359  35.081  31.230  1.00  0.00     0.041 A 
ATOM     85  F   UNL A   1      45.613  32.971  31.928  1.00  0.00    -0.206 F 
ATOM     86  C   UNL A   1      46.462  36.063  30.248  1.00  0.00     0.022 A 
BRANCH  83  87
ATOM     87  S   UNL A   1      46.042  37.071  27.680  1.00  0.00     0.124 S 
ATOM     88  O   UNL A   1      45.185  38.172  28.106  1.00  0.00    -0.237 OA
ATOM     89  O   UNL A   1      47.479  37.326  27.729  1.00  0.00    -0.237 OA
ATOM     90  O   UNL A   1      45.582  36.349  26.495  1.00  0.00    -0.744 OA
ENDBRANCH  83  87
ENDBRANCH  57  80
ENDBRANCH  31  32
ENDBRANCH  24  26
ENDBRANCH  23  24
ENDBRANCH  22  23
ENDBRANCH   1  22
TORSDOF 19
ENDMDL
MODEL 2
REMARK VINA RESULT:     -10.5      5.609     10.509
REMARK SMILES Cc1ncc(CNC(=O)N(CC(=O)OCCOC(=O)c2ccc(-c3c4nc(c(-c5cc(S(=O)(=O)[O-])ccc5F)c5ccc([nH]5)c(-c5cc(S(=O)(=O)[O-])ccc5F)c5nc(c(-c6cc(S(=O)(=O)[O-])ccc6F)c6ccc3[nH]6)C=C5)C=C4)cc2)C(C)(C)C)s1
REMARK SMILES IDX 15 1 14 2 12 3 13 4 11 5 10 6 8 7 7 8 9 10 6 11 5 12 1 13
REMARK SMILES IDX 2 14 3 15 87 16 4 17 83 18 84 19 85 20 86 21 16 22 17 23
REMARK SMILES IDX 18 24 19 25 20 26 21 27 82 28 22 29 81 30 23 31 24 32 25 33
REMARK SMILES IDX 75 34 26 35 80 36 74 37 76 38 27 39 79 40 73 41 72 42 28 44
REMARK SMILES IDX 60 45 40 46 59 47 41 48 44 49 58 50 77 51 42 52 43 53 57 55
REMARK SMILES IDX 78 56 45 57 29 58 30 59 38 60 31 61 37 62 39 63 36 64 32 65
REMARK SMILES IDX 33 66 34 67 35 68 61 69 62 70 70 71 63 72 69 73 71 74 68 75
REMARK SMILES IDX 64 76 65 77 66 78 67 79 46 80 47 81 55 82 48 83 54 84 56 85
REMARK SMILES IDX 53 86 49 87 50 88 51 89 52 90
REMARK H PARENT 7 9 76 43 44 54
REMARK Flexibility Score: inf
ROOT
ATOM      1  C   UNL A   1      31.865  28.542  25.915  1.00  0.00     0.274 C 
ENDROOT
BRANCH   1   2
ATOM      2  O   UNL A   1      31.758  27.475  26.878  1.00  0.00    -0.461 OA
BRANCH   2   3
ATOM      3  C   UNL A   1      31.555  26.242  26.340  1.00  0.00     0.325 C 
ATOM      4  O   UNL A   1      30.539  25.573  26.509  1.00  0.00    -0.250 OA
BRANCH   3   5
ATOM      5  C   UNL A   1      32.676  25.771  25.415  1.00  0.00     0.244 C 
BRANCH   5   6
ATOM      6  N   UNL A   1      32.313  25.423  24.041  1.00  0.00    -0.309 N 
BRANCH   6   7
ATOM      7  C   UNL A   1      32.168  26.367  23.050  1.00  0.00     0.318 C 
ATOM      8  N   UNL A   1      31.052  27.088  22.841  1.00  0.00    -0.333 N 
ATOM      9  H   UNL A   1      31.221  27.779  22.162  1.00  0.00     0.165 HD
ATOM     10  O   UNL A   1      33.072  26.650  22.258  1.00  0.00    -0.249 OA
BRANCH   8  11
ATOM     11  C   UNL A   1      29.680  27.166  23.299  1.00  0.00     0.166 C 
BRANCH  11  12
ATOM     12  C   UNL A   1      29.011  28.444  22.913  1.00  0.00     0.044 A 
ATOM     13  C   UNL A   1      28.386  32.124  21.825  1.00  0.00     0.079 C 
ATOM     14  C   UNL A   1      28.384  30.704  22.271  1.00  0.00     0.090 A 
ATOM     15  N   UNL A   1      27.330  30.070  22.738  1.00  0.00    -0.250 NA
ATOM     16  S   UNL A   1      29.830  29.779  22.205  1.00  0.00    -0.122 S 
ATOM     17  C   UNL A   1      27.689  28.794  23.117  1.00  0.00     0.128 A 
ENDBRANCH  11  12
ENDBRANCH   8  11
ENDBRANCH   6   7
BRANCH   6  18
ATOM     18  C   UNL A   1      32.153  23.953  23.677  1.00  0.00     0.037 C 
ATOM     19  C   UNL A   1      32.709  23.047  24.798  1.00  0.00     0.034 C 
ATOM     20  C   UNL A   1      30.664  23.622  23.414  1.00  0.00     0.034 C 
ATOM     21  C   UNL A   1      32.898  23.521  22.386  1.00  0.00     0.034 C 
ENDBRANCH   6  18
ENDBRANCH   5   6
ENDBRANCH   3   5
ENDBRANCH   2   3
ENDBRANCH   1   2
BRANCH   1  22
ATOM     22  C   UNL A   1      31.787  29.907  26.602  1.00  0.00     0.275 C 
BRANCH  22  23
ATOM     23  O   UNL A   1      32.894  30.725  26.186  1.00  0.00    -0.458 OA
BRANCH  23  24
ATOM     24  C   UNL A   1      33.284  31.683  27.058  1.00  0.00     0.338 C 
ATOM     25  O   UNL A   1      32.671  32.711  27.322  1.00  0.00    -0.246 OA
BRANCH  24  26
ATOM     26  C   UNL A   1      34.567  31.318  27.704  1.00  0.00     0.060 A 
ATOM     27  C   UNL A   1      34.848  30.004  28.091  1.00  0.00     0.016 A 
ATOM     28  C   UNL A   1      35.482  32.327  28.010  1.00  0.00     0.016 A 
ATOM     29  C   UNL A   1      35.987  29.714  28.844  1.00  0.00     0.010 A 
ATOM     30  C   UNL A   1      36.677  32.015  28.668  1.00  0.00     0.010 A 
ATOM     31  C   UNL A   1      36.939  30.707  29.109  1.00  0.00    -0.014 A 
BRANCH  31  32
ATOM     32  C   UNL A   1      38.216  30.381  29.811  1.00  0.00     0.031 A 
ATOM     33  C   UNL A   1      39.211  29.431  29.193  1.00  0.00     0.074 A 
ATOM     34  C   UNL A   1      38.464  30.900  31.032  1.00  0.00     0.049 A 
ATOM     35  N   UNL A   1      40.263  28.869  29.734  1.00  0.00    -0.248 NA
ATOM     36  C   UNL A   1      38.982  29.047  27.792  1.00  0.00     0.031 C 
ATOM     37  C   UNL A   1      37.597  31.843  31.747  1.00  0.00     0.029 A 
ATOM     38  N   UNL A   1      39.512  30.703  31.897  1.00  0.00    -0.354 N 
ATOM     39  C   UNL A   1      40.784  28.016  28.764  1.00  0.00     0.074 A 
ATOM     40  C   UNL A   1      39.931  28.142  27.599  1.00  0.00     0.031 C 
ATOM     41  C   UNL A   1      38.161  32.161  32.920  1.00  0.00     0.029 A 
ATOM     42  C   UNL A   1      39.377  31.377  33.091  1.00  0.00     0.049 A 
ATOM     43  H   UNL A   1      40.287  30.134  31.685  1.00  0.00     0.167 HD
ATOM     44  C   UNL A   1      41.865  27.201  28.844  1.00  0.00     0.034 A 
ATOM     45  C   UNL A   1      40.113  31.335  34.219  1.00  0.00     0.034 A 
ATOM     46  C   UNL A   1      42.743  27.130  29.989  1.00  0.00     0.049 A 
ATOM     47  C   UNL A   1      41.302  30.416  34.282  1.00  0.00     0.074 A 
ATOM     48  C   UNL A   1      43.906  26.392  30.134  1.00  0.00     0.029 A 
ATOM     49  N   UNL A   1      42.559  27.818  31.179  1.00  0.00    -0.354 N 
ATOM     50  N   UNL A   1      41.764  29.602  33.363  1.00  0.00    -0.248 NA
ATOM     51  C   UNL A   1      42.058  30.403  35.540  1.00  0.00     0.031 C 
ATOM     52  C   UNL A   1      44.394  26.590  31.432  1.00  0.00     0.029 A 
ATOM     53  C   UNL A   1      43.571  27.500  32.074  1.00  0.00     0.049 A 
ATOM     54  H   UNL A   1      41.820  28.442  31.362  1.00  0.00     0.167 HD
ATOM     55  C   UNL A   1      42.875  28.987  33.931  1.00  0.00     0.074 A 
ATOM     56  C   UNL A   1      43.026  29.543  35.260  1.00  0.00     0.031 C 
ATOM     57  C   UNL A   1      43.696  28.043  33.404  1.00  0.00     0.034 A 
BRANCH  44  58
ATOM     58  C   UNL A   1      42.135  26.274  27.685  1.00  0.00     0.023 A 
ATOM     59  C   UNL A   1      41.668  24.949  27.656  1.00  0.00     0.031 A 
ATOM     60  C   UNL A   1      42.863  26.743  26.576  1.00  0.00     0.131 A 
ATOM     61  C   UNL A   1      41.974  24.127  26.560  1.00  0.00     0.055 A 
ATOM     62  C   UNL A   1      43.110  25.938  25.462  1.00  0.00     0.041 A 
ATOM     63  F   UNL A   1      43.348  27.995  26.558  1.00  0.00    -0.206 F 
ATOM     64  C   UNL A   1      42.672  24.619  25.454  1.00  0.00     0.022 A 
BRANCH  61  65
ATOM     65  S   UNL A   1      41.526  22.371  26.638  1.00  0.00     0.124 S 
ATOM     66  O   UNL A   1      42.151  21.962  27.893  1.00  0.00    -0.237 OA
ATOM     67  O   UNL A   1      40.069  22.416  26.635  1.00  0.00    -0.237 OA
ATOM     68  O   UNL A   1      42.134  21.807  25.435  1.00  0.00    -0.744 OA
ENDBRANCH  61  65
ENDBRANCH  44  58
BRANCH  45  69
ATOM     69  C   UNL A   1      39.708  32.133  35.411  1.00  0.00     0.023 A 
ATOM     70  C   UNL A   1      38.880  31.582  36.401  1.00  0.00     0.031 A 
ATOM     71  C   UNL A   1      40.111  33.473  35.556  1.00  0.00     0.131 A 
ATOM     72  C   UNL A   1      38.449  32.380  37.472  1.00  0.00     0.055 A 
ATOM     73  C   UNL A   1      39.723  34.246  36.651  1.00  0.00     0.041 A 
ATOM     74  F   UNL A   1      40.904  34.047  34.636  1.00  0.00    -0.206 F 
ATOM     75  C   UNL A   1      38.876  33.702  37.611  1.00  0.00     0.022 A 
BRANCH  72  76
ATOM     76  S   UNL A   1      37.246  31.687  38.639  1.00  0.00     0.124 S 
ATOM     77  O   UNL A   1      36.131  32.619  38.508  1.00  0.00    -0.237 OA
ATOM     78  O   UNL A   1      37.030  30.352  38.092  1.00  0.00    -0.237 OA
ATOM     79  O   UNL A   1      37.949  31.729  39.918  1.00  0.00    -0.744 OA
ENDBRANCH  72  76
ENDBRANCH  45  69
BRANCH  57  80
ATOM     80  C   UNL A   1      44.843  27.590  34.270  1.00  0.00     0.023 A 
ATOM     81  C   UNL A   1      44.803  26.365  34.958  1.00  0.00     0.031 A 
ATOM     82  C   UNL A   1      45.965  28.416  34.448  1.00  0.00     0.131 A 
ATOM     83  C   UNL A   1      45.836  26.028  35.844  1.00  0.00     0.055 A 
ATOM     84  C   UNL A   1      47.017  28.051  35.289  1.00  0.00     0.041 A 
ATOM     85  F   UNL A   1      46.051  29.598  33.816  1.00  0.00    -0.206 F 
ATOM     86  C   UNL A   1      46.949  26.859  36.005  1.00  0.00     0.022 A 
BRANCH  83  87
ATOM     87  S   UNL A   1      45.659  24.538  36.863  1.00  0.00     0.124 S 
ATOM     88  O   UNL A   1      46.457  24.876  38.037  1.00  0.00    -0.237 OA
ATOM     89  O   UNL A   1      44.216  24.472  37.071  1.00  0.00    -0.237 OA
ATOM     90  O   UNL A   1      46.213  23.479  36.021  1.00  0.00    -0.744 OA
ENDBRANCH  83  87
ENDBRANCH  57  80
ENDBRANCH  31  32
ENDBRANCH  24  26
ENDBRANCH  23  24
ENDBRANCH  22  23
ENDBRANCH   1  22
TORSDOF 19
ENDMDL
MODEL 3
REMARK VINA RESULT:     -10.5      5.297      9.922
REMARK SMILES Cc1ncc(CNC(=O)N(CC(=O)OCCOC(=O)c2ccc(-c3c4nc(c(-c5cc(S(=O)(=O)[O-])ccc5F)c5ccc([nH]5)c(-c5cc(S(=O)(=O)[O-])ccc5F)c5nc(c(-c6cc(S(=O)(=O)[O-])ccc6F)c6ccc3[nH]6)C=C5)C=C4)cc2)C(C)(C)C)s1
REMARK SMILES IDX 15 1 14 2 12 3 13 4 11 5 10 6 8 7 7 8 9 10 6 11 5 12 1 13
REMARK SMILES IDX 2 14 3 15 87 16 4 17 83 18 84 19 85 20 86 21 16 22 17 23
REMARK SMILES IDX 18 24 19 25 20 26 21 27 82 28 22 29 81 30 23 31 24 32 25 33
REMARK SMILES IDX 75 34 26 35 80 36 74 37 76 38 27 39 79 40 73 41 72 42 28 44
REMARK SMILES IDX 60 45 40 46 59 47 41 48 44 49 58 50 77 51 42 52 43 53 57 55
REMARK SMILES IDX 78 56 45 57 29 58 30 59 38 60 31 61 37 62 39 63 36 64 32 65
REMARK SMILES IDX 33 66 34 67 35 68 61 69 62 70 70 71 63 72 69 73 71 74 68 75
REMARK SMILES IDX 64 76 65 77 66 78 67 79 46 80 47 81 55 82 48 83 54 84 56 85
REMARK SMILES IDX 53 86 49 87 50 88 51 89 52 90
REMARK H PARENT 7 9 76 43 44 54
REMARK Flexibility Score: inf
ROOT
ATOM      1  C   UNL A   1      31.042  29.400  25.232  1.00  0.00     0.274 C 
ENDROOT
BRANCH   1   2
ATOM      2  O   UNL A   1      30.544  29.503  23.883  1.00  0.00    -0.461 OA
BRANCH   2   3
ATOM      3  C   UNL A   1      30.731  28.391  23.122  1.00  0.00     0.325 C 
ATOM      4  O   UNL A   1      29.821  27.697  22.675  1.00  0.00    -0.250 OA
BRANCH   3   5
ATOM      5  C   UNL A   1      32.193  28.105  22.782  1.00  0.00     0.244 C 
BRANCH   5   6
ATOM      6  N   UNL A   1      32.687  26.749  23.022  1.00  0.00    -0.309 N 
BRANCH   6   7
ATOM      7  C   UNL A   1      32.579  25.744  22.088  1.00  0.00     0.318 C 
ATOM      8  N   UNL A   1      31.749  24.692  22.193  1.00  0.00    -0.333 N 
ATOM      9  H   UNL A   1      31.756  24.172  21.357  1.00  0.00     0.165 HD
ATOM     10  O   UNL A   1      33.240  25.726  21.046  1.00  0.00    -0.249 OA
BRANCH   8  11
ATOM     11  C   UNL A   1      30.847  24.081  23.149  1.00  0.00     0.166 C 
BRANCH  11  12
ATOM     12  C   UNL A   1      31.445  22.896  23.835  1.00  0.00     0.044 A 
ATOM     13  C   UNL A   1      33.238  19.514  24.512  1.00  0.00     0.079 C 
ATOM     14  C   UNL A   1      32.503  20.808  24.491  1.00  0.00     0.090 A 
ATOM     15  N   UNL A   1      31.837  21.304  25.511  1.00  0.00    -0.250 NA
ATOM     16  S   UNL A   1      32.478  21.761  23.063  1.00  0.00    -0.122 S 
ATOM     17  C   UNL A   1      31.223  22.480  25.135  1.00  0.00     0.128 A 
ENDBRANCH  11  12
ENDBRANCH   8  11
ENDBRANCH   6   7
BRANCH   6  18
ATOM     18  C   UNL A   1      33.408  26.455  24.331  1.00  0.00     0.037 C 
ATOM     19  C   UNL A   1      34.243  27.673  24.784  1.00  0.00     0.034 C 
ATOM     20  C   UNL A   1      32.390  26.069  25.432  1.00  0.00     0.034 C 
ATOM     21  C   UNL A   1      34.406  25.268  24.269  1.00  0.00     0.034 C 
ENDBRANCH   6  18
ENDBRANCH   5   6
ENDBRANCH   3   5
ENDBRANCH   2   3
ENDBRANCH   1   2
BRANCH   1  22
ATOM     22  C   UNL A   1      31.489  30.767  25.754  1.00  0.00     0.275 C 
BRANCH  22  23
ATOM     23  O   UNL A   1      32.854  30.695  26.200  1.00  0.00    -0.458 OA
BRANCH  23  24
ATOM     24  C   UNL A   1      33.246  31.654  27.067  1.00  0.00     0.338 C 
ATOM     25  O   UNL A   1      32.632  32.682  27.334  1.00  0.00    -0.246 OA
BRANCH  24  26
ATOM     26  C   UNL A   1      34.533  31.293  27.709  1.00  0.00     0.060 A 
ATOM     27  C   UNL A   1      34.813  29.982  28.106  1.00  0.00     0.016 A 
ATOM     28  C   UNL A   1      35.452  32.303  28.000  1.00  0.00     0.016 A 
ATOM     29  C   UNL A   1      35.957  29.697  28.854  1.00  0.00     0.010 A 
ATOM     30  C   UNL A   1      36.650  31.994  28.652  1.00  0.00     0.010 A 
ATOM     31  C   UNL A   1      36.913  30.690  29.104  1.00  0.00    -0.014 A 
BRANCH  31  32
ATOM     32  C   UNL A   1      38.194  30.368  29.801  1.00  0.00     0.031 A 
ATOM     33  C   UNL A   1      39.190  29.422  29.178  1.00  0.00     0.074 A 
ATOM     34  C   UNL A   1      38.445  30.886  31.021  1.00  0.00     0.049 A 
ATOM     35  N   UNL A   1      40.245  28.863  29.713  1.00  0.00    -0.248 NA
ATOM     36  C   UNL A   1      38.956  29.039  27.777  1.00  0.00     0.031 C 
ATOM     37  C   UNL A   1      37.577  31.825  31.740  1.00  0.00     0.029 A 
ATOM     38  N   UNL A   1      39.497  30.692  31.882  1.00  0.00    -0.354 N 
ATOM     39  C   UNL A   1      40.765  28.013  28.740  1.00  0.00     0.074 A 
ATOM     40  C   UNL A   1      39.908  28.136  27.579  1.00  0.00     0.031 C 
ATOM     41  C   UNL A   1      38.144  32.144  32.912  1.00  0.00     0.029 A 
ATOM     42  C   UNL A   1      39.364  31.365  33.077  1.00  0.00     0.049 A 
ATOM     43  H   UNL A   1      40.273  30.126  31.666  1.00  0.00     0.167 HD
ATOM     44  C   UNL A   1      41.850  27.201  28.815  1.00  0.00     0.034 A 
ATOM     45  C   UNL A   1      40.105  31.324  34.202  1.00  0.00     0.034 A 
ATOM     46  C   UNL A   1      42.732  27.132  29.957  1.00  0.00     0.049 A 
ATOM     47  C   UNL A   1      41.297  30.409  34.259  1.00  0.00     0.074 A 
ATOM     48  C   UNL A   1      43.899  26.399  30.097  1.00  0.00     0.029 A 
ATOM     49  N   UNL A   1      42.551  27.819  31.149  1.00  0.00    -0.354 N 
ATOM     50  N   UNL A   1      41.758  29.598  33.337  1.00  0.00    -0.248 NA
ATOM     51  C   UNL A   1      42.059  30.397  35.514  1.00  0.00     0.031 C 
ATOM     52  C   UNL A   1      44.391  26.596  31.392  1.00  0.00     0.029 A 
ATOM     53  C   UNL A   1      43.567  27.503  32.039  1.00  0.00     0.049 A 
ATOM     54  H   UNL A   1      41.811  28.439  31.335  1.00  0.00     0.167 HD
ATOM     55  C   UNL A   1      42.874  28.985  33.901  1.00  0.00     0.074 A 
ATOM     56  C   UNL A   1      43.028  29.541  35.229  1.00  0.00     0.031 C 
ATOM     57  C   UNL A   1      43.696  28.045  33.370  1.00  0.00     0.034 A 
BRANCH  44  58
ATOM     58  C   UNL A   1      42.118  26.277  27.655  1.00  0.00     0.023 A 
ATOM     59  C   UNL A   1      41.627  24.962  27.610  1.00  0.00     0.031 A 
ATOM     60  C   UNL A   1      42.872  26.738  26.559  1.00  0.00     0.131 A 
ATOM     61  C   UNL A   1      41.932  24.140  26.513  1.00  0.00     0.055 A 
ATOM     62  C   UNL A   1      43.119  25.936  25.444  1.00  0.00     0.041 A 
ATOM     63  F   UNL A   1      43.381  27.980  26.557  1.00  0.00    -0.206 F 
ATOM     64  C   UNL A   1      42.655  24.625  25.420  1.00  0.00     0.022 A 
BRANCH  61  65
ATOM     65  S   UNL A   1      41.449  22.392  26.573  1.00  0.00     0.124 S 
ATOM     66  O   UNL A   1      40.004  22.479  26.371  1.00  0.00    -0.237 OA
ATOM     67  O   UNL A   1      42.213  21.816  25.475  1.00  0.00    -0.237 OA
ATOM     68  O   UNL A   1      41.859  21.967  27.910  1.00  0.00    -0.744 OA
ENDBRANCH  61  65
ENDBRANCH  44  58
BRANCH  45  69
ATOM     69  C   UNL A   1      39.702  32.119  35.397  1.00  0.00     0.023 A 
ATOM     70  C   UNL A   1      38.870  31.568  36.383  1.00  0.00     0.031 A 
ATOM     71  C   UNL A   1      40.110  33.457  35.547  1.00  0.00     0.131 A 
ATOM     72  C   UNL A   1      38.441  32.364  37.457  1.00  0.00     0.055 A 
ATOM     73  C   UNL A   1      39.725  34.227  36.644  1.00  0.00     0.041 A 
ATOM     74  F   UNL A   1      40.906  34.030  34.630  1.00  0.00    -0.206 F 
ATOM     75  C   UNL A   1      38.873  33.684  37.601  1.00  0.00     0.022 A 
BRANCH  72  76
ATOM     76  S   UNL A   1      37.234  31.672  38.619  1.00  0.00     0.124 S 
ATOM     77  O   UNL A   1      37.028  30.333  38.076  1.00  0.00    -0.237 OA
ATOM     78  O   UNL A   1      37.957  31.744  39.884  1.00  0.00    -0.237 OA
ATOM     79  O   UNL A   1      36.092  32.575  38.503  1.00  0.00    -0.744 OA
ENDBRANCH  72  76
ENDBRANCH  45  69
BRANCH  57  80
ATOM     80  C   UNL A   1      44.848  27.595  34.230  1.00  0.00     0.023 A 
ATOM     81  C   UNL A   1      44.718  26.519  35.124  1.00  0.00     0.031 A 
ATOM     82  C   UNL A   1      46.072  28.284  34.191  1.00  0.00     0.131 A 
ATOM     83  C   UNL A   1      45.774  26.201  35.992  1.00  0.00     0.055 A 
ATOM     84  C   UNL A   1      47.138  27.929  35.018  1.00  0.00     0.041 A 
ATOM     85  F   UNL A   1      46.246  29.322  33.358  1.00  0.00    -0.206 F 
ATOM     86  C   UNL A   1      46.988  26.892  35.936  1.00  0.00     0.022 A 
BRANCH  83  87
ATOM     87  S   UNL A   1      45.504  24.938  37.266  1.00  0.00     0.124 S 
ATOM     88  O   UNL A   1      45.557  25.727  38.492  1.00  0.00    -0.237 OA
ATOM     89  O   UNL A   1      44.194  24.406  36.906  1.00  0.00    -0.237 OA
ATOM     90  O   UNL A   1      46.621  24.014  37.074  1.00  0.00    -0.744 OA
ENDBRANCH  83  87
ENDBRANCH  57  80
ENDBRANCH  31  32
ENDBRANCH  24  26
ENDBRANCH  23  24
ENDBRANCH  22  23
ENDBRANCH   1  22
TORSDOF 19
ENDMDL
