MODEL 1
REMARK VINA RESULT:     -10.0      0.000      0.000
REMARK SMILES C[C@@H](O)C[C@H](C(=O)OCCOC(=O)c1ccc(-c2c3nc(c(-c4cc(S(=O)(=O)[O-])ccc4F)c4ccc([nH]4)c(-c4cc(S(=O)(=O)[O-])ccc4F)c4nc(c(-c5cc(S(=O)(=O)[O-])ccc5F)c5ccc2[nH]5)C=C4)C=C3)cc1)c1ccc(Br)cc1
REMARK SMILES IDX 9 1 8 2 6 3 7 4 5 5 4 6 2 7 1 8 3 9 77 11 78 12 83 13 79 14
REMARK SMILES IDX 82 15 80 16 81 17 10 18 11 19 12 20 13 21 14 22 15 23 76 24
REMARK SMILES IDX 16 25 75 26 17 27 18 28 19 29 69 30 20 31 74 32 68 33 70 34
REMARK SMILES IDX 21 35 73 36 67 37 66 38 22 40 54 41 34 42 53 43 35 44 38 45
REMARK SMILES IDX 52 46 71 47 36 48 37 49 51 51 72 52 39 53 23 54 24 55 32 56
REMARK SMILES IDX 25 57 31 58 33 59 30 60 26 61 27 62 28 63 29 64 55 65 56 66
REMARK SMILES IDX 64 67 57 68 63 69 65 70 62 71 58 72 59 73 60 74 61 75 40 76
REMARK SMILES IDX 41 77 49 78 42 79 48 80 50 81 47 82 43 83 44 84 45 85 46 86
REMARK H PARENT 3 10 70 39 38 50
REMARK Flexibility Score: inf
ROOT
ATOM      1  C   UNL A   1      42.574  20.456  26.386  1.00  0.00     0.274 C 
ENDROOT
BRANCH   1   2
ATOM      2  O   UNL A   1      42.725  21.240  25.189  1.00  0.00    -0.462 OA
BRANCH   2   3
ATOM      3  C   UNL A   1      43.488  22.359  25.306  1.00  0.00     0.313 C 
ATOM      4  O   UNL A   1      43.078  23.487  25.050  1.00  0.00    -0.252 OA
BRANCH   3   5
ATOM      5  C   UNL A   1      44.874  22.084  25.914  1.00  0.00     0.132 C 
BRANCH   5   6
ATOM      6  C   UNL A   1      46.017  21.918  24.894  1.00  0.00     0.051 C 
BRANCH   6   7
ATOM      7  C   UNL A   1      46.157  20.504  24.303  1.00  0.00     0.112 C 
ATOM      8  C   UNL A   1      46.331  19.407  25.352  1.00  0.00     0.038 C 
BRANCH   7   9
ATOM      9  O   UNL A   1      44.960  20.235  23.566  1.00  0.00    -0.393 OA
ATOM     10  H   UNL A   1      44.573  21.072  23.262  1.00  0.00     0.210 HD
ENDBRANCH   7   9
ENDBRANCH   6   7
ENDBRANCH   5   6
BRANCH   5  11
ATOM     11  C   UNL A   1      45.223  23.061  27.039  1.00  0.00    -0.034 A 
ATOM     12  C   UNL A   1      46.375  23.859  26.942  1.00  0.00     0.006 A 
ATOM     13  C   UNL A   1      44.436  23.167  28.198  1.00  0.00     0.006 A 
ATOM     14  C   UNL A   1      46.736  24.728  27.976  1.00  0.00     0.016 A 
ATOM     15  C   UNL A   1      44.810  24.014  29.245  1.00  0.00     0.016 A 
ATOM     16  C   UNL A   1      45.958  24.794  29.127  1.00  0.00     0.017 A 
ATOM     17  Br  UNL A   1      46.460  25.941  30.543  1.00  0.00    -0.051 Br
ENDBRANCH   5  11
ENDBRANCH   3   5
ENDBRANCH   2   3
ENDBRANCH   1   2
BRANCH   1  18
ATOM     18  C   UNL A   1      41.160  19.884  26.467  1.00  0.00     0.275 C 
BRANCH  18  19
ATOM     19  O   UNL A   1      40.307  20.740  27.251  1.00  0.00    -0.458 OA
BRANCH  19  20
ATOM     20  C   UNL A   1      39.555  21.608  26.540  1.00  0.00     0.338 C 
ATOM     21  O   UNL A   1      38.726  21.341  25.684  1.00  0.00    -0.246 OA
BRANCH  20  22
ATOM     22  C   UNL A   1      39.867  22.991  26.932  1.00  0.00     0.060 A 
ATOM     23  C   UNL A   1      39.376  24.063  26.186  1.00  0.00     0.016 A 
ATOM     24  C   UNL A   1      40.763  23.209  27.978  1.00  0.00     0.016 A 
ATOM     25  C   UNL A   1      39.845  25.352  26.436  1.00  0.00     0.010 A 
ATOM     26  C   UNL A   1      41.159  24.512  28.284  1.00  0.00     0.010 A 
ATOM     27  C   UNL A   1      40.728  25.595  27.497  1.00  0.00    -0.014 A 
BRANCH  27  28
ATOM     28  C   UNL A   1      41.211  26.971  27.793  1.00  0.00     0.031 A 
ATOM     29  C   UNL A   1      42.629  27.361  27.466  1.00  0.00     0.074 A 
ATOM     30  C   UNL A   1      40.390  27.861  28.383  1.00  0.00     0.049 A 
ATOM     31  N   UNL A   1      43.299  28.427  27.821  1.00  0.00    -0.248 NA
ATOM     32  C   UNL A   1      43.395  26.414  26.642  1.00  0.00     0.031 C 
ATOM     33  C   UNL A   1      38.986  27.621  28.722  1.00  0.00     0.029 A 
ATOM     34  N   UNL A   1      40.621  29.142  28.816  1.00  0.00    -0.354 N 
ATOM     35  C   UNL A   1      44.580  28.263  27.302  1.00  0.00     0.074 A 
ATOM     36  C   UNL A   1      44.592  26.985  26.618  1.00  0.00     0.031 C 
ATOM     37  C   UNL A   1      38.478  28.721  29.299  1.00  0.00     0.029 A 
ATOM     38  C   UNL A   1      39.538  29.713  29.442  1.00  0.00     0.049 A 
ATOM     39  H   UNL A   1      41.478  29.609  28.690  1.00  0.00     0.167 HD
ATOM     40  C   UNL A   1      45.645  29.099  27.392  1.00  0.00     0.034 A 
ATOM     41  C   UNL A   1      39.420  30.880  30.104  1.00  0.00     0.034 A 
ATOM     42  C   UNL A   1      45.609  30.380  28.057  1.00  0.00     0.049 A 
ATOM     43  C   UNL A   1      40.624  31.772  30.229  1.00  0.00     0.074 A 
ATOM     44  C   UNL A   1      46.623  31.313  28.194  1.00  0.00     0.029 A 
ATOM     45  N   UNL A   1      44.495  30.912  28.695  1.00  0.00    -0.354 N 
ATOM     46  N   UNL A   1      41.842  31.580  29.780  1.00  0.00    -0.248 NA
ATOM     47  C   UNL A   1      40.437  33.034  30.957  1.00  0.00     0.031 C 
ATOM     48  C   UNL A   1      46.138  32.383  28.956  1.00  0.00     0.029 A 
ATOM     49  C   UNL A   1      44.804  32.148  29.244  1.00  0.00     0.049 A 
ATOM     50  H   UNL A   1      43.615  30.475  28.749  1.00  0.00     0.167 HD
ATOM     51  C   UNL A   1      42.566  32.704  30.165  1.00  0.00     0.074 A 
ATOM     52  C   UNL A   1      41.643  33.575  30.866  1.00  0.00     0.031 C 
ATOM     53  C   UNL A   1      43.876  32.992  29.959  1.00  0.00     0.034 A 
BRANCH  40  54
ATOM     54  C   UNL A   1      46.951  28.621  26.804  1.00  0.00     0.023 A 
ATOM     55  C   UNL A   1      47.134  28.471  25.419  1.00  0.00     0.031 A 
ATOM     56  C   UNL A   1      48.020  28.277  27.651  1.00  0.00     0.131 A 
ATOM     57  C   UNL A   1      48.329  27.926  24.927  1.00  0.00     0.055 A 
ATOM     58  C   UNL A   1      49.234  27.804  27.150  1.00  0.00     0.041 A 
ATOM     59  F   UNL A   1      47.896  28.381  28.985  1.00  0.00    -0.206 F 
ATOM     60  C   UNL A   1      49.389  27.611  25.780  1.00  0.00     0.022 A 
BRANCH  57  61
ATOM     61  S   UNL A   1      48.431  27.505  23.165  1.00  0.00     0.124 S 
ATOM     62  O   UNL A   1      48.349  26.046  23.204  1.00  0.00    -0.237 OA
ATOM     63  O   UNL A   1      47.272  28.193  22.609  1.00  0.00    -0.237 OA
ATOM     64  O   UNL A   1      49.728  28.037  22.757  1.00  0.00    -0.744 OA
ENDBRANCH  57  61
ENDBRANCH  40  54
BRANCH  41  65
ATOM     65  C   UNL A   1      38.132  31.236  30.763  1.00  0.00     0.023 A 
ATOM     66  C   UNL A   1      37.139  31.946  30.073  1.00  0.00     0.031 A 
ATOM     67  C   UNL A   1      37.889  30.884  32.103  1.00  0.00     0.131 A 
ATOM     68  C   UNL A   1      35.956  32.307  30.736  1.00  0.00     0.055 A 
ATOM     69  C   UNL A   1      36.692  31.206  32.743  1.00  0.00     0.041 A 
ATOM     70  F   UNL A   1      38.808  30.199  32.802  1.00  0.00    -0.206 F 
ATOM     71  C   UNL A   1      35.721  31.931  32.060  1.00  0.00     0.022 A 
BRANCH  68  72
ATOM     72  S   UNL A   1      34.745  33.331  29.856  1.00  0.00     0.124 S 
ATOM     73  O   UNL A   1      35.607  34.282  29.161  1.00  0.00    -0.237 OA
ATOM     74  O   UNL A   1      34.069  32.347  29.017  1.00  0.00    -0.237 OA
ATOM     75  O   UNL A   1      33.932  33.896  30.930  1.00  0.00    -0.744 OA
ENDBRANCH  68  72
ENDBRANCH  41  65
BRANCH  53  76
ATOM     76  C   UNL A   1      44.362  34.320  30.473  1.00  0.00     0.023 A 
ATOM     77  C   UNL A   1      44.216  35.498  29.720  1.00  0.00     0.031 A 
ATOM     78  C   UNL A   1      45.010  34.401  31.718  1.00  0.00     0.131 A 
ATOM     79  C   UNL A   1      44.757  36.701  30.197  1.00  0.00     0.055 A 
ATOM     80  C   UNL A   1      45.505  35.609  32.208  1.00  0.00     0.041 A 
ATOM     81  F   UNL A   1      45.176  33.303  32.473  1.00  0.00    -0.206 F 
ATOM     82  C   UNL A   1      45.391  36.765  31.442  1.00  0.00     0.022 A 
BRANCH  79  83
ATOM     83  S   UNL A   1      44.694  38.168  29.133  1.00  0.00     0.124 S 
ATOM     84  O   UNL A   1      45.654  39.056  29.782  1.00  0.00    -0.237 OA
ATOM     85  O   UNL A   1      45.096  37.632  27.837  1.00  0.00    -0.237 OA
ATOM     86  O   UNL A   1      43.299  38.596  29.220  1.00  0.00    -0.744 OA
ENDBRANCH  79  83
ENDBRANCH  53  76
ENDBRANCH  27  28
ENDBRANCH  20  22
ENDBRANCH  19  20
ENDBRANCH  18  19
ENDBRANCH   1  18
TORSDOF 18
ENDMDL
MODEL 2
REMARK VINA RESULT:      -9.4      1.910      2.129
REMARK SMILES C[C@@H](O)C[C@H](C(=O)OCCOC(=O)c1ccc(-c2c3nc(c(-c4cc(S(=O)(=O)[O-])ccc4F)c4ccc([nH]4)c(-c4cc(S(=O)(=O)[O-])ccc4F)c4nc(c(-c5cc(S(=O)(=O)[O-])ccc5F)c5ccc2[nH]5)C=C4)C=C3)cc1)c1ccc(Br)cc1
REMARK SMILES IDX 9 1 8 2 6 3 7 4 5 5 4 6 2 7 1 8 3 9 77 11 78 12 83 13 79 14
REMARK SMILES IDX 82 15 80 16 81 17 10 18 11 19 12 20 13 21 14 22 15 23 76 24
REMARK SMILES IDX 16 25 75 26 17 27 18 28 19 29 69 30 20 31 74 32 68 33 70 34
REMARK SMILES IDX 21 35 73 36 67 37 66 38 22 40 54 41 34 42 53 43 35 44 38 45
REMARK SMILES IDX 52 46 71 47 36 48 37 49 51 51 72 52 39 53 23 54 24 55 32 56
REMARK SMILES IDX 25 57 31 58 33 59 30 60 26 61 27 62 28 63 29 64 55 65 56 66
REMARK SMILES IDX 64 67 57 68 63 69 65 70 62 71 58 72 59 73 60 74 61 75 40 76
REMARK SMILES IDX 41 77 49 78 42 79 48 80 50 81 47 82 43 83 44 84 45 85 46 86
REMARK H PARENT 3 10 70 39 38 50
REMARK Flexibility Score: inf
ROOT
ATOM      1  C   UNL A   1      42.039  19.761  26.051  1.00  0.00     0.274 C 
ENDROOT
BRANCH   1   2
ATOM      2  O   UNL A   1      42.656  20.905  26.669  1.00  0.00    -0.462 OA
BRANCH   2   3
ATOM      3  C   UNL A   1      43.287  21.765  25.827  1.00  0.00     0.313 C 
ATOM      4  O   UNL A   1      42.697  22.483  25.025  1.00  0.00    -0.252 OA
BRANCH   3   5
ATOM      5  C   UNL A   1      44.804  21.845  26.072  1.00  0.00     0.132 C 
BRANCH   5   6
ATOM      6  C   UNL A   1      45.674  21.865  24.801  1.00  0.00     0.051 C 
BRANCH   6   7
ATOM      7  C   UNL A   1      45.987  20.480  24.208  1.00  0.00     0.112 C 
ATOM      8  C   UNL A   1      46.083  19.367  25.250  1.00  0.00     0.038 C 
BRANCH   7   9
ATOM      9  O   UNL A   1      44.924  20.158  23.304  1.00  0.00    -0.393 OA
ATOM     10  H   UNL A   1      45.270  20.129  22.398  1.00  0.00     0.210 HD
ENDBRANCH   7   9
ENDBRANCH   6   7
ENDBRANCH   5   6
BRANCH   5  11
ATOM     11  C   UNL A   1      45.179  22.950  27.062  1.00  0.00    -0.034 A 
ATOM     12  C   UNL A   1      46.385  23.653  26.904  1.00  0.00     0.006 A 
ATOM     13  C   UNL A   1      44.361  23.271  28.159  1.00  0.00     0.006 A 
ATOM     14  C   UNL A   1      46.768  24.638  27.819  1.00  0.00     0.016 A 
ATOM     15  C   UNL A   1      44.756  24.235  29.090  1.00  0.00     0.016 A 
ATOM     16  C   UNL A   1      45.956  24.917  28.914  1.00  0.00     0.017 A 
ATOM     17  Br  UNL A   1      46.486  26.223  30.174  1.00  0.00    -0.051 Br
ENDBRANCH   5  11
ENDBRANCH   3   5
ENDBRANCH   2   3
ENDBRANCH   1   2
BRANCH   1  18
ATOM     18  C   UNL A   1      40.520  19.841  26.190  1.00  0.00     0.275 C 
BRANCH  18  19
ATOM     19  O   UNL A   1      40.144  20.913  27.076  1.00  0.00    -0.458 OA
BRANCH  19  20
ATOM     20  C   UNL A   1      39.317  21.837  26.540  1.00  0.00     0.338 C 
ATOM     21  O   UNL A   1      38.308  21.635  25.882  1.00  0.00    -0.246 OA
BRANCH  20  22
ATOM     22  C   UNL A   1      39.796  23.191  26.853  1.00  0.00     0.060 A 
ATOM     23  C   UNL A   1      39.455  24.268  26.032  1.00  0.00     0.016 A 
ATOM     24  C   UNL A   1      40.700  23.361  27.902  1.00  0.00     0.016 A 
ATOM     25  C   UNL A   1      40.081  25.500  26.212  1.00  0.00     0.010 A 
ATOM     26  C   UNL A   1      41.254  24.621  28.135  1.00  0.00     0.010 A 
ATOM     27  C   UNL A   1      40.974  25.697  27.275  1.00  0.00    -0.014 A 
BRANCH  27  28
ATOM     28  C   UNL A   1      41.624  27.018  27.495  1.00  0.00     0.031 A 
ATOM     29  C   UNL A   1      42.999  27.285  26.941  1.00  0.00     0.074 A 
ATOM     30  C   UNL A   1      40.996  27.965  28.218  1.00  0.00     0.049 A 
ATOM     31  N   UNL A   1      43.814  28.279  27.188  1.00  0.00    -0.248 NA
ATOM     32  C   UNL A   1      43.529  26.291  25.996  1.00  0.00     0.031 C 
ATOM     33  C   UNL A   1      39.650  27.845  28.783  1.00  0.00     0.029 A 
ATOM     34  N   UNL A   1      41.412  29.211  28.615  1.00  0.00    -0.354 N 
ATOM     35  C   UNL A   1      44.971  28.011  26.464  1.00  0.00     0.074 A 
ATOM     36  C   UNL A   1      44.753  26.752  25.780  1.00  0.00     0.031 C 
ATOM     37  C   UNL A   1      39.347  28.974  29.442  1.00  0.00     0.029 A 
ATOM     38  C   UNL A   1      40.503  29.863  29.415  1.00  0.00     0.049 A 
ATOM     39  H   UNL A   1      42.276  29.601  28.352  1.00  0.00     0.167 HD
ATOM     40  C   UNL A   1      46.110  28.746  26.382  1.00  0.00     0.034 A 
ATOM     41  C   UNL A   1      40.603  31.022  30.095  1.00  0.00     0.034 A 
ATOM     42  C   UNL A   1      46.301  30.010  27.052  1.00  0.00     0.049 A 
ATOM     43  C   UNL A   1      41.888  31.799  30.024  1.00  0.00     0.074 A 
ATOM     44  C   UNL A   1      47.406  30.845  27.026  1.00  0.00     0.029 A 
ATOM     45  N   UNL A   1      45.361  30.627  27.868  1.00  0.00    -0.354 N 
ATOM     46  N   UNL A   1      42.994  31.508  29.380  1.00  0.00    -0.248 NA
ATOM     47  C   UNL A   1      41.940  33.057  30.781  1.00  0.00     0.031 C 
ATOM     48  C   UNL A   1      47.153  31.938  27.864  1.00  0.00     0.029 A 
ATOM     49  C   UNL A   1      45.867  31.818  28.366  1.00  0.00     0.049 A 
ATOM     50  H   UNL A   1      44.464  30.270  28.064  1.00  0.00     0.167 HD
ATOM     51  C   UNL A   1      43.872  32.553  29.647  1.00  0.00     0.074 A 
ATOM     52  C   UNL A   1      43.161  33.488  30.496  1.00  0.00     0.031 C 
ATOM     53  C   UNL A   1      45.151  32.726  29.230  1.00  0.00     0.034 A 
BRANCH  40  54
ATOM     54  C   UNL A   1      47.252  28.165  25.585  1.00  0.00     0.023 A 
ATOM     55  C   UNL A   1      47.348  28.330  24.192  1.00  0.00     0.031 A 
ATOM     56  C   UNL A   1      48.244  27.402  26.228  1.00  0.00     0.131 A 
ATOM     57  C   UNL A   1      48.371  27.685  23.481  1.00  0.00     0.055 A 
ATOM     58  C   UNL A   1      49.301  26.824  25.523  1.00  0.00     0.041 A 
ATOM     59  F   UNL A   1      48.192  27.193  27.554  1.00  0.00    -0.206 F 
ATOM     60  C   UNL A   1      49.361  26.951  24.139  1.00  0.00     0.022 A 
BRANCH  57  61
ATOM     61  S   UNL A   1      48.314  27.706  21.668  1.00  0.00     0.124 S 
ATOM     62  O   UNL A   1      48.546  26.298  21.349  1.00  0.00    -0.237 OA
ATOM     63  O   UNL A   1      46.971  28.207  21.401  1.00  0.00    -0.237 OA
ATOM     64  O   UNL A   1      49.403  28.607  21.299  1.00  0.00    -0.744 OA
ENDBRANCH  57  61
ENDBRANCH  40  54
BRANCH  41  65
ATOM     65  C   UNL A   1      39.479  31.479  30.958  1.00  0.00     0.023 A 
ATOM     66  C   UNL A   1      39.524  31.318  32.351  1.00  0.00     0.031 A 
ATOM     67  C   UNL A   1      38.333  32.069  30.393  1.00  0.00     0.131 A 
ATOM     68  C   UNL A   1      38.429  31.718  33.131  1.00  0.00     0.055 A 
ATOM     69  C   UNL A   1      37.267  32.505  31.179  1.00  0.00     0.041 A 
ATOM     70  F   UNL A   1      38.247  32.249  29.065  1.00  0.00    -0.206 F 
ATOM     71  C   UNL A   1      37.308  32.321  32.558  1.00  0.00     0.022 A 
BRANCH  68  72
ATOM     72  S   UNL A   1      38.466  31.383  34.914  1.00  0.00     0.124 S 
ATOM     73  O   UNL A   1      38.448  29.924  34.944  1.00  0.00    -0.237 OA
ATOM     74  O   UNL A   1      39.717  32.017  35.315  1.00  0.00    -0.237 OA
ATOM     75  O   UNL A   1      37.254  32.033  35.407  1.00  0.00    -0.744 OA
ENDBRANCH  68  72
ENDBRANCH  41  65
BRANCH  53  76
ATOM     76  C   UNL A   1      45.835  33.994  29.665  1.00  0.00     0.023 A 
ATOM     77  C   UNL A   1      45.769  35.168  28.894  1.00  0.00     0.031 A 
ATOM     78  C   UNL A   1      46.592  34.017  30.850  1.00  0.00     0.131 A 
ATOM     79  C   UNL A   1      46.489  36.304  29.291  1.00  0.00     0.055 A 
ATOM     80  C   UNL A   1      47.269  35.164  31.264  1.00  0.00     0.041 A 
ATOM     81  F   UNL A   1      46.688  32.921  31.618  1.00  0.00    -0.206 F 
ATOM     82  C   UNL A   1      47.229  36.312  30.477  1.00  0.00     0.022 A 
BRANCH  79  83
ATOM     83  S   UNL A   1      46.512  37.749  28.196  1.00  0.00     0.124 S 
ATOM     84  O   UNL A   1      47.377  38.670  28.926  1.00  0.00    -0.237 OA
ATOM     85  O   UNL A   1      47.065  37.198  26.963  1.00  0.00    -0.237 OA
ATOM     86  O   UNL A   1      45.108  38.146  28.121  1.00  0.00    -0.744 OA
ENDBRANCH  79  83
ENDBRANCH  53  76
ENDBRANCH  27  28
ENDBRANCH  20  22
ENDBRANCH  19  20
ENDBRANCH  18  19
ENDBRANCH   1  18
TORSDOF 18
ENDMDL
MODEL 3
REMARK VINA RESULT:      -9.2      3.169      9.466
REMARK SMILES C[C@@H](O)C[C@H](C(=O)OCCOC(=O)c1ccc(-c2c3nc(c(-c4cc(S(=O)(=O)[O-])ccc4F)c4ccc([nH]4)c(-c4cc(S(=O)(=O)[O-])ccc4F)c4nc(c(-c5cc(S(=O)(=O)[O-])ccc5F)c5ccc2[nH]5)C=C4)C=C3)cc1)c1ccc(Br)cc1
REMARK SMILES IDX 9 1 8 2 6 3 7 4 5 5 4 6 2 7 1 8 3 9 77 11 78 12 83 13 79 14
REMARK SMILES IDX 82 15 80 16 81 17 10 18 11 19 12 20 13 21 14 22 15 23 76 24
REMARK SMILES IDX 16 25 75 26 17 27 18 28 19 29 69 30 20 31 74 32 68 33 70 34
REMARK SMILES IDX 21 35 73 36 67 37 66 38 22 40 54 41 34 42 53 43 35 44 38 45
REMARK SMILES IDX 52 46 71 47 36 48 37 49 51 51 72 52 39 53 23 54 24 55 32 56
REMARK SMILES IDX 25 57 31 58 33 59 30 60 26 61 27 62 28 63 29 64 55 65 56 66
REMARK SMILES IDX 64 67 57 68 63 69 65 70 62 71 58 72 59 73 60 74 61 75 40 76
REMARK SMILES IDX 41 77 49 78 42 79 48 80 50 81 47 82 43 83 44 84 45 85 46 86
REMARK H PARENT 3 10 70 39 38 50
REMARK Flexibility Score: inf
ROOT
ATOM      1  C   UNL A   1      36.473  22.596  23.721  1.00  0.00     0.274 C 
ENDROOT
BRANCH   1   2
ATOM      2  O   UNL A   1      35.910  23.645  24.529  1.00  0.00    -0.462 OA
BRANCH   2   3
ATOM      3  C   UNL A   1      34.702  24.120  24.127  1.00  0.00     0.313 C 
ATOM      4  O   UNL A   1      34.440  24.403  22.961  1.00  0.00    -0.252 OA
BRANCH   3   5
ATOM      5  C   UNL A   1      33.657  24.144  25.255  1.00  0.00     0.132 C 
BRANCH   5   6
ATOM      6  C   UNL A   1      33.999  23.280  26.485  1.00  0.00     0.051 C 
BRANCH   6   7
ATOM      7  C   UNL A   1      33.013  22.131  26.763  1.00  0.00     0.112 C 
ATOM      8  C   UNL A   1      33.603  20.740  26.542  1.00  0.00     0.038 C 
BRANCH   7   9
ATOM      9  O   UNL A   1      32.619  22.239  28.136  1.00  0.00    -0.393 OA
ATOM     10  H   UNL A   1      32.976  23.059  28.511  1.00  0.00     0.210 HD
ENDBRANCH   7   9
ENDBRANCH   6   7
ENDBRANCH   5   6
BRANCH   5  11
ATOM     11  C   UNL A   1      33.234  25.565  25.632  1.00  0.00    -0.034 A 
ATOM     12  C   UNL A   1      34.120  26.637  25.430  1.00  0.00     0.006 A 
ATOM     13  C   UNL A   1      31.983  25.836  26.211  1.00  0.00     0.006 A 
ATOM     14  C   UNL A   1      33.771  27.938  25.805  1.00  0.00     0.016 A 
ATOM     15  C   UNL A   1      31.643  27.131  26.612  1.00  0.00     0.016 A 
ATOM     16  C   UNL A   1      32.538  28.177  26.404  1.00  0.00     0.017 A 
ATOM     17  Br  UNL A   1      32.075  29.927  26.945  1.00  0.00    -0.051 Br
ENDBRANCH   5  11
ENDBRANCH   3   5
ENDBRANCH   2   3
ENDBRANCH   1   2
BRANCH   1  18
ATOM     18  C   UNL A   1      36.910  21.428  24.604  1.00  0.00     0.275 C 
BRANCH  18  19
ATOM     19  O   UNL A   1      37.393  21.901  25.875  1.00  0.00    -0.458 OA
BRANCH  19  20
ATOM     20  C   UNL A   1      38.720  21.743  26.081  1.00  0.00     0.338 C 
ATOM     21  O   UNL A   1      39.399  20.765  25.812  1.00  0.00    -0.246 OA
BRANCH  20  22
ATOM     22  C   UNL A   1      39.285  22.949  26.705  1.00  0.00     0.060 A 
ATOM     23  C   UNL A   1      38.738  24.205  26.437  1.00  0.00     0.016 A 
ATOM     24  C   UNL A   1      40.451  22.832  27.462  1.00  0.00     0.016 A 
ATOM     25  C   UNL A   1      39.404  25.354  26.860  1.00  0.00     0.010 A 
ATOM     26  C   UNL A   1      41.064  23.984  27.961  1.00  0.00     0.010 A 
ATOM     27  C   UNL A   1      40.564  25.258  27.641  1.00  0.00    -0.014 A 
BRANCH  27  28
ATOM     28  C   UNL A   1      41.265  26.478  28.125  1.00  0.00     0.031 A 
ATOM     29  C   UNL A   1      40.507  27.536  28.882  1.00  0.00     0.074 A 
ATOM     30  C   UNL A   1      42.574  26.652  27.858  1.00  0.00     0.049 A 
ATOM     31  N   UNL A   1      40.876  28.748  29.209  1.00  0.00    -0.248 NA
ATOM     32  C   UNL A   1      39.145  27.185  29.312  1.00  0.00     0.031 C 
ATOM     33  C   UNL A   1      43.432  25.690  27.162  1.00  0.00     0.029 A 
ATOM     34  N   UNL A   1      43.410  27.707  28.126  1.00  0.00    -0.354 N 
ATOM     35  C   UNL A   1      39.781  29.322  29.846  1.00  0.00     0.074 A 
ATOM     36  C   UNL A   1      38.729  28.325  29.845  1.00  0.00     0.031 C 
ATOM     37  C   UNL A   1      44.672  26.192  27.070  1.00  0.00     0.029 A 
ATOM     38  C   UNL A   1      44.680  27.541  27.626  1.00  0.00     0.049 A 
ATOM     39  H   UNL A   1      43.129  28.504  28.630  1.00  0.00     0.167 HD
ATOM     40  C   UNL A   1      39.664  30.565  30.378  1.00  0.00     0.034 A 
ATOM     41  C   UNL A   1      45.722  28.393  27.572  1.00  0.00     0.034 A 
ATOM     42  C   UNL A   1      40.731  31.538  30.390  1.00  0.00     0.049 A 
ATOM     43  C   UNL A   1      45.558  29.780  28.129  1.00  0.00     0.074 A 
ATOM     44  C   UNL A   1      40.726  32.820  30.915  1.00  0.00     0.029 A 
ATOM     45  N   UNL A   1      41.997  31.336  29.856  1.00  0.00    -0.354 N 
ATOM     46  N   UNL A   1      44.500  30.328  28.679  1.00  0.00    -0.248 NA
ATOM     47  C   UNL A   1      46.727  30.666  28.047  1.00  0.00     0.031 C 
ATOM     48  C   UNL A   1      41.970  33.408  30.654  1.00  0.00     0.029 A 
ATOM     49  C   UNL A   1      42.773  32.473  30.020  1.00  0.00     0.049 A 
ATOM     50  H   UNL A   1      42.299  30.504  29.423  1.00  0.00     0.167 HD
ATOM     51  C   UNL A   1      44.879  31.622  29.019  1.00  0.00     0.074 A 
ATOM     52  C   UNL A   1      46.268  31.766  28.626  1.00  0.00     0.031 C 
ATOM     53  C   UNL A   1      44.148  32.605  29.602  1.00  0.00     0.034 A 
BRANCH  40  54
ATOM     54  C   UNL A   1      38.316  30.956  30.933  1.00  0.00     0.023 A 
ATOM     55  C   UNL A   1      37.329  31.560  30.136  1.00  0.00     0.031 A 
ATOM     56  C   UNL A   1      38.029  30.749  32.295  1.00  0.00     0.131 A 
ATOM     57  C   UNL A   1      36.131  31.999  30.720  1.00  0.00     0.055 A 
ATOM     58  C   UNL A   1      36.805  31.122  32.854  1.00  0.00     0.041 A 
ATOM     59  F   UNL A   1      38.941  30.194  33.109  1.00  0.00    -0.206 F 
ATOM     60  C   UNL A   1      35.852  31.765  32.069  1.00  0.00     0.022 A 
BRANCH  57  61
ATOM     61  S   UNL A   1      34.995  33.004  29.723  1.00  0.00     0.124 S 
ATOM     62  O   UNL A   1      35.919  33.917  29.053  1.00  0.00    -0.237 OA
ATOM     63  O   UNL A   1      34.356  32.006  28.873  1.00  0.00    -0.237 OA
ATOM     64  O   UNL A   1      34.125  33.628  30.716  1.00  0.00    -0.744 OA
ENDBRANCH  57  61
ENDBRANCH  40  54
BRANCH  41  65
ATOM     65  C   UNL A   1      46.987  27.982  26.903  1.00  0.00     0.023 A 
ATOM     66  C   UNL A   1      47.106  27.998  25.505  1.00  0.00     0.031 A 
ATOM     67  C   UNL A   1      48.092  27.551  27.659  1.00  0.00     0.131 A 
ATOM     68  C   UNL A   1      48.296  27.561  24.904  1.00  0.00     0.055 A 
ATOM     69  C   UNL A   1      49.289  27.161  27.058  1.00  0.00     0.041 A 
ATOM     70  F   UNL A   1      48.028  27.525  29.000  1.00  0.00    -0.206 F 
ATOM     71  C   UNL A   1      49.391  27.156  25.670  1.00  0.00     0.022 A 
BRANCH  68  72
ATOM     72  S   UNL A   1      48.373  27.475  23.094  1.00  0.00     0.124 S 
ATOM     73  O   UNL A   1      48.311  26.036  22.861  1.00  0.00    -0.237 OA
ATOM     74  O   UNL A   1      47.192  28.239  22.704  1.00  0.00    -0.237 OA
ATOM     75  O   UNL A   1      49.653  28.104  22.778  1.00  0.00    -0.744 OA
ENDBRANCH  68  72
ENDBRANCH  41  65
BRANCH  53  76
ATOM     76  C   UNL A   1      44.861  33.902  29.875  1.00  0.00     0.023 A 
ATOM     77  C   UNL A   1      44.855  34.955  28.943  1.00  0.00     0.031 A 
ATOM     78  C   UNL A   1      45.583  34.074  31.069  1.00  0.00     0.131 A 
ATOM     79  C   UNL A   1      45.601  36.115  29.199  1.00  0.00     0.055 A 
ATOM     80  C   UNL A   1      46.285  35.248  31.338  1.00  0.00     0.041 A 
ATOM     81  F   UNL A   1      45.621  33.096  31.989  1.00  0.00    -0.206 F 
ATOM     82  C   UNL A   1      46.306  36.272  30.396  1.00  0.00     0.022 A 
BRANCH  79  83
ATOM     83  S   UNL A   1      45.704  37.387  27.910  1.00  0.00     0.124 S 
ATOM     84  O   UNL A   1      44.665  36.961  26.978  1.00  0.00    -0.237 OA
ATOM     85  O   UNL A   1      45.427  38.611  28.657  1.00  0.00    -0.237 OA
ATOM     86  O   UNL A   1      47.072  37.263  27.412  1.00  0.00    -0.744 OA
ENDBRANCH  79  83
ENDBRANCH  53  76
ENDBRANCH  27  28
ENDBRANCH  20  22
ENDBRANCH  19  20
ENDBRANCH  18  19
ENDBRANCH   1  18
TORSDOF 18
ENDMDL
