MODEL 1
REMARK VINA RESULT:     -10.0      0.000      0.000
REMARK SMILES C[C@@](O)(CNC(=O)CC1([NH3+])CCC1)C(=O)OCCOC(=O)c1ccc(-c2c3nc(c(-c4cc(S(=O)(=O)[O-])ccc4F)c4ccc([nH]4)c(-c4cc(S(=O)(=O)[O-])ccc4F)c4nc(c(-c5cc(S(=O)(=O)[O-])ccc5F)c5ccc2[nH]5)C=C4)C=C3)cc1
REMARK SMILES IDX 17 1 16 2 14 3 15 4 2 5 1 6 3 7 4 9 5 10 6 11 7 13 8 14 9 15
REMARK SMILES IDX 11 16 13 17 12 18 10 19 18 23 19 24 20 25 21 26 22 27 23 28
REMARK SMILES IDX 84 29 24 30 83 31 25 32 26 33 27 34 77 35 28 36 82 37 76 38
REMARK SMILES IDX 78 39 29 40 81 41 75 42 74 43 30 45 62 46 42 47 61 48 43 49
REMARK SMILES IDX 46 50 60 51 79 52 44 53 45 54 59 56 80 57 47 58 31 59 32 60
REMARK SMILES IDX 40 61 33 62 39 63 41 64 38 65 34 66 35 67 36 68 37 69 63 70
REMARK SMILES IDX 64 71 72 72 65 73 71 74 73 75 70 76 66 77 67 78 68 79 69 80
REMARK SMILES IDX 48 81 49 82 57 83 50 84 56 85 58 86 55 87 51 88 52 89 53 90
REMARK SMILES IDX 54 91
REMARK H PARENT 3 8 5 12 10 20 10 21 10 22 78 44 46 55
REMARK Flexibility Score: inf
ROOT
ATOM      1  C   UNL A   1      33.624  34.844  28.776  1.00  0.00     0.274 C 
ENDROOT
BRANCH   1   2
ATOM      2  O   UNL A   1      32.628  35.115  29.791  1.00  0.00    -0.460 OA
BRANCH   2   3
ATOM      3  C   UNL A   1      32.759  36.264  30.496  1.00  0.00     0.339 C 
ATOM      4  O   UNL A   1      32.976  37.361  29.985  1.00  0.00    -0.249 OA
BRANCH   3   5
ATOM      5  C   UNL A   1      32.709  36.084  32.028  1.00  0.00     0.176 C 
ATOM      6  C   UNL A   1      31.303  35.702  32.502  1.00  0.00     0.057 C 
BRANCH   5   7
ATOM      7  O   UNL A   1      32.945  37.428  32.532  1.00  0.00    -0.377 OA
ATOM      8  H   UNL A   1      33.304  37.982  31.820  1.00  0.00     0.212 HD
ENDBRANCH   5   7
BRANCH   5   9
ATOM      9  C   UNL A   1      33.790  35.176  32.648  1.00  0.00     0.162 C 
BRANCH   9  10
ATOM     10  N   UNL A   1      33.978  33.859  32.053  1.00  0.00    -0.352 N 
ATOM     11  C   UNL A   1      35.118  33.111  31.999  1.00  0.00     0.226 C 
ATOM     12  H   UNL A   1      33.181  33.459  31.636  1.00  0.00     0.163 HD
ATOM     13  O   UNL A   1      35.041  31.957  31.573  1.00  0.00    -0.275 OA
BRANCH  11  14
ATOM     14  C   UNL A   1      36.434  33.652  32.522  1.00  0.00     0.168 C 
BRANCH  14  15
ATOM     15  C   UNL A   1      36.852  33.230  33.923  1.00  0.00     0.103 C 
ATOM     16  C   UNL A   1      38.189  33.789  34.514  1.00  0.00     0.069 C 
ATOM     17  C   UNL A   1      36.167  33.835  35.178  1.00  0.00     0.069 C 
ATOM     18  C   UNL A   1      37.519  33.822  35.904  1.00  0.00     0.013 C 
BRANCH  15  19
ATOM     19  N   UNL A   1      36.900  31.756  34.063  1.00  0.00    -0.352 N 
ATOM     20  H   UNL A   1      37.799  31.412  33.727  1.00  0.00     0.344 HD
ATOM     21  H   UNL A   1      36.149  31.339  33.514  1.00  0.00     0.344 HD
ATOM     22  H   UNL A   1      36.784  31.505  35.045  1.00  0.00     0.344 HD
ENDBRANCH  15  19
ENDBRANCH  14  15
ENDBRANCH  11  14
ENDBRANCH   9  10
ENDBRANCH   5   9
ENDBRANCH   3   5
ENDBRANCH   2   3
ENDBRANCH   1   2
BRANCH   1  23
ATOM     23  C   UNL A   1      33.272  33.567  28.020  1.00  0.00     0.275 C 
BRANCH  23  24
ATOM     24  O   UNL A   1      34.496  32.892  27.698  1.00  0.00    -0.458 OA
BRANCH  24  25
ATOM     25  C   UNL A   1      34.438  31.542  27.720  1.00  0.00     0.338 C 
ATOM     26  O   UNL A   1      33.553  30.823  27.289  1.00  0.00    -0.246 OA
BRANCH  25  27
ATOM     27  C   UNL A   1      35.715  31.062  28.253  1.00  0.00     0.060 A 
ATOM     28  C   UNL A   1      35.783  29.742  28.693  1.00  0.00     0.016 A 
ATOM     29  C   UNL A   1      36.823  31.899  28.326  1.00  0.00     0.016 A 
ATOM     30  C   UNL A   1      36.961  29.248  29.236  1.00  0.00     0.010 A 
ATOM     31  C   UNL A   1      38.028  31.384  28.812  1.00  0.00     0.010 A 
ATOM     32  C   UNL A   1      38.105  30.057  29.273  1.00  0.00    -0.014 A 
BRANCH  32  33
ATOM     33  C   UNL A   1      39.378  29.491  29.782  1.00  0.00     0.031 A 
ATOM     34  C   UNL A   1      40.041  30.093  30.987  1.00  0.00     0.074 A 
ATOM     35  C   UNL A   1      39.910  28.416  29.167  1.00  0.00     0.049 A 
ATOM     36  N   UNL A   1      41.196  29.804  31.526  1.00  0.00    -0.248 NA
ATOM     37  C   UNL A   1      39.310  31.173  31.666  1.00  0.00     0.031 C 
ATOM     38  C   UNL A   1      39.323  27.734  28.009  1.00  0.00     0.029 A 
ATOM     39  N   UNL A   1      41.046  27.696  29.433  1.00  0.00    -0.354 N 
ATOM     40  C   UNL A   1      41.353  30.691  32.587  1.00  0.00     0.074 A 
ATOM     41  C   UNL A   1      40.175  31.535  32.603  1.00  0.00     0.031 C 
ATOM     42  C   UNL A   1      40.081  26.673  27.692  1.00  0.00     0.029 A 
ATOM     43  C   UNL A   1      41.244  26.642  28.570  1.00  0.00     0.049 A 
ATOM     44  H   UNL A   1      41.661  27.911  30.170  1.00  0.00     0.167 HD
ATOM     45  C   UNL A   1      42.389  30.789  33.457  1.00  0.00     0.034 A 
ATOM     46  C   UNL A   1      42.265  25.768  28.477  1.00  0.00     0.034 A 
ATOM     47  C   UNL A   1      43.546  29.924  33.417  1.00  0.00     0.049 A 
ATOM     48  C   UNL A   1      43.408  25.907  29.447  1.00  0.00     0.074 A 
ATOM     49  C   UNL A   1      44.670  29.940  34.225  1.00  0.00     0.029 A 
ATOM     50  N   UNL A   1      43.725  28.879  32.516  1.00  0.00    -0.354 N 
ATOM     51  N   UNL A   1      43.570  26.787  30.410  1.00  0.00    -0.248 NA
ATOM     52  C   UNL A   1      44.504  24.943  29.316  1.00  0.00     0.031 C 
ATOM     53  C   UNL A   1      45.546  28.942  33.781  1.00  0.00     0.029 A 
ATOM     54  C   UNL A   1      44.944  28.256  32.738  1.00  0.00     0.049 A 
ATOM     55  H   UNL A   1      43.078  28.618  31.822  1.00  0.00     0.167 HD
ATOM     56  C   UNL A   1      44.789  26.478  31.002  1.00  0.00     0.074 A 
ATOM     57  C   UNL A   1      45.297  25.308  30.311  1.00  0.00     0.031 C 
ATOM     58  C   UNL A   1      45.439  27.108  32.015  1.00  0.00     0.034 A 
BRANCH  45  59
ATOM     59  C   UNL A   1      42.341  31.916  34.463  1.00  0.00     0.023 A 
ATOM     60  C   UNL A   1      41.726  31.771  35.720  1.00  0.00     0.031 A 
ATOM     61  C   UNL A   1      42.873  33.175  34.134  1.00  0.00     0.131 A 
ATOM     62  C   UNL A   1      41.593  32.883  36.567  1.00  0.00     0.055 A 
ATOM     63  C   UNL A   1      42.804  34.259  35.013  1.00  0.00     0.041 A 
ATOM     64  F   UNL A   1      43.451  33.383  32.941  1.00  0.00    -0.206 F 
ATOM     65  C   UNL A   1      42.148  34.121  36.232  1.00  0.00     0.022 A 
BRANCH  62  66
ATOM     66  S   UNL A   1      40.561  32.729  38.051  1.00  0.00     0.124 S 
ATOM     67  O   UNL A   1      40.191  34.120  38.298  1.00  0.00    -0.237 OA
ATOM     68  O   UNL A   1      39.488  31.851  37.601  1.00  0.00    -0.237 OA
ATOM     69  O   UNL A   1      41.468  32.148  39.041  1.00  0.00    -0.744 OA
ENDBRANCH  62  66
ENDBRANCH  45  59
BRANCH  46  70
ATOM     70  C   UNL A   1      42.275  24.728  27.409  1.00  0.00     0.023 A 
ATOM     71  C   UNL A   1      41.577  23.520  27.560  1.00  0.00     0.031 A 
ATOM     72  C   UNL A   1      43.005  24.921  26.221  1.00  0.00     0.131 A 
ATOM     73  C   UNL A   1      41.645  22.541  26.555  1.00  0.00     0.055 A 
ATOM     74  C   UNL A   1      43.028  23.967  25.203  1.00  0.00     0.041 A 
ATOM     75  F   UNL A   1      43.691  26.058  26.022  1.00  0.00    -0.206 F 
ATOM     76  C   UNL A   1      42.353  22.762  25.372  1.00  0.00     0.022 A 
BRANCH  73  77
ATOM     77  S   UNL A   1      40.849  20.937  26.846  1.00  0.00     0.124 S 
ATOM     78  O   UNL A   1      41.794  20.017  26.223  1.00  0.00    -0.237 OA
ATOM     79  O   UNL A   1      40.777  20.894  28.303  1.00  0.00    -0.237 OA
ATOM     80  O   UNL A   1      39.562  21.066  26.165  1.00  0.00    -0.744 OA
ENDBRANCH  73  77
ENDBRANCH  46  70
BRANCH  58  81
ATOM     81  C   UNL A   1      46.759  26.510  32.430  1.00  0.00     0.023 A 
ATOM     82  C   UNL A   1      46.822  25.403  33.295  1.00  0.00     0.031 A 
ATOM     83  C   UNL A   1      47.966  27.087  32.001  1.00  0.00     0.131 A 
ATOM     84  C   UNL A   1      48.065  24.954  33.764  1.00  0.00     0.055 A 
ATOM     85  C   UNL A   1      49.202  26.597  32.422  1.00  0.00     0.041 A 
ATOM     86  F   UNL A   1      47.961  28.148  31.178  1.00  0.00    -0.206 F 
ATOM     87  C   UNL A   1      49.256  25.536  33.322  1.00  0.00     0.022 A 
BRANCH  84  88
ATOM     88  S   UNL A   1      48.098  23.678  35.051  1.00  0.00     0.124 S 
ATOM     89  O   UNL A   1      49.045  22.714  34.500  1.00  0.00    -0.237 OA
ATOM     90  O   UNL A   1      48.555  24.424  36.219  1.00  0.00    -0.237 OA
ATOM     91  O   UNL A   1      46.712  23.218  35.115  1.00  0.00    -0.744 OA
ENDBRANCH  84  88
ENDBRANCH  58  81
ENDBRANCH  32  33
ENDBRANCH  25  27
ENDBRANCH  24  25
ENDBRANCH  23  24
ENDBRANCH   1  23
TORSDOF 20
ENDMDL
MODEL 2
REMARK VINA RESULT:      -9.9      1.448      1.709
REMARK SMILES C[C@@](O)(CNC(=O)CC1([NH3+])CCC1)C(=O)OCCOC(=O)c1ccc(-c2c3nc(c(-c4cc(S(=O)(=O)[O-])ccc4F)c4ccc([nH]4)c(-c4cc(S(=O)(=O)[O-])ccc4F)c4nc(c(-c5cc(S(=O)(=O)[O-])ccc5F)c5ccc2[nH]5)C=C4)C=C3)cc1
REMARK SMILES IDX 17 1 16 2 14 3 15 4 2 5 1 6 3 7 4 9 5 10 6 11 7 13 8 14 9 15
REMARK SMILES IDX 11 16 13 17 12 18 10 19 18 23 19 24 20 25 21 26 22 27 23 28
REMARK SMILES IDX 84 29 24 30 83 31 25 32 26 33 27 34 77 35 28 36 82 37 76 38
REMARK SMILES IDX 78 39 29 40 81 41 75 42 74 43 30 45 62 46 42 47 61 48 43 49
REMARK SMILES IDX 46 50 60 51 79 52 44 53 45 54 59 56 80 57 47 58 31 59 32 60
REMARK SMILES IDX 40 61 33 62 39 63 41 64 38 65 34 66 35 67 36 68 37 69 63 70
REMARK SMILES IDX 64 71 72 72 65 73 71 74 73 75 70 76 66 77 67 78 68 79 69 80
REMARK SMILES IDX 48 81 49 82 57 83 50 84 56 85 58 86 55 87 51 88 52 89 53 90
REMARK SMILES IDX 54 91
REMARK H PARENT 3 8 5 12 10 20 10 21 10 22 78 44 46 55
REMARK Flexibility Score: inf
ROOT
ATOM      1  C   UNL A   1      33.211  34.647  28.876  1.00  0.00     0.274 C 
ENDROOT
BRANCH   1   2
ATOM      2  O   UNL A   1      32.916  35.088  30.223  1.00  0.00    -0.460 OA
BRANCH   2   3
ATOM      3  C   UNL A   1      33.028  36.413  30.479  1.00  0.00     0.339 C 
ATOM      4  O   UNL A   1      33.121  37.275  29.607  1.00  0.00    -0.249 OA
BRANCH   3   5
ATOM      5  C   UNL A   1      33.124  36.769  31.978  1.00  0.00     0.176 C 
ATOM      6  C   UNL A   1      31.896  36.280  32.751  1.00  0.00     0.057 C 
BRANCH   5   7
ATOM      7  O   UNL A   1      33.043  38.222  31.983  1.00  0.00    -0.377 OA
ATOM      8  H   UNL A   1      33.939  38.596  31.989  1.00  0.00     0.212 HD
ENDBRANCH   5   7
BRANCH   5   9
ATOM      9  C   UNL A   1      34.439  36.390  32.690  1.00  0.00     0.162 C 
BRANCH   9  10
ATOM     10  N   UNL A   1      35.252  35.346  32.080  1.00  0.00    -0.352 N 
ATOM     11  C   UNL A   1      35.934  34.338  32.697  1.00  0.00     0.226 C 
ATOM     12  H   UNL A   1      35.317  35.372  31.098  1.00  0.00     0.163 HD
ATOM     13  O   UNL A   1      36.453  33.468  31.994  1.00  0.00    -0.275 OA
BRANCH  11  14
ATOM     14  C   UNL A   1      35.990  34.241  34.208  1.00  0.00     0.168 C 
BRANCH  14  15
ATOM     15  C   UNL A   1      37.112  33.406  34.811  1.00  0.00     0.103 C 
ATOM     16  C   UNL A   1      38.594  33.860  34.592  1.00  0.00     0.069 C 
ATOM     17  C   UNL A   1      37.427  33.469  36.330  1.00  0.00     0.069 C 
ATOM     18  C   UNL A   1      38.923  33.343  36.009  1.00  0.00     0.013 C 
BRANCH  15  19
ATOM     19  N   UNL A   1      37.027  31.988  34.394  1.00  0.00    -0.352 N 
ATOM     20  H   UNL A   1      37.202  31.917  33.391  1.00  0.00     0.344 HD
ATOM     21  H   UNL A   1      36.097  31.627  34.603  1.00  0.00     0.344 HD
ATOM     22  H   UNL A   1      37.725  31.443  34.900  1.00  0.00     0.344 HD
ENDBRANCH  15  19
ENDBRANCH  14  15
ENDBRANCH  11  14
ENDBRANCH   9  10
ENDBRANCH   5   9
ENDBRANCH   3   5
ENDBRANCH   2   3
ENDBRANCH   1   2
BRANCH   1  23
ATOM     23  C   UNL A   1      34.581  33.977  28.828  1.00  0.00     0.275 C 
BRANCH  23  24
ATOM     24  O   UNL A   1      34.437  32.640  29.328  1.00  0.00    -0.458 OA
BRANCH  24  25
ATOM     25  C   UNL A   1      34.703  31.656  28.440  1.00  0.00     0.338 C 
ATOM     26  O   UNL A   1      34.124  31.413  27.396  1.00  0.00    -0.246 OA
BRANCH  25  27
ATOM     27  C   UNL A   1      35.923  30.985  28.892  1.00  0.00     0.060 A 
ATOM     28  C   UNL A   1      37.146  31.582  28.593  1.00  0.00     0.016 A 
ATOM     29  C   UNL A   1      35.866  29.785  29.593  1.00  0.00     0.016 A 
ATOM     30  C   UNL A   1      38.333  30.969  28.971  1.00  0.00     0.010 A 
ATOM     31  C   UNL A   1      37.057  29.200  30.031  1.00  0.00     0.010 A 
ATOM     32  C   UNL A   1      38.298  29.786  29.721  1.00  0.00    -0.014 A 
BRANCH  32  33
ATOM     33  C   UNL A   1      39.571  29.185  30.188  1.00  0.00     0.031 A 
ATOM     34  C   UNL A   1      40.236  29.700  31.431  1.00  0.00     0.074 A 
ATOM     35  C   UNL A   1      40.101  28.155  29.499  1.00  0.00     0.049 A 
ATOM     36  N   UNL A   1      41.392  29.374  31.948  1.00  0.00    -0.248 NA
ATOM     37  C   UNL A   1      39.508  30.731  32.185  1.00  0.00     0.031 C 
ATOM     38  C   UNL A   1      39.512  27.556  28.297  1.00  0.00     0.029 A 
ATOM     39  N   UNL A   1      41.236  27.416  29.712  1.00  0.00    -0.354 N 
ATOM     40  C   UNL A   1      41.551  30.184  33.067  1.00  0.00     0.074 A 
ATOM     41  C   UNL A   1      40.374  31.025  33.144  1.00  0.00     0.031 C 
ATOM     42  C   UNL A   1      40.268  26.519  27.906  1.00  0.00     0.029 A 
ATOM     43  C   UNL A   1      41.433  26.425  28.778  1.00  0.00     0.049 A 
ATOM     44  H   UNL A   1      41.852  27.579  30.462  1.00  0.00     0.167 HD
ATOM     45  C   UNL A   1      42.588  30.219  33.941  1.00  0.00     0.034 A 
ATOM     46  C   UNL A   1      42.452  25.559  28.623  1.00  0.00     0.034 A 
ATOM     47  C   UNL A   1      43.744  29.358  33.839  1.00  0.00     0.049 A 
ATOM     48  C   UNL A   1      43.596  25.629  29.598  1.00  0.00     0.074 A 
ATOM     49  C   UNL A   1      44.869  29.317  34.644  1.00  0.00     0.029 A 
ATOM     50  N   UNL A   1      43.920  28.378  32.867  1.00  0.00    -0.354 N 
ATOM     51  N   UNL A   1      43.760  26.439  30.620  1.00  0.00    -0.248 NA
ATOM     52  C   UNL A   1      44.691  24.674  29.399  1.00  0.00     0.031 C 
ATOM     53  C   UNL A   1      45.744  28.351  34.131  1.00  0.00     0.029 A 
ATOM     54  C   UNL A   1      45.139  27.740  33.044  1.00  0.00     0.049 A 
ATOM     55  H   UNL A   1      43.273  28.167  32.157  1.00  0.00     0.167 HD
ATOM     56  C   UNL A   1      44.980  26.088  31.188  1.00  0.00     0.074 A 
ATOM     57  C   UNL A   1      45.486  24.969  30.416  1.00  0.00     0.031 C 
ATOM     58  C   UNL A   1      45.632  26.644  32.242  1.00  0.00     0.034 A 
BRANCH  45  59
ATOM     59  C   UNL A   1      42.542  31.273  35.023  1.00  0.00     0.023 A 
ATOM     60  C   UNL A   1      42.912  32.609  34.783  1.00  0.00     0.031 A 
ATOM     61  C   UNL A   1      42.173  30.920  36.334  1.00  0.00     0.131 A 
ATOM     62  C   UNL A   1      42.976  33.520  35.850  1.00  0.00     0.055 A 
ATOM     63  C   UNL A   1      42.166  31.850  37.376  1.00  0.00     0.041 A 
ATOM     64  F   UNL A   1      41.832  29.656  36.632  1.00  0.00    -0.206 F 
ATOM     65  C   UNL A   1      42.585  33.156  37.140  1.00  0.00     0.022 A 
BRANCH  62  66
ATOM     66  S   UNL A   1      43.715  35.152  35.557  1.00  0.00     0.124 S 
ATOM     67  O   UNL A   1      43.920  35.127  34.111  1.00  0.00    -0.237 OA
ATOM     68  O   UNL A   1      42.681  36.058  36.041  1.00  0.00    -0.237 OA
ATOM     69  O   UNL A   1      44.941  35.122  36.354  1.00  0.00    -0.744 OA
ENDBRANCH  62  66
ENDBRANCH  45  59
BRANCH  46  70
ATOM     70  C   UNL A   1      42.460  24.595  27.484  1.00  0.00     0.023 A 
ATOM     71  C   UNL A   1      41.774  23.373  27.559  1.00  0.00     0.031 A 
ATOM     72  C   UNL A   1      43.173  24.878  26.305  1.00  0.00     0.131 A 
ATOM     73  C   UNL A   1      41.840  22.467  26.488  1.00  0.00     0.055 A 
ATOM     74  C   UNL A   1      43.194  23.998  25.223  1.00  0.00     0.041 A 
ATOM     75  F   UNL A   1      43.846  26.033  26.179  1.00  0.00    -0.206 F 
ATOM     76  C   UNL A   1      42.532  22.777  25.315  1.00  0.00     0.022 A 
BRANCH  73  77
ATOM     77  S   UNL A   1      41.063  20.838  26.674  1.00  0.00     0.124 S 
ATOM     78  O   UNL A   1      42.100  19.951  26.158  1.00  0.00    -0.237 OA
ATOM     79  O   UNL A   1      40.826  20.779  28.113  1.00  0.00    -0.237 OA
ATOM     80  O   UNL A   1      39.860  20.938  25.851  1.00  0.00    -0.744 OA
ENDBRANCH  73  77
ENDBRANCH  46  70
BRANCH  58  81
ATOM     81  C   UNL A   1      46.952  26.017  32.612  1.00  0.00     0.023 A 
ATOM     82  C   UNL A   1      47.031  24.986  33.565  1.00  0.00     0.031 A 
ATOM     83  C   UNL A   1      48.147  26.494  32.048  1.00  0.00     0.131 A 
ATOM     84  C   UNL A   1      48.284  24.516  33.981  1.00  0.00     0.055 A 
ATOM     85  C   UNL A   1      49.389  25.979  32.421  1.00  0.00     0.041 A 
ATOM     86  F   UNL A   1      48.127  27.480  31.137  1.00  0.00    -0.206 F 
ATOM     87  C   UNL A   1      49.464  24.997  33.405  1.00  0.00     0.022 A 
BRANCH  84  88
ATOM     88  S   UNL A   1      48.358  23.354  35.371  1.00  0.00     0.124 S 
ATOM     89  O   UNL A   1      49.744  22.898  35.312  1.00  0.00    -0.237 OA
ATOM     90  O   UNL A   1      48.015  24.204  36.506  1.00  0.00    -0.237 OA
ATOM     91  O   UNL A   1      47.359  22.345  35.028  1.00  0.00    -0.744 OA
ENDBRANCH  84  88
ENDBRANCH  58  81
ENDBRANCH  32  33
ENDBRANCH  25  27
ENDBRANCH  24  25
ENDBRANCH  23  24
ENDBRANCH   1  23
TORSDOF 20
ENDMDL
MODEL 3
REMARK VINA RESULT:      -9.8      5.973      9.493
REMARK SMILES C[C@@](O)(CNC(=O)CC1([NH3+])CCC1)C(=O)OCCOC(=O)c1ccc(-c2c3nc(c(-c4cc(S(=O)(=O)[O-])ccc4F)c4ccc([nH]4)c(-c4cc(S(=O)(=O)[O-])ccc4F)c4nc(c(-c5cc(S(=O)(=O)[O-])ccc5F)c5ccc2[nH]5)C=C4)C=C3)cc1
REMARK SMILES IDX 17 1 16 2 14 3 15 4 2 5 1 6 3 7 4 9 5 10 6 11 7 13 8 14 9 15
REMARK SMILES IDX 11 16 13 17 12 18 10 19 18 23 19 24 20 25 21 26 22 27 23 28
REMARK SMILES IDX 84 29 24 30 83 31 25 32 26 33 27 34 77 35 28 36 82 37 76 38
REMARK SMILES IDX 78 39 29 40 81 41 75 42 74 43 30 45 62 46 42 47 61 48 43 49
REMARK SMILES IDX 46 50 60 51 79 52 44 53 45 54 59 56 80 57 47 58 31 59 32 60
REMARK SMILES IDX 40 61 33 62 39 63 41 64 38 65 34 66 35 67 36 68 37 69 63 70
REMARK SMILES IDX 64 71 72 72 65 73 71 74 73 75 70 76 66 77 67 78 68 79 69 80
REMARK SMILES IDX 48 81 49 82 57 83 50 84 56 85 58 86 55 87 51 88 52 89 53 90
REMARK SMILES IDX 54 91
REMARK H PARENT 3 8 5 12 10 20 10 21 10 22 78 44 46 55
REMARK Flexibility Score: inf
ROOT
ATOM      1  C   UNL A   1      34.936  21.929  24.434  1.00  0.00     0.274 C 
ENDROOT
BRANCH   1   2
ATOM      2  O   UNL A   1      33.492  21.829  24.442  1.00  0.00    -0.460 OA
BRANCH   2   3
ATOM      3  C   UNL A   1      32.799  22.916  24.857  1.00  0.00     0.339 C 
ATOM      4  O   UNL A   1      32.898  24.030  24.346  1.00  0.00    -0.249 OA
BRANCH   3   5
ATOM      5  C   UNL A   1      31.923  22.678  26.105  1.00  0.00     0.176 C 
ATOM      6  C   UNL A   1      32.777  22.483  27.362  1.00  0.00     0.057 C 
BRANCH   5   7
ATOM      7  O   UNL A   1      31.307  21.386  25.841  1.00  0.00    -0.377 OA
ATOM      8  H   UNL A   1      30.342  21.472  25.889  1.00  0.00     0.212 HD
ENDBRANCH   5   7
BRANCH   5   9
ATOM      9  C   UNL A   1      30.776  23.682  26.341  1.00  0.00     0.162 C 
BRANCH   9  10
ATOM     10  N   UNL A   1      31.129  24.979  26.902  1.00  0.00    -0.352 N 
ATOM     11  C   UNL A   1      30.901  26.218  26.375  1.00  0.00     0.226 C 
ATOM     12  H   UNL A   1      31.592  24.960  27.771  1.00  0.00     0.163 HD
ATOM     13  O   UNL A   1      31.152  27.204  27.071  1.00  0.00    -0.275 OA
BRANCH  11  14
ATOM     14  C   UNL A   1      30.281  26.382  25.002  1.00  0.00     0.168 C 
BRANCH  14  15
ATOM     15  C   UNL A   1      30.980  27.323  24.032  1.00  0.00     0.103 C 
ATOM     16  C   UNL A   1      30.573  27.291  22.521  1.00  0.00     0.069 C 
ATOM     17  C   UNL A   1      30.625  28.835  23.986  1.00  0.00     0.069 C 
ATOM     18  C   UNL A   1      30.806  28.815  22.462  1.00  0.00     0.013 C 
BRANCH  15  19
ATOM     19  N   UNL A   1      32.453  27.175  24.086  1.00  0.00    -0.352 N 
ATOM     20  H   UNL A   1      32.742  27.004  25.049  1.00  0.00     0.344 HD
ATOM     21  H   UNL A   1      32.893  28.030  23.745  1.00  0.00     0.344 HD
ATOM     22  H   UNL A   1      32.737  26.390  23.501  1.00  0.00     0.344 HD
ENDBRANCH  15  19
ENDBRANCH  14  15
ENDBRANCH  11  14
ENDBRANCH   9  10
ENDBRANCH   5   9
ENDBRANCH   3   5
ENDBRANCH   2   3
ENDBRANCH   1   2
BRANCH   1  23
ATOM     23  C   UNL A   1      35.539  20.934  25.421  1.00  0.00     0.275 C 
BRANCH  23  24
ATOM     24  O   UNL A   1      36.584  21.603  26.140  1.00  0.00    -0.458 OA
BRANCH  24  25
ATOM     25  C   UNL A   1      37.840  21.351  25.709  1.00  0.00     0.338 C 
ATOM     26  O   UNL A   1      38.221  20.425  25.013  1.00  0.00    -0.246 OA
BRANCH  25  27
ATOM     27  C   UNL A   1      38.675  22.479  26.125  1.00  0.00     0.060 A 
ATOM     28  C   UNL A   1      38.269  23.761  25.762  1.00  0.00     0.016 A 
ATOM     29  C   UNL A   1      39.841  22.278  26.856  1.00  0.00     0.016 A 
ATOM     30  C   UNL A   1      39.043  24.861  26.105  1.00  0.00     0.010 A 
ATOM     31  C   UNL A   1      40.587  23.389  27.258  1.00  0.00     0.010 A 
ATOM     32  C   UNL A   1      40.195  24.687  26.883  1.00  0.00    -0.014 A 
BRANCH  32  33
ATOM     33  C   UNL A   1      40.969  25.879  27.311  1.00  0.00     0.031 A 
ATOM     34  C   UNL A   1      40.346  26.891  28.228  1.00  0.00     0.074 A 
ATOM     35  C   UNL A   1      42.241  26.020  26.890  1.00  0.00     0.049 A 
ATOM     36  N   UNL A   1      40.821  28.038  28.638  1.00  0.00    -0.248 NA
ATOM     37  C   UNL A   1      39.005  26.575  28.739  1.00  0.00     0.031 C 
ATOM     38  C   UNL A   1      42.951  25.072  26.025  1.00  0.00     0.029 A 
ATOM     39  N   UNL A   1      43.171  26.996  27.140  1.00  0.00    -0.354 N 
ATOM     40  C   UNL A   1      39.824  28.602  29.426  1.00  0.00     0.074 A 
ATOM     41  C   UNL A   1      38.713  27.672  29.424  1.00  0.00     0.031 C 
ATOM     42  C   UNL A   1      44.213  25.492  25.852  1.00  0.00     0.029 A 
ATOM     43  C   UNL A   1      44.383  26.773  26.526  1.00  0.00     0.049 A 
ATOM     44  H   UNL A   1      42.990  27.781  27.705  1.00  0.00     0.167 HD
ATOM     45  C   UNL A   1      39.839  29.790  30.083  1.00  0.00     0.034 A 
ATOM     46  C   UNL A   1      45.495  27.532  26.486  1.00  0.00     0.034 A 
ATOM     47  C   UNL A   1      40.969  30.692  30.069  1.00  0.00     0.049 A 
ATOM     48  C   UNL A   1      45.480  28.850  27.211  1.00  0.00     0.074 A 
ATOM     49  C   UNL A   1      41.096  31.932  30.671  1.00  0.00     0.029 A 
ATOM     50  N   UNL A   1      42.174  30.444  29.421  1.00  0.00    -0.354 N 
ATOM     51  N   UNL A   1      44.509  29.398  27.907  1.00  0.00    -0.248 NA
ATOM     52  C   UNL A   1      46.705  29.653  27.144  1.00  0.00     0.031 C 
ATOM     53  C   UNL A   1      42.353  32.453  30.344  1.00  0.00     0.029 A 
ATOM     54  C   UNL A   1      43.041  31.513  29.594  1.00  0.00     0.049 A 
ATOM     55  H   UNL A   1      42.382  29.628  28.912  1.00  0.00     0.167 HD
ATOM     56  C   UNL A   1      45.009  30.613  28.363  1.00  0.00     0.074 A 
ATOM     57  C   UNL A   1      46.380  30.694  27.894  1.00  0.00     0.031 C 
ATOM     58  C   UNL A   1      44.394  31.580  29.092  1.00  0.00     0.034 A 
BRANCH  45  59
ATOM     59  C   UNL A   1      38.570  30.202  30.794  1.00  0.00     0.023 A 
ATOM     60  C   UNL A   1      37.544  30.909  30.144  1.00  0.00     0.031 A 
ATOM     61  C   UNL A   1      38.413  29.927  32.165  1.00  0.00     0.131 A 
ATOM     62  C   UNL A   1      36.444  31.380  30.879  1.00  0.00     0.055 A 
ATOM     63  C   UNL A   1      37.280  30.334  32.874  1.00  0.00     0.041 A 
ATOM     64  F   UNL A   1      39.368  29.276  32.847  1.00  0.00    -0.206 F 
ATOM     65  C   UNL A   1      36.294  31.079  32.235  1.00  0.00     0.022 A 
BRANCH  62  66
ATOM     66  S   UNL A   1      35.280  32.515  30.073  1.00  0.00     0.124 S 
ATOM     67  O   UNL A   1      34.781  31.693  28.973  1.00  0.00    -0.237 OA
ATOM     68  O   UNL A   1      34.329  32.803  31.139  1.00  0.00    -0.237 OA
ATOM     69  O   UNL A   1      36.122  33.640  29.668  1.00  0.00    -0.744 OA
ENDBRANCH  62  66
ENDBRANCH  45  59
BRANCH  46  70
ATOM     70  C   UNL A   1      46.683  27.091  25.700  1.00  0.00     0.023 A 
ATOM     71  C   UNL A   1      46.965  27.634  24.437  1.00  0.00     0.031 A 
ATOM     72  C   UNL A   1      47.548  26.098  26.197  1.00  0.00     0.131 A 
ATOM     73  C   UNL A   1      48.065  27.163  23.702  1.00  0.00     0.055 A 
ATOM     74  C   UNL A   1      48.668  25.669  25.485  1.00  0.00     0.041 A 
ATOM     75  F   UNL A   1      47.326  25.544  27.399  1.00  0.00    -0.206 F 
ATOM     76  C   UNL A   1      48.927  26.196  24.223  1.00  0.00     0.022 A 
BRANCH  73  77
ATOM     77  S   UNL A   1      48.318  27.784  22.016  1.00  0.00     0.124 S 
ATOM     78  O   UNL A   1      48.376  26.546  21.247  1.00  0.00    -0.237 OA
ATOM     79  O   UNL A   1      47.129  28.607  21.816  1.00  0.00    -0.237 OA
ATOM     80  O   UNL A   1      49.576  28.521  22.109  1.00  0.00    -0.744 OA
ENDBRANCH  73  77
ENDBRANCH  46  70
BRANCH  58  81
ATOM     81  C   UNL A   1      45.228  32.790  29.429  1.00  0.00     0.023 A 
ATOM     82  C   UNL A   1      45.286  33.901  28.570  1.00  0.00     0.031 A 
ATOM     83  C   UNL A   1      46.015  32.807  30.592  1.00  0.00     0.131 A 
ATOM     84  C   UNL A   1      46.170  34.952  28.849  1.00  0.00     0.055 A 
ATOM     85  C   UNL A   1      46.847  33.884  30.897  1.00  0.00     0.041 A 
ATOM     86  F   UNL A   1      45.999  31.769  31.444  1.00  0.00    -0.206 F 
ATOM     87  C   UNL A   1      46.942  34.957  30.015  1.00  0.00     0.022 A 
BRANCH  84  88
ATOM     88  S   UNL A   1      46.388  36.257  27.609  1.00  0.00     0.124 S 
ATOM     89  O   UNL A   1      47.835  36.451  27.622  1.00  0.00    -0.237 OA
ATOM     90  O   UNL A   1      45.839  35.639  26.407  1.00  0.00    -0.237 OA
ATOM     91  O   UNL A   1      45.609  37.372  28.142  1.00  0.00    -0.744 OA
ENDBRANCH  84  88
ENDBRANCH  58  81
ENDBRANCH  32  33
ENDBRANCH  25  27
ENDBRANCH  24  25
ENDBRANCH  23  24
ENDBRANCH   1  23
TORSDOF 20
ENDMDL
