MODEL 1
REMARK VINA RESULT:     -11.3      0.000      0.000
REMARK SMILES O=C(C[C@@H]1C(=O)NC(=S)N1c1ccccc1)OCCOC(=O)c1ccc(-c2c3nc(c(-c4cc(S(=O)(=O)[O-])ccc4F)c4ccc([nH]4)c(-c4cc(S(=O)(=O)[O-])ccc4F)c4nc(c(-c5cc(S(=O)(=O)[O-])ccc5F)c5ccc2[nH]5)C=C4)C=C3)cc1
REMARK SMILES IDX 19 1 18 2 17 3 2 4 1 5 3 6 4 7 5 8 10 9 6 10 7 11 8 12 9 14
REMARK SMILES IDX 11 15 12 16 16 17 13 18 15 19 14 20 20 21 21 22 22 23 23 24
REMARK SMILES IDX 24 25 85 26 25 27 84 28 26 29 27 30 28 31 78 32 29 33 83 34
REMARK SMILES IDX 77 35 79 36 30 37 82 38 76 39 75 40 31 42 63 43 43 44 62 45
REMARK SMILES IDX 44 46 47 47 61 48 80 49 45 50 46 51 60 53 81 54 48 55 32 56
REMARK SMILES IDX 33 57 41 58 34 59 40 60 42 61 39 62 35 63 36 64 37 65 38 66
REMARK SMILES IDX 64 67 65 68 73 69 66 70 72 71 74 72 71 73 67 74 68 75 69 76
REMARK SMILES IDX 70 77 49 78 50 79 58 80 51 81 57 82 59 83 56 84 52 85 53 86
REMARK SMILES IDX 54 87 55 88
REMARK H PARENT 7 13 79 41 47 52
REMARK Flexibility Score: inf
ROOT
ATOM      1  C   UNL A   1      31.532  30.102  25.543  1.00  0.00     0.275 C 
ENDROOT
BRANCH   1   2
ATOM      2  C   UNL A   1      31.483  29.094  24.392  1.00  0.00     0.274 C 
BRANCH   2   3
ATOM      3  O   UNL A   1      32.589  29.273  23.481  1.00  0.00    -0.462 OA
BRANCH   3   4
ATOM      4  C   UNL A   1      33.386  28.288  23.011  1.00  0.00     0.308 C 
ATOM      5  O   UNL A   1      34.089  28.471  22.018  1.00  0.00    -0.252 OA
BRANCH   4   6
ATOM      6  C   UNL A   1      33.373  26.947  23.695  1.00  0.00     0.158 C 
BRANCH   6   7
ATOM      7  C   UNL A   1      33.314  25.721  22.795  1.00  0.00     0.190 C 
ATOM      8  C   UNL A   1      31.939  25.560  22.160  1.00  0.00     0.249 C 
ATOM      9  N   UNL A   1      33.424  24.445  23.512  1.00  0.00    -0.306 N 
ATOM     10  O   UNL A   1      31.469  26.278  21.292  1.00  0.00    -0.272 OA
ATOM     11  N   UNL A   1      31.312  24.515  22.753  1.00  0.00    -0.301 N 
ATOM     12  C   UNL A   1      32.159  23.824  23.570  1.00  0.00     0.180 C 
ATOM     13  H   UNL A   1      30.366  24.285  22.612  1.00  0.00     0.172 HD
ATOM     14  S   UNL A   1      31.599  22.525  24.437  1.00  0.00    -0.040 S 
BRANCH   9  15
ATOM     15  C   UNL A   1      34.682  23.925  23.953  1.00  0.00     0.044 A 
ATOM     16  C   UNL A   1      35.473  23.118  23.125  1.00  0.00     0.026 A 
ATOM     17  C   UNL A   1      35.198  24.229  25.220  1.00  0.00     0.026 A 
ATOM     18  C   UNL A   1      36.689  22.580  23.565  1.00  0.00     0.002 A 
ATOM     19  C   UNL A   1      36.410  23.687  25.668  1.00  0.00     0.002 A 
ATOM     20  C   UNL A   1      37.149  22.849  24.846  1.00  0.00     0.000 A 
ENDBRANCH   9  15
ENDBRANCH   6   7
ENDBRANCH   4   6
ENDBRANCH   3   4
ENDBRANCH   2   3
ENDBRANCH   1   2
BRANCH   1  21
ATOM     21  O   UNL A   1      32.893  30.324  25.956  1.00  0.00    -0.458 OA
BRANCH  21  22
ATOM     22  C   UNL A   1      33.076  31.284  26.902  1.00  0.00     0.338 C 
ATOM     23  O   UNL A   1      32.264  32.123  27.248  1.00  0.00    -0.246 OA
BRANCH  22  24
ATOM     24  C   UNL A   1      34.349  31.013  27.612  1.00  0.00     0.060 A 
ATOM     25  C   UNL A   1      34.656  29.686  27.942  1.00  0.00     0.016 A 
ATOM     26  C   UNL A   1      35.263  32.031  27.896  1.00  0.00     0.016 A 
ATOM     27  C   UNL A   1      35.872  29.374  28.558  1.00  0.00     0.010 A 
ATOM     28  C   UNL A   1      36.477  31.716  28.513  1.00  0.00     0.010 A 
ATOM     29  C   UNL A   1      36.790  30.389  28.859  1.00  0.00    -0.014 A 
BRANCH  29  30
ATOM     30  C   UNL A   1      38.010  30.111  29.666  1.00  0.00     0.031 A 
ATOM     31  C   UNL A   1      38.997  29.097  29.149  1.00  0.00     0.074 A 
ATOM     32  C   UNL A   1      38.228  30.705  30.855  1.00  0.00     0.049 A 
ATOM     33  N   UNL A   1      40.078  28.624  29.711  1.00  0.00    -0.248 NA
ATOM     34  C   UNL A   1      38.707  28.532  27.824  1.00  0.00     0.031 C 
ATOM     35  C   UNL A   1      37.370  31.711  31.475  1.00  0.00     0.029 A 
ATOM     36  N   UNL A   1      39.236  30.517  31.772  1.00  0.00    -0.354 N 
ATOM     37  C   UNL A   1      40.607  27.714  28.803  1.00  0.00     0.074 A 
ATOM     38  C   UNL A   1      39.679  27.644  27.694  1.00  0.00     0.031 C 
ATOM     39  C   UNL A   1      37.860  32.019  32.689  1.00  0.00     0.029 A 
ATOM     40  C   UNL A   1      39.063  31.226  32.937  1.00  0.00     0.049 A 
ATOM     41  H   UNL A   1      40.009  29.929  31.608  1.00  0.00     0.167 HD
ATOM     42  C   UNL A   1      41.774  27.028  28.864  1.00  0.00     0.034 A 
ATOM     43  C   UNL A   1      39.779  31.221  34.081  1.00  0.00     0.034 A 
ATOM     44  C   UNL A   1      42.692  27.093  29.972  1.00  0.00     0.049 A 
ATOM     45  C   UNL A   1      41.024  30.368  34.177  1.00  0.00     0.074 A 
ATOM     46  C   UNL A   1      43.922  26.471  30.110  1.00  0.00     0.029 A 
ATOM     47  N   UNL A   1      42.478  27.811  31.139  1.00  0.00    -0.354 N 
ATOM     48  N   UNL A   1      41.543  29.557  33.285  1.00  0.00    -0.248 NA
ATOM     49  C   UNL A   1      41.790  30.450  35.429  1.00  0.00     0.031 C 
ATOM     50  C   UNL A   1      44.420  26.762  31.386  1.00  0.00     0.029 A 
ATOM     51  C   UNL A   1      43.535  27.621  32.017  1.00  0.00     0.049 A 
ATOM     52  H   UNL A   1      41.690  28.374  31.318  1.00  0.00     0.167 HD
ATOM     53  C   UNL A   1      42.724  29.077  33.850  1.00  0.00     0.074 A 
ATOM     54  C   UNL A   1      42.834  29.680  35.161  1.00  0.00     0.031 C 
ATOM     55  C   UNL A   1      43.643  28.229  33.322  1.00  0.00     0.034 A 
BRANCH  42  56
ATOM     56  C   UNL A   1      42.096  26.133  27.693  1.00  0.00     0.023 A 
ATOM     57  C   UNL A   1      41.596  24.820  27.620  1.00  0.00     0.031 A 
ATOM     58  C   UNL A   1      42.957  26.570  26.673  1.00  0.00     0.131 A 
ATOM     59  C   UNL A   1      42.037  23.961  26.605  1.00  0.00     0.055 A 
ATOM     60  C   UNL A   1      43.322  25.734  25.615  1.00  0.00     0.041 A 
ATOM     61  F   UNL A   1      43.480  27.805  26.701  1.00  0.00    -0.206 F 
ATOM     62  C   UNL A   1      42.877  24.415  25.587  1.00  0.00     0.022 A 
BRANCH  59  63
ATOM     63  S   UNL A   1      41.632  22.197  26.735  1.00  0.00     0.124 S 
ATOM     64  O   UNL A   1      42.251  21.847  28.011  1.00  0.00    -0.237 OA
ATOM     65  O   UNL A   1      40.174  22.207  26.713  1.00  0.00    -0.237 OA
ATOM     66  O   UNL A   1      42.272  21.612  25.559  1.00  0.00    -0.744 OA
ENDBRANCH  59  63
ENDBRANCH  42  56
BRANCH  43  67
ATOM     67  C   UNL A   1      39.337  32.025  35.255  1.00  0.00     0.023 A 
ATOM     68  C   UNL A   1      38.689  31.423  36.345  1.00  0.00     0.031 A 
ATOM     69  C   UNL A   1      39.479  33.425  35.260  1.00  0.00     0.131 A 
ATOM     70  C   UNL A   1      38.155  32.223  37.369  1.00  0.00     0.055 A 
ATOM     71  C   UNL A   1      38.990  34.210  36.304  1.00  0.00     0.041 A 
ATOM     72  F   UNL A   1      40.087  34.050  34.239  1.00  0.00    -0.206 F 
ATOM     73  C   UNL A   1      38.309  33.611  37.361  1.00  0.00     0.022 A 
BRANCH  70  74
ATOM     74  S   UNL A   1      37.166  31.427  38.665  1.00  0.00     0.124 S 
ATOM     75  O   UNL A   1      37.029  30.071  38.143  1.00  0.00    -0.237 OA
ATOM     76  O   UNL A   1      38.020  31.580  39.838  1.00  0.00    -0.237 OA
ATOM     77  O   UNL A   1      35.935  32.214  38.685  1.00  0.00    -0.744 OA
ENDBRANCH  70  74
ENDBRANCH  43  67
BRANCH  55  78
ATOM     78  C   UNL A   1      44.888  27.960  34.132  1.00  0.00     0.023 A 
ATOM     79  C   UNL A   1      44.985  26.872  35.018  1.00  0.00     0.031 A 
ATOM     80  C   UNL A   1      46.000  28.814  34.011  1.00  0.00     0.131 A 
ATOM     81  C   UNL A   1      46.151  26.693  35.779  1.00  0.00     0.055 A 
ATOM     82  C   UNL A   1      47.176  28.600  34.730  1.00  0.00     0.041 A 
ATOM     83  F   UNL A   1      45.963  29.868  33.180  1.00  0.00    -0.206 F 
ATOM     84  C   UNL A   1      47.253  27.540  35.630  1.00  0.00     0.022 A 
BRANCH  81  85
ATOM     85  S   UNL A   1      46.190  25.374  37.025  1.00  0.00     0.124 S 
ATOM     86  O   UNL A   1      47.246  24.505  36.515  1.00  0.00    -0.237 OA
ATOM     87  O   UNL A   1      46.503  26.107  38.247  1.00  0.00    -0.237 OA
ATOM     88  O   UNL A   1      44.843  24.808  36.970  1.00  0.00    -0.744 OA
ENDBRANCH  81  85
ENDBRANCH  55  78
ENDBRANCH  29  30
ENDBRANCH  22  24
ENDBRANCH  21  22
ENDBRANCH   1  21
TORSDOF 16
ENDMDL
MODEL 2
REMARK VINA RESULT:     -11.3      5.201      7.547
REMARK SMILES O=C(C[C@@H]1C(=O)NC(=S)N1c1ccccc1)OCCOC(=O)c1ccc(-c2c3nc(c(-c4cc(S(=O)(=O)[O-])ccc4F)c4ccc([nH]4)c(-c4cc(S(=O)(=O)[O-])ccc4F)c4nc(c(-c5cc(S(=O)(=O)[O-])ccc5F)c5ccc2[nH]5)C=C4)C=C3)cc1
REMARK SMILES IDX 19 1 18 2 17 3 2 4 1 5 3 6 4 7 5 8 10 9 6 10 7 11 8 12 9 14
REMARK SMILES IDX 11 15 12 16 16 17 13 18 15 19 14 20 20 21 21 22 22 23 23 24
REMARK SMILES IDX 24 25 85 26 25 27 84 28 26 29 27 30 28 31 78 32 29 33 83 34
REMARK SMILES IDX 77 35 79 36 30 37 82 38 76 39 75 40 31 42 63 43 43 44 62 45
REMARK SMILES IDX 44 46 47 47 61 48 80 49 45 50 46 51 60 53 81 54 48 55 32 56
REMARK SMILES IDX 33 57 41 58 34 59 40 60 42 61 39 62 35 63 36 64 37 65 38 66
REMARK SMILES IDX 64 67 65 68 73 69 66 70 72 71 74 72 71 73 67 74 68 75 69 76
REMARK SMILES IDX 70 77 49 78 50 79 58 80 51 81 57 82 59 83 56 84 52 85 53 86
REMARK SMILES IDX 54 87 55 88
REMARK H PARENT 7 13 79 41 47 52
REMARK Flexibility Score: inf
ROOT
ATOM      1  C   UNL A   1      37.994  20.342  25.318  1.00  0.00     0.275 C 
ENDROOT
BRANCH   1   2
ATOM      2  C   UNL A   1      36.583  20.831  24.978  1.00  0.00     0.274 C 
BRANCH   2   3
ATOM      3  O   UNL A   1      36.329  22.141  25.528  1.00  0.00    -0.462 OA
BRANCH   3   4
ATOM      4  C   UNL A   1      35.780  23.180  24.860  1.00  0.00     0.308 C 
ATOM      5  O   UNL A   1      35.505  24.227  25.444  1.00  0.00    -0.252 OA
BRANCH   4   6
ATOM      6  C   UNL A   1      35.471  23.025  23.394  1.00  0.00     0.158 C 
BRANCH   6   7
ATOM      7  C   UNL A   1      34.002  23.082  22.996  1.00  0.00     0.190 C 
ATOM      8  C   UNL A   1      33.491  24.515  22.950  1.00  0.00     0.249 C 
ATOM      9  N   UNL A   1      33.089  22.508  23.992  1.00  0.00    -0.306 N 
ATOM     10  O   UNL A   1      33.797  25.352  22.115  1.00  0.00    -0.272 OA
ATOM     11  N   UNL A   1      32.675  24.715  24.013  1.00  0.00    -0.301 N 
ATOM     12  C   UNL A   1      32.411  23.546  24.666  1.00  0.00     0.180 C 
ATOM     13  H   UNL A   1      32.319  25.592  24.282  1.00  0.00     0.172 HD
ATOM     14  S   UNL A   1      31.466  23.552  26.030  1.00  0.00    -0.040 S 
BRANCH   9  15
ATOM     15  C   UNL A   1      32.887  21.097  24.118  1.00  0.00     0.044 A 
ATOM     16  C   UNL A   1      32.420  20.324  23.046  1.00  0.00     0.026 A 
ATOM     17  C   UNL A   1      33.184  20.417  25.307  1.00  0.00     0.026 A 
ATOM     18  C   UNL A   1      32.191  18.949  23.176  1.00  0.00     0.002 A 
ATOM     19  C   UNL A   1      32.948  19.042  25.444  1.00  0.00     0.002 A 
ATOM     20  C   UNL A   1      32.437  18.310  24.383  1.00  0.00     0.000 A 
ENDBRANCH   9  15
ENDBRANCH   6   7
ENDBRANCH   4   6
ENDBRANCH   3   4
ENDBRANCH   2   3
ENDBRANCH   1   2
BRANCH   1  21
ATOM     21  O   UNL A   1      38.884  21.460  25.488  1.00  0.00    -0.458 OA
BRANCH  21  22
ATOM     22  C   UNL A   1      39.739  21.380  26.543  1.00  0.00     0.338 C 
ATOM     23  O   UNL A   1      40.257  20.369  26.980  1.00  0.00    -0.246 OA
BRANCH  22  24
ATOM     24  C   UNL A   1      40.121  22.755  26.946  1.00  0.00     0.060 A 
ATOM     25  C   UNL A   1      39.500  23.833  26.303  1.00  0.00     0.016 A 
ATOM     26  C   UNL A   1      41.029  22.990  27.983  1.00  0.00     0.016 A 
ATOM     27  C   UNL A   1      39.784  25.147  26.691  1.00  0.00     0.010 A 
ATOM     28  C   UNL A   1      41.312  24.304  28.368  1.00  0.00     0.010 A 
ATOM     29  C   UNL A   1      40.702  25.395  27.720  1.00  0.00    -0.014 A 
BRANCH  29  30
ATOM     30  C   UNL A   1      41.152  26.778  28.035  1.00  0.00     0.031 A 
ATOM     31  C   UNL A   1      42.592  27.140  27.787  1.00  0.00     0.074 A 
ATOM     32  C   UNL A   1      40.320  27.691  28.573  1.00  0.00     0.049 A 
ATOM     33  N   UNL A   1      43.235  28.244  28.065  1.00  0.00    -0.248 NA
ATOM     34  C   UNL A   1      43.419  26.101  27.155  1.00  0.00     0.031 C 
ATOM     35  C   UNL A   1      38.902  27.489  28.858  1.00  0.00     0.029 A 
ATOM     36  N   UNL A   1      40.568  28.973  29.008  1.00  0.00    -0.354 N 
ATOM     37  C   UNL A   1      44.539  28.039  27.629  1.00  0.00     0.074 A 
ATOM     38  C   UNL A   1      44.610  26.676  27.148  1.00  0.00     0.031 C 
ATOM     39  C   UNL A   1      38.414  28.588  29.462  1.00  0.00     0.029 A 
ATOM     40  C   UNL A   1      39.487  29.570  29.614  1.00  0.00     0.049 A 
ATOM     41  H   UNL A   1      41.438  29.420  28.895  1.00  0.00     0.167 HD
ATOM     42  C   UNL A   1      45.575  28.913  27.595  1.00  0.00     0.034 A 
ATOM     43  C   UNL A   1      39.379  30.761  30.238  1.00  0.00     0.034 A 
ATOM     44  C   UNL A   1      45.505  30.268  28.081  1.00  0.00     0.049 A 
ATOM     45  C   UNL A   1      40.574  31.687  30.288  1.00  0.00     0.074 A 
ATOM     46  C   UNL A   1      46.484  31.246  28.051  1.00  0.00     0.029 A 
ATOM     47  N   UNL A   1      44.399  30.833  28.699  1.00  0.00    -0.354 N 
ATOM     48  N   UNL A   1      41.786  31.502  29.819  1.00  0.00    -0.248 NA
ATOM     49  C   UNL A   1      40.376  32.993  30.933  1.00  0.00     0.031 C 
ATOM     50  C   UNL A   1      45.991  32.380  28.708  1.00  0.00     0.029 A 
ATOM     51  C   UNL A   1      44.681  32.134  29.086  1.00  0.00     0.049 A 
ATOM     52  H   UNL A   1      43.538  30.376  28.843  1.00  0.00     0.167 HD
ATOM     53  C   UNL A   1      42.475  32.689  30.065  1.00  0.00     0.074 A 
ATOM     54  C   UNL A   1      41.548  33.577  30.733  1.00  0.00     0.031 C 
ATOM     55  C   UNL A   1      43.752  33.019  29.749  1.00  0.00     0.034 A 
BRANCH  42  56
ATOM     56  C   UNL A   1      46.875  28.403  27.024  1.00  0.00     0.023 A 
ATOM     57  C   UNL A   1      47.092  28.361  25.635  1.00  0.00     0.031 A 
ATOM     58  C   UNL A   1      47.879  27.899  27.866  1.00  0.00     0.131 A 
ATOM     59  C   UNL A   1      48.240  27.739  25.127  1.00  0.00     0.055 A 
ATOM     60  C   UNL A   1      49.062  27.360  27.355  1.00  0.00     0.041 A 
ATOM     61  F   UNL A   1      47.717  27.895  29.199  1.00  0.00    -0.206 F 
ATOM     62  C   UNL A   1      49.240  27.260  25.977  1.00  0.00     0.022 A 
BRANCH  59  63
ATOM     63  S   UNL A   1      48.326  27.413  23.345  1.00  0.00     0.124 S 
ATOM     64  O   UNL A   1      48.217  25.956  23.308  1.00  0.00    -0.237 OA
ATOM     65  O   UNL A   1      47.178  28.153  22.834  1.00  0.00    -0.237 OA
ATOM     66  O   UNL A   1      49.633  27.942  22.962  1.00  0.00    -0.744 OA
ENDBRANCH  59  63
ENDBRANCH  42  56
BRANCH  43  67
ATOM     67  C   UNL A   1      38.105  31.156  30.902  1.00  0.00     0.023 A 
ATOM     68  C   UNL A   1      37.088  31.810  30.190  1.00  0.00     0.031 A 
ATOM     69  C   UNL A   1      37.926  30.963  32.284  1.00  0.00     0.131 A 
ATOM     70  C   UNL A   1      35.961  32.299  30.871  1.00  0.00     0.055 A 
ATOM     71  C   UNL A   1      36.782  31.407  32.947  1.00  0.00     0.041 A 
ATOM     72  F   UNL A   1      38.872  30.346  33.012  1.00  0.00    -0.206 F 
ATOM     73  C   UNL A   1      35.798  32.095  32.243  1.00  0.00     0.022 A 
BRANCH  70  74
ATOM     74  S   UNL A   1      34.758  33.299  29.952  1.00  0.00     0.124 S 
ATOM     75  O   UNL A   1      33.895  33.785  31.024  1.00  0.00    -0.237 OA
ATOM     76  O   UNL A   1      35.613  34.295  29.315  1.00  0.00    -0.237 OA
ATOM     77  O   UNL A   1      34.140  32.336  29.042  1.00  0.00    -0.744 OA
ENDBRANCH  70  74
ENDBRANCH  43  67
BRANCH  55  78
ATOM     78  C   UNL A   1      44.203  34.427  30.053  1.00  0.00     0.023 A 
ATOM     79  C   UNL A   1      44.020  35.485  29.144  1.00  0.00     0.031 A 
ATOM     80  C   UNL A   1      44.827  34.713  31.282  1.00  0.00     0.131 A 
ATOM     81  C   UNL A   1      44.496  36.767  29.460  1.00  0.00     0.055 A 
ATOM     82  C   UNL A   1      45.249  36.000  31.612  1.00  0.00     0.041 A 
ATOM     83  F   UNL A   1      45.026  33.742  32.188  1.00  0.00    -0.206 F 
ATOM     84  C   UNL A   1      45.095  37.035  30.694  1.00  0.00     0.022 A 
BRANCH  81  85
ATOM     85  S   UNL A   1      44.386  38.075  28.207  1.00  0.00     0.124 S 
ATOM     86  O   UNL A   1      45.330  37.608  27.196  1.00  0.00    -0.237 OA
ATOM     87  O   UNL A   1      42.977  38.030  27.831  1.00  0.00    -0.237 OA
ATOM     88  O   UNL A   1      44.797  39.279  28.928  1.00  0.00    -0.744 OA
ENDBRANCH  81  85
ENDBRANCH  55  78
ENDBRANCH  29  30
ENDBRANCH  22  24
ENDBRANCH  21  22
ENDBRANCH   1  21
TORSDOF 16
ENDMDL
MODEL 3
REMARK VINA RESULT:     -11.2      5.167      7.641
REMARK SMILES O=C(C[C@@H]1C(=O)NC(=S)N1c1ccccc1)OCCOC(=O)c1ccc(-c2c3nc(c(-c4cc(S(=O)(=O)[O-])ccc4F)c4ccc([nH]4)c(-c4cc(S(=O)(=O)[O-])ccc4F)c4nc(c(-c5cc(S(=O)(=O)[O-])ccc5F)c5ccc2[nH]5)C=C4)C=C3)cc1
REMARK SMILES IDX 19 1 18 2 17 3 2 4 1 5 3 6 4 7 5 8 10 9 6 10 7 11 8 12 9 14
REMARK SMILES IDX 11 15 12 16 16 17 13 18 15 19 14 20 20 21 21 22 22 23 23 24
REMARK SMILES IDX 24 25 85 26 25 27 84 28 26 29 27 30 28 31 78 32 29 33 83 34
REMARK SMILES IDX 77 35 79 36 30 37 82 38 76 39 75 40 31 42 63 43 43 44 62 45
REMARK SMILES IDX 44 46 47 47 61 48 80 49 45 50 46 51 60 53 81 54 48 55 32 56
REMARK SMILES IDX 33 57 41 58 34 59 40 60 42 61 39 62 35 63 36 64 37 65 38 66
REMARK SMILES IDX 64 67 65 68 73 69 66 70 72 71 74 72 71 73 67 74 68 75 69 76
REMARK SMILES IDX 70 77 49 78 50 79 58 80 51 81 57 82 59 83 56 84 52 85 53 86
REMARK SMILES IDX 54 87 55 88
REMARK H PARENT 7 13 79 41 47 52
REMARK Flexibility Score: inf
ROOT
ATOM      1  C   UNL A   1      37.830  20.528  25.162  1.00  0.00     0.275 C 
ENDROOT
BRANCH   1   2
ATOM      2  C   UNL A   1      36.357  20.842  24.885  1.00  0.00     0.274 C 
BRANCH   2   3
ATOM      3  O   UNL A   1      35.626  21.081  26.107  1.00  0.00    -0.462 OA
BRANCH   3   4
ATOM      4  C   UNL A   1      35.066  22.256  26.470  1.00  0.00     0.308 C 
ATOM      5  O   UNL A   1      35.688  23.311  26.353  1.00  0.00    -0.252 OA
BRANCH   4   6
ATOM      6  C   UNL A   1      33.681  22.254  27.060  1.00  0.00     0.158 C 
BRANCH   6   7
ATOM      7  C   UNL A   1      32.525  22.463  26.090  1.00  0.00     0.190 C 
ATOM      8  C   UNL A   1      32.446  21.341  25.065  1.00  0.00     0.249 C 
ATOM      9  N   UNL A   1      32.689  23.620  25.202  1.00  0.00    -0.306 N 
ATOM     10  O   UNL A   1      32.106  20.190  25.295  1.00  0.00    -0.272 OA
ATOM     11  N   UNL A   1      32.858  21.822  23.868  1.00  0.00    -0.301 N 
ATOM     12  C   UNL A   1      33.019  23.177  23.904  1.00  0.00     0.180 C 
ATOM     13  H   UNL A   1      33.022  21.265  23.073  1.00  0.00     0.172 HD
ATOM     14  S   UNL A   1      33.561  23.984  22.560  1.00  0.00    -0.040 S 
BRANCH   9  15
ATOM     15  C   UNL A   1      32.424  24.957  25.635  1.00  0.00     0.044 A 
ATOM     16  C   UNL A   1      31.115  25.419  25.830  1.00  0.00     0.026 A 
ATOM     17  C   UNL A   1      33.461  25.856  25.921  1.00  0.00     0.026 A 
ATOM     18  C   UNL A   1      30.851  26.737  26.223  1.00  0.00     0.002 A 
ATOM     19  C   UNL A   1      33.200  27.178  26.306  1.00  0.00     0.002 A 
ATOM     20  C   UNL A   1      31.895  27.624  26.442  1.00  0.00     0.000 A 
ENDBRANCH   9  15
ENDBRANCH   6   7
ENDBRANCH   4   6
ENDBRANCH   3   4
ENDBRANCH   2   3
ENDBRANCH   1   2
BRANCH   1  21
ATOM     21  O   UNL A   1      38.549  21.734  25.476  1.00  0.00    -0.458 OA
BRANCH  21  22
ATOM     22  C   UNL A   1      39.494  21.625  26.448  1.00  0.00     0.338 C 
ATOM     23  O   UNL A   1      40.062  20.605  26.793  1.00  0.00    -0.246 OA
BRANCH  22  24
ATOM     24  C   UNL A   1      39.892  22.988  26.876  1.00  0.00     0.060 A 
ATOM     25  C   UNL A   1      39.204  24.082  26.334  1.00  0.00     0.016 A 
ATOM     26  C   UNL A   1      40.882  23.194  27.841  1.00  0.00     0.016 A 
ATOM     27  C   UNL A   1      39.504  25.383  26.753  1.00  0.00     0.010 A 
ATOM     28  C   UNL A   1      41.180  24.495  28.257  1.00  0.00     0.010 A 
ATOM     29  C   UNL A   1      40.503  25.602  27.710  1.00  0.00    -0.014 A 
BRANCH  29  30
ATOM     30  C   UNL A   1      40.961  26.978  28.046  1.00  0.00     0.031 A 
ATOM     31  C   UNL A   1      42.411  27.325  27.834  1.00  0.00     0.074 A 
ATOM     32  C   UNL A   1      40.127  27.897  28.570  1.00  0.00     0.049 A 
ATOM     33  N   UNL A   1      43.059  28.420  28.134  1.00  0.00    -0.248 NA
ATOM     34  C   UNL A   1      43.240  26.281  27.215  1.00  0.00     0.031 C 
ATOM     35  C   UNL A   1      38.700  27.709  28.820  1.00  0.00     0.029 A 
ATOM     36  N   UNL A   1      40.378  29.173  29.019  1.00  0.00    -0.354 N 
ATOM     37  C   UNL A   1      44.371  28.204  27.728  1.00  0.00     0.074 A 
ATOM     38  C   UNL A   1      44.438  26.842  27.239  1.00  0.00     0.031 C 
ATOM     39  C   UNL A   1      38.210  28.809  29.419  1.00  0.00     0.029 A 
ATOM     40  C   UNL A   1      39.290  29.778  29.603  1.00  0.00     0.049 A 
ATOM     41  H   UNL A   1      41.256  29.611  28.930  1.00  0.00     0.167 HD
ATOM     42  C   UNL A   1      45.416  29.066  27.725  1.00  0.00     0.034 A 
ATOM     43  C   UNL A   1      39.181  30.966  30.233  1.00  0.00     0.034 A 
ATOM     44  C   UNL A   1      45.350  30.418  28.218  1.00  0.00     0.049 A 
ATOM     45  C   UNL A   1      40.384  31.878  30.317  1.00  0.00     0.074 A 
ATOM     46  C   UNL A   1      46.340  31.386  28.218  1.00  0.00     0.029 A 
ATOM     47  N   UNL A   1      44.237  30.992  28.814  1.00  0.00    -0.354 N 
ATOM     48  N   UNL A   1      41.605  31.682  29.876  1.00  0.00    -0.248 NA
ATOM     49  C   UNL A   1      40.186  33.182  30.967  1.00  0.00     0.031 C 
ATOM     50  C   UNL A   1      45.845  32.521  28.870  1.00  0.00     0.029 A 
ATOM     51  C   UNL A   1      44.524  32.287  29.216  1.00  0.00     0.049 A 
ATOM     52  H   UNL A   1      43.367  30.544  28.933  1.00  0.00     0.167 HD
ATOM     53  C   UNL A   1      42.301  32.860  30.146  1.00  0.00     0.074 A 
ATOM     54  C   UNL A   1      41.368  33.754  30.798  1.00  0.00     0.031 C 
ATOM     55  C   UNL A   1      43.589  33.178  29.862  1.00  0.00     0.034 A 
BRANCH  42  56
ATOM     56  C   UNL A   1      46.724  28.545  27.181  1.00  0.00     0.023 A 
ATOM     57  C   UNL A   1      46.943  28.434  25.796  1.00  0.00     0.031 A 
ATOM     58  C   UNL A   1      47.734  28.098  28.048  1.00  0.00     0.131 A 
ATOM     59  C   UNL A   1      48.100  27.803  25.321  1.00  0.00     0.055 A 
ATOM     60  C   UNL A   1      48.924  27.551  27.565  1.00  0.00     0.041 A 
ATOM     61  F   UNL A   1      47.571  28.161  29.379  1.00  0.00    -0.206 F 
ATOM     62  C   UNL A   1      49.105  27.382  26.195  1.00  0.00     0.022 A 
BRANCH  59  63
ATOM     63  S   UNL A   1      48.191  27.386  23.558  1.00  0.00     0.124 S 
ATOM     64  O   UNL A   1      47.987  25.939  23.587  1.00  0.00    -0.237 OA
ATOM     65  O   UNL A   1      47.104  28.174  22.991  1.00  0.00    -0.237 OA
ATOM     66  O   UNL A   1      49.537  27.809  23.176  1.00  0.00    -0.744 OA
ENDBRANCH  59  63
ENDBRANCH  42  56
BRANCH  43  67
ATOM     67  C   UNL A   1      37.896  31.371  30.870  1.00  0.00     0.023 A 
ATOM     68  C   UNL A   1      36.900  32.035  30.136  1.00  0.00     0.031 A 
ATOM     69  C   UNL A   1      37.685  31.177  32.247  1.00  0.00     0.131 A 
ATOM     70  C   UNL A   1      35.763  32.534  30.793  1.00  0.00     0.055 A 
ATOM     71  C   UNL A   1      36.530  31.630  32.885  1.00  0.00     0.041 A 
ATOM     72  F   UNL A   1      38.609  30.551  32.994  1.00  0.00    -0.206 F 
ATOM     73  C   UNL A   1      35.568  32.328  32.161  1.00  0.00     0.022 A 
BRANCH  70  74
ATOM     74  S   UNL A   1      34.590  33.545  29.850  1.00  0.00     0.124 S 
ATOM     75  O   UNL A   1      35.480  34.493  29.188  1.00  0.00    -0.237 OA
ATOM     76  O   UNL A   1      33.955  32.553  28.990  1.00  0.00    -0.237 OA
ATOM     77  O   UNL A   1      33.727  34.117  30.882  1.00  0.00    -0.744 OA
ENDBRANCH  70  74
ENDBRANCH  43  67
BRANCH  55  78
ATOM     78  C   UNL A   1      44.048  34.579  30.187  1.00  0.00     0.023 A 
ATOM     79  C   UNL A   1      43.859  35.653  29.299  1.00  0.00     0.031 A 
ATOM     80  C   UNL A   1      44.687  34.840  31.414  1.00  0.00     0.131 A 
ATOM     81  C   UNL A   1      44.343  36.928  29.632  1.00  0.00     0.055 A 
ATOM     82  C   UNL A   1      45.118  36.120  31.761  1.00  0.00     0.041 A 
ATOM     83  F   UNL A   1      44.893  33.852  32.299  1.00  0.00    -0.206 F 
ATOM     84  C   UNL A   1      44.957  37.172  30.864  1.00  0.00     0.022 A 
BRANCH  81  85
ATOM     85  S   UNL A   1      44.223  38.259  28.405  1.00  0.00     0.124 S 
ATOM     86  O   UNL A   1      42.808  38.609  28.473  1.00  0.00    -0.237 OA
ATOM     87  O   UNL A   1      45.151  39.254  28.931  1.00  0.00    -0.237 OA
ATOM     88  O   UNL A   1      44.642  37.618  27.159  1.00  0.00    -0.744 OA
ENDBRANCH  81  85
ENDBRANCH  55  78
ENDBRANCH  29  30
ENDBRANCH  22  24
ENDBRANCH  21  22
ENDBRANCH   1  21
TORSDOF 16
ENDMDL
