MODEL 1
REMARK VINA RESULT:     -11.6      0.000      0.000
REMARK SMILES NS(=O)(=O)CCNC(=O)N1[C@@H]2CC[C@H]1C[C@H](CC(=O)OCCOC(=O)c1ccc(-c3c4nc(c(-c5cc(S(=O)(=O)[O-])ccc5F)c5ccc([nH]5)c(-c5cc(S(=O)(=O)[O-])ccc5F)c5nc(c(-c6cc(S(=O)(=O)[O-])ccc6F)c6ccc3[nH]6)C=C5)C=C4)cc1)C2
REMARK SMILES IDX 20 1 18 2 19 3 17 4 16 5 10 6 11 7 14 8 12 9 89 10 13 11
REMARK SMILES IDX 15 12 8 13 7 14 9 16 6 17 5 18 2 19 3 20 4 21 1 22 21 25
REMARK SMILES IDX 22 26 23 27 24 28 25 29 26 30 27 31 88 32 28 33 87 34 29 35
REMARK SMILES IDX 30 36 31 37 81 38 32 39 86 40 80 41 82 42 33 43 85 44 79 45
REMARK SMILES IDX 78 46 34 48 66 49 46 50 65 51 47 52 50 53 64 54 83 55 48 56
REMARK SMILES IDX 49 57 63 59 84 60 51 61 35 62 36 63 44 64 37 65 43 66 45 67
REMARK SMILES IDX 42 68 38 69 39 70 40 71 41 72 67 73 68 74 76 75 69 76 75 77
REMARK SMILES IDX 77 78 74 79 70 80 71 81 72 82 73 83 52 84 53 85 61 86 54 87
REMARK SMILES IDX 60 88 62 89 59 90 55 91 56 92 57 93 58 94
REMARK H PARENT 7 15 1 23 1 24 82 47 50 58
REMARK Flexibility Score: inf
ROOT
ATOM      1  O   UNL A   1      34.039  21.067  26.271  1.00  0.00    -0.462 OA
ENDROOT
BRANCH   1   2
ATOM      2  C   UNL A   1      33.629  22.258  26.772  1.00  0.00     0.306 C 
ATOM      3  O   UNL A   1      33.543  22.516  27.965  1.00  0.00    -0.252 OA
BRANCH   2   4
ATOM      4  C   UNL A   1      33.198  23.228  25.684  1.00  0.00     0.126 C 
BRANCH   4   5
ATOM      5  C   UNL A   1      33.070  24.721  26.071  1.00  0.00     0.004 C 
ATOM      6  N   UNL A   1      31.532  26.704  24.723  1.00  0.00    -0.319 N 
ATOM      7  C   UNL A   1      31.154  26.474  26.108  1.00  0.00     0.087 C 
ATOM      8  C   UNL A   1      32.955  26.962  24.745  1.00  0.00     0.087 C 
ATOM      9  C   UNL A   1      31.972  27.503  26.894  1.00  0.00     0.027 C 
ATOM     10  C   UNL A   1      31.583  25.031  26.420  1.00  0.00     0.029 C 
ATOM     11  C   UNL A   1      33.127  27.876  25.963  1.00  0.00     0.027 C 
ATOM     12  C   UNL A   1      33.671  25.630  24.967  1.00  0.00     0.029 C 
BRANCH   6  13
ATOM     13  C   UNL A   1      30.629  26.690  23.718  1.00  0.00     0.317 C 
ATOM     14  N   UNL A   1      30.008  27.818  23.309  1.00  0.00    -0.337 N 
ATOM     15  H   UNL A   1      29.095  27.676  22.965  1.00  0.00     0.165 HD
ATOM     16  O   UNL A   1      30.347  25.661  23.100  1.00  0.00    -0.249 OA
BRANCH  14  17
ATOM     17  C   UNL A   1      30.446  29.207  23.286  1.00  0.00     0.135 C 
BRANCH  17  18
ATOM     18  C   UNL A   1      29.354  30.167  23.740  1.00  0.00     0.175 C 
BRANCH  18  19
ATOM     19  S   UNL A   1      28.026  30.286  22.548  1.00  0.00     0.210 S 
ATOM     20  O   UNL A   1      28.505  29.867  21.251  1.00  0.00    -0.213 OA
ATOM     21  O   UNL A   1      27.322  31.533  22.728  1.00  0.00    -0.213 OA
BRANCH  19  22
ATOM     22  N   UNL A   1      26.964  29.089  23.037  1.00  0.00    -0.229 NA
ATOM     23  H   UNL A   1      27.421  28.487  23.722  1.00  0.00     0.137 HD
ATOM     24  H   UNL A   1      26.682  28.534  22.229  1.00  0.00     0.137 HD
ENDBRANCH  19  22
ENDBRANCH  18  19
ENDBRANCH  17  18
ENDBRANCH  14  17
ENDBRANCH   6  13
ENDBRANCH   4   5
ENDBRANCH   2   4
ENDBRANCH   1   2
BRANCH   1  25
ATOM     25  C   UNL A   1      34.637  21.068  24.963  1.00  0.00     0.274 C 
BRANCH  25  26
ATOM     26  C   UNL A   1      36.095  20.612  25.032  1.00  0.00     0.275 C 
BRANCH  26  27
ATOM     27  O   UNL A   1      36.934  21.654  25.559  1.00  0.00    -0.458 OA
BRANCH  27  28
ATOM     28  C   UNL A   1      38.238  21.326  25.714  1.00  0.00     0.338 C 
ATOM     29  O   UNL A   1      38.776  20.277  25.403  1.00  0.00    -0.246 OA
BRANCH  28  30
ATOM     30  C   UNL A   1      38.974  22.489  26.228  1.00  0.00     0.060 A 
ATOM     31  C   UNL A   1      38.399  23.757  26.109  1.00  0.00     0.016 A 
ATOM     32  C   UNL A   1      40.256  22.338  26.751  1.00  0.00     0.016 A 
ATOM     33  C   UNL A   1      39.108  24.887  26.504  1.00  0.00     0.010 A 
ATOM     34  C   UNL A   1      40.961  23.472  27.166  1.00  0.00     0.010 A 
ATOM     35  C   UNL A   1      40.395  24.754  27.034  1.00  0.00    -0.014 A 
BRANCH  35  36
ATOM     36  C   UNL A   1      41.175  25.962  27.402  1.00  0.00     0.031 A 
ATOM     37  C   UNL A   1      40.541  27.021  28.259  1.00  0.00     0.074 A 
ATOM     38  C   UNL A   1      42.442  26.103  26.970  1.00  0.00     0.049 A 
ATOM     39  N   UNL A   1      40.992  28.204  28.587  1.00  0.00    -0.248 NA
ATOM     40  C   UNL A   1      39.215  26.706  28.812  1.00  0.00     0.031 C 
ATOM     41  C   UNL A   1      43.179  25.112  26.182  1.00  0.00     0.029 A 
ATOM     42  N   UNL A   1      43.332  27.135  27.123  1.00  0.00    -0.354 N 
ATOM     43  C   UNL A   1      39.997  28.787  29.363  1.00  0.00     0.074 A 
ATOM     44  C   UNL A   1      38.907  27.836  29.431  1.00  0.00     0.031 C 
ATOM     45  C   UNL A   1      44.409  25.585  25.925  1.00  0.00     0.029 A 
ATOM     46  C   UNL A   1      44.525  26.936  26.466  1.00  0.00     0.049 A 
ATOM     47  H   UNL A   1      43.137  27.941  27.653  1.00  0.00     0.167 HD
ATOM     48  C   UNL A   1      40.000  30.003  29.964  1.00  0.00     0.034 A 
ATOM     49  C   UNL A   1      45.572  27.764  26.283  1.00  0.00     0.034 A 
ATOM     50  C   UNL A   1      41.102  30.931  29.881  1.00  0.00     0.049 A 
ATOM     51  C   UNL A   1      45.512  29.148  26.882  1.00  0.00     0.074 A 
ATOM     52  C   UNL A   1      41.219  32.184  30.458  1.00  0.00     0.029 A 
ATOM     53  N   UNL A   1      42.275  30.715  29.166  1.00  0.00    -0.354 N 
ATOM     54  N   UNL A   1      44.559  29.698  27.600  1.00  0.00    -0.248 NA
ATOM     55  C   UNL A   1      46.668  30.022  26.645  1.00  0.00     0.031 C 
ATOM     56  C   UNL A   1      42.421  32.756  30.027  1.00  0.00     0.029 A 
ATOM     57  C   UNL A   1      43.101  31.825  29.257  1.00  0.00     0.049 A 
ATOM     58  H   UNL A   1      42.488  29.894  28.668  1.00  0.00     0.167 HD
ATOM     59  C   UNL A   1      45.020  30.970  27.931  1.00  0.00     0.074 A 
ATOM     60  C   UNL A   1      46.337  31.098  27.343  1.00  0.00     0.031 C 
ATOM     61  C   UNL A   1      44.412  31.941  28.660  1.00  0.00     0.034 A 
BRANCH  48  62
ATOM     62  C   UNL A   1      38.750  30.417  30.705  1.00  0.00     0.023 A 
ATOM     63  C   UNL A   1      37.681  31.066  30.062  1.00  0.00     0.031 A 
ATOM     64  C   UNL A   1      38.640  30.183  32.088  1.00  0.00     0.131 A 
ATOM     65  C   UNL A   1      36.586  31.522  30.812  1.00  0.00     0.055 A 
ATOM     66  C   UNL A   1      37.508  30.562  32.813  1.00  0.00     0.041 A 
ATOM     67  F   UNL A   1      39.638  29.591  32.763  1.00  0.00    -0.206 F 
ATOM     68  C   UNL A   1      36.479  31.251  32.178  1.00  0.00     0.022 A 
BRANCH  65  69
ATOM     69  S   UNL A   1      35.378  32.610  30.008  1.00  0.00     0.124 S 
ATOM     70  O   UNL A   1      34.977  31.805  28.857  1.00  0.00    -0.237 OA
ATOM     71  O   UNL A   1      34.371  32.787  31.047  1.00  0.00    -0.237 OA
ATOM     72  O   UNL A   1      36.155  33.805  29.681  1.00  0.00    -0.744 OA
ENDBRANCH  65  69
ENDBRANCH  48  62
BRANCH  49  73
ATOM     73  C   UNL A   1      46.743  27.336  25.464  1.00  0.00     0.023 A 
ATOM     74  C   UNL A   1      46.933  27.825  24.162  1.00  0.00     0.031 A 
ATOM     75  C   UNL A   1      47.663  26.391  25.952  1.00  0.00     0.131 A 
ATOM     76  C   UNL A   1      47.985  27.331  23.376  1.00  0.00     0.055 A 
ATOM     77  C   UNL A   1      48.747  25.951  25.190  1.00  0.00     0.041 A 
ATOM     78  F   UNL A   1      47.528  25.884  27.188  1.00  0.00    -0.206 F 
ATOM     79  C   UNL A   1      48.903  26.411  23.886  1.00  0.00     0.022 A 
BRANCH  76  80
ATOM     80  S   UNL A   1      48.076  27.834  21.636  1.00  0.00     0.124 S 
ATOM     81  O   UNL A   1      48.277  26.553  20.968  1.00  0.00    -0.237 OA
ATOM     82  O   UNL A   1      46.778  28.467  21.434  1.00  0.00    -0.237 OA
ATOM     83  O   UNL A   1      49.223  28.741  21.604  1.00  0.00    -0.744 OA
ENDBRANCH  76  80
ENDBRANCH  49  73
BRANCH  61  84
ATOM     84  C   UNL A   1      45.198  33.206  28.911  1.00  0.00     0.023 A 
ATOM     85  C   UNL A   1      45.190  34.283  28.006  1.00  0.00     0.031 A 
ATOM     86  C   UNL A   1      45.973  33.332  30.079  1.00  0.00     0.131 A 
ATOM     87  C   UNL A   1      45.987  35.411  28.256  1.00  0.00     0.055 A 
ATOM     88  C   UNL A   1      46.708  34.485  30.355  1.00  0.00     0.041 A 
ATOM     89  F   UNL A   1      46.022  32.335  30.977  1.00  0.00    -0.206 F 
ATOM     90  C   UNL A   1      46.729  35.527  29.434  1.00  0.00     0.022 A 
BRANCH  87  91
ATOM     91  S   UNL A   1      46.119  36.685  26.971  1.00  0.00     0.124 S 
ATOM     92  O   UNL A   1      47.232  37.492  27.459  1.00  0.00    -0.237 OA
ATOM     93  O   UNL A   1      46.381  35.895  25.772  1.00  0.00    -0.237 OA
ATOM     94  O   UNL A   1      44.814  37.343  27.006  1.00  0.00    -0.744 OA
ENDBRANCH  87  91
ENDBRANCH  61  84
ENDBRANCH  35  36
ENDBRANCH  28  30
ENDBRANCH  27  28
ENDBRANCH  26  27
ENDBRANCH  25  26
ENDBRANCH   1  25
TORSDOF 20
ENDMDL
MODEL 2
REMARK VINA RESULT:     -11.5      5.511     10.530
REMARK SMILES NS(=O)(=O)CCNC(=O)N1[C@@H]2CC[C@H]1C[C@H](CC(=O)OCCOC(=O)c1ccc(-c3c4nc(c(-c5cc(S(=O)(=O)[O-])ccc5F)c5ccc([nH]5)c(-c5cc(S(=O)(=O)[O-])ccc5F)c5nc(c(-c6cc(S(=O)(=O)[O-])ccc6F)c6ccc3[nH]6)C=C5)C=C4)cc1)C2
REMARK SMILES IDX 20 1 18 2 19 3 17 4 16 5 10 6 11 7 14 8 12 9 89 10 13 11
REMARK SMILES IDX 15 12 8 13 7 14 9 16 6 17 5 18 2 19 3 20 4 21 1 22 21 25
REMARK SMILES IDX 22 26 23 27 24 28 25 29 26 30 27 31 88 32 28 33 87 34 29 35
REMARK SMILES IDX 30 36 31 37 81 38 32 39 86 40 80 41 82 42 33 43 85 44 79 45
REMARK SMILES IDX 78 46 34 48 66 49 46 50 65 51 47 52 50 53 64 54 83 55 48 56
REMARK SMILES IDX 49 57 63 59 84 60 51 61 35 62 36 63 44 64 37 65 43 66 45 67
REMARK SMILES IDX 42 68 38 69 39 70 40 71 41 72 67 73 68 74 76 75 69 76 75 77
REMARK SMILES IDX 77 78 74 79 70 80 71 81 72 82 73 83 52 84 53 85 61 86 54 87
REMARK SMILES IDX 60 88 62 89 59 90 55 91 56 92 57 93 58 94
REMARK H PARENT 7 15 1 23 1 24 82 47 50 58
REMARK Flexibility Score: inf
ROOT
ATOM      1  O   UNL A   1      31.997  28.301  25.383  1.00  0.00    -0.462 OA
ENDROOT
BRANCH   1   2
ATOM      2  C   UNL A   1      31.274  27.340  26.009  1.00  0.00     0.306 C 
ATOM      3  O   UNL A   1      31.151  27.245  27.222  1.00  0.00    -0.252 OA
BRANCH   2   4
ATOM      4  C   UNL A   1      30.692  26.327  25.038  1.00  0.00     0.126 C 
BRANCH   4   5
ATOM      5  C   UNL A   1      31.689  25.497  24.193  1.00  0.00     0.004 C 
ATOM      6  N   UNL A   1      32.326  22.742  24.532  1.00  0.00    -0.319 N 
ATOM      7  C   UNL A   1      31.757  23.082  23.239  1.00  0.00     0.087 C 
ATOM      8  C   UNL A   1      33.443  23.642  24.716  1.00  0.00     0.087 C 
ATOM      9  C   UNL A   1      32.976  23.357  22.354  1.00  0.00     0.027 C 
ATOM     10  C   UNL A   1      30.916  24.348  23.476  1.00  0.00     0.029 C 
ATOM     11  C   UNL A   1      34.109  23.660  23.336  1.00  0.00     0.027 C 
ATOM     12  C   UNL A   1      32.883  25.021  25.061  1.00  0.00     0.029 C 
BRANCH   6  13
ATOM     13  C   UNL A   1      31.837  21.736  25.292  1.00  0.00     0.317 C 
ATOM     14  N   UNL A   1      32.481  20.552  25.398  1.00  0.00    -0.337 N 
ATOM     15  H   UNL A   1      31.885  19.779  25.534  1.00  0.00     0.165 HD
ATOM     16  O   UNL A   1      30.803  21.853  25.952  1.00  0.00    -0.249 OA
BRANCH  14  17
ATOM     17  C   UNL A   1      33.897  20.215  25.346  1.00  0.00     0.135 C 
BRANCH  17  18
ATOM     18  C   UNL A   1      34.164  18.957  24.531  1.00  0.00     0.175 C 
BRANCH  18  19
ATOM     19  S   UNL A   1      32.661  18.267  23.850  1.00  0.00     0.210 S 
ATOM     20  O   UNL A   1      32.124  19.169  22.857  1.00  0.00    -0.213 OA
ATOM     21  O   UNL A   1      31.841  17.741  24.915  1.00  0.00    -0.213 OA
BRANCH  19  22
ATOM     22  N   UNL A   1      33.204  16.935  22.993  1.00  0.00    -0.229 NA
ATOM     23  H   UNL A   1      32.982  17.053  22.005  1.00  0.00     0.137 HD
ATOM     24  H   UNL A   1      32.748  16.094  23.348  1.00  0.00     0.137 HD
ENDBRANCH  19  22
ENDBRANCH  18  19
ENDBRANCH  17  18
ENDBRANCH  14  17
ENDBRANCH   6  13
ENDBRANCH   4   5
ENDBRANCH   2   4
ENDBRANCH   1   2
BRANCH   1  25
ATOM     25  C   UNL A   1      31.312  29.507  25.007  1.00  0.00     0.274 C 
BRANCH  25  26
ATOM     26  C   UNL A   1      31.642  30.645  25.974  1.00  0.00     0.275 C 
BRANCH  26  27
ATOM     27  O   UNL A   1      32.996  30.538  26.448  1.00  0.00    -0.458 OA
BRANCH  27  28
ATOM     28  C   UNL A   1      33.438  31.587  27.180  1.00  0.00     0.338 C 
ATOM     29  O   UNL A   1      32.852  32.634  27.397  1.00  0.00    -0.246 OA
BRANCH  28  30
ATOM     30  C   UNL A   1      34.726  31.240  27.797  1.00  0.00     0.060 A 
ATOM     31  C   UNL A   1      34.917  29.941  28.274  1.00  0.00     0.016 A 
ATOM     32  C   UNL A   1      35.708  32.212  27.973  1.00  0.00     0.016 A 
ATOM     33  C   UNL A   1      36.089  29.606  28.943  1.00  0.00     0.010 A 
ATOM     34  C   UNL A   1      36.895  31.870  28.628  1.00  0.00     0.010 A 
ATOM     35  C   UNL A   1      37.088  30.568  29.127  1.00  0.00    -0.014 A 
BRANCH  35  36
ATOM     36  C   UNL A   1      38.314  30.228  29.890  1.00  0.00     0.031 A 
ATOM     37  C   UNL A   1      39.283  29.228  29.329  1.00  0.00     0.074 A 
ATOM     38  C   UNL A   1      38.553  30.817  31.078  1.00  0.00     0.049 A 
ATOM     39  N   UNL A   1      40.340  28.693  29.883  1.00  0.00    -0.248 NA
ATOM     40  C   UNL A   1      39.019  28.760  27.959  1.00  0.00     0.031 C 
ATOM     41  C   UNL A   1      37.712  31.846  31.692  1.00  0.00     0.029 A 
ATOM     42  N   UNL A   1      39.567  30.631  31.983  1.00  0.00    -0.354 N 
ATOM     43  C   UNL A   1      40.854  27.807  28.943  1.00  0.00     0.074 A 
ATOM     44  C   UNL A   1      39.973  27.856  27.795  1.00  0.00     0.031 C 
ATOM     45  C   UNL A   1      38.247  32.202  32.870  1.00  0.00     0.029 A 
ATOM     46  C   UNL A   1      39.425  31.379  33.129  1.00  0.00     0.049 A 
ATOM     47  H   UNL A   1      40.324  30.021  31.827  1.00  0.00     0.167 HD
ATOM     48  C   UNL A   1      41.961  27.028  29.036  1.00  0.00     0.034 A 
ATOM     49  C   UNL A   1      40.138  31.370  34.273  1.00  0.00     0.034 A 
ATOM     50  C   UNL A   1      42.823  27.000  30.193  1.00  0.00     0.049 A 
ATOM     51  C   UNL A   1      41.309  30.426  34.387  1.00  0.00     0.074 A 
ATOM     52  C   UNL A   1      43.976  26.260  30.391  1.00  0.00     0.029 A 
ATOM     53  N   UNL A   1      42.621  27.736  31.356  1.00  0.00    -0.354 N 
ATOM     54  N   UNL A   1      41.778  29.577  33.500  1.00  0.00    -0.248 NA
ATOM     55  C   UNL A   1      42.048  30.438  35.657  1.00  0.00     0.031 C 
ATOM     56  C   UNL A   1      44.423  26.485  31.698  1.00  0.00     0.029 A 
ATOM     57  C   UNL A   1      43.606  27.438  32.285  1.00  0.00     0.049 A 
ATOM     58  H   UNL A   1      41.887  28.375  31.497  1.00  0.00     0.167 HD
ATOM     59  C   UNL A   1      42.888  28.983  34.094  1.00  0.00     0.074 A 
ATOM     60  C   UNL A   1      43.023  29.578  35.407  1.00  0.00     0.031 C 
ATOM     61  C   UNL A   1      43.725  28.036  33.596  1.00  0.00     0.034 A 
BRANCH  48  62
ATOM     62  C   UNL A   1      42.260  26.102  27.880  1.00  0.00     0.023 A 
ATOM     63  C   UNL A   1      41.727  24.803  27.807  1.00  0.00     0.031 A 
ATOM     64  C   UNL A   1      43.117  26.518  26.845  1.00  0.00     0.131 A 
ATOM     65  C   UNL A   1      42.114  23.944  26.767  1.00  0.00     0.055 A 
ATOM     66  C   UNL A   1      43.429  25.688  25.766  1.00  0.00     0.041 A 
ATOM     67  F   UNL A   1      43.678  27.737  26.870  1.00  0.00    -0.206 F 
ATOM     68  C   UNL A   1      42.940  24.386  25.731  1.00  0.00     0.022 A 
BRANCH  65  69
ATOM     69  S   UNL A   1      41.649  22.193  26.869  1.00  0.00     0.124 S 
ATOM     70  O   UNL A   1      42.676  21.667  27.766  1.00  0.00    -0.237 OA
ATOM     71  O   UNL A   1      40.297  22.257  27.412  1.00  0.00    -0.237 OA
ATOM     72  O   UNL A   1      41.745  21.731  25.485  1.00  0.00    -0.744 OA
ENDBRANCH  65  69
ENDBRANCH  48  62
BRANCH  49  73
ATOM     73  C   UNL A   1      39.743  32.240  35.418  1.00  0.00     0.023 A 
ATOM     74  C   UNL A   1      38.916  31.755  36.445  1.00  0.00     0.031 A 
ATOM     75  C   UNL A   1      40.145  33.587  35.479  1.00  0.00     0.131 A 
ATOM     76  C   UNL A   1      38.478  32.623  37.457  1.00  0.00     0.055 A 
ATOM     77  C   UNL A   1      39.759  34.428  36.523  1.00  0.00     0.041 A 
ATOM     78  F   UNL A   1      40.931  34.106  34.521  1.00  0.00    -0.206 F 
ATOM     79  C   UNL A   1      38.907  33.950  37.514  1.00  0.00     0.022 A 
BRANCH  76  80
ATOM     80  S   UNL A   1      37.252  32.014  38.648  1.00  0.00     0.124 S 
ATOM     81  O   UNL A   1      37.882  32.352  39.919  1.00  0.00    -0.237 OA
ATOM     82  O   UNL A   1      36.070  32.790  38.290  1.00  0.00    -0.237 OA
ATOM     83  O   UNL A   1      37.172  30.585  38.351  1.00  0.00    -0.744 OA
ENDBRANCH  76  80
ENDBRANCH  49  73
BRANCH  61  84
ATOM     84  C   UNL A   1      44.897  27.631  34.458  1.00  0.00     0.023 A 
ATOM     85  C   UNL A   1      44.859  26.495  35.285  1.00  0.00     0.031 A 
ATOM     86  C   UNL A   1      46.073  28.405  34.453  1.00  0.00     0.131 A 
ATOM     87  C   UNL A   1      45.952  26.197  36.113  1.00  0.00     0.055 A 
ATOM     88  C   UNL A   1      47.182  28.064  35.227  1.00  0.00     0.041 A 
ATOM     89  F   UNL A   1      46.165  29.504  33.686  1.00  0.00    -0.206 F 
ATOM     90  C   UNL A   1      47.120  26.963  36.074  1.00  0.00     0.022 A 
BRANCH  87  91
ATOM     91  S   UNL A   1      45.789  24.852  37.320  1.00  0.00     0.124 S 
ATOM     92  O   UNL A   1      45.673  23.682  36.455  1.00  0.00    -0.237 OA
ATOM     93  O   UNL A   1      47.029  24.962  38.081  1.00  0.00    -0.237 OA
ATOM     94  O   UNL A   1      44.576  25.200  38.058  1.00  0.00    -0.744 OA
ENDBRANCH  87  91
ENDBRANCH  61  84
ENDBRANCH  35  36
ENDBRANCH  28  30
ENDBRANCH  27  28
ENDBRANCH  26  27
ENDBRANCH  25  26
ENDBRANCH   1  25
TORSDOF 20
ENDMDL
MODEL 3
REMARK VINA RESULT:     -11.5      5.293     10.435
REMARK SMILES NS(=O)(=O)CCNC(=O)N1[C@@H]2CC[C@H]1C[C@H](CC(=O)OCCOC(=O)c1ccc(-c3c4nc(c(-c5cc(S(=O)(=O)[O-])ccc5F)c5ccc([nH]5)c(-c5cc(S(=O)(=O)[O-])ccc5F)c5nc(c(-c6cc(S(=O)(=O)[O-])ccc6F)c6ccc3[nH]6)C=C5)C=C4)cc1)C2
REMARK SMILES IDX 20 1 18 2 19 3 17 4 16 5 10 6 11 7 14 8 12 9 89 10 13 11
REMARK SMILES IDX 15 12 8 13 7 14 9 16 6 17 5 18 2 19 3 20 4 21 1 22 21 25
REMARK SMILES IDX 22 26 23 27 24 28 25 29 26 30 27 31 88 32 28 33 87 34 29 35
REMARK SMILES IDX 30 36 31 37 81 38 32 39 86 40 80 41 82 42 33 43 85 44 79 45
REMARK SMILES IDX 78 46 34 48 66 49 46 50 65 51 47 52 50 53 64 54 83 55 48 56
REMARK SMILES IDX 49 57 63 59 84 60 51 61 35 62 36 63 44 64 37 65 43 66 45 67
REMARK SMILES IDX 42 68 38 69 39 70 40 71 41 72 67 73 68 74 76 75 69 76 75 77
REMARK SMILES IDX 77 78 74 79 70 80 71 81 72 82 73 83 52 84 53 85 61 86 54 87
REMARK SMILES IDX 60 88 62 89 59 90 55 91 56 92 57 93 58 94
REMARK H PARENT 7 15 1 23 1 24 82 47 50 58
REMARK Flexibility Score: inf
ROOT
ATOM      1  O   UNL A   1      32.361  28.482  25.749  1.00  0.00    -0.462 OA
ENDROOT
BRANCH   1   2
ATOM      2  C   UNL A   1      31.737  27.445  26.360  1.00  0.00     0.306 C 
ATOM      3  O   UNL A   1      31.177  27.516  27.446  1.00  0.00    -0.252 OA
BRANCH   2   4
ATOM      4  C   UNL A   1      31.880  26.144  25.587  1.00  0.00     0.126 C 
BRANCH   4   5
ATOM      5  C   UNL A   1      32.736  25.025  26.230  1.00  0.00     0.004 C 
ATOM      6  N   UNL A   1      32.962  22.330  25.337  1.00  0.00    -0.319 N 
ATOM      7  C   UNL A   1      34.209  23.076  25.351  1.00  0.00     0.087 C 
ATOM      8  C   UNL A   1      32.405  22.477  26.663  1.00  0.00     0.087 C 
ATOM      9  C   UNL A   1      34.810  22.774  26.727  1.00  0.00     0.027 C 
ATOM     10  C   UNL A   1      33.811  24.554  25.204  1.00  0.00     0.029 C 
ATOM     11  C   UNL A   1      33.624  22.312  27.576  1.00  0.00     0.027 C 
ATOM     12  C   UNL A   1      31.834  23.889  26.780  1.00  0.00     0.029 C 
BRANCH   6  13
ATOM     13  C   UNL A   1      32.543  21.648  24.248  1.00  0.00     0.317 C 
ATOM     14  N   UNL A   1      32.923  20.370  24.024  1.00  0.00    -0.337 N 
ATOM     15  H   UNL A   1      32.993  20.130  23.071  1.00  0.00     0.165 HD
ATOM     16  O   UNL A   1      31.771  22.137  23.421  1.00  0.00    -0.249 OA
BRANCH  14  17
ATOM     17  C   UNL A   1      33.247  19.285  24.940  1.00  0.00     0.135 C 
BRANCH  17  18
ATOM     18  C   UNL A   1      34.268  18.319  24.355  1.00  0.00     0.175 C 
BRANCH  18  19
ATOM     19  S   UNL A   1      33.496  16.860  23.667  1.00  0.00     0.210 S 
ATOM     20  O   UNL A   1      32.837  16.122  24.719  1.00  0.00    -0.213 OA
ATOM     21  O   UNL A   1      34.404  16.217  22.748  1.00  0.00    -0.213 OA
BRANCH  19  22
ATOM     22  N   UNL A   1      32.263  17.487  22.724  1.00  0.00    -0.229 NA
ATOM     23  H   UNL A   1      31.400  17.513  23.266  1.00  0.00     0.137 HD
ATOM     24  H   UNL A   1      32.132  16.899  21.901  1.00  0.00     0.137 HD
ENDBRANCH  19  22
ENDBRANCH  18  19
ENDBRANCH  17  18
ENDBRANCH  14  17
ENDBRANCH   6  13
ENDBRANCH   4   5
ENDBRANCH   2   4
ENDBRANCH   1   2
BRANCH   1  25
ATOM     25  C   UNL A   1      31.532  29.498  25.159  1.00  0.00     0.274 C 
BRANCH  25  26
ATOM     26  C   UNL A   1      31.647  30.812  25.935  1.00  0.00     0.275 C 
BRANCH  26  27
ATOM     27  O   UNL A   1      32.575  30.682  27.027  1.00  0.00    -0.458 OA
BRANCH  27  28
ATOM     28  C   UNL A   1      33.265  31.805  27.336  1.00  0.00     0.338 C 
ATOM     29  O   UNL A   1      32.876  32.956  27.251  1.00  0.00    -0.246 OA
BRANCH  28  30
ATOM     30  C   UNL A   1      34.562  31.431  27.918  1.00  0.00     0.060 A 
ATOM     31  C   UNL A   1      34.757  30.114  28.343  1.00  0.00     0.016 A 
ATOM     32  C   UNL A   1      35.550  32.393  28.115  1.00  0.00     0.016 A 
ATOM     33  C   UNL A   1      35.939  29.752  28.979  1.00  0.00     0.010 A 
ATOM     34  C   UNL A   1      36.746  32.024  28.738  1.00  0.00     0.010 A 
ATOM     35  C   UNL A   1      36.944  30.704  29.184  1.00  0.00    -0.014 A 
BRANCH  35  36
ATOM     36  C   UNL A   1      38.181  30.332  29.913  1.00  0.00     0.031 A 
ATOM     37  C   UNL A   1      39.138  29.352  29.298  1.00  0.00     0.074 A 
ATOM     38  C   UNL A   1      38.441  30.876  31.118  1.00  0.00     0.049 A 
ATOM     39  N   UNL A   1      40.202  28.794  29.814  1.00  0.00    -0.248 NA
ATOM     40  C   UNL A   1      38.850  28.936  27.917  1.00  0.00     0.031 C 
ATOM     41  C   UNL A   1      37.613  31.883  31.785  1.00  0.00     0.029 A 
ATOM     42  N   UNL A   1      39.469  30.653  31.998  1.00  0.00    -0.354 N 
ATOM     43  C   UNL A   1      40.698  27.943  28.834  1.00  0.00     0.074 A 
ATOM     44  C   UNL A   1      39.798  28.037  27.703  1.00  0.00     0.031 C 
ATOM     45  C   UNL A   1      38.168  32.192  32.966  1.00  0.00     0.029 A 
ATOM     46  C   UNL A   1      39.348  31.357  33.174  1.00  0.00     0.049 A 
ATOM     47  H   UNL A   1      40.221  30.048  31.807  1.00  0.00     0.167 HD
ATOM     48  C   UNL A   1      41.804  27.158  28.878  1.00  0.00     0.034 A 
ATOM     49  C   UNL A   1      40.079  31.304  34.305  1.00  0.00     0.034 A 
ATOM     50  C   UNL A   1      42.685  27.085  30.020  1.00  0.00     0.049 A 
ATOM     51  C   UNL A   1      41.250  30.353  34.365  1.00  0.00     0.074 A 
ATOM     52  C   UNL A   1      43.839  26.335  30.171  1.00  0.00     0.029 A 
ATOM     53  N   UNL A   1      42.504  27.777  31.212  1.00  0.00    -0.354 N 
ATOM     54  N   UNL A   1      41.701  29.538  33.438  1.00  0.00    -0.248 NA
ATOM     55  C   UNL A   1      42.009  30.316  35.621  1.00  0.00     0.031 C 
ATOM     56  C   UNL A   1      44.307  26.509  31.477  1.00  0.00     0.029 A 
ATOM     57  C   UNL A   1      43.503  27.442  32.114  1.00  0.00     0.049 A 
ATOM     58  H   UNL A   1      41.774  28.412  31.390  1.00  0.00     0.167 HD
ATOM     59  C   UNL A   1      42.820  28.918  33.991  1.00  0.00     0.074 A 
ATOM     60  C   UNL A   1      42.977  29.463  35.324  1.00  0.00     0.031 C 
ATOM     61  C   UNL A   1      43.645  27.989  33.444  1.00  0.00     0.034 A 
BRANCH  48  62
ATOM     62  C   UNL A   1      42.081  26.276  27.684  1.00  0.00     0.023 A 
ATOM     63  C   UNL A   1      41.688  24.927  27.645  1.00  0.00     0.031 A 
ATOM     64  C   UNL A   1      42.777  26.788  26.574  1.00  0.00     0.131 A 
ATOM     65  C   UNL A   1      42.057  24.120  26.557  1.00  0.00     0.055 A 
ATOM     66  C   UNL A   1      43.066  26.002  25.456  1.00  0.00     0.041 A 
ATOM     67  F   UNL A   1      43.203  28.062  26.562  1.00  0.00    -0.206 F 
ATOM     68  C   UNL A   1      42.719  24.655  25.450  1.00  0.00     0.022 A 
BRANCH  65  69
ATOM     69  S   UNL A   1      41.796  22.329  26.678  1.00  0.00     0.124 S 
ATOM     70  O   UNL A   1      42.274  21.873  25.375  1.00  0.00    -0.237 OA
ATOM     71  O   UNL A   1      42.621  21.967  27.825  1.00  0.00    -0.237 OA
ATOM     72  O   UNL A   1      40.354  22.204  26.883  1.00  0.00    -0.744 OA
ENDBRANCH  65  69
ENDBRANCH  48  62
BRANCH  49  73
ATOM     73  C   UNL A   1      39.706  32.131  35.489  1.00  0.00     0.023 A 
ATOM     74  C   UNL A   1      38.898  31.608  36.511  1.00  0.00     0.031 A 
ATOM     75  C   UNL A   1      40.109  33.474  35.592  1.00  0.00     0.131 A 
ATOM     76  C   UNL A   1      38.478  32.437  37.563  1.00  0.00     0.055 A 
ATOM     77  C   UNL A   1      39.743  34.276  36.673  1.00  0.00     0.041 A 
ATOM     78  F   UNL A   1      40.878  34.029  34.640  1.00  0.00    -0.206 F 
ATOM     79  C   UNL A   1      38.909  33.762  37.661  1.00  0.00     0.022 A 
BRANCH  76  80
ATOM     80  S   UNL A   1      37.274  31.785  38.752  1.00  0.00     0.124 S 
ATOM     81  O   UNL A   1      38.014  31.880  40.005  1.00  0.00    -0.237 OA
ATOM     82  O   UNL A   1      36.158  32.711  38.594  1.00  0.00    -0.237 OA
ATOM     83  O   UNL A   1      37.027  30.426  38.274  1.00  0.00    -0.744 OA
ENDBRANCH  76  80
ENDBRANCH  49  73
BRANCH  61  84
ATOM     84  C   UNL A   1      44.830  27.550  34.271  1.00  0.00     0.023 A 
ATOM     85  C   UNL A   1      46.065  28.221  34.221  1.00  0.00     0.031 A 
ATOM     86  C   UNL A   1      44.719  26.434  35.120  1.00  0.00     0.131 A 
ATOM     87  C   UNL A   1      47.153  27.736  34.962  1.00  0.00     0.055 A 
ATOM     88  C   UNL A   1      45.786  25.998  35.907  1.00  0.00     0.041 A 
ATOM     89  F   UNL A   1      43.566  25.751  35.205  1.00  0.00    -0.206 F 
ATOM     90  C   UNL A   1      47.016  26.642  35.820  1.00  0.00     0.022 A 
BRANCH  87  91
ATOM     91  S   UNL A   1      48.783  28.494  34.713  1.00  0.00     0.124 S 
ATOM     92  O   UNL A   1      48.985  28.316  33.279  1.00  0.00    -0.237 OA
ATOM     93  O   UNL A   1      48.562  29.865  35.161  1.00  0.00    -0.237 OA
ATOM     94  O   UNL A   1      49.664  27.698  35.567  1.00  0.00    -0.744 OA
ENDBRANCH  87  91
ENDBRANCH  61  84
ENDBRANCH  35  36
ENDBRANCH  28  30
ENDBRANCH  27  28
ENDBRANCH  26  27
ENDBRANCH  25  26
ENDBRANCH   1  25
TORSDOF 20
ENDMDL
