MODEL 1
REMARK VINA RESULT:     -11.1      0.000      0.000
REMARK SMILES CCOc1cc(/C=C(/F)C(=O)OCCOC(=O)c2ccc(-c3c4nc(c(-c5cc(S(=O)(=O)[O-])ccc5F)c5ccc([nH]5)c(-c5cc(S(=O)(=O)[O-])ccc5F)c5nc(c(-c6cc(S(=O)(=O)[O-])ccc6F)c6ccc3[nH]6)C=C5)C=C4)cc2)ccc1O
REMARK SMILES IDX 13 1 12 2 10 3 11 4 8 5 7 6 9 7 6 8 4 9 5 10 83 11 82 12
REMARK SMILES IDX 81 13 3 14 2 15 1 16 84 17 14 19 15 20 16 21 17 22 18 23
REMARK SMILES IDX 19 24 80 25 20 26 79 27 21 28 22 29 23 30 73 31 24 32 78 33
REMARK SMILES IDX 72 34 74 35 25 36 77 37 71 38 70 39 26 41 58 42 38 43 57 44
REMARK SMILES IDX 39 45 42 46 56 47 75 48 40 49 41 50 55 52 76 53 43 54 27 55
REMARK SMILES IDX 28 56 36 57 29 58 35 59 37 60 34 61 30 62 31 63 32 64 33 65
REMARK SMILES IDX 59 66 60 67 68 68 61 69 67 70 69 71 66 72 62 73 63 74 64 75
REMARK SMILES IDX 65 76 44 77 45 78 53 79 46 80 52 81 54 82 51 83 47 84 48 85
REMARK SMILES IDX 49 86 50 87
REMARK H PARENT 84 18 74 40 42 51
REMARK Flexibility Score: inf
ROOT
ATOM      1  C   UNL A   1      31.790  28.810  26.200  1.00  0.00     0.275 C 
ENDROOT
BRANCH   1   2
ATOM      2  O   UNL A   1      33.001  28.365  25.574  1.00  0.00    -0.457 OA
BRANCH   2   3
ATOM      3  C   UNL A   1      33.011  28.381  24.218  1.00  0.00     0.367 C 
ATOM      4  O   UNL A   1      33.269  29.332  23.499  1.00  0.00    -0.243 OA
BRANCH   3   5
ATOM      5  C   UNL A   1      32.806  26.998  23.757  1.00  0.00     0.208 C 
ATOM      6  C   UNL A   1      31.638  26.472  23.354  1.00  0.00     0.055 C 
ATOM      7  F   UNL A   1      33.929  26.247  23.720  1.00  0.00    -0.199 F 
BRANCH   6   8
ATOM      8  C   UNL A   1      30.292  27.077  23.288  1.00  0.00    -0.019 A 
ATOM      9  C   UNL A   1      28.669  28.739  22.454  1.00  0.00     0.161 A 
ATOM     10  C   UNL A   1      29.975  28.245  22.581  1.00  0.00     0.058 A 
ATOM     11  C   UNL A   1      27.657  28.096  23.150  1.00  0.00     0.157 A 
ATOM     12  C   UNL A   1      27.942  26.936  23.879  1.00  0.00     0.051 A 
ATOM     13  C   UNL A   1      29.237  26.409  23.912  1.00  0.00     0.012 A 
BRANCH   9  14
ATOM     14  O   UNL A   1      28.570  29.837  21.638  1.00  0.00    -0.490 OA
BRANCH  14  15
ATOM     15  C   UNL A   1      29.005  31.087  22.177  1.00  0.00     0.226 C 
ATOM     16  C   UNL A   1      28.102  31.444  23.348  1.00  0.00     0.049 C 
ENDBRANCH  14  15
ENDBRANCH   9  14
BRANCH  11  17
ATOM     17  O   UNL A   1      26.381  28.582  23.133  1.00  0.00    -0.504 OA
ATOM     18  H   UNL A   1      25.654  27.990  23.128  1.00  0.00     0.293 HD
ENDBRANCH  11  17
ENDBRANCH   6   8
ENDBRANCH   3   5
ENDBRANCH   2   3
ENDBRANCH   1   2
BRANCH   1  19
ATOM     19  C   UNL A   1      31.992  30.241  26.720  1.00  0.00     0.275 C 
BRANCH  19  20
ATOM     20  O   UNL A   1      33.339  30.736  26.516  1.00  0.00    -0.458 OA
BRANCH  20  21
ATOM     21  C   UNL A   1      33.832  31.549  27.491  1.00  0.00     0.338 C 
ATOM     22  O   UNL A   1      33.231  32.479  28.009  1.00  0.00    -0.246 OA
BRANCH  21  23
ATOM     23  C   UNL A   1      35.193  31.130  27.934  1.00  0.00     0.060 A 
ATOM     24  C   UNL A   1      35.376  29.800  28.333  1.00  0.00     0.016 A 
ATOM     25  C   UNL A   1      36.280  32.012  28.000  1.00  0.00     0.016 A 
ATOM     26  C   UNL A   1      36.631  29.348  28.767  1.00  0.00     0.010 A 
ATOM     27  C   UNL A   1      37.537  31.561  28.451  1.00  0.00     0.010 A 
ATOM     28  C   UNL A   1      37.725  30.225  28.843  1.00  0.00    -0.014 A 
BRANCH  28  29
ATOM     29  C   UNL A   1      38.997  29.740  29.465  1.00  0.00     0.031 A 
ATOM     30  C   UNL A   1      39.375  30.243  30.820  1.00  0.00     0.074 A 
ATOM     31  C   UNL A   1      39.778  28.811  28.879  1.00  0.00     0.049 A 
ATOM     32  N   UNL A   1      40.353  29.859  31.598  1.00  0.00    -0.248 NA
ATOM     33  C   UNL A   1      38.556  31.337  31.354  1.00  0.00     0.031 C 
ATOM     34  C   UNL A   1      39.557  28.312  27.539  1.00  0.00     0.029 A 
ATOM     35  N   UNL A   1      40.882  28.111  29.306  1.00  0.00    -0.354 N 
ATOM     36  C   UNL A   1      40.263  30.657  32.728  1.00  0.00     0.074 A 
ATOM     37  C   UNL A   1      39.157  31.570  32.511  1.00  0.00     0.031 C 
ATOM     38  C   UNL A   1      40.429  27.329  27.264  1.00  0.00     0.029 A 
ATOM     39  C   UNL A   1      41.333  27.172  28.399  1.00  0.00     0.049 A 
ATOM     40  H   UNL A   1      41.312  28.266  30.178  1.00  0.00     0.167 HD
ATOM     41  C   UNL A   1      41.034  30.630  33.842  1.00  0.00     0.034 A 
ATOM     42  C   UNL A   1      42.362  26.299  28.461  1.00  0.00     0.034 A 
ATOM     43  C   UNL A   1      42.179  29.768  34.012  1.00  0.00     0.049 A 
ATOM     44  C   UNL A   1      43.225  26.311  29.698  1.00  0.00     0.074 A 
ATOM     45  C   UNL A   1      43.045  29.686  35.087  1.00  0.00     0.029 A 
ATOM     46  N   UNL A   1      42.635  28.852  33.069  1.00  0.00    -0.354 N 
ATOM     47  N   UNL A   1      43.110  27.058  30.772  1.00  0.00    -0.248 NA
ATOM     48  C   UNL A   1      44.358  25.378  29.729  1.00  0.00     0.031 C 
ATOM     49  C   UNL A   1      44.058  28.770  34.770  1.00  0.00     0.029 A 
ATOM     50  C   UNL A   1      43.783  28.220  33.529  1.00  0.00     0.049 A 
ATOM     51  H   UNL A   1      42.208  28.679  32.199  1.00  0.00     0.167 HD
ATOM     52  C   UNL A   1      44.157  26.685  31.609  1.00  0.00     0.074 A 
ATOM     53  C   UNL A   1      44.868  25.620  30.928  1.00  0.00     0.031 C 
ATOM     54  C   UNL A   1      44.502  27.181  32.825  1.00  0.00     0.034 A 
BRANCH  41  55
ATOM     55  C   UNL A   1      40.679  31.626  34.915  1.00  0.00     0.023 A 
ATOM     56  C   UNL A   1      39.707  31.335  35.891  1.00  0.00     0.031 A 
ATOM     57  C   UNL A   1      41.242  32.913  34.905  1.00  0.00     0.131 A 
ATOM     58  C   UNL A   1      39.264  32.345  36.755  1.00  0.00     0.055 A 
ATOM     59  C   UNL A   1      40.856  33.889  35.824  1.00  0.00     0.041 A 
ATOM     60  F   UNL A   1      42.149  33.254  33.976  1.00  0.00    -0.206 F 
ATOM     61  C   UNL A   1      39.848  33.613  36.746  1.00  0.00     0.022 A 
BRANCH  58  62
ATOM     62  S   UNL A   1      37.799  32.028  37.778  1.00  0.00     0.124 S 
ATOM     63  O   UNL A   1      37.472  30.655  37.402  1.00  0.00    -0.237 OA
ATOM     64  O   UNL A   1      38.312  32.215  39.130  1.00  0.00    -0.237 OA
ATOM     65  O   UNL A   1      36.842  33.035  37.327  1.00  0.00    -0.744 OA
ENDBRANCH  58  62
ENDBRANCH  41  55
BRANCH  42  66
ATOM     66  C   UNL A   1      42.682  25.391  27.313  1.00  0.00     0.023 A 
ATOM     67  C   UNL A   1      42.221  24.062  27.263  1.00  0.00     0.031 A 
ATOM     68  C   UNL A   1      43.498  25.835  26.256  1.00  0.00     0.131 A 
ATOM     69  C   UNL A   1      42.596  23.226  26.195  1.00  0.00     0.055 A 
ATOM     70  C   UNL A   1      43.823  25.017  25.171  1.00  0.00     0.041 A 
ATOM     71  F   UNL A   1      43.976  27.089  26.250  1.00  0.00    -0.206 F 
ATOM     72  C   UNL A   1      43.379  23.701  25.141  1.00  0.00     0.022 A 
BRANCH  69  73
ATOM     73  S   UNL A   1      42.107  21.476  26.228  1.00  0.00     0.124 S 
ATOM     74  O   UNL A   1      40.712  21.547  25.812  1.00  0.00    -0.237 OA
ATOM     75  O   UNL A   1      43.036  20.886  25.269  1.00  0.00    -0.237 OA
ATOM     76  O   UNL A   1      42.326  21.088  27.620  1.00  0.00    -0.744 OA
ENDBRANCH  69  73
ENDBRANCH  42  66
BRANCH  54  77
ATOM     77  C   UNL A   1      45.688  26.535  33.500  1.00  0.00     0.023 A 
ATOM     78  C   UNL A   1      45.541  25.426  34.352  1.00  0.00     0.031 A 
ATOM     79  C   UNL A   1      46.973  27.082  33.342  1.00  0.00     0.131 A 
ATOM     80  C   UNL A   1      46.644  24.955  35.081  1.00  0.00     0.055 A 
ATOM     81  C   UNL A   1      48.079  26.565  34.015  1.00  0.00     0.041 A 
ATOM     82  F   UNL A   1      47.169  28.143  32.543  1.00  0.00    -0.206 F 
ATOM     83  C   UNL A   1      47.915  25.508  34.906  1.00  0.00     0.022 A 
BRANCH  80  84
ATOM     84  S   UNL A   1      46.368  23.704  36.365  1.00  0.00     0.124 S 
ATOM     85  O   UNL A   1      47.142  24.240  37.480  1.00  0.00    -0.237 OA
ATOM     86  O   UNL A   1      44.917  23.734  36.524  1.00  0.00    -0.237 OA
ATOM     87  O   UNL A   1      46.901  22.480  35.772  1.00  0.00    -0.744 OA
ENDBRANCH  80  84
ENDBRANCH  54  77
ENDBRANCH  28  29
ENDBRANCH  21  23
ENDBRANCH  20  21
ENDBRANCH  19  20
ENDBRANCH   1  19
TORSDOF 18
ENDMDL
MODEL 2
REMARK VINA RESULT:     -11.0      5.799     10.616
REMARK SMILES CCOc1cc(/C=C(/F)C(=O)OCCOC(=O)c2ccc(-c3c4nc(c(-c5cc(S(=O)(=O)[O-])ccc5F)c5ccc([nH]5)c(-c5cc(S(=O)(=O)[O-])ccc5F)c5nc(c(-c6cc(S(=O)(=O)[O-])ccc6F)c6ccc3[nH]6)C=C5)C=C4)cc2)ccc1O
REMARK SMILES IDX 13 1 12 2 10 3 11 4 8 5 7 6 9 7 6 8 4 9 5 10 83 11 82 12
REMARK SMILES IDX 81 13 3 14 2 15 1 16 84 17 14 19 15 20 16 21 17 22 18 23
REMARK SMILES IDX 19 24 80 25 20 26 79 27 21 28 22 29 23 30 73 31 24 32 78 33
REMARK SMILES IDX 72 34 74 35 25 36 77 37 71 38 70 39 26 41 58 42 38 43 57 44
REMARK SMILES IDX 39 45 42 46 56 47 75 48 40 49 41 50 55 52 76 53 43 54 27 55
REMARK SMILES IDX 28 56 36 57 29 58 35 59 37 60 34 61 30 62 31 63 32 64 33 65
REMARK SMILES IDX 59 66 60 67 68 68 61 69 67 70 69 71 66 72 62 73 63 74 64 75
REMARK SMILES IDX 65 76 44 77 45 78 53 79 46 80 52 81 54 82 51 83 47 84 48 85
REMARK SMILES IDX 49 86 50 87
REMARK H PARENT 84 18 74 40 42 51
REMARK Flexibility Score: inf
ROOT
ATOM      1  C   UNL A   1      36.597  20.333  25.019  1.00  0.00     0.275 C 
ENDROOT
BRANCH   1   2
ATOM      2  O   UNL A   1      36.242  21.449  25.846  1.00  0.00    -0.457 OA
BRANCH   2   3
ATOM      3  C   UNL A   1      35.299  22.285  25.347  1.00  0.00     0.367 C 
ATOM      4  O   UNL A   1      35.354  22.911  24.301  1.00  0.00    -0.243 OA
BRANCH   3   5
ATOM      5  C   UNL A   1      34.115  22.189  26.218  1.00  0.00     0.208 C 
ATOM      6  C   UNL A   1      33.078  21.356  26.039  1.00  0.00     0.055 C 
ATOM      7  F   UNL A   1      34.143  23.006  27.294  1.00  0.00    -0.199 F 
BRANCH   6   8
ATOM      8  C   UNL A   1      32.818  20.372  24.969  1.00  0.00    -0.019 A 
ATOM      9  C   UNL A   1      32.617  18.069  24.103  1.00  0.00     0.161 A 
ATOM     10  C   UNL A   1      32.968  18.985  25.105  1.00  0.00     0.058 A 
ATOM     11  C   UNL A   1      32.200  18.569  22.879  1.00  0.00     0.157 A 
ATOM     12  C   UNL A   1      32.055  19.949  22.704  1.00  0.00     0.051 A 
ATOM     13  C   UNL A   1      32.320  20.838  23.751  1.00  0.00     0.012 A 
BRANCH   9  14
ATOM     14  O   UNL A   1      32.751  16.758  24.481  1.00  0.00    -0.490 OA
BRANCH  14  15
ATOM     15  C   UNL A   1      33.973  16.104  24.134  1.00  0.00     0.226 C 
ATOM     16  C   UNL A   1      34.862  16.061  25.369  1.00  0.00     0.049 C 
ENDBRANCH  14  15
ENDBRANCH   9  14
BRANCH  11  17
ATOM     17  O   UNL A   1      31.927  17.727  21.838  1.00  0.00    -0.504 OA
ATOM     18  H   UNL A   1      31.457  18.043  21.092  1.00  0.00     0.293 HD
ENDBRANCH  11  17
ENDBRANCH   6   8
ENDBRANCH   3   5
ENDBRANCH   2   3
ENDBRANCH   1   2
BRANCH   1  19
ATOM     19  C   UNL A   1      38.127  20.234  24.941  1.00  0.00     0.275 C 
BRANCH  19  20
ATOM     20  O   UNL A   1      38.800  21.435  25.396  1.00  0.00    -0.458 OA
BRANCH  20  21
ATOM     21  C   UNL A   1      39.807  21.254  26.294  1.00  0.00     0.338 C 
ATOM     22  O   UNL A   1      40.347  20.187  26.546  1.00  0.00    -0.246 OA
BRANCH  21  23
ATOM     23  C   UNL A   1      40.254  22.540  26.902  1.00  0.00     0.060 A 
ATOM     24  C   UNL A   1      39.736  23.731  26.378  1.00  0.00     0.016 A 
ATOM     25  C   UNL A   1      41.188  22.609  27.943  1.00  0.00     0.016 A 
ATOM     26  C   UNL A   1      40.123  24.973  26.903  1.00  0.00     0.010 A 
ATOM     27  C   UNL A   1      41.589  23.858  28.459  1.00  0.00     0.010 A 
ATOM     28  C   UNL A   1      41.064  25.053  27.941  1.00  0.00    -0.014 A 
BRANCH  28  29
ATOM     29  C   UNL A   1      41.568  26.400  28.356  1.00  0.00     0.031 A 
ATOM     30  C   UNL A   1      42.965  26.791  27.994  1.00  0.00     0.074 A 
ATOM     31  C   UNL A   1      40.787  27.303  28.981  1.00  0.00     0.049 A 
ATOM     32  N   UNL A   1      43.558  27.947  28.132  1.00  0.00    -0.248 NA
ATOM     33  C   UNL A   1      43.804  25.730  27.426  1.00  0.00     0.031 C 
ATOM     34  C   UNL A   1      39.449  27.011  29.451  1.00  0.00     0.029 A 
ATOM     35  N   UNL A   1      40.966  28.624  29.318  1.00  0.00    -0.354 N 
ATOM     36  C   UNL A   1      44.846  27.761  27.653  1.00  0.00     0.074 A 
ATOM     37  C   UNL A   1      44.952  26.369  27.259  1.00  0.00     0.031 C 
ATOM     38  C   UNL A   1      38.880  28.124  29.941  1.00  0.00     0.029 A 
ATOM     39  C   UNL A   1      39.852  29.212  29.885  1.00  0.00     0.049 A 
ATOM     40  H   UNL A   1      41.811  29.106  29.168  1.00  0.00     0.167 HD
ATOM     41  C   UNL A   1      45.847  28.670  27.554  1.00  0.00     0.034 A 
ATOM     42  C   UNL A   1      39.639  30.470  30.328  1.00  0.00     0.034 A 
ATOM     43  C   UNL A   1      45.752  30.031  28.021  1.00  0.00     0.049 A 
ATOM     44  C   UNL A   1      40.779  31.454  30.235  1.00  0.00     0.074 A 
ATOM     45  C   UNL A   1      46.718  31.021  27.997  1.00  0.00     0.029 A 
ATOM     46  N   UNL A   1      44.629  30.593  28.622  1.00  0.00    -0.354 N 
ATOM     47  N   UNL A   1      41.988  31.267  29.755  1.00  0.00    -0.248 NA
ATOM     48  C   UNL A   1      40.536  32.805  30.754  1.00  0.00     0.031 C 
ATOM     49  C   UNL A   1      46.203  32.157  28.637  1.00  0.00     0.029 A 
ATOM     50  C   UNL A   1      44.888  31.905  28.993  1.00  0.00     0.049 A 
ATOM     51  H   UNL A   1      43.775  30.125  28.765  1.00  0.00     0.167 HD
ATOM     52  C   UNL A   1      42.650  32.480  29.912  1.00  0.00     0.074 A 
ATOM     53  C   UNL A   1      41.693  33.399  30.497  1.00  0.00     0.031 C 
ATOM     54  C   UNL A   1      43.933  32.802  29.605  1.00  0.00     0.034 A 
BRANCH  41  55
ATOM     55  C   UNL A   1      47.143  28.163  26.976  1.00  0.00     0.023 A 
ATOM     56  C   UNL A   1      47.356  28.116  25.586  1.00  0.00     0.031 A 
ATOM     57  C   UNL A   1      48.135  27.630  27.816  1.00  0.00     0.131 A 
ATOM     58  C   UNL A   1      48.489  27.467  25.076  1.00  0.00     0.055 A 
ATOM     59  C   UNL A   1      49.302  27.061  27.304  1.00  0.00     0.041 A 
ATOM     60  F   UNL A   1      47.969  27.619  29.148  1.00  0.00    -0.206 F 
ATOM     61  C   UNL A   1      49.476  26.961  25.925  1.00  0.00     0.022 A 
BRANCH  58  62
ATOM     62  S   UNL A   1      48.574  27.147  23.292  1.00  0.00     0.124 S 
ATOM     63  O   UNL A   1      48.231  25.729  23.233  1.00  0.00    -0.237 OA
ATOM     64  O   UNL A   1      47.577  28.069  22.759  1.00  0.00    -0.237 OA
ATOM     65  O   UNL A   1      49.960  27.462  22.954  1.00  0.00    -0.744 OA
ENDBRANCH  58  62
ENDBRANCH  41  55
BRANCH  42  66
ATOM     66  C   UNL A   1      38.335  30.865  30.951  1.00  0.00     0.023 A 
ATOM     67  C   UNL A   1      37.337  31.544  30.226  1.00  0.00     0.031 A 
ATOM     68  C   UNL A   1      38.084  30.601  32.310  1.00  0.00     0.131 A 
ATOM     69  C   UNL A   1      36.153  31.950  30.869  1.00  0.00     0.055 A 
ATOM     70  C   UNL A   1      36.884  30.959  32.930  1.00  0.00     0.041 A 
ATOM     71  F   UNL A   1      39.000  29.965  33.058  1.00  0.00    -0.206 F 
ATOM     72  C   UNL A   1      35.914  31.645  32.211  1.00  0.00     0.022 A 
BRANCH  69  73
ATOM     73  S   UNL A   1      34.946  32.949  29.949  1.00  0.00     0.124 S 
ATOM     74  O   UNL A   1      35.794  33.984  29.369  1.00  0.00    -0.237 OA
ATOM     75  O   UNL A   1      34.395  31.971  29.016  1.00  0.00    -0.237 OA
ATOM     76  O   UNL A   1      34.022  33.406  30.985  1.00  0.00    -0.744 OA
ENDBRANCH  69  73
ENDBRANCH  42  66
BRANCH  54  77
ATOM     77  C   UNL A   1      44.347  34.230  29.874  1.00  0.00     0.023 A 
ATOM     78  C   UNL A   1      44.890  34.623  31.110  1.00  0.00     0.031 A 
ATOM     79  C   UNL A   1      44.127  35.222  28.902  1.00  0.00     0.131 A 
ATOM     80  C   UNL A   1      45.114  35.983  31.372  1.00  0.00     0.055 A 
ATOM     81  C   UNL A   1      44.417  36.564  29.144  1.00  0.00     0.041 A 
ATOM     82  F   UNL A   1      43.607  34.902  27.706  1.00  0.00    -0.206 F 
ATOM     83  C   UNL A   1      44.895  36.954  30.392  1.00  0.00     0.022 A 
BRANCH  80  84
ATOM     84  S   UNL A   1      45.560  36.481  33.059  1.00  0.00     0.124 S 
ATOM     85  O   UNL A   1      44.260  36.833  33.623  1.00  0.00    -0.237 OA
ATOM     86  O   UNL A   1      46.177  35.269  33.590  1.00  0.00    -0.237 OA
ATOM     87  O   UNL A   1      46.473  37.603  32.855  1.00  0.00    -0.744 OA
ENDBRANCH  80  84
ENDBRANCH  54  77
ENDBRANCH  28  29
ENDBRANCH  21  23
ENDBRANCH  20  21
ENDBRANCH  19  20
ENDBRANCH   1  19
TORSDOF 18
ENDMDL
MODEL 3
REMARK VINA RESULT:     -10.9      5.060     10.143
REMARK SMILES CCOc1cc(/C=C(/F)C(=O)OCCOC(=O)c2ccc(-c3c4nc(c(-c5cc(S(=O)(=O)[O-])ccc5F)c5ccc([nH]5)c(-c5cc(S(=O)(=O)[O-])ccc5F)c5nc(c(-c6cc(S(=O)(=O)[O-])ccc6F)c6ccc3[nH]6)C=C5)C=C4)cc2)ccc1O
REMARK SMILES IDX 13 1 12 2 10 3 11 4 8 5 7 6 9 7 6 8 4 9 5 10 83 11 82 12
REMARK SMILES IDX 81 13 3 14 2 15 1 16 84 17 14 19 15 20 16 21 17 22 18 23
REMARK SMILES IDX 19 24 80 25 20 26 79 27 21 28 22 29 23 30 73 31 24 32 78 33
REMARK SMILES IDX 72 34 74 35 25 36 77 37 71 38 70 39 26 41 58 42 38 43 57 44
REMARK SMILES IDX 39 45 42 46 56 47 75 48 40 49 41 50 55 52 76 53 43 54 27 55
REMARK SMILES IDX 28 56 36 57 29 58 35 59 37 60 34 61 30 62 31 63 32 64 33 65
REMARK SMILES IDX 59 66 60 67 68 68 61 69 67 70 69 71 66 72 62 73 63 74 64 75
REMARK SMILES IDX 65 76 44 77 45 78 53 79 46 80 52 81 54 82 51 83 47 84 48 85
REMARK SMILES IDX 49 86 50 87
REMARK H PARENT 84 18 74 40 42 51
REMARK Flexibility Score: inf
ROOT
ATOM      1  C   UNL A   1      35.897  20.886  24.792  1.00  0.00     0.275 C 
ENDROOT
BRANCH   1   2
ATOM      2  O   UNL A   1      35.397  22.230  24.805  1.00  0.00    -0.457 OA
BRANCH   2   3
ATOM      3  C   UNL A   1      35.122  22.774  23.594  1.00  0.00     0.367 C 
ATOM      4  O   UNL A   1      35.928  23.123  22.747  1.00  0.00    -0.243 OA
BRANCH   3   5
ATOM      5  C   UNL A   1      33.661  22.729  23.409  1.00  0.00     0.208 C 
ATOM      6  C   UNL A   1      32.847  23.794  23.346  1.00  0.00     0.055 C 
ATOM      7  F   UNL A   1      33.153  21.486  23.259  1.00  0.00    -0.199 F 
BRANCH   6   8
ATOM      8  C   UNL A   1      33.150  25.235  23.466  1.00  0.00    -0.019 A 
ATOM      9  C   UNL A   1      33.702  27.263  24.759  1.00  0.00     0.161 A 
ATOM     10  C   UNL A   1      33.316  25.918  24.678  1.00  0.00     0.058 A 
ATOM     11  C   UNL A   1      33.821  27.980  23.578  1.00  0.00     0.157 A 
ATOM     12  C   UNL A   1      33.645  27.333  22.351  1.00  0.00     0.051 A 
ATOM     13  C   UNL A   1      33.355  25.966  22.294  1.00  0.00     0.012 A 
BRANCH   9  14
ATOM     14  O   UNL A   1      33.903  27.705  26.042  1.00  0.00    -0.490 OA
BRANCH  14  15
ATOM     15  C   UNL A   1      32.753  27.795  26.886  1.00  0.00     0.226 C 
ATOM     16  C   UNL A   1      32.116  29.162  26.683  1.00  0.00     0.049 C 
ENDBRANCH  14  15
ENDBRANCH   9  14
BRANCH  11  17
ATOM     17  O   UNL A   1      34.110  29.315  23.599  1.00  0.00    -0.504 OA
ATOM     18  H   UNL A   1      34.320  29.736  24.409  1.00  0.00     0.293 HD
ENDBRANCH  11  17
ENDBRANCH   6   8
ENDBRANCH   3   5
ENDBRANCH   2   3
ENDBRANCH   1   2
BRANCH   1  19
ATOM     19  C   UNL A   1      37.429  20.921  24.886  1.00  0.00     0.275 C 
BRANCH  19  20
ATOM     20  O   UNL A   1      37.917  21.854  25.883  1.00  0.00    -0.458 OA
BRANCH  20  21
ATOM     21  C   UNL A   1      39.234  21.743  26.212  1.00  0.00     0.338 C 
ATOM     22  O   UNL A   1      39.946  20.780  25.970  1.00  0.00    -0.246 OA
BRANCH  21  23
ATOM     23  C   UNL A   1      39.759  22.987  26.847  1.00  0.00     0.060 A 
ATOM     24  C   UNL A   1      39.184  24.208  26.477  1.00  0.00     0.016 A 
ATOM     25  C   UNL A   1      40.815  22.987  27.767  1.00  0.00     0.016 A 
ATOM     26  C   UNL A   1      39.639  25.413  27.034  1.00  0.00     0.010 A 
ATOM     27  C   UNL A   1      41.282  24.199  28.315  1.00  0.00     0.010 A 
ATOM     28  C   UNL A   1      40.702  25.425  27.951  1.00  0.00    -0.014 A 
BRANCH  28  29
ATOM     29  C   UNL A   1      41.259  26.742  28.392  1.00  0.00     0.031 A 
ATOM     30  C   UNL A   1      42.669  27.085  28.034  1.00  0.00     0.074 A 
ATOM     31  C   UNL A   1      40.515  27.661  29.038  1.00  0.00     0.049 A 
ATOM     32  N   UNL A   1      43.308  28.214  28.195  1.00  0.00    -0.248 NA
ATOM     33  C   UNL A   1      43.465  26.006  27.441  1.00  0.00     0.031 C 
ATOM     34  C   UNL A   1      39.168  27.412  29.507  1.00  0.00     0.029 A 
ATOM     35  N   UNL A   1      40.747  28.966  29.403  1.00  0.00    -0.354 N 
ATOM     36  C   UNL A   1      44.586  27.989  27.707  1.00  0.00     0.074 A 
ATOM     37  C   UNL A   1      44.636  26.603  27.283  1.00  0.00     0.031 C 
ATOM     38  C   UNL A   1      38.644  28.535  30.022  1.00  0.00     0.029 A 
ATOM     39  C   UNL A   1      39.658  29.585  29.986  1.00  0.00     0.049 A 
ATOM     40  H   UNL A   1      41.609  29.419  29.260  1.00  0.00     0.167 HD
ATOM     41  C   UNL A   1      45.621  28.860  27.624  1.00  0.00     0.034 A 
ATOM     42  C   UNL A   1      39.495  30.841  30.456  1.00  0.00     0.034 A 
ATOM     43  C   UNL A   1      45.580  30.214  28.120  1.00  0.00     0.049 A 
ATOM     44  C   UNL A   1      40.672  31.781  30.380  1.00  0.00     0.074 A 
ATOM     45  C   UNL A   1      46.584  31.166  28.114  1.00  0.00     0.029 A 
ATOM     46  N   UNL A   1      44.482  30.805  28.736  1.00  0.00    -0.354 N 
ATOM     47  N   UNL A   1      41.871  31.558  29.893  1.00  0.00    -0.248 NA
ATOM     48  C   UNL A   1      40.484  33.130  30.928  1.00  0.00     0.031 C 
ATOM     49  C   UNL A   1      46.116  32.306  28.780  1.00  0.00     0.029 A 
ATOM     50  C   UNL A   1      44.793  32.099  29.134  1.00  0.00     0.049 A 
ATOM     51  H   UNL A   1      43.611  30.368  28.873  1.00  0.00     0.167 HD
ATOM     52  C   UNL A   1      42.581  32.740  30.073  1.00  0.00     0.074 A 
ATOM     53  C   UNL A   1      41.662  33.683  30.681  1.00  0.00     0.031 C 
ATOM     54  C   UNL A   1      43.875  33.019  29.769  1.00  0.00     0.034 A 
BRANCH  41  55
ATOM     55  C   UNL A   1      46.895  28.316  27.032  1.00  0.00     0.023 A 
ATOM     56  C   UNL A   1      47.114  28.314  25.642  1.00  0.00     0.031 A 
ATOM     57  C   UNL A   1      47.856  27.703  27.853  1.00  0.00     0.131 A 
ATOM     58  C   UNL A   1      48.218  27.632  25.111  1.00  0.00     0.055 A 
ATOM     59  C   UNL A   1      48.997  27.099  27.323  1.00  0.00     0.041 A 
ATOM     60  F   UNL A   1      47.682  27.647  29.183  1.00  0.00    -0.206 F 
ATOM     61  C   UNL A   1      49.174  27.046  25.942  1.00  0.00     0.022 A 
BRANCH  58  62
ATOM     62  S   UNL A   1      48.297  27.380  23.316  1.00  0.00     0.124 S 
ATOM     63  O   UNL A   1      47.103  28.092  22.867  1.00  0.00    -0.237 OA
ATOM     64  O   UNL A   1      49.575  27.991  22.967  1.00  0.00    -0.237 OA
ATOM     65  O   UNL A   1      48.240  25.928  23.172  1.00  0.00    -0.744 OA
ENDBRANCH  58  62
ENDBRANCH  41  55
BRANCH  42  66
ATOM     66  C   UNL A   1      38.209  31.273  31.092  1.00  0.00     0.023 A 
ATOM     67  C   UNL A   1      37.189  31.907  30.356  1.00  0.00     0.031 A 
ATOM     68  C   UNL A   1      37.998  31.092  32.471  1.00  0.00     0.131 A 
ATOM     69  C   UNL A   1      36.024  32.351  31.007  1.00  0.00     0.055 A 
ATOM     70  C   UNL A   1      36.816  31.487  33.102  1.00  0.00     0.041 A 
ATOM     71  F   UNL A   1      38.936  30.502  33.229  1.00  0.00    -0.206 F 
ATOM     72  C   UNL A   1      35.824  32.128  32.371  1.00  0.00     0.022 A 
BRANCH  69  73
ATOM     73  S   UNL A   1      34.789  33.293  30.064  1.00  0.00     0.124 S 
ATOM     74  O   UNL A   1      33.982  33.878  31.128  1.00  0.00    -0.237 OA
ATOM     75  O   UNL A   1      35.628  34.218  29.309  1.00  0.00    -0.237 OA
ATOM     76  O   UNL A   1      34.120  32.269  29.263  1.00  0.00    -0.744 OA
ENDBRANCH  69  73
ENDBRANCH  42  66
BRANCH  54  77
ATOM     77  C   UNL A   1      44.345  34.423  30.066  1.00  0.00     0.023 A 
ATOM     78  C   UNL A   1      44.119  35.484  29.171  1.00  0.00     0.031 A 
ATOM     79  C   UNL A   1      45.092  34.686  31.228  1.00  0.00     0.131 A 
ATOM     80  C   UNL A   1      44.707  36.735  29.410  1.00  0.00     0.055 A 
ATOM     81  C   UNL A   1      45.615  35.950  31.495  1.00  0.00     0.041 A 
ATOM     82  F   UNL A   1      45.340  33.708  32.114  1.00  0.00    -0.206 F 
ATOM     83  C   UNL A   1      45.441  36.979  30.574  1.00  0.00     0.022 A 
BRANCH  80  84
ATOM     84  S   UNL A   1      44.619  37.999  28.110  1.00  0.00     0.124 S 
ATOM     85  O   UNL A   1      45.948  38.598  28.182  1.00  0.00    -0.237 OA
ATOM     86  O   UNL A   1      44.343  37.203  26.919  1.00  0.00    -0.237 OA
ATOM     87  O   UNL A   1      43.525  38.864  28.547  1.00  0.00    -0.744 OA
ENDBRANCH  80  84
ENDBRANCH  54  77
ENDBRANCH  28  29
ENDBRANCH  21  23
ENDBRANCH  20  21
ENDBRANCH  19  20
ENDBRANCH   1  19
TORSDOF 18
ENDMDL
