MODEL 1
REMARK VINA RESULT:     -11.9      0.000      0.000
REMARK SMILES C/C(C(=O)N[C@H]1CCCC1(C)C)=C(\C)C(=O)OCCOC(=O)c1ccc(-c2c3nc(c(-c4cc(S(=O)(=O)[O-])ccc4F)c4ccc([nH]4)c(-c4cc(S(=O)(=O)[O-])ccc4F)c4nc(c(-c5cc(S(=O)(=O)[O-])ccc5F)c5ccc2[nH]5)C=C4)C=C3)cc1
REMARK SMILES IDX 19 1 18 2 17 3 15 4 16 5 13 6 1 7 2 8 14 9 3 10 4 11 5 12
REMARK SMILES IDX 6 14 7 15 10 16 8 17 9 18 11 19 12 20 20 21 21 22 22 23
REMARK SMILES IDX 23 24 24 25 85 26 25 27 84 28 26 29 27 30 28 31 78 32 29 33
REMARK SMILES IDX 83 34 77 35 79 36 30 37 82 38 76 39 75 40 31 42 63 43 43 44
REMARK SMILES IDX 62 45 44 46 47 47 61 48 80 49 45 50 46 51 60 53 81 54 48 55
REMARK SMILES IDX 32 56 33 57 41 58 34 59 40 60 42 61 39 62 35 63 36 64 37 65
REMARK SMILES IDX 38 66 64 67 65 68 73 69 66 70 72 71 74 72 71 73 67 74 68 75
REMARK SMILES IDX 69 76 70 77 49 78 50 79 58 80 51 81 57 82 59 83 56 84 52 85
REMARK SMILES IDX 53 86 54 87 55 88
REMARK H PARENT 5 13 79 41 47 52
REMARK Flexibility Score: inf
ROOT
ATOM      1  C   UNL A   1      37.390  20.151  24.924  1.00  0.00     0.275 C 
ENDROOT
BRANCH   1   2
ATOM      2  C   UNL A   1      35.913  20.546  24.991  1.00  0.00     0.275 C 
BRANCH   2   3
ATOM      3  O   UNL A   1      35.623  21.716  24.196  1.00  0.00    -0.459 OA
BRANCH   3   4
ATOM      4  C   UNL A   1      34.372  22.256  24.316  1.00  0.00     0.334 C 
ATOM      5  O   UNL A   1      33.356  21.592  24.276  1.00  0.00    -0.247 OA
BRANCH   4   6
ATOM      6  C   UNL A   1      34.478  23.764  24.480  1.00  0.00     0.042 C 
ATOM      7  C   UNL A   1      34.069  26.174  23.966  1.00  0.00     0.051 C 
ATOM      8  C   UNL A   1      33.811  24.709  23.751  1.00  0.00     0.024 C 
ATOM      9  C   UNL A   1      35.474  24.152  25.556  1.00  0.00     0.053 C 
BRANCH   8  10
ATOM     10  C   UNL A   1      32.903  24.367  22.615  1.00  0.00     0.247 C 
ATOM     11  O   UNL A   1      33.375  24.199  21.490  1.00  0.00    -0.270 OA
ATOM     12  N   UNL A   1      31.550  24.276  22.712  1.00  0.00    -0.349 N 
ATOM     13  H   UNL A   1      31.188  23.709  21.993  1.00  0.00     0.164 HD
BRANCH  12  14
ATOM     14  C   UNL A   1      30.463  24.777  23.576  1.00  0.00     0.088 C 
ATOM     15  C   UNL A   1      30.702  24.276  25.033  1.00  0.00     0.025 C 
ATOM     16  C   UNL A   1      30.174  26.306  23.731  1.00  0.00    -0.015 C 
ATOM     17  C   UNL A   1      30.642  25.474  25.970  1.00  0.00     0.003 C 
ATOM     18  C   UNL A   1      30.811  26.687  25.082  1.00  0.00     0.008 C 
ATOM     19  C   UNL A   1      30.679  27.268  22.656  1.00  0.00     0.013 C 
ATOM     20  C   UNL A   1      28.642  26.495  23.824  1.00  0.00     0.013 C 
ENDBRANCH  12  14
ENDBRANCH   8  10
ENDBRANCH   4   6
ENDBRANCH   3   4
ENDBRANCH   2   3
ENDBRANCH   1   2
BRANCH   1  21
ATOM     21  O   UNL A   1      38.241  21.231  25.352  1.00  0.00    -0.458 OA
BRANCH  21  22
ATOM     22  C   UNL A   1      39.329  20.850  26.064  1.00  0.00     0.338 C 
ATOM     23  O   UNL A   1      39.899  19.773  26.009  1.00  0.00    -0.246 OA
BRANCH  22  24
ATOM     24  C   UNL A   1      39.891  22.013  26.771  1.00  0.00     0.060 A 
ATOM     25  C   UNL A   1      39.365  23.236  26.402  1.00  0.00     0.016 A 
ATOM     26  C   UNL A   1      40.962  21.967  27.665  1.00  0.00     0.016 A 
ATOM     27  C   UNL A   1      39.916  24.409  26.893  1.00  0.00     0.010 A 
ATOM     28  C   UNL A   1      41.512  23.172  28.167  1.00  0.00     0.010 A 
ATOM     29  C   UNL A   1      40.999  24.416  27.769  1.00  0.00    -0.014 A 
BRANCH  29  30
ATOM     30  C   UNL A   1      41.570  25.759  28.101  1.00  0.00     0.031 A 
ATOM     31  C   UNL A   1      42.902  26.179  27.531  1.00  0.00     0.074 A 
ATOM     32  C   UNL A   1      40.791  26.707  28.671  1.00  0.00     0.049 A 
ATOM     33  N   UNL A   1      43.531  27.324  27.647  1.00  0.00    -0.248 NA
ATOM     34  C   UNL A   1      43.592  25.201  26.680  1.00  0.00     0.031 C 
ATOM     35  C   UNL A   1      39.396  26.515  29.081  1.00  0.00     0.029 A 
ATOM     36  N   UNL A   1      41.031  28.035  28.945  1.00  0.00    -0.354 N 
ATOM     37  C   UNL A   1      44.700  27.199  26.902  1.00  0.00     0.074 A 
ATOM     38  C   UNL A   1      44.687  25.864  26.335  1.00  0.00     0.031 C 
ATOM     39  C   UNL A   1      38.900  27.685  29.514  1.00  0.00     0.029 A 
ATOM     40  C   UNL A   1      39.960  28.689  29.514  1.00  0.00     0.049 A 
ATOM     41  H   UNL A   1      41.889  28.476  28.751  1.00  0.00     0.167 HD
ATOM     42  C   UNL A   1      45.694  28.105  26.715  1.00  0.00     0.034 A 
ATOM     43  C   UNL A   1      39.849  29.934  30.027  1.00  0.00     0.034 A 
ATOM     44  C   UNL A   1      45.705  29.434  27.282  1.00  0.00     0.049 A 
ATOM     45  C   UNL A   1      41.047  30.852  29.984  1.00  0.00     0.074 A 
ATOM     46  C   UNL A   1      46.703  30.392  27.208  1.00  0.00     0.029 A 
ATOM     47  N   UNL A   1      44.680  29.996  28.031  1.00  0.00    -0.354 N 
ATOM     48  N   UNL A   1      42.202  30.677  29.384  1.00  0.00    -0.248 NA
ATOM     49  C   UNL A   1      40.933  32.129  30.701  1.00  0.00     0.031 C 
ATOM     50  C   UNL A   1      46.323  31.489  27.989  1.00  0.00     0.029 A 
ATOM     51  C   UNL A   1      45.043  31.264  28.468  1.00  0.00     0.049 A 
ATOM     52  H   UNL A   1      43.819  29.558  28.225  1.00  0.00     0.167 HD
ATOM     53  C   UNL A   1      42.941  31.832  29.638  1.00  0.00     0.074 A 
ATOM     54  C   UNL A   1      42.090  32.707  30.417  1.00  0.00     0.031 C 
ATOM     55  C   UNL A   1      44.209  32.137  29.263  1.00  0.00     0.034 A 
BRANCH  42  56
ATOM     56  C   UNL A   1      46.916  27.641  25.957  1.00  0.00     0.023 A 
ATOM     57  C   UNL A   1      47.134  27.956  24.605  1.00  0.00     0.031 A 
ATOM     58  C   UNL A   1      47.870  26.837  26.609  1.00  0.00     0.131 A 
ATOM     59  C   UNL A   1      48.246  27.417  23.935  1.00  0.00     0.055 A 
ATOM     60  C   UNL A   1      49.013  26.371  25.959  1.00  0.00     0.041 A 
ATOM     61  F   UNL A   1      47.701  26.483  27.893  1.00  0.00    -0.206 F 
ATOM     62  C   UNL A   1      49.199  26.649  24.610  1.00  0.00     0.022 A 
BRANCH  59  63
ATOM     63  S   UNL A   1      48.353  27.603  22.133  1.00  0.00     0.124 S 
ATOM     64  O   UNL A   1      49.506  28.491  21.994  1.00  0.00    -0.237 OA
ATOM     65  O   UNL A   1      48.547  26.229  21.684  1.00  0.00    -0.237 OA
ATOM     66  O   UNL A   1      47.070  28.203  21.774  1.00  0.00    -0.744 OA
ENDBRANCH  59  63
ENDBRANCH  42  56
BRANCH  43  67
ATOM     67  C   UNL A   1      38.604  30.358  30.742  1.00  0.00     0.023 A 
ATOM     68  C   UNL A   1      37.557  31.024  30.081  1.00  0.00     0.031 A 
ATOM     69  C   UNL A   1      38.493  30.192  32.137  1.00  0.00     0.131 A 
ATOM     70  C   UNL A   1      36.477  31.539  30.821  1.00  0.00     0.055 A 
ATOM     71  C   UNL A   1      37.383  30.637  32.853  1.00  0.00     0.041 A 
ATOM     72  F   UNL A   1      39.475  29.595  32.831  1.00  0.00    -0.206 F 
ATOM     73  C   UNL A   1      36.373  31.329  32.198  1.00  0.00     0.022 A 
BRANCH  70  74
ATOM     74  S   UNL A   1      35.264  32.596  29.980  1.00  0.00     0.124 S 
ATOM     75  O   UNL A   1      34.799  31.720  28.911  1.00  0.00    -0.237 OA
ATOM     76  O   UNL A   1      34.308  32.872  31.046  1.00  0.00    -0.237 OA
ATOM     77  O   UNL A   1      36.057  33.744  29.544  1.00  0.00    -0.744 OA
ENDBRANCH  70  74
ENDBRANCH  43  67
BRANCH  55  78
ATOM     78  C   UNL A   1      44.746  33.495  29.661  1.00  0.00     0.023 A 
ATOM     79  C   UNL A   1      44.505  34.646  28.888  1.00  0.00     0.031 A 
ATOM     80  C   UNL A   1      45.531  33.638  30.820  1.00  0.00     0.131 A 
ATOM     81  C   UNL A   1      45.095  35.869  29.246  1.00  0.00     0.055 A 
ATOM     82  C   UNL A   1      46.054  34.872  31.211  1.00  0.00     0.041 A 
ATOM     83  F   UNL A   1      45.804  32.577  31.597  1.00  0.00    -0.206 F 
ATOM     84  C   UNL A   1      45.851  35.994  30.413  1.00  0.00     0.022 A 
BRANCH  81  85
ATOM     85  S   UNL A   1      44.956  37.273  28.103  1.00  0.00     0.124 S 
ATOM     86  O   UNL A   1      44.390  36.642  26.916  1.00  0.00    -0.237 OA
ATOM     87  O   UNL A   1      44.071  38.179  28.829  1.00  0.00    -0.237 OA
ATOM     88  O   UNL A   1      46.335  37.736  27.960  1.00  0.00    -0.744 OA
ENDBRANCH  81  85
ENDBRANCH  55  78
ENDBRANCH  29  30
ENDBRANCH  22  24
ENDBRANCH  21  22
ENDBRANCH   1  21
TORSDOF 16
ENDMDL
MODEL 2
REMARK VINA RESULT:     -11.9      0.666      7.672
REMARK SMILES C/C(C(=O)N[C@H]1CCCC1(C)C)=C(\C)C(=O)OCCOC(=O)c1ccc(-c2c3nc(c(-c4cc(S(=O)(=O)[O-])ccc4F)c4ccc([nH]4)c(-c4cc(S(=O)(=O)[O-])ccc4F)c4nc(c(-c5cc(S(=O)(=O)[O-])ccc5F)c5ccc2[nH]5)C=C4)C=C3)cc1
REMARK SMILES IDX 19 1 18 2 17 3 15 4 16 5 13 6 1 7 2 8 14 9 3 10 4 11 5 12
REMARK SMILES IDX 6 14 7 15 10 16 8 17 9 18 11 19 12 20 20 21 21 22 22 23
REMARK SMILES IDX 23 24 24 25 85 26 25 27 84 28 26 29 27 30 28 31 78 32 29 33
REMARK SMILES IDX 83 34 77 35 79 36 30 37 82 38 76 39 75 40 31 42 63 43 43 44
REMARK SMILES IDX 62 45 44 46 47 47 61 48 80 49 45 50 46 51 60 53 81 54 48 55
REMARK SMILES IDX 32 56 33 57 41 58 34 59 40 60 42 61 39 62 35 63 36 64 37 65
REMARK SMILES IDX 38 66 64 67 65 68 73 69 66 70 72 71 74 72 71 73 67 74 68 75
REMARK SMILES IDX 69 76 70 77 49 78 50 79 58 80 51 81 57 82 59 83 56 84 52 85
REMARK SMILES IDX 53 86 54 87 55 88
REMARK H PARENT 5 13 79 41 47 52
REMARK Flexibility Score: inf
ROOT
ATOM      1  C   UNL A   1      36.519  20.425  25.010  1.00  0.00     0.275 C 
ENDROOT
BRANCH   1   2
ATOM      2  C   UNL A   1      35.168  21.097  24.754  1.00  0.00     0.275 C 
BRANCH   2   3
ATOM      3  O   UNL A   1      35.292  22.527  24.588  1.00  0.00    -0.459 OA
BRANCH   3   4
ATOM      4  C   UNL A   1      34.272  23.169  23.940  1.00  0.00     0.334 C 
ATOM      5  O   UNL A   1      33.488  22.599  23.210  1.00  0.00    -0.247 OA
BRANCH   4   6
ATOM      6  C   UNL A   1      34.311  24.653  24.270  1.00  0.00     0.042 C 
ATOM      7  C   UNL A   1      33.845  27.091  23.987  1.00  0.00     0.051 C 
ATOM      8  C   UNL A   1      33.657  25.651  23.601  1.00  0.00     0.024 C 
ATOM      9  C   UNL A   1      35.219  24.952  25.447  1.00  0.00     0.053 C 
BRANCH   8  10
ATOM     10  C   UNL A   1      32.839  25.406  22.375  1.00  0.00     0.247 C 
ATOM     11  O   UNL A   1      33.340  25.590  21.265  1.00  0.00    -0.270 OA
ATOM     12  N   UNL A   1      31.531  25.037  22.385  1.00  0.00    -0.349 N 
ATOM     13  H   UNL A   1      31.291  24.588  21.541  1.00  0.00     0.164 HD
BRANCH  12  14
ATOM     14  C   UNL A   1      30.363  25.112  23.284  1.00  0.00     0.088 C 
ATOM     15  C   UNL A   1      30.616  24.195  24.519  1.00  0.00     0.025 C 
ATOM     16  C   UNL A   1      29.881  26.468  23.897  1.00  0.00    -0.015 C 
ATOM     17  C   UNL A   1      30.378  25.010  25.782  1.00  0.00     0.003 C 
ATOM     18  C   UNL A   1      30.423  26.457  25.340  1.00  0.00     0.008 C 
ATOM     19  C   UNL A   1      30.297  27.774  23.222  1.00  0.00     0.013 C 
ATOM     20  C   UNL A   1      28.335  26.451  23.937  1.00  0.00     0.013 C 
ENDBRANCH  12  14
ENDBRANCH   8  10
ENDBRANCH   4   6
ENDBRANCH   3   4
ENDBRANCH   2   3
ENDBRANCH   1   2
BRANCH   1  21
ATOM     21  O   UNL A   1      37.584  21.393  25.070  1.00  0.00    -0.458 OA
BRANCH  21  22
ATOM     22  C   UNL A   1      38.672  20.998  25.771  1.00  0.00     0.338 C 
ATOM     23  O   UNL A   1      39.185  19.891  25.766  1.00  0.00    -0.246 OA
BRANCH  22  24
ATOM     24  C   UNL A   1      39.315  22.169  26.391  1.00  0.00     0.060 A 
ATOM     25  C   UNL A   1      38.846  23.394  25.957  1.00  0.00     0.016 A 
ATOM     26  C   UNL A   1      40.405  22.119  27.262  1.00  0.00     0.016 A 
ATOM     27  C   UNL A   1      39.473  24.563  26.360  1.00  0.00     0.010 A 
ATOM     28  C   UNL A   1      41.032  23.321  27.674  1.00  0.00     0.010 A 
ATOM     29  C   UNL A   1      40.577  24.564  27.209  1.00  0.00    -0.014 A 
BRANCH  29  30
ATOM     30  C   UNL A   1      41.228  25.891  27.442  1.00  0.00     0.031 A 
ATOM     31  C   UNL A   1      40.571  26.912  28.338  1.00  0.00     0.074 A 
ATOM     32  C   UNL A   1      42.520  26.086  27.092  1.00  0.00     0.049 A 
ATOM     33  N   UNL A   1      41.007  28.089  28.716  1.00  0.00    -0.248 NA
ATOM     34  C   UNL A   1      39.276  26.537  28.923  1.00  0.00     0.031 C 
ATOM     35  C   UNL A   1      43.364  25.100  26.409  1.00  0.00     0.029 A 
ATOM     36  N   UNL A   1      43.372  27.144  27.317  1.00  0.00    -0.354 N 
ATOM     37  C   UNL A   1      40.035  28.606  29.567  1.00  0.00     0.074 A 
ATOM     38  C   UNL A   1      38.987  27.608  29.650  1.00  0.00     0.031 C 
ATOM     39  C   UNL A   1      44.612  25.585  26.308  1.00  0.00     0.029 A 
ATOM     40  C   UNL A   1      44.643  26.952  26.820  1.00  0.00     0.049 A 
ATOM     41  H   UNL A   1      43.097  27.963  27.789  1.00  0.00     0.167 HD
ATOM     42  C   UNL A   1      40.011  29.802  30.210  1.00  0.00     0.034 A 
ATOM     43  C   UNL A   1      45.700  27.789  26.736  1.00  0.00     0.034 A 
ATOM     44  C   UNL A   1      41.057  30.796  30.123  1.00  0.00     0.049 A 
ATOM     45  C   UNL A   1      45.570  29.189  27.284  1.00  0.00     0.074 A 
ATOM     46  C   UNL A   1      41.086  32.065  30.679  1.00  0.00     0.029 A 
ATOM     47  N   UNL A   1      42.255  30.645  29.438  1.00  0.00    -0.354 N 
ATOM     48  N   UNL A   1      44.590  29.717  27.982  1.00  0.00    -0.248 NA
ATOM     49  C   UNL A   1      46.681  30.113  27.020  1.00  0.00     0.031 C 
ATOM     50  C   UNL A   1      42.251  32.711  30.251  1.00  0.00     0.029 A 
ATOM     51  C   UNL A   1      43.003  31.813  29.513  1.00  0.00     0.049 A 
ATOM     52  H   UNL A   1      42.534  29.826  28.966  1.00  0.00     0.167 HD
ATOM     53  C   UNL A   1      44.981  31.028  28.253  1.00  0.00     0.074 A 
ATOM     54  C   UNL A   1      46.296  31.199  27.673  1.00  0.00     0.031 C 
ATOM     55  C   UNL A   1      44.308  32.000  28.920  1.00  0.00     0.034 A 
BRANCH  42  56
ATOM     56  C   UNL A   1      38.754  30.152  30.970  1.00  0.00     0.023 A 
ATOM     57  C   UNL A   1      37.696  30.875  30.394  1.00  0.00     0.031 A 
ATOM     58  C   UNL A   1      38.634  29.769  32.320  1.00  0.00     0.131 A 
ATOM     59  C   UNL A   1      36.594  31.245  31.185  1.00  0.00     0.055 A 
ATOM     60  C   UNL A   1      37.501  30.072  33.076  1.00  0.00     0.041 A 
ATOM     61  F   UNL A   1      39.624  29.099  32.930  1.00  0.00    -0.206 F 
ATOM     62  C   UNL A   1      36.479  30.826  32.513  1.00  0.00     0.022 A 
BRANCH  59  63
ATOM     63  S   UNL A   1      35.383  32.411  30.501  1.00  0.00     0.124 S 
ATOM     64  O   UNL A   1      35.009  31.752  29.251  1.00  0.00    -0.237 OA
ATOM     65  O   UNL A   1      34.357  32.445  31.537  1.00  0.00    -0.237 OA
ATOM     66  O   UNL A   1      36.150  33.645  30.339  1.00  0.00    -0.744 OA
ENDBRANCH  59  63
ENDBRANCH  42  56
BRANCH  43  67
ATOM     67  C   UNL A   1      46.939  27.383  25.999  1.00  0.00     0.023 A 
ATOM     68  C   UNL A   1      47.175  27.774  24.669  1.00  0.00     0.031 A 
ATOM     69  C   UNL A   1      47.863  26.500  26.593  1.00  0.00     0.131 A 
ATOM     70  C   UNL A   1      48.274  27.245  23.969  1.00  0.00     0.055 A 
ATOM     71  C   UNL A   1      48.992  26.040  25.917  1.00  0.00     0.041 A 
ATOM     72  F   UNL A   1      47.675  26.062  27.848  1.00  0.00    -0.206 F 
ATOM     73  C   UNL A   1      49.195  26.400  24.591  1.00  0.00     0.022 A 
BRANCH  70  74
ATOM     74  S   UNL A   1      48.420  27.578  22.190  1.00  0.00     0.124 S 
ATOM     75  O   UNL A   1      47.129  28.189  21.896  1.00  0.00    -0.237 OA
ATOM     76  O   UNL A   1      49.577  28.465  22.140  1.00  0.00    -0.237 OA
ATOM     77  O   UNL A   1      48.628  26.252  21.611  1.00  0.00    -0.744 OA
ENDBRANCH  70  74
ENDBRANCH  43  67
BRANCH  55  78
ATOM     78  C   UNL A   1      45.001  33.335  29.090  1.00  0.00     0.023 A 
ATOM     79  C   UNL A   1      44.727  34.429  28.249  1.00  0.00     0.031 A 
ATOM     80  C   UNL A   1      45.969  33.511  30.097  1.00  0.00     0.131 A 
ATOM     81  C   UNL A   1      45.456  35.622  28.386  1.00  0.00     0.055 A 
ATOM     82  C   UNL A   1      46.639  34.723  30.275  1.00  0.00     0.041 A 
ATOM     83  F   UNL A   1      46.282  32.503  30.928  1.00  0.00    -0.206 F 
ATOM     84  C   UNL A   1      46.396  35.782  29.407  1.00  0.00     0.022 A 
BRANCH  81  85
ATOM     85  S   UNL A   1      45.242  36.924  27.140  1.00  0.00     0.124 S 
ATOM     86  O   UNL A   1      43.904  36.641  26.633  1.00  0.00    -0.237 OA
ATOM     87  O   UNL A   1      45.381  38.141  27.933  1.00  0.00    -0.237 OA
ATOM     88  O   UNL A   1      46.328  36.674  26.193  1.00  0.00    -0.744 OA
ENDBRANCH  81  85
ENDBRANCH  55  78
ENDBRANCH  29  30
ENDBRANCH  22  24
ENDBRANCH  21  22
ENDBRANCH   1  21
TORSDOF 16
ENDMDL
MODEL 3
REMARK VINA RESULT:     -11.7      1.275      7.873
REMARK SMILES C/C(C(=O)N[C@H]1CCCC1(C)C)=C(\C)C(=O)OCCOC(=O)c1ccc(-c2c3nc(c(-c4cc(S(=O)(=O)[O-])ccc4F)c4ccc([nH]4)c(-c4cc(S(=O)(=O)[O-])ccc4F)c4nc(c(-c5cc(S(=O)(=O)[O-])ccc5F)c5ccc2[nH]5)C=C4)C=C3)cc1
REMARK SMILES IDX 19 1 18 2 17 3 15 4 16 5 13 6 1 7 2 8 14 9 3 10 4 11 5 12
REMARK SMILES IDX 6 14 7 15 10 16 8 17 9 18 11 19 12 20 20 21 21 22 22 23
REMARK SMILES IDX 23 24 24 25 85 26 25 27 84 28 26 29 27 30 28 31 78 32 29 33
REMARK SMILES IDX 83 34 77 35 79 36 30 37 82 38 76 39 75 40 31 42 63 43 43 44
REMARK SMILES IDX 62 45 44 46 47 47 61 48 80 49 45 50 46 51 60 53 81 54 48 55
REMARK SMILES IDX 32 56 33 57 41 58 34 59 40 60 42 61 39 62 35 63 36 64 37 65
REMARK SMILES IDX 38 66 64 67 65 68 73 69 66 70 72 71 74 72 71 73 67 74 68 75
REMARK SMILES IDX 69 76 70 77 49 78 50 79 58 80 51 81 57 82 59 83 56 84 52 85
REMARK SMILES IDX 53 86 54 87 55 88
REMARK H PARENT 5 13 79 41 47 52
REMARK Flexibility Score: inf
ROOT
ATOM      1  C   UNL A   1      36.386  20.811  25.172  1.00  0.00     0.275 C 
ENDROOT
BRANCH   1   2
ATOM      2  C   UNL A   1      35.350  21.451  26.099  1.00  0.00     0.275 C 
BRANCH   2   3
ATOM      3  O   UNL A   1      34.001  21.282  25.611  1.00  0.00    -0.459 OA
BRANCH   3   4
ATOM      4  C   UNL A   1      33.050  22.134  26.103  1.00  0.00     0.334 C 
ATOM      5  O   UNL A   1      32.903  22.349  27.288  1.00  0.00    -0.247 OA
BRANCH   4   6
ATOM      6  C   UNL A   1      32.240  22.714  24.954  1.00  0.00     0.042 C 
ATOM      7  C   UNL A   1      30.538  24.157  23.831  1.00  0.00     0.051 C 
ATOM      8  C   UNL A   1      31.328  23.730  25.036  1.00  0.00     0.024 C 
ATOM      9  C   UNL A   1      32.517  22.003  23.644  1.00  0.00     0.053 C 
BRANCH   8  10
ATOM     10  C   UNL A   1      30.953  24.383  26.327  1.00  0.00     0.247 C 
ATOM     11  O   UNL A   1      30.198  23.798  27.105  1.00  0.00    -0.270 OA
ATOM     12  N   UNL A   1      31.343  25.630  26.700  1.00  0.00    -0.349 N 
ATOM     13  H   UNL A   1      31.308  25.725  27.680  1.00  0.00     0.164 HD
BRANCH  12  14
ATOM     14  C   UNL A   1      31.803  26.884  26.071  1.00  0.00     0.088 C 
ATOM     15  C   UNL A   1      31.506  28.073  27.035  1.00  0.00     0.025 C 
ATOM     16  C   UNL A   1      33.293  27.091  25.643  1.00  0.00    -0.015 C 
ATOM     17  C   UNL A   1      32.787  28.872  27.222  1.00  0.00     0.003 C 
ATOM     18  C   UNL A   1      33.902  27.959  26.762  1.00  0.00     0.008 C 
ATOM     19  C   UNL A   1      34.180  25.864  25.430  1.00  0.00     0.013 C 
ATOM     20  C   UNL A   1      33.303  27.892  24.320  1.00  0.00     0.013 C 
ENDBRANCH  12  14
ENDBRANCH   8  10
ENDBRANCH   4   6
ENDBRANCH   3   4
ENDBRANCH   2   3
ENDBRANCH   1   2
BRANCH   1  21
ATOM     21  O   UNL A   1      37.564  21.631  25.057  1.00  0.00    -0.458 OA
BRANCH  21  22
ATOM     22  C   UNL A   1      38.624  21.210  25.786  1.00  0.00     0.338 C 
ATOM     23  O   UNL A   1      39.103  20.088  25.801  1.00  0.00    -0.246 OA
BRANCH  22  24
ATOM     24  C   UNL A   1      39.286  22.366  26.412  1.00  0.00     0.060 A 
ATOM     25  C   UNL A   1      38.829  23.602  25.996  1.00  0.00     0.016 A 
ATOM     26  C   UNL A   1      40.384  22.294  27.272  1.00  0.00     0.016 A 
ATOM     27  C   UNL A   1      39.474  24.759  26.405  1.00  0.00     0.010 A 
ATOM     28  C   UNL A   1      41.030  23.483  27.691  1.00  0.00     0.010 A 
ATOM     29  C   UNL A   1      40.586  24.736  27.244  1.00  0.00    -0.014 A 
BRANCH  29  30
ATOM     30  C   UNL A   1      41.255  26.054  27.485  1.00  0.00     0.031 A 
ATOM     31  C   UNL A   1      40.610  27.080  28.383  1.00  0.00     0.074 A 
ATOM     32  C   UNL A   1      42.551  26.231  27.139  1.00  0.00     0.049 A 
ATOM     33  N   UNL A   1      41.062  28.248  28.768  1.00  0.00    -0.248 NA
ATOM     34  C   UNL A   1      39.309  26.721  28.964  1.00  0.00     0.031 C 
ATOM     35  C   UNL A   1      43.383  25.236  26.454  1.00  0.00     0.029 A 
ATOM     36  N   UNL A   1      43.417  27.276  27.371  1.00  0.00    -0.354 N 
ATOM     37  C   UNL A   1      40.095  28.775  29.619  1.00  0.00     0.074 A 
ATOM     38  C   UNL A   1      39.033  27.792  29.694  1.00  0.00     0.031 C 
ATOM     39  C   UNL A   1      44.638  25.703  26.359  1.00  0.00     0.029 A 
ATOM     40  C   UNL A   1      44.687  27.067  26.878  1.00  0.00     0.049 A 
ATOM     41  H   UNL A   1      43.153  28.096  27.847  1.00  0.00     0.167 HD
ATOM     42  C   UNL A   1      40.088  29.969  30.267  1.00  0.00     0.034 A 
ATOM     43  C   UNL A   1      45.757  27.889  26.801  1.00  0.00     0.034 A 
ATOM     44  C   UNL A   1      41.148  30.947  30.188  1.00  0.00     0.049 A 
ATOM     45  C   UNL A   1      45.645  29.289  27.355  1.00  0.00     0.074 A 
ATOM     46  C   UNL A   1      41.193  32.214  30.750  1.00  0.00     0.029 A 
ATOM     47  N   UNL A   1      42.345  30.782  29.506  1.00  0.00    -0.354 N 
ATOM     48  N   UNL A   1      44.671  29.828  28.052  1.00  0.00    -0.248 NA
ATOM     49  C   UNL A   1      46.771  30.198  27.098  1.00  0.00     0.031 C 
ATOM     50  C   UNL A   1      42.369  32.844  30.329  1.00  0.00     0.029 A 
ATOM     51  C   UNL A   1      43.110  31.939  29.588  1.00  0.00     0.049 A 
ATOM     52  H   UNL A   1      42.614  29.962  29.031  1.00  0.00     0.167 HD
ATOM     53  C   UNL A   1      45.080  31.131  28.331  1.00  0.00     0.074 A 
ATOM     54  C   UNL A   1      46.399  31.286  27.755  1.00  0.00     0.031 C 
ATOM     55  C   UNL A   1      44.419  32.110  29.000  1.00  0.00     0.034 A 
BRANCH  42  56
ATOM     56  C   UNL A   1      38.833  30.333  31.026  1.00  0.00     0.023 A 
ATOM     57  C   UNL A   1      37.744  30.983  30.422  1.00  0.00     0.031 A 
ATOM     58  C   UNL A   1      38.748  30.041  32.401  1.00  0.00     0.131 A 
ATOM     59  C   UNL A   1      36.645  31.375  31.206  1.00  0.00     0.055 A 
ATOM     60  C   UNL A   1      37.619  30.362  33.155  1.00  0.00     0.041 A 
ATOM     61  F   UNL A   1      39.768  29.444  33.036  1.00  0.00    -0.206 F 
ATOM     62  C   UNL A   1      36.565  31.045  32.562  1.00  0.00     0.022 A 
BRANCH  59  63
ATOM     63  S   UNL A   1      35.388  32.456  30.467  1.00  0.00     0.124 S 
ATOM     64  O   UNL A   1      34.349  32.450  31.495  1.00  0.00    -0.237 OA
ATOM     65  O   UNL A   1      36.111  33.711  30.298  1.00  0.00    -0.237 OA
ATOM     66  O   UNL A   1      35.030  31.768  29.228  1.00  0.00    -0.744 OA
ENDBRANCH  59  63
ENDBRANCH  42  56
BRANCH  43  67
ATOM     67  C   UNL A   1      46.991  27.469  26.065  1.00  0.00     0.023 A 
ATOM     68  C   UNL A   1      47.217  27.827  24.725  1.00  0.00     0.031 A 
ATOM     69  C   UNL A   1      47.922  26.604  26.674  1.00  0.00     0.131 A 
ATOM     70  C   UNL A   1      48.312  27.284  24.029  1.00  0.00     0.055 A 
ATOM     71  C   UNL A   1      49.049  26.130  26.003  1.00  0.00     0.041 A 
ATOM     72  F   UNL A   1      47.745  26.197  27.941  1.00  0.00    -0.206 F 
ATOM     73  C   UNL A   1      49.241  26.458  24.666  1.00  0.00     0.022 A 
BRANCH  70  74
ATOM     74  S   UNL A   1      48.445  27.572  22.242  1.00  0.00     0.124 S 
ATOM     75  O   UNL A   1      47.150  28.171  21.942  1.00  0.00    -0.237 OA
ATOM     76  O   UNL A   1      49.598  28.463  22.161  1.00  0.00    -0.237 OA
ATOM     77  O   UNL A   1      48.655  26.233  21.696  1.00  0.00    -0.744 OA
ENDBRANCH  70  74
ENDBRANCH  43  67
BRANCH  55  78
ATOM     78  C   UNL A   1      45.131  33.434  29.179  1.00  0.00     0.023 A 
ATOM     79  C   UNL A   1      45.007  34.478  28.244  1.00  0.00     0.031 A 
ATOM     80  C   UNL A   1      45.967  33.648  30.291  1.00  0.00     0.131 A 
ATOM     81  C   UNL A   1      45.753  35.657  28.403  1.00  0.00     0.055 A 
ATOM     82  C   UNL A   1      46.650  34.851  30.482  1.00  0.00     0.041 A 
ATOM     83  F   UNL A   1      46.134  32.688  31.216  1.00  0.00    -0.206 F 
ATOM     84  C   UNL A   1      46.559  35.858  29.526  1.00  0.00     0.022 A 
BRANCH  81  85
ATOM     85  S   UNL A   1      45.748  36.881  27.062  1.00  0.00     0.124 S 
ATOM     86  O   UNL A   1      44.332  37.217  26.965  1.00  0.00    -0.237 OA
ATOM     87  O   UNL A   1      46.617  37.927  27.592  1.00  0.00    -0.237 OA
ATOM     88  O   UNL A   1      46.290  36.144  25.922  1.00  0.00    -0.744 OA
ENDBRANCH  81  85
ENDBRANCH  55  78
ENDBRANCH  29  30
ENDBRANCH  22  24
ENDBRANCH  21  22
ENDBRANCH   1  21
TORSDOF 16
ENDMDL
