MODEL 1
REMARK VINA RESULT:     -11.7      0.000      0.000
REMARK SMILES O=C(OCCOC(=O)[C@@]1([NH2+]C2CC2)CCC[C@@H]([NH+]2CCS(=O)(=O)CC2)C1)c1ccc(-c2c3nc(c(-c4cc(S(=O)(=O)[O-])ccc4F)c4ccc([nH]4)c(-c4cc(S(=O)(=O)[O-])ccc4F)c4nc(c(-c5cc(S(=O)(=O)[O-])ccc5F)c5ccc2[nH]5)C=C4)C=C3)cc1
REMARK SMILES IDX 4 1 3 2 2 3 1 4 27 5 28 6 89 7 29 8 88 9 30 10 31 11 32 12
REMARK SMILES IDX 82 13 33 14 87 15 81 16 83 17 34 18 86 19 80 20 79 21 35 23
REMARK SMILES IDX 67 24 47 25 66 26 48 27 51 28 65 29 84 30 49 31 50 32 64 34
REMARK SMILES IDX 85 35 52 36 36 37 37 38 45 39 38 40 44 41 46 42 43 43 39 44
REMARK SMILES IDX 40 45 41 46 42 47 68 48 69 49 77 50 70 51 76 52 78 53 75 54
REMARK SMILES IDX 71 55 72 56 73 57 74 58 53 59 54 60 62 61 55 62 61 63 63 64
REMARK SMILES IDX 60 65 56 66 57 67 58 68 59 69 5 70 6 71 7 72 8 73 9 74 14 75
REMARK SMILES IDX 26 76 15 77 17 78 16 79 10 80 11 83 12 84 13 85 18 86 19 87
REMARK SMILES IDX 25 88 20 90 24 91 21 92 22 93 23 94
REMARK H PARENT 83 22 51 33 10 81 10 82 18 89
REMARK Flexibility Score: inf
ROOT
ATOM      1  C   UNL A   1      31.747  30.196  26.758  1.00  0.00     0.275 C 
ENDROOT
BRANCH   1   2
ATOM      2  O   UNL A   1      33.043  30.728  26.495  1.00  0.00    -0.458 OA
BRANCH   2   3
ATOM      3  C   UNL A   1      33.477  31.665  27.362  1.00  0.00     0.338 C 
ATOM      4  O   UNL A   1      32.973  32.767  27.548  1.00  0.00    -0.246 OA
BRANCH   3   5
ATOM      5  C   UNL A   1      34.828  31.231  27.794  1.00  0.00     0.060 A 
ATOM      6  C   UNL A   1      35.847  32.182  27.989  1.00  0.00     0.016 A 
ATOM      7  C   UNL A   1      35.009  29.923  28.239  1.00  0.00     0.016 A 
ATOM      8  C   UNL A   1      37.003  31.849  28.680  1.00  0.00     0.010 A 
ATOM      9  C   UNL A   1      36.141  29.601  28.968  1.00  0.00     0.010 A 
ATOM     10  C   UNL A   1      37.137  30.565  29.194  1.00  0.00    -0.014 A 
BRANCH  10  11
ATOM     11  C   UNL A   1      38.377  30.135  29.851  1.00  0.00     0.031 A 
ATOM     12  C   UNL A   1      38.635  30.721  31.206  1.00  0.00     0.074 A 
ATOM     13  C   UNL A   1      39.268  29.361  29.204  1.00  0.00     0.049 A 
ATOM     14  N   UNL A   1      39.676  30.599  31.977  1.00  0.00    -0.248 NA
ATOM     15  C   UNL A   1      37.602  31.638  31.729  1.00  0.00     0.031 C 
ATOM     16  C   UNL A   1      39.128  28.841  27.838  1.00  0.00     0.029 A 
ATOM     17  N   UNL A   1      40.502  28.919  29.593  1.00  0.00    -0.354 N 
ATOM     18  C   UNL A   1      39.402  31.412  33.071  1.00  0.00     0.074 A 
ATOM     19  C   UNL A   1      38.220  32.174  32.762  1.00  0.00     0.031 C 
ATOM     20  C   UNL A   1      40.261  28.204  27.487  1.00  0.00     0.029 A 
ATOM     21  C   UNL A   1      41.181  28.227  28.617  1.00  0.00     0.049 A 
ATOM     22  H   UNL A   1      40.872  29.082  30.491  1.00  0.00     0.167 HD
ATOM     23  C   UNL A   1      40.015  31.420  34.275  1.00  0.00     0.034 A 
ATOM     24  C   UNL A   1      42.400  27.658  28.668  1.00  0.00     0.034 A 
ATOM     25  C   UNL A   1      41.163  30.599  34.536  1.00  0.00     0.049 A 
ATOM     26  C   UNL A   1      43.090  27.663  30.011  1.00  0.00     0.074 A 
ATOM     27  C   UNL A   1      41.858  30.410  35.711  1.00  0.00     0.029 A 
ATOM     28  N   UNL A   1      41.780  29.811  33.566  1.00  0.00    -0.354 N 
ATOM     29  N   UNL A   1      42.747  28.300  31.111  1.00  0.00    -0.248 NA
ATOM     30  C   UNL A   1      44.272  26.810  30.149  1.00  0.00     0.031 C 
ATOM     31  C   UNL A   1      42.915  29.530  35.443  1.00  0.00     0.029 A 
ATOM     32  C   UNL A   1      42.848  29.131  34.113  1.00  0.00     0.049 A 
ATOM     33  H   UNL A   1      41.494  29.748  32.625  1.00  0.00     0.167 HD
ATOM     34  C   UNL A   1      43.627  27.865  32.095  1.00  0.00     0.074 A 
ATOM     35  C   UNL A   1      44.524  26.923  31.447  1.00  0.00     0.031 C 
ATOM     36  C   UNL A   1      43.688  28.188  33.414  1.00  0.00     0.034 A 
BRANCH  23  37
ATOM     37  C   UNL A   1      39.396  32.292  35.343  1.00  0.00     0.023 A 
ATOM     38  C   UNL A   1      39.730  33.659  35.442  1.00  0.00     0.031 A 
ATOM     39  C   UNL A   1      38.576  31.748  36.341  1.00  0.00     0.131 A 
ATOM     40  C   UNL A   1      39.368  34.395  36.578  1.00  0.00     0.055 A 
ATOM     41  C   UNL A   1      38.126  32.517  37.418  1.00  0.00     0.041 A 
ATOM     42  F   UNL A   1      38.237  30.450  36.315  1.00  0.00    -0.206 F 
ATOM     43  C   UNL A   1      38.543  33.840  37.557  1.00  0.00     0.022 A 
BRANCH  40  44
ATOM     44  S   UNL A   1      40.147  36.012  36.847  1.00  0.00     0.124 S 
ATOM     45  O   UNL A   1      41.532  35.630  37.109  1.00  0.00    -0.237 OA
ATOM     46  O   UNL A   1      39.905  36.696  35.581  1.00  0.00    -0.237 OA
ATOM     47  O   UNL A   1      39.426  36.553  37.996  1.00  0.00    -0.744 OA
ENDBRANCH  40  44
ENDBRANCH  23  37
BRANCH  24  48
ATOM     48  C   UNL A   1      42.973  26.954  27.486  1.00  0.00     0.023 A 
ATOM     49  C   UNL A   1      42.657  25.613  27.221  1.00  0.00     0.031 A 
ATOM     50  C   UNL A   1      43.856  27.605  26.605  1.00  0.00     0.131 A 
ATOM     51  C   UNL A   1      43.257  24.946  26.141  1.00  0.00     0.055 A 
ATOM     52  C   UNL A   1      44.428  26.945  25.512  1.00  0.00     0.041 A 
ATOM     53  F   UNL A   1      44.170  28.897  26.789  1.00  0.00    -0.206 F 
ATOM     54  C   UNL A   1      44.140  25.603  25.282  1.00  0.00     0.022 A 
BRANCH  51  55
ATOM     55  S   UNL A   1      42.913  23.178  25.913  1.00  0.00     0.124 S 
ATOM     56  O   UNL A   1      43.880  22.566  26.818  1.00  0.00    -0.237 OA
ATOM     57  O   UNL A   1      41.514  23.094  26.319  1.00  0.00    -0.237 OA
ATOM     58  O   UNL A   1      43.165  22.963  24.490  1.00  0.00    -0.744 OA
ENDBRANCH  51  55
ENDBRANCH  24  48
BRANCH  36  59
ATOM     59  C   UNL A   1      44.710  27.456  34.233  1.00  0.00     0.023 A 
ATOM     60  C   UNL A   1      44.400  26.248  34.875  1.00  0.00     0.031 A 
ATOM     61  C   UNL A   1      46.011  27.971  34.358  1.00  0.00     0.131 A 
ATOM     62  C   UNL A   1      45.367  25.622  35.669  1.00  0.00     0.055 A 
ATOM     63  C   UNL A   1      46.990  27.308  35.094  1.00  0.00     0.041 A 
ATOM     64  F   UNL A   1      46.352  29.123  33.757  1.00  0.00    -0.206 F 
ATOM     65  C   UNL A   1      46.665  26.131  35.766  1.00  0.00     0.022 A 
BRANCH  62  66
ATOM     66  S   UNL A   1      44.872  24.178  36.642  1.00  0.00     0.124 S 
ATOM     67  O   UNL A   1      46.152  23.516  36.869  1.00  0.00    -0.237 OA
ATOM     68  O   UNL A   1      44.254  24.789  37.815  1.00  0.00    -0.237 OA
ATOM     69  O   UNL A   1      43.952  23.469  35.755  1.00  0.00    -0.744 OA
ENDBRANCH  62  66
ENDBRANCH  36  59
ENDBRANCH  10  11
ENDBRANCH   3   5
ENDBRANCH   2   3
ENDBRANCH   1   2
BRANCH   1  70
ATOM     70  C   UNL A   1      31.734  28.759  27.323  1.00  0.00     0.274 C 
BRANCH  70  71
ATOM     71  O   UNL A   1      32.246  27.714  26.467  1.00  0.00    -0.457 OA
BRANCH  71  72
ATOM     72  C   UNL A   1      31.348  26.890  25.854  1.00  0.00     0.368 C 
ATOM     73  O   UNL A   1      30.400  26.367  26.437  1.00  0.00    -0.245 OA
BRANCH  72  74
ATOM     74  C   UNL A   1      31.775  26.503  24.394  1.00  0.00     0.200 C 
ATOM     75  C   UNL A   1      33.224  26.887  24.053  1.00  0.00     0.081 C 
ATOM     76  C   UNL A   1      31.813  24.953  24.362  1.00  0.00     0.146 C 
ATOM     77  C   UNL A   1      33.577  26.545  22.609  1.00  0.00     0.013 C 
ATOM     78  C   UNL A   1      32.698  24.197  23.318  1.00  0.00     0.191 C 
ATOM     79  C   UNL A   1      33.666  25.042  22.445  1.00  0.00     0.065 C 
BRANCH  74  80
ATOM     80  N   UNL A   1      30.931  27.154  23.359  1.00  0.00    -0.329 N 
ATOM     81  H   UNL A   1      30.250  26.450  23.077  1.00  0.00     0.347 HD
ATOM     82  H   UNL A   1      31.646  27.487  22.712  1.00  0.00     0.347 HD
BRANCH  80  83
ATOM     83  C   UNL A   1      30.163  28.384  23.571  1.00  0.00     0.183 C 
ATOM     84  C   UNL A   1      29.593  29.247  22.543  1.00  0.00     0.071 C 
ATOM     85  C   UNL A   1      28.664  28.223  23.170  1.00  0.00     0.071 C 
ENDBRANCH  80  83
ENDBRANCH  74  80
BRANCH  78  86
ATOM     86  N   UNL A   1      33.326  22.931  23.812  1.00  0.00    -0.331 N 
ATOM     87  C   UNL A   1      32.443  21.812  24.145  1.00  0.00     0.278 C 
ATOM     88  C   UNL A   1      34.472  22.977  24.732  1.00  0.00     0.278 C 
ATOM     89  H   UNL A   1      33.749  22.736  22.905  1.00  0.00     0.348 HD
ATOM     90  C   UNL A   1      31.848  21.763  25.548  1.00  0.00     0.198 C 
ATOM     91  C   UNL A   1      34.106  23.381  26.138  1.00  0.00     0.198 C 
ATOM     92  S   UNL A   1      32.990  22.195  26.841  1.00  0.00     0.161 S 
ATOM     93  O   UNL A   1      32.231  22.880  27.876  1.00  0.00    -0.228 OA
ATOM     94  O   UNL A   1      33.750  21.003  27.169  1.00  0.00    -0.228 OA
ENDBRANCH  78  86
ENDBRANCH  72  74
ENDBRANCH  71  72
ENDBRANCH  70  71
ENDBRANCH   1  70
TORSDOF 17
ENDMDL
MODEL 2
REMARK VINA RESULT:     -11.7      2.144      2.882
REMARK SMILES O=C(OCCOC(=O)[C@@]1([NH2+]C2CC2)CCC[C@@H]([NH+]2CCS(=O)(=O)CC2)C1)c1ccc(-c2c3nc(c(-c4cc(S(=O)(=O)[O-])ccc4F)c4ccc([nH]4)c(-c4cc(S(=O)(=O)[O-])ccc4F)c4nc(c(-c5cc(S(=O)(=O)[O-])ccc5F)c5ccc2[nH]5)C=C4)C=C3)cc1
REMARK SMILES IDX 4 1 3 2 2 3 1 4 27 5 28 6 89 7 29 8 88 9 30 10 31 11 32 12
REMARK SMILES IDX 82 13 33 14 87 15 81 16 83 17 34 18 86 19 80 20 79 21 35 23
REMARK SMILES IDX 67 24 47 25 66 26 48 27 51 28 65 29 84 30 49 31 50 32 64 34
REMARK SMILES IDX 85 35 52 36 36 37 37 38 45 39 38 40 44 41 46 42 43 43 39 44
REMARK SMILES IDX 40 45 41 46 42 47 68 48 69 49 77 50 70 51 76 52 78 53 75 54
REMARK SMILES IDX 71 55 72 56 73 57 74 58 53 59 54 60 62 61 55 62 61 63 63 64
REMARK SMILES IDX 60 65 56 66 57 67 58 68 59 69 5 70 6 71 7 72 8 73 9 74 14 75
REMARK SMILES IDX 26 76 15 77 17 78 16 79 10 80 11 83 12 84 13 85 18 86 19 87
REMARK SMILES IDX 25 88 20 90 24 91 21 92 22 93 23 94
REMARK H PARENT 83 22 51 33 10 81 10 82 18 89
REMARK Flexibility Score: inf
ROOT
ATOM      1  C   UNL A   1      33.533  28.750  27.548  1.00  0.00     0.275 C 
ENDROOT
BRANCH   1   2
ATOM      2  O   UNL A   1      34.224  29.818  26.905  1.00  0.00    -0.458 OA
BRANCH   2   3
ATOM      3  C   UNL A   1      34.576  30.849  27.699  1.00  0.00     0.338 C 
ATOM      4  O   UNL A   1      34.068  31.965  27.702  1.00  0.00    -0.246 OA
BRANCH   3   5
ATOM      5  C   UNL A   1      35.870  30.469  28.317  1.00  0.00     0.060 A 
ATOM      6  C   UNL A   1      35.899  29.917  29.612  1.00  0.00     0.016 A 
ATOM      7  C   UNL A   1      37.014  30.432  27.523  1.00  0.00     0.016 A 
ATOM      8  C   UNL A   1      37.036  29.275  30.081  1.00  0.00     0.010 A 
ATOM      9  C   UNL A   1      38.134  29.752  27.971  1.00  0.00     0.010 A 
ATOM     10  C   UNL A   1      38.145  29.168  29.249  1.00  0.00    -0.014 A 
BRANCH  10  11
ATOM     11  C   UNL A   1      39.401  28.581  29.729  1.00  0.00     0.031 A 
ATOM     12  C   UNL A   1      40.059  29.291  30.873  1.00  0.00     0.074 A 
ATOM     13  C   UNL A   1      39.968  27.544  29.084  1.00  0.00     0.049 A 
ATOM     14  N   UNL A   1      41.207  29.061  31.441  1.00  0.00    -0.248 NA
ATOM     15  C   UNL A   1      39.354  30.477  31.397  1.00  0.00     0.031 C 
ATOM     16  C   UNL A   1      39.433  26.871  27.894  1.00  0.00     0.029 A 
ATOM     17  N   UNL A   1      41.156  26.907  29.309  1.00  0.00    -0.354 N 
ATOM     18  C   UNL A   1      41.338  30.067  32.391  1.00  0.00     0.074 A 
ATOM     19  C   UNL A   1      40.275  31.014  32.172  1.00  0.00     0.031 C 
ATOM     20  C   UNL A   1      40.323  25.957  27.462  1.00  0.00     0.029 A 
ATOM     21  C   UNL A   1      41.461  25.947  28.371  1.00  0.00     0.049 A 
ATOM     22  H   UNL A   1      41.742  27.116  30.072  1.00  0.00     0.167 HD
ATOM     23  C   UNL A   1      42.196  30.120  33.434  1.00  0.00     0.034 A 
ATOM     24  C   UNL A   1      42.537  25.140  28.298  1.00  0.00     0.034 A 
ATOM     25  C   UNL A   1      43.204  29.116  33.623  1.00  0.00     0.049 A 
ATOM     26  C   UNL A   1      43.500  25.193  29.459  1.00  0.00     0.074 A 
ATOM     27  C   UNL A   1      44.100  28.956  34.659  1.00  0.00     0.029 A 
ATOM     28  N   UNL A   1      43.434  28.077  32.722  1.00  0.00    -0.354 N 
ATOM     29  N   UNL A   1      43.534  26.045  30.463  1.00  0.00    -0.248 NA
ATOM     30  C   UNL A   1      44.508  24.134  29.531  1.00  0.00     0.031 C 
ATOM     31  C   UNL A   1      44.892  27.837  34.368  1.00  0.00     0.029 A 
ATOM     32  C   UNL A   1      44.456  27.270  33.176  1.00  0.00     0.049 A 
ATOM     33  H   UNL A   1      42.938  27.940  31.883  1.00  0.00     0.167 HD
ATOM     34  C   UNL A   1      44.519  25.580  31.326  1.00  0.00     0.074 A 
ATOM     35  C   UNL A   1      45.061  24.380  30.712  1.00  0.00     0.031 C 
ATOM     36  C   UNL A   1      44.932  26.074  32.523  1.00  0.00     0.034 A 
BRANCH  23  37
ATOM     37  C   UNL A   1      42.002  31.253  34.413  1.00  0.00     0.023 A 
ATOM     38  C   UNL A   1      40.912  31.255  35.308  1.00  0.00     0.031 A 
ATOM     39  C   UNL A   1      42.819  32.392  34.378  1.00  0.00     0.131 A 
ATOM     40  C   UNL A   1      40.585  32.416  36.022  1.00  0.00     0.055 A 
ATOM     41  C   UNL A   1      42.550  33.509  35.175  1.00  0.00     0.041 A 
ATOM     42  F   UNL A   1      43.860  32.461  33.536  1.00  0.00    -0.206 F 
ATOM     43  C   UNL A   1      41.414  33.537  35.983  1.00  0.00     0.022 A 
BRANCH  40  44
ATOM     44  S   UNL A   1      38.968  32.501  36.843  1.00  0.00     0.124 S 
ATOM     45  O   UNL A   1      38.218  31.476  36.119  1.00  0.00    -0.237 OA
ATOM     46  O   UNL A   1      39.298  32.188  38.229  1.00  0.00    -0.237 OA
ATOM     47  O   UNL A   1      38.532  33.874  36.599  1.00  0.00    -0.744 OA
ENDBRANCH  40  44
ENDBRANCH  23  37
BRANCH  24  48
ATOM     48  C   UNL A   1      42.692  24.161  27.185  1.00  0.00     0.023 A 
ATOM     49  C   UNL A   1      42.077  22.900  27.241  1.00  0.00     0.031 A 
ATOM     50  C   UNL A   1      43.466  24.461  26.050  1.00  0.00     0.131 A 
ATOM     51  C   UNL A   1      42.288  21.966  26.215  1.00  0.00     0.055 A 
ATOM     52  C   UNL A   1      43.649  23.539  25.015  1.00  0.00     0.041 A 
ATOM     53  F   UNL A   1      44.052  25.663  25.926  1.00  0.00    -0.206 F 
ATOM     54  C   UNL A   1      43.068  22.276  25.099  1.00  0.00     0.022 A 
BRANCH  51  55
ATOM     55  S   UNL A   1      41.574  20.307  26.392  1.00  0.00     0.124 S 
ATOM     56  O   UNL A   1      40.146  20.583  26.293  1.00  0.00    -0.237 OA
ATOM     57  O   UNL A   1      42.171  19.605  25.261  1.00  0.00    -0.237 OA
ATOM     58  O   UNL A   1      42.038  19.875  27.709  1.00  0.00    -0.744 OA
ENDBRANCH  51  55
ENDBRANCH  24  48
BRANCH  36  59
ATOM     59  C   UNL A   1      45.962  25.266  33.258  1.00  0.00     0.023 A 
ATOM     60  C   UNL A   1      45.590  24.257  34.158  1.00  0.00     0.031 A 
ATOM     61  C   UNL A   1      47.329  25.506  33.041  1.00  0.00     0.131 A 
ATOM     62  C   UNL A   1      46.580  23.560  34.859  1.00  0.00     0.055 A 
ATOM     63  C   UNL A   1      48.311  24.762  33.691  1.00  0.00     0.041 A 
ATOM     64  F   UNL A   1      47.729  26.461  32.185  1.00  0.00    -0.206 F 
ATOM     65  C   UNL A   1      47.937  23.790  34.616  1.00  0.00     0.022 A 
BRANCH  62  66
ATOM     66  S   UNL A   1      46.061  22.409  36.156  1.00  0.00     0.124 S 
ATOM     67  O   UNL A   1      45.198  23.253  36.978  1.00  0.00    -0.237 OA
ATOM     68  O   UNL A   1      45.387  21.362  35.394  1.00  0.00    -0.237 OA
ATOM     69  O   UNL A   1      47.319  22.010  36.781  1.00  0.00    -0.744 OA
ENDBRANCH  62  66
ENDBRANCH  36  59
ENDBRANCH  10  11
ENDBRANCH   3   5
ENDBRANCH   2   3
ENDBRANCH   1   2
BRANCH   1  70
ATOM     70  C   UNL A   1      32.004  28.739  27.334  1.00  0.00     0.274 C 
BRANCH  70  71
ATOM     71  O   UNL A   1      31.529  28.356  26.025  1.00  0.00    -0.457 OA
BRANCH  71  72
ATOM     72  C   UNL A   1      31.550  29.294  25.035  1.00  0.00     0.368 C 
ATOM     73  O   UNL A   1      31.094  30.429  25.165  1.00  0.00    -0.245 OA
BRANCH  72  74
ATOM     74  C   UNL A   1      32.011  28.710  23.652  1.00  0.00     0.200 C 
ATOM     75  C   UNL A   1      33.529  28.787  23.426  1.00  0.00     0.081 C 
ATOM     76  C   UNL A   1      31.751  27.183  23.733  1.00  0.00     0.146 C 
ATOM     77  C   UNL A   1      33.924  28.261  22.050  1.00  0.00     0.013 C 
ATOM     78  C   UNL A   1      32.556  26.188  22.834  1.00  0.00     0.191 C 
ATOM     79  C   UNL A   1      33.735  26.760  22.000  1.00  0.00     0.065 C 
BRANCH  74  80
ATOM     80  N   UNL A   1      31.394  29.414  22.499  1.00  0.00    -0.329 N 
ATOM     81  H   UNL A   1      32.031  29.271  21.716  1.00  0.00     0.347 HD
ATOM     82  H   UNL A   1      31.247  30.341  22.898  1.00  0.00     0.347 HD
BRANCH  80  83
ATOM     83  C   UNL A   1      30.055  29.128  21.975  1.00  0.00     0.183 C 
ATOM     84  C   UNL A   1      28.795  29.204  22.706  1.00  0.00     0.071 C 
ATOM     85  C   UNL A   1      29.175  30.411  21.866  1.00  0.00     0.071 C 
ENDBRANCH  80  83
ENDBRANCH  74  80
BRANCH  78  86
ATOM     86  N   UNL A   1      32.887  24.875  23.473  1.00  0.00    -0.331 N 
ATOM     87  C   UNL A   1      31.886  23.809  23.406  1.00  0.00     0.278 C 
ATOM     88  C   UNL A   1      33.606  24.830  24.753  1.00  0.00     0.278 C 
ATOM     89  H   UNL A   1      33.607  24.671  22.780  1.00  0.00     0.348 HD
ATOM     90  C   UNL A   1      30.808  23.772  24.483  1.00  0.00     0.198 C 
ATOM     91  C   UNL A   1      32.763  25.230  25.938  1.00  0.00     0.198 C 
ATOM     92  S   UNL A   1      31.405  24.105  26.126  1.00  0.00     0.161 S 
ATOM     93  O   UNL A   1      30.350  24.816  26.831  1.00  0.00    -0.228 OA
ATOM     94  O   UNL A   1      31.923  22.860  26.662  1.00  0.00    -0.228 OA
ENDBRANCH  78  86
ENDBRANCH  72  74
ENDBRANCH  71  72
ENDBRANCH  70  71
ENDBRANCH   1  70
TORSDOF 17
ENDMDL
MODEL 3
REMARK VINA RESULT:     -11.6      4.780     10.097
REMARK SMILES O=C(OCCOC(=O)[C@@]1([NH2+]C2CC2)CCC[C@@H]([NH+]2CCS(=O)(=O)CC2)C1)c1ccc(-c2c3nc(c(-c4cc(S(=O)(=O)[O-])ccc4F)c4ccc([nH]4)c(-c4cc(S(=O)(=O)[O-])ccc4F)c4nc(c(-c5cc(S(=O)(=O)[O-])ccc5F)c5ccc2[nH]5)C=C4)C=C3)cc1
REMARK SMILES IDX 4 1 3 2 2 3 1 4 27 5 28 6 89 7 29 8 88 9 30 10 31 11 32 12
REMARK SMILES IDX 82 13 33 14 87 15 81 16 83 17 34 18 86 19 80 20 79 21 35 23
REMARK SMILES IDX 67 24 47 25 66 26 48 27 51 28 65 29 84 30 49 31 50 32 64 34
REMARK SMILES IDX 85 35 52 36 36 37 37 38 45 39 38 40 44 41 46 42 43 43 39 44
REMARK SMILES IDX 40 45 41 46 42 47 68 48 69 49 77 50 70 51 76 52 78 53 75 54
REMARK SMILES IDX 71 55 72 56 73 57 74 58 53 59 54 60 62 61 55 62 61 63 63 64
REMARK SMILES IDX 60 65 56 66 57 67 58 68 59 69 5 70 6 71 7 72 8 73 9 74 14 75
REMARK SMILES IDX 26 76 15 77 17 78 16 79 10 80 11 83 12 84 13 85 18 86 19 87
REMARK SMILES IDX 25 88 20 90 24 91 21 92 22 93 23 94
REMARK H PARENT 83 22 51 33 10 81 10 82 18 89
REMARK Flexibility Score: inf
ROOT
ATOM      1  C   UNL A   1      37.600  21.351  24.862  1.00  0.00     0.275 C 
ENDROOT
BRANCH   1   2
ATOM      2  O   UNL A   1      38.068  21.932  26.077  1.00  0.00    -0.458 OA
BRANCH   2   3
ATOM      3  C   UNL A   1      39.406  21.941  26.243  1.00  0.00     0.338 C 
ATOM      4  O   UNL A   1      40.152  20.972  26.148  1.00  0.00    -0.246 OA
BRANCH   3   5
ATOM      5  C   UNL A   1      39.736  23.249  26.860  1.00  0.00     0.060 A 
ATOM      6  C   UNL A   1      40.636  23.313  27.941  1.00  0.00     0.016 A 
ATOM      7  C   UNL A   1      39.349  24.419  26.213  1.00  0.00     0.016 A 
ATOM      8  C   UNL A   1      41.193  24.523  28.326  1.00  0.00     0.010 A 
ATOM      9  C   UNL A   1      39.939  25.622  26.565  1.00  0.00     0.010 A 
ATOM     10  C   UNL A   1      40.866  25.674  27.619  1.00  0.00    -0.014 A 
BRANCH  10  11
ATOM     11  C   UNL A   1      41.356  26.992  28.042  1.00  0.00     0.031 A 
ATOM     12  C   UNL A   1      42.814  27.250  27.815  1.00  0.00     0.074 A 
ATOM     13  C   UNL A   1      40.553  27.846  28.703  1.00  0.00     0.049 A 
ATOM     14  N   UNL A   1      43.539  28.272  28.165  1.00  0.00    -0.248 NA
ATOM     15  C   UNL A   1      43.578  26.162  27.171  1.00  0.00     0.031 C 
ATOM     16  C   UNL A   1      39.146  27.613  29.053  1.00  0.00     0.029 A 
ATOM     17  N   UNL A   1      40.823  29.069  29.250  1.00  0.00    -0.354 N 
ATOM     18  C   UNL A   1      44.829  27.944  27.765  1.00  0.00     0.074 A 
ATOM     19  C   UNL A   1      44.820  26.564  27.355  1.00  0.00     0.031 C 
ATOM     20  C   UNL A   1      38.700  28.635  29.807  1.00  0.00     0.029 A 
ATOM     21  C   UNL A   1      39.770  29.613  29.949  1.00  0.00     0.049 A 
ATOM     22  H   UNL A   1      41.693  29.520  29.152  1.00  0.00     0.167 HD
ATOM     23  C   UNL A   1      45.893  28.766  27.631  1.00  0.00     0.034 A 
ATOM     24  C   UNL A   1      39.697  30.791  30.598  1.00  0.00     0.034 A 
ATOM     25  C   UNL A   1      45.823  30.148  28.014  1.00  0.00     0.049 A 
ATOM     26  C   UNL A   1      40.882  31.715  30.453  1.00  0.00     0.074 A 
ATOM     27  C   UNL A   1      46.763  31.146  27.873  1.00  0.00     0.029 A 
ATOM     28  N   UNL A   1      44.707  30.721  28.622  1.00  0.00    -0.354 N 
ATOM     29  N   UNL A   1      42.061  31.466  29.922  1.00  0.00    -0.248 NA
ATOM     30  C   UNL A   1      40.704  33.095  30.909  1.00  0.00     0.031 C 
ATOM     31  C   UNL A   1      46.226  32.317  28.425  1.00  0.00     0.029 A 
ATOM     32  C   UNL A   1      44.932  32.060  28.863  1.00  0.00     0.049 A 
ATOM     33  H   UNL A   1      43.879  30.239  28.847  1.00  0.00     0.167 HD
ATOM     34  C   UNL A   1      42.740  32.679  29.909  1.00  0.00     0.074 A 
ATOM     35  C   UNL A   1      41.838  33.652  30.502  1.00  0.00     0.031 C 
ATOM     36  C   UNL A   1      43.979  32.979  29.439  1.00  0.00     0.034 A 
BRANCH  23  37
ATOM     37  C   UNL A   1      47.134  28.171  27.009  1.00  0.00     0.023 A 
ATOM     38  C   UNL A   1      47.360  28.261  25.619  1.00  0.00     0.031 A 
ATOM     39  C   UNL A   1      48.031  27.405  27.766  1.00  0.00     0.131 A 
ATOM     40  C   UNL A   1      48.361  27.490  25.014  1.00  0.00     0.055 A 
ATOM     41  C   UNL A   1      49.096  26.723  27.169  1.00  0.00     0.041 A 
ATOM     42  F   UNL A   1      47.863  27.263  29.090  1.00  0.00    -0.206 F 
ATOM     43  C   UNL A   1      49.251  26.741  25.784  1.00  0.00     0.022 A 
BRANCH  40  44
ATOM     44  S   UNL A   1      48.357  27.331  23.206  1.00  0.00     0.124 S 
ATOM     45  O   UNL A   1      49.667  27.878  22.861  1.00  0.00    -0.237 OA
ATOM     46  O   UNL A   1      48.198  25.894  23.013  1.00  0.00    -0.237 OA
ATOM     47  O   UNL A   1      47.218  28.146  22.793  1.00  0.00    -0.744 OA
ENDBRANCH  40  44
ENDBRANCH  23  37
BRANCH  24  48
ATOM     48  C   UNL A   1      38.457  31.201  31.314  1.00  0.00     0.023 A 
ATOM     49  C   UNL A   1      37.471  31.966  30.672  1.00  0.00     0.031 A 
ATOM     50  C   UNL A   1      38.238  30.847  32.658  1.00  0.00     0.131 A 
ATOM     51  C   UNL A   1      36.339  32.399  31.381  1.00  0.00     0.055 A 
ATOM     52  C   UNL A   1      37.094  31.255  33.352  1.00  0.00     0.041 A 
ATOM     53  F   UNL A   1      39.130  30.089  33.315  1.00  0.00    -0.206 F 
ATOM     54  C   UNL A   1      36.142  32.048  32.717  1.00  0.00     0.022 A 
BRANCH  51  55
ATOM     55  S   UNL A   1      35.155  33.490  30.543  1.00  0.00     0.124 S 
ATOM     56  O   UNL A   1      34.117  32.549  30.136  1.00  0.00    -0.237 OA
ATOM     57  O   UNL A   1      34.797  34.416  31.612  1.00  0.00    -0.237 OA
ATOM     58  O   UNL A   1      35.937  34.068  29.452  1.00  0.00    -0.744 OA
ENDBRANCH  51  55
ENDBRANCH  24  48
BRANCH  36  59
ATOM     59  C   UNL A   1      44.378  34.425  29.487  1.00  0.00     0.023 A 
ATOM     60  C   UNL A   1      43.853  35.357  28.580  1.00  0.00     0.031 A 
ATOM     61  C   UNL A   1      45.285  34.871  30.463  1.00  0.00     0.131 A 
ATOM     62  C   UNL A   1      44.288  36.686  28.628  1.00  0.00     0.055 A 
ATOM     63  C   UNL A   1      45.662  36.210  30.549  1.00  0.00     0.041 A 
ATOM     64  F   UNL A   1      45.810  34.013  31.353  1.00  0.00    -0.206 F 
ATOM     65  C   UNL A   1      45.171  37.123  29.619  1.00  0.00     0.022 A 
BRANCH  62  66
ATOM     66  S   UNL A   1      43.744  37.812  27.319  1.00  0.00     0.124 S 
ATOM     67  O   UNL A   1      42.938  38.773  28.066  1.00  0.00    -0.237 OA
ATOM     68  O   UNL A   1      45.010  38.316  26.795  1.00  0.00    -0.237 OA
ATOM     69  O   UNL A   1      42.998  36.944  26.411  1.00  0.00    -0.744 OA
ENDBRANCH  62  66
ENDBRANCH  36  59
ENDBRANCH  10  11
ENDBRANCH   3   5
ENDBRANCH   2   3
ENDBRANCH   1   2
BRANCH   1  70
ATOM     70  C   UNL A   1      37.133  22.362  23.793  1.00  0.00     0.274 C 
BRANCH  70  71
ATOM     71  O   UNL A   1      35.716  22.635  23.724  1.00  0.00    -0.457 OA
BRANCH  71  72
ATOM     72  C   UNL A   1      35.168  23.423  24.694  1.00  0.00     0.368 C 
ATOM     73  O   UNL A   1      35.672  24.477  25.078  1.00  0.00    -0.245 OA
BRANCH  72  74
ATOM     74  C   UNL A   1      33.954  22.740  25.419  1.00  0.00     0.200 C 
ATOM     75  C   UNL A   1      33.686  23.294  26.828  1.00  0.00     0.081 C 
ATOM     76  C   UNL A   1      32.692  23.176  24.631  1.00  0.00     0.146 C 
ATOM     77  C   UNL A   1      32.537  22.564  27.515  1.00  0.00     0.013 C 
ATOM     78  C   UNL A   1      31.286  23.187  25.316  1.00  0.00     0.191 C 
ATOM     79  C   UNL A   1      31.227  22.923  26.846  1.00  0.00     0.065 C 
BRANCH  74  80
ATOM     80  N   UNL A   1      34.140  21.276  25.590  1.00  0.00    -0.329 N 
ATOM     81  H   UNL A   1      33.700  21.045  26.481  1.00  0.00     0.347 HD
ATOM     82  H   UNL A   1      35.148  21.196  25.462  1.00  0.00     0.347 HD
BRANCH  80  83
ATOM     83  C   UNL A   1      33.664  20.265  24.641  1.00  0.00     0.183 C 
ATOM     84  C   UNL A   1      34.065  18.864  24.582  1.00  0.00     0.071 C 
ATOM     85  C   UNL A   1      32.779  19.178  25.327  1.00  0.00     0.071 C 
ENDBRANCH  80  83
ENDBRANCH  74  80
BRANCH  78  86
ATOM     86  N   UNL A   1      30.377  24.296  24.888  1.00  0.00    -0.331 N 
ATOM     87  C   UNL A   1      30.436  24.731  23.491  1.00  0.00     0.278 C 
ATOM     88  C   UNL A   1      30.128  25.440  25.776  1.00  0.00     0.278 C 
ATOM     89  H   UNL A   1      29.546  23.715  24.999  1.00  0.00     0.348 HD
ATOM     90  C   UNL A   1      31.475  25.780  23.112  1.00  0.00     0.198 C 
ATOM     91  C   UNL A   1      31.292  26.394  25.879  1.00  0.00     0.198 C 
ATOM     92  S   UNL A   1      31.642  27.102  24.291  1.00  0.00     0.161 S 
ATOM     93  O   UNL A   1      33.040  27.501  24.296  1.00  0.00    -0.228 OA
ATOM     94  O   UNL A   1      30.610  28.080  23.998  1.00  0.00    -0.228 OA
ENDBRANCH  78  86
ENDBRANCH  72  74
ENDBRANCH  71  72
ENDBRANCH  70  71
ENDBRANCH   1  70
TORSDOF 17
ENDMDL
