MODEL 1
REMARK VINA RESULT:     -12.1      0.000      0.000
REMARK SMILES CCOc1cccc(C(=O)Nc2ccc(Cl)c(C(=O)OCCOC(=O)c3ccc(-c4c5nc(c(-c6cc(S(=O)(=O)[O-])ccc6F)c6ccc([nH]6)c(-c6cc(S(=O)(=O)[O-])ccc6F)c6nc(c(-c7cc(S(=O)(=O)[O-])ccc7F)c7ccc4[nH]7)C=C6)C=C5)cc3)c2)c1
REMARK SMILES IDX 21 1 20 2 18 3 19 4 17 5 12 6 13 7 89 8 14 9 15 10 16 11
REMARK SMILES IDX 11 12 9 13 10 14 8 16 4 17 5 18 90 19 6 20 7 21 3 22 2 23
REMARK SMILES IDX 1 24 22 25 23 26 24 27 25 28 26 29 27 30 88 31 28 32 87 33
REMARK SMILES IDX 29 34 30 35 31 36 81 37 32 38 86 39 80 40 82 41 33 42 85 43
REMARK SMILES IDX 79 44 78 45 34 47 66 48 46 49 65 50 47 51 50 52 64 53 83 54
REMARK SMILES IDX 48 55 49 56 63 58 84 59 51 60 35 61 36 62 44 63 37 64 43 65
REMARK SMILES IDX 45 66 42 67 38 68 39 69 40 70 41 71 67 72 68 73 76 74 69 75
REMARK SMILES IDX 75 76 77 77 74 78 70 79 71 80 72 81 73 82 52 83 53 84 61 85
REMARK SMILES IDX 54 86 60 87 62 88 59 89 55 90 56 91 57 92 58 93
REMARK H PARENT 11 15 82 46 50 57
REMARK Flexibility Score: inf
ROOT
ATOM      1  C   UNL A   1      31.147  31.127  25.813  1.00  0.00     0.275 C 
ENDROOT
BRANCH   1   2
ATOM      2  O   UNL A   1      31.548  29.784  26.158  1.00  0.00    -0.458 OA
BRANCH   2   3
ATOM      3  C   UNL A   1      32.164  29.064  25.182  1.00  0.00     0.339 C 
ATOM      4  O   UNL A   1      33.286  29.291  24.753  1.00  0.00    -0.246 OA
BRANCH   3   5
ATOM      5  C   UNL A   1      31.280  27.951  24.718  1.00  0.00     0.080 A 
ATOM      6  C   UNL A   1      30.158  25.890  25.318  1.00  0.00     0.042 A 
ATOM      7  C   UNL A   1      29.512  25.852  24.086  1.00  0.00     0.028 A 
ATOM      8  C   UNL A   1      31.167  26.824  25.549  1.00  0.00     0.043 A 
ATOM      9  C   UNL A   1      29.637  26.939  23.232  1.00  0.00     0.023 A 
ATOM     10  C   UNL A   1      30.420  28.036  23.607  1.00  0.00     0.055 A 
ATOM     11  Cl  UNL A   1      30.066  29.476  22.727  1.00  0.00    -0.083 Cl
BRANCH   6  12
ATOM     12  N   UNL A   1      29.625  25.085  26.330  1.00  0.00    -0.322 N 
ATOM     13  C   UNL A   1      29.992  23.829  26.786  1.00  0.00     0.255 C 
ATOM     14  O   UNL A   1      29.292  23.321  27.667  1.00  0.00    -0.269 OA
ATOM     15  H   UNL A   1      28.857  25.480  26.802  1.00  0.00     0.170 HD
BRANCH  13  16
ATOM     16  C   UNL A   1      31.211  23.072  26.337  1.00  0.00     0.043 A 
ATOM     17  C   UNL A   1      32.353  21.182  25.332  1.00  0.00     0.120 A 
ATOM     18  C   UNL A   1      33.577  21.640  25.804  1.00  0.00     0.046 A 
ATOM     19  C   UNL A   1      31.195  21.939  25.518  1.00  0.00     0.060 A 
ATOM     20  C   UNL A   1      33.636  22.857  26.477  1.00  0.00     0.005 A 
ATOM     21  C   UNL A   1      32.457  23.552  26.767  1.00  0.00     0.014 A 
BRANCH  17  22
ATOM     22  O   UNL A   1      32.259  19.879  24.927  1.00  0.00    -0.494 OA
BRANCH  22  23
ATOM     23  C   UNL A   1      32.619  19.646  23.565  1.00  0.00     0.226 C 
ATOM     24  C   UNL A   1      32.339  18.211  23.166  1.00  0.00     0.049 C 
ENDBRANCH  22  23
ENDBRANCH  17  22
ENDBRANCH  13  16
ENDBRANCH   6  12
ENDBRANCH   3   5
ENDBRANCH   2   3
ENDBRANCH   1   2
BRANCH   1  25
ATOM     25  C   UNL A   1      31.616  32.148  26.852  1.00  0.00     0.275 C 
BRANCH  25  26
ATOM     26  O   UNL A   1      32.870  31.754  27.440  1.00  0.00    -0.458 OA
BRANCH  26  27
ATOM     27  C   UNL A   1      33.682  32.781  27.795  1.00  0.00     0.338 C 
ATOM     28  O   UNL A   1      33.356  33.934  28.001  1.00  0.00    -0.246 OA
BRANCH  27  29
ATOM     29  C   UNL A   1      35.022  32.262  28.116  1.00  0.00     0.060 A 
ATOM     30  C   UNL A   1      35.059  30.976  28.632  1.00  0.00     0.016 A 
ATOM     31  C   UNL A   1      36.183  33.027  28.092  1.00  0.00     0.016 A 
ATOM     32  C   UNL A   1      36.227  30.432  29.141  1.00  0.00     0.010 A 
ATOM     33  C   UNL A   1      37.377  32.478  28.603  1.00  0.00     0.010 A 
ATOM     34  C   UNL A   1      37.398  31.180  29.154  1.00  0.00    -0.014 A 
BRANCH  34  35
ATOM     35  C   UNL A   1      38.531  30.648  29.959  1.00  0.00     0.031 A 
ATOM     36  C   UNL A   1      39.469  29.671  29.304  1.00  0.00     0.074 A 
ATOM     37  C   UNL A   1      38.842  31.157  31.168  1.00  0.00     0.049 A 
ATOM     38  N   UNL A   1      40.444  28.975  29.824  1.00  0.00    -0.248 NA
ATOM     39  C   UNL A   1      39.287  29.466  27.857  1.00  0.00     0.031 C 
ATOM     40  C   UNL A   1      38.135  32.254  31.835  1.00  0.00     0.029 A 
ATOM     41  N   UNL A   1      39.852  30.837  32.044  1.00  0.00    -0.354 N 
ATOM     42  C   UNL A   1      40.970  28.223  28.779  1.00  0.00     0.074 A 
ATOM     43  C   UNL A   1      40.193  28.538  27.599  1.00  0.00     0.031 C 
ATOM     44  C   UNL A   1      38.732  32.508  33.013  1.00  0.00     0.029 A 
ATOM     45  C   UNL A   1      39.807  31.544  33.226  1.00  0.00     0.049 A 
ATOM     46  H   UNL A   1      40.544  30.165  31.846  1.00  0.00     0.167 HD
ATOM     47  C   UNL A   1      42.005  27.350  28.805  1.00  0.00     0.034 A 
ATOM     48  C   UNL A   1      40.512  31.390  34.366  1.00  0.00     0.034 A 
ATOM     49  C   UNL A   1      42.778  27.067  29.989  1.00  0.00     0.049 A 
ATOM     50  C   UNL A   1      41.567  30.306  34.418  1.00  0.00     0.074 A 
ATOM     51  C   UNL A   1      43.781  26.130  30.165  1.00  0.00     0.029 A 
ATOM     52  N   UNL A   1      42.644  27.735  31.200  1.00  0.00    -0.354 N 
ATOM     53  N   UNL A   1      41.961  29.486  33.469  1.00  0.00    -0.248 NA
ATOM     54  C   UNL A   1      42.273  30.127  35.693  1.00  0.00     0.031 C 
ATOM     55  C   UNL A   1      44.214  26.193  31.493  1.00  0.00     0.029 A 
ATOM     56  C   UNL A   1      43.542  27.228  32.125  1.00  0.00     0.049 A 
ATOM     57  H   UNL A   1      42.005  28.463  31.374  1.00  0.00     0.167 HD
ATOM     58  C   UNL A   1      42.990  28.727  34.024  1.00  0.00     0.074 A 
ATOM     59  C   UNL A   1      43.167  29.203  35.380  1.00  0.00     0.031 C 
ATOM     60  C   UNL A   1      43.721  27.727  33.468  1.00  0.00     0.034 A 
BRANCH  47  61
ATOM     61  C   UNL A   1      42.296  26.588  27.537  1.00  0.00     0.023 A 
ATOM     62  C   UNL A   1      41.946  25.235  27.381  1.00  0.00     0.031 A 
ATOM     63  C   UNL A   1      42.978  27.219  26.481  1.00  0.00     0.131 A 
ATOM     64  C   UNL A   1      42.333  24.544  26.223  1.00  0.00     0.055 A 
ATOM     65  C   UNL A   1      43.290  26.547  25.299  1.00  0.00     0.041 A 
ATOM     66  F   UNL A   1      43.365  28.500  26.588  1.00  0.00    -0.206 F 
ATOM     67  C   UNL A   1      42.979  25.198  25.170  1.00  0.00     0.022 A 
BRANCH  64  68
ATOM     68  S   UNL A   1      42.103  22.745  26.165  1.00  0.00     0.124 S 
ATOM     69  O   UNL A   1      40.648  22.632  26.215  1.00  0.00    -0.237 OA
ATOM     70  O   UNL A   1      42.729  22.385  24.899  1.00  0.00    -0.237 OA
ATOM     71  O   UNL A   1      42.799  22.272  27.361  1.00  0.00    -0.744 OA
ENDBRANCH  64  68
ENDBRANCH  47  61
BRANCH  48  72
ATOM     72  C   UNL A   1      40.192  32.189  35.592  1.00  0.00     0.023 A 
ATOM     73  C   UNL A   1      39.218  31.769  36.513  1.00  0.00     0.031 A 
ATOM     74  C   UNL A   1      40.770  33.457  35.790  1.00  0.00     0.131 A 
ATOM     75  C   UNL A   1      38.796  32.637  37.535  1.00  0.00     0.055 A 
ATOM     76  C   UNL A   1      40.404  34.284  36.854  1.00  0.00     0.041 A 
ATOM     77  F   UNL A   1      41.695  33.927  34.936  1.00  0.00    -0.206 F 
ATOM     78  C   UNL A   1      39.394  33.884  37.721  1.00  0.00     0.022 A 
BRANCH  75  79
ATOM     79  S   UNL A   1      37.344  32.177  38.524  1.00  0.00     0.124 S 
ATOM     80  O   UNL A   1      36.320  33.054  37.970  1.00  0.00    -0.237 OA
ATOM     81  O   UNL A   1      37.207  30.757  38.219  1.00  0.00    -0.237 OA
ATOM     82  O   UNL A   1      37.756  32.483  39.893  1.00  0.00    -0.744 OA
ENDBRANCH  75  79
ENDBRANCH  48  72
BRANCH  60  83
ATOM     83  C   UNL A   1      44.840  27.147  34.302  1.00  0.00     0.023 A 
ATOM     84  C   UNL A   1      44.649  26.039  35.146  1.00  0.00     0.031 A 
ATOM     85  C   UNL A   1      46.114  27.741  34.272  1.00  0.00     0.131 A 
ATOM     86  C   UNL A   1      45.690  25.611  35.983  1.00  0.00     0.055 A 
ATOM     87  C   UNL A   1      47.168  27.264  35.053  1.00  0.00     0.041 A 
ATOM     88  F   UNL A   1      46.357  28.803  33.487  1.00  0.00    -0.206 F 
ATOM     89  C   UNL A   1      46.954  26.205  35.929  1.00  0.00     0.022 A 
BRANCH  86  90
ATOM     90  S   UNL A   1      45.333  24.352  37.240  1.00  0.00     0.124 S 
ATOM     91  O   UNL A   1      44.246  24.971  37.990  1.00  0.00    -0.237 OA
ATOM     92  O   UNL A   1      44.971  23.196  36.426  1.00  0.00    -0.237 OA
ATOM     93  O   UNL A   1      46.596  24.226  37.966  1.00  0.00    -0.744 OA
ENDBRANCH  86  90
ENDBRANCH  60  83
ENDBRANCH  34  35
ENDBRANCH  27  29
ENDBRANCH  26  27
ENDBRANCH  25  26
ENDBRANCH   1  25
TORSDOF 18
ENDMDL
MODEL 2
REMARK VINA RESULT:     -12.0      5.053      8.097
REMARK SMILES CCOc1cccc(C(=O)Nc2ccc(Cl)c(C(=O)OCCOC(=O)c3ccc(-c4c5nc(c(-c6cc(S(=O)(=O)[O-])ccc6F)c6ccc([nH]6)c(-c6cc(S(=O)(=O)[O-])ccc6F)c6nc(c(-c7cc(S(=O)(=O)[O-])ccc7F)c7ccc4[nH]7)C=C6)C=C5)cc3)c2)c1
REMARK SMILES IDX 21 1 20 2 18 3 19 4 17 5 12 6 13 7 89 8 14 9 15 10 16 11
REMARK SMILES IDX 11 12 9 13 10 14 8 16 4 17 5 18 90 19 6 20 7 21 3 22 2 23
REMARK SMILES IDX 1 24 22 25 23 26 24 27 25 28 26 29 27 30 88 31 28 32 87 33
REMARK SMILES IDX 29 34 30 35 31 36 81 37 32 38 86 39 80 40 82 41 33 42 85 43
REMARK SMILES IDX 79 44 78 45 34 47 66 48 46 49 65 50 47 51 50 52 64 53 83 54
REMARK SMILES IDX 48 55 49 56 63 58 84 59 51 60 35 61 36 62 44 63 37 64 43 65
REMARK SMILES IDX 45 66 42 67 38 68 39 69 40 70 41 71 67 72 68 73 76 74 69 75
REMARK SMILES IDX 75 76 77 77 74 78 70 79 71 80 72 81 73 82 52 83 53 84 61 85
REMARK SMILES IDX 54 86 60 87 62 88 59 89 55 90 56 91 57 92 58 93
REMARK H PARENT 11 15 82 46 50 57
REMARK Flexibility Score: inf
ROOT
ATOM      1  C   UNL A   1      35.876  21.060  25.479  1.00  0.00     0.275 C 
ENDROOT
BRANCH   1   2
ATOM      2  O   UNL A   1      35.140  21.637  24.380  1.00  0.00    -0.458 OA
BRANCH   2   3
ATOM      3  C   UNL A   1      34.948  22.982  24.416  1.00  0.00     0.339 C 
ATOM      4  O   UNL A   1      35.844  23.814  24.406  1.00  0.00    -0.246 OA
BRANCH   3   5
ATOM      5  C   UNL A   1      33.487  23.300  24.460  1.00  0.00     0.080 A 
ATOM      6  C   UNL A   1      31.709  24.423  25.661  1.00  0.00     0.042 A 
ATOM      7  C   UNL A   1      30.803  24.132  24.645  1.00  0.00     0.028 A 
ATOM      8  C   UNL A   1      32.979  23.849  25.649  1.00  0.00     0.043 A 
ATOM      9  C   UNL A   1      31.275  23.557  23.475  1.00  0.00     0.023 A 
ATOM     10  C   UNL A   1      32.636  23.258  23.340  1.00  0.00     0.055 A 
ATOM     11  Cl  UNL A   1      33.146  23.055  21.706  1.00  0.00    -0.083 Cl
BRANCH   6  12
ATOM     12  N   UNL A   1      31.340  25.429  26.561  1.00  0.00    -0.322 N 
ATOM     13  C   UNL A   1      31.359  26.809  26.446  1.00  0.00     0.255 C 
ATOM     14  O   UNL A   1      31.030  27.464  27.439  1.00  0.00    -0.269 OA
ATOM     15  H   UNL A   1      31.008  25.098  27.427  1.00  0.00     0.170 HD
BRANCH  13  16
ATOM     16  C   UNL A   1      31.684  27.564  25.187  1.00  0.00     0.043 A 
ATOM     17  C   UNL A   1      31.138  28.566  23.045  1.00  0.00     0.120 A 
ATOM     18  C   UNL A   1      32.485  28.734  22.753  1.00  0.00     0.046 A 
ATOM     19  C   UNL A   1      30.740  28.070  24.288  1.00  0.00     0.060 A 
ATOM     20  C   UNL A   1      33.438  28.393  23.709  1.00  0.00     0.005 A 
ATOM     21  C   UNL A   1      33.041  27.784  24.904  1.00  0.00     0.014 A 
BRANCH  17  22
ATOM     22  O   UNL A   1      30.237  28.638  22.019  1.00  0.00    -0.494 OA
BRANCH  22  23
ATOM     23  C   UNL A   1      29.528  29.874  21.927  1.00  0.00     0.226 C 
ATOM     24  C   UNL A   1      28.079  29.703  22.339  1.00  0.00     0.049 C 
ENDBRANCH  22  23
ENDBRANCH  17  22
ENDBRANCH  13  16
ENDBRANCH   6  12
ENDBRANCH   3   5
ENDBRANCH   2   3
ENDBRANCH   1   2
BRANCH   1  25
ATOM     25  C   UNL A   1      37.274  20.603  25.053  1.00  0.00     0.275 C 
BRANCH  25  26
ATOM     26  O   UNL A   1      38.247  21.644  25.261  1.00  0.00    -0.458 OA
BRANCH  26  27
ATOM     27  C   UNL A   1      39.279  21.307  26.074  1.00  0.00     0.338 C 
ATOM     28  O   UNL A   1      39.856  20.238  26.119  1.00  0.00    -0.246 OA
BRANCH  27  29
ATOM     29  C   UNL A   1      39.768  22.507  26.773  1.00  0.00     0.060 A 
ATOM     30  C   UNL A   1      39.136  23.695  26.440  1.00  0.00     0.016 A 
ATOM     31  C   UNL A   1      40.898  22.533  27.584  1.00  0.00     0.016 A 
ATOM     32  C   UNL A   1      39.609  24.918  26.885  1.00  0.00     0.010 A 
ATOM     33  C   UNL A   1      41.382  23.774  28.045  1.00  0.00     0.010 A 
ATOM     34  C   UNL A   1      40.751  24.979  27.676  1.00  0.00    -0.014 A 
BRANCH  34  35
ATOM     35  C   UNL A   1      41.358  26.322  27.882  1.00  0.00     0.031 A 
ATOM     36  C   UNL A   1      42.684  26.608  27.232  1.00  0.00     0.074 A 
ATOM     37  C   UNL A   1      40.672  27.329  28.461  1.00  0.00     0.049 A 
ATOM     38  N   UNL A   1      43.471  27.643  27.362  1.00  0.00    -0.248 NA
ATOM     39  C   UNL A   1      43.181  25.588  26.293  1.00  0.00     0.031 C 
ATOM     40  C   UNL A   1      39.295  27.245  28.954  1.00  0.00     0.029 A 
ATOM     41  N   UNL A   1      41.031  28.632  28.711  1.00  0.00    -0.354 N 
ATOM     42  C   UNL A   1      44.571  27.386  26.552  1.00  0.00     0.074 A 
ATOM     43  C   UNL A   1      44.356  26.089  25.947  1.00  0.00     0.031 C 
ATOM     44  C   UNL A   1      38.932  28.441  29.448  1.00  0.00     0.029 A 
ATOM     45  C   UNL A   1      40.071  29.352  29.386  1.00  0.00     0.049 A 
ATOM     46  H   UNL A   1      41.894  29.016  28.432  1.00  0.00     0.167 HD
ATOM     47  C   UNL A   1      45.660  28.162  26.335  1.00  0.00     0.034 A 
ATOM     48  C   UNL A   1      40.126  30.582  29.941  1.00  0.00     0.034 A 
ATOM     49  C   UNL A   1      45.843  29.461  26.934  1.00  0.00     0.049 A 
ATOM     50  C   UNL A   1      41.410  31.372  29.810  1.00  0.00     0.074 A 
ATOM     51  C   UNL A   1      46.945  30.295  26.872  1.00  0.00     0.029 A 
ATOM     52  N   UNL A   1      44.887  30.124  27.693  1.00  0.00    -0.354 N 
ATOM     53  N   UNL A   1      42.514  31.060  29.167  1.00  0.00    -0.248 NA
ATOM     54  C   UNL A   1      41.456  32.680  30.476  1.00  0.00     0.031 C 
ATOM     55  C   UNL A   1      46.678  31.434  27.636  1.00  0.00     0.029 A 
ATOM     56  C   UNL A   1      45.377  31.353  28.107  1.00  0.00     0.049 A 
ATOM     57  H   UNL A   1      43.992  29.773  27.905  1.00  0.00     0.167 HD
ATOM     58  C   UNL A   1      43.364  32.154  29.318  1.00  0.00     0.074 A 
ATOM     59  C   UNL A   1      42.637  33.138  30.092  1.00  0.00     0.031 C 
ATOM     60  C   UNL A   1      44.631  32.331  28.863  1.00  0.00     0.034 A 
BRANCH  47  61
ATOM     61  C   UNL A   1      46.760  27.583  25.482  1.00  0.00     0.023 A 
ATOM     62  C   UNL A   1      47.011  28.039  24.176  1.00  0.00     0.031 A 
ATOM     63  C   UNL A   1      47.543  26.524  25.973  1.00  0.00     0.131 A 
ATOM     64  C   UNL A   1      47.977  27.395  23.387  1.00  0.00     0.055 A 
ATOM     65  C   UNL A   1      48.556  25.940  25.211  1.00  0.00     0.041 A 
ATOM     66  F   UNL A   1      47.326  26.027  27.201  1.00  0.00    -0.206 F 
ATOM     67  C   UNL A   1      48.769  26.367  23.905  1.00  0.00     0.022 A 
BRANCH  64  68
ATOM     68  S   UNL A   1      48.092  27.828  21.628  1.00  0.00     0.124 S 
ATOM     69  O   UNL A   1      49.192  28.789  21.633  1.00  0.00    -0.237 OA
ATOM     70  O   UNL A   1      48.372  26.541  21.003  1.00  0.00    -0.237 OA
ATOM     71  O   UNL A   1      46.778  28.396  21.328  1.00  0.00    -0.744 OA
ENDBRANCH  64  68
ENDBRANCH  47  61
BRANCH  48  72
ATOM     72  C   UNL A   1      38.994  31.115  30.764  1.00  0.00     0.023 A 
ATOM     73  C   UNL A   1      37.886  31.746  30.173  1.00  0.00     0.031 A 
ATOM     74  C   UNL A   1      39.070  31.116  32.170  1.00  0.00     0.131 A 
ATOM     75  C   UNL A   1      36.948  32.416  30.977  1.00  0.00     0.055 A 
ATOM     76  C   UNL A   1      38.093  31.715  32.968  1.00  0.00     0.041 A 
ATOM     77  F   UNL A   1      40.111  30.546  32.798  1.00  0.00    -0.206 F 
ATOM     78  C   UNL A   1      37.035  32.391  32.370  1.00  0.00     0.022 A 
BRANCH  75  79
ATOM     79  S   UNL A   1      35.696  33.456  30.171  1.00  0.00     0.124 S 
ATOM     80  O   UNL A   1      36.480  34.105  29.128  1.00  0.00    -0.237 OA
ATOM     81  O   UNL A   1      34.723  32.465  29.722  1.00  0.00    -0.237 OA
ATOM     82  O   UNL A   1      35.240  34.333  31.248  1.00  0.00    -0.744 OA
ENDBRANCH  75  79
ENDBRANCH  48  72
BRANCH  60  83
ATOM     83  C   UNL A   1      45.271  33.677  29.115  1.00  0.00     0.023 A 
ATOM     84  C   UNL A   1      45.087  34.768  28.248  1.00  0.00     0.031 A 
ATOM     85  C   UNL A   1      46.107  33.855  30.232  1.00  0.00     0.131 A 
ATOM     86  C   UNL A   1      45.793  35.961  28.467  1.00  0.00     0.055 A 
ATOM     87  C   UNL A   1      46.749  35.069  30.486  1.00  0.00     0.041 A 
ATOM     88  F   UNL A   1      46.322  32.849  31.095  1.00  0.00    -0.206 F 
ATOM     89  C   UNL A   1      46.609  36.124  29.590  1.00  0.00     0.022 A 
BRANCH  86  90
ATOM     90  S   UNL A   1      45.736  37.252  27.193  1.00  0.00     0.124 S 
ATOM     91  O   UNL A   1      46.536  36.661  26.126  1.00  0.00    -0.237 OA
ATOM     92  O   UNL A   1      44.304  37.363  26.930  1.00  0.00    -0.237 OA
ATOM     93  O   UNL A   1      46.336  38.410  27.852  1.00  0.00    -0.744 OA
ENDBRANCH  86  90
ENDBRANCH  60  83
ENDBRANCH  34  35
ENDBRANCH  27  29
ENDBRANCH  26  27
ENDBRANCH  25  26
ENDBRANCH   1  25
TORSDOF 18
ENDMDL
MODEL 3
REMARK VINA RESULT:     -12.0      1.548      7.737
REMARK SMILES CCOc1cccc(C(=O)Nc2ccc(Cl)c(C(=O)OCCOC(=O)c3ccc(-c4c5nc(c(-c6cc(S(=O)(=O)[O-])ccc6F)c6ccc([nH]6)c(-c6cc(S(=O)(=O)[O-])ccc6F)c6nc(c(-c7cc(S(=O)(=O)[O-])ccc7F)c7ccc4[nH]7)C=C6)C=C5)cc3)c2)c1
REMARK SMILES IDX 21 1 20 2 18 3 19 4 17 5 12 6 13 7 89 8 14 9 15 10 16 11
REMARK SMILES IDX 11 12 9 13 10 14 8 16 4 17 5 18 90 19 6 20 7 21 3 22 2 23
REMARK SMILES IDX 1 24 22 25 23 26 24 27 25 28 26 29 27 30 88 31 28 32 87 33
REMARK SMILES IDX 29 34 30 35 31 36 81 37 32 38 86 39 80 40 82 41 33 42 85 43
REMARK SMILES IDX 79 44 78 45 34 47 66 48 46 49 65 50 47 51 50 52 64 53 83 54
REMARK SMILES IDX 48 55 49 56 63 58 84 59 51 60 35 61 36 62 44 63 37 64 43 65
REMARK SMILES IDX 45 66 42 67 38 68 39 69 40 70 41 71 67 72 68 73 76 74 69 75
REMARK SMILES IDX 75 76 77 77 74 78 70 79 71 80 72 81 73 82 52 83 53 84 61 85
REMARK SMILES IDX 54 86 60 87 62 88 59 89 55 90 56 91 57 92 58 93
REMARK H PARENT 11 15 82 46 50 57
REMARK Flexibility Score: inf
ROOT
ATOM      1  C   UNL A   1      30.874  31.398  25.742  1.00  0.00     0.275 C 
ENDROOT
BRANCH   1   2
ATOM      2  O   UNL A   1      31.401  30.108  26.116  1.00  0.00    -0.458 OA
BRANCH   2   3
ATOM      3  C   UNL A   1      32.013  29.393  25.134  1.00  0.00     0.339 C 
ATOM      4  O   UNL A   1      33.125  29.634  24.688  1.00  0.00    -0.246 OA
BRANCH   3   5
ATOM      5  C   UNL A   1      31.137  28.266  24.687  1.00  0.00     0.080 A 
ATOM      6  C   UNL A   1      30.214  26.096  25.238  1.00  0.00     0.042 A 
ATOM      7  C   UNL A   1      29.418  26.115  24.096  1.00  0.00     0.028 A 
ATOM      8  C   UNL A   1      31.193  27.071  25.423  1.00  0.00     0.043 A 
ATOM      9  C   UNL A   1      29.375  27.272  23.332  1.00  0.00     0.023 A 
ATOM     10  C   UNL A   1      30.139  28.385  23.702  1.00  0.00     0.055 A 
ATOM     11  Cl  UNL A   1      29.599  29.864  23.001  1.00  0.00    -0.083 Cl
BRANCH   6  12
ATOM     12  N   UNL A   1      29.860  25.179  26.233  1.00  0.00    -0.322 N 
ATOM     13  C   UNL A   1      30.398  23.950  26.577  1.00  0.00     0.255 C 
ATOM     14  O   UNL A   1      29.835  23.317  27.474  1.00  0.00    -0.269 OA
ATOM     15  H   UNL A   1      29.095  25.457  26.788  1.00  0.00     0.170 HD
BRANCH  13  16
ATOM     16  C   UNL A   1      31.649  23.363  25.987  1.00  0.00     0.043 A 
ATOM     17  C   UNL A   1      34.056  23.128  25.775  1.00  0.00     0.120 A 
ATOM     18  C   UNL A   1      33.905  22.396  24.604  1.00  0.00     0.046 A 
ATOM     19  C   UNL A   1      32.937  23.529  26.507  1.00  0.00     0.060 A 
ATOM     20  C   UNL A   1      32.625  22.074  24.161  1.00  0.00     0.005 A 
ATOM     21  C   UNL A   1      31.506  22.580  24.831  1.00  0.00     0.014 A 
BRANCH  17  22
ATOM     22  O   UNL A   1      35.281  23.671  26.049  1.00  0.00    -0.494 OA
BRANCH  22  23
ATOM     23  C   UNL A   1      36.389  22.801  25.813  1.00  0.00     0.226 C 
ATOM     24  C   UNL A   1      37.697  23.565  25.844  1.00  0.00     0.049 C 
ENDBRANCH  22  23
ENDBRANCH  17  22
ENDBRANCH  13  16
ENDBRANCH   6  12
ENDBRANCH   3   5
ENDBRANCH   2   3
ENDBRANCH   1   2
BRANCH   1  25
ATOM     25  C   UNL A   1      31.361  32.508  26.677  1.00  0.00     0.275 C 
BRANCH  25  26
ATOM     26  O   UNL A   1      32.583  32.131  27.339  1.00  0.00    -0.458 OA
BRANCH  26  27
ATOM     27  C   UNL A   1      33.323  33.169  27.804  1.00  0.00     0.338 C 
ATOM     28  O   UNL A   1      32.920  34.269  28.127  1.00  0.00    -0.246 OA
BRANCH  27  29
ATOM     29  C   UNL A   1      34.697  32.711  28.076  1.00  0.00     0.060 A 
ATOM     30  C   UNL A   1      34.865  31.338  28.166  1.00  0.00     0.016 A 
ATOM     31  C   UNL A   1      35.751  33.557  28.405  1.00  0.00     0.016 A 
ATOM     32  C   UNL A   1      36.059  30.780  28.592  1.00  0.00     0.010 A 
ATOM     33  C   UNL A   1      36.971  32.995  28.834  1.00  0.00     0.010 A 
ATOM     34  C   UNL A   1      37.123  31.599  28.952  1.00  0.00    -0.014 A 
BRANCH  34  35
ATOM     35  C   UNL A   1      38.263  30.953  29.657  1.00  0.00     0.031 A 
ATOM     36  C   UNL A   1      38.466  31.268  31.114  1.00  0.00     0.074 A 
ATOM     37  C   UNL A   1      38.982  29.965  29.086  1.00  0.00     0.049 A 
ATOM     38  N   UNL A   1      39.449  30.938  31.909  1.00  0.00    -0.248 NA
ATOM     39  C   UNL A   1      37.403  32.054  31.763  1.00  0.00     0.031 C 
ATOM     40  C   UNL A   1      38.758  29.418  27.745  1.00  0.00     0.029 A 
ATOM     41  N   UNL A   1      40.035  29.226  29.570  1.00  0.00    -0.354 N 
ATOM     42  C   UNL A   1      39.142  31.503  33.142  1.00  0.00     0.074 A 
ATOM     43  C   UNL A   1      37.889  32.210  32.983  1.00  0.00     0.031 C 
ATOM     44  C   UNL A   1      39.647  28.435  27.518  1.00  0.00     0.029 A 
ATOM     45  C   UNL A   1      40.557  28.338  28.655  1.00  0.00     0.049 A 
ATOM     46  H   UNL A   1      40.383  29.321  30.486  1.00  0.00     0.167 HD
ATOM     47  C   UNL A   1      39.844  31.436  34.300  1.00  0.00     0.034 A 
ATOM     48  C   UNL A   1      41.673  27.580  28.708  1.00  0.00     0.034 A 
ATOM     49  C   UNL A   1      41.080  30.708  34.439  1.00  0.00     0.049 A 
ATOM     50  C   UNL A   1      42.521  27.636  29.960  1.00  0.00     0.074 A 
ATOM     51  C   UNL A   1      41.933  30.651  35.527  1.00  0.00     0.029 A 
ATOM     52  N   UNL A   1      41.633  29.892  33.460  1.00  0.00    -0.354 N 
ATOM     53  N   UNL A   1      42.308  28.296  31.077  1.00  0.00    -0.248 NA
ATOM     54  C   UNL A   1      43.758  26.846  29.960  1.00  0.00     0.031 C 
ATOM     55  C   UNL A   1      43.026  29.847  35.188  1.00  0.00     0.029 A 
ATOM     56  C   UNL A   1      42.816  29.333  33.918  1.00  0.00     0.049 A 
ATOM     57  H   UNL A   1      41.242  29.734  32.570  1.00  0.00     0.167 HD
ATOM     58  C   UNL A   1      43.363  27.961  31.924  1.00  0.00     0.074 A 
ATOM     59  C   UNL A   1      44.196  27.027  31.196  1.00  0.00     0.031 C 
ATOM     60  C   UNL A   1      43.625  28.387  33.186  1.00  0.00     0.034 A 
BRANCH  47  61
ATOM     61  C   UNL A   1      39.326  32.238  35.467  1.00  0.00     0.023 A 
ATOM     62  C   UNL A   1      39.713  33.572  35.688  1.00  0.00     0.031 A 
ATOM     63  C   UNL A   1      38.461  31.638  36.400  1.00  0.00     0.131 A 
ATOM     64  C   UNL A   1      39.285  34.238  36.846  1.00  0.00     0.055 A 
ATOM     65  C   UNL A   1      37.977  32.333  37.508  1.00  0.00     0.041 A 
ATOM     66  F   UNL A   1      38.085  30.358  36.256  1.00  0.00    -0.206 F 
ATOM     67  C   UNL A   1      38.399  33.637  37.743  1.00  0.00     0.022 A 
BRANCH  64  68
ATOM     68  S   UNL A   1      40.010  35.855  37.237  1.00  0.00     0.124 S 
ATOM     69  O   UNL A   1      39.694  36.619  36.033  1.00  0.00    -0.237 OA
ATOM     70  O   UNL A   1      39.292  36.241  38.445  1.00  0.00    -0.237 OA
ATOM     71  O   UNL A   1      41.430  35.557  37.423  1.00  0.00    -0.744 OA
ENDBRANCH  64  68
ENDBRANCH  47  61
BRANCH  48  72
ATOM     72  C   UNL A   1      42.131  26.787  27.523  1.00  0.00     0.023 A 
ATOM     73  C   UNL A   1      41.937  25.397  27.446  1.00  0.00     0.031 A 
ATOM     74  C   UNL A   1      42.889  27.395  26.504  1.00  0.00     0.131 A 
ATOM     75  C   UNL A   1      42.559  24.657  26.426  1.00  0.00     0.055 A 
ATOM     76  C   UNL A   1      43.438  26.665  25.448  1.00  0.00     0.041 A 
ATOM     77  F   UNL A   1      43.126  28.717  26.527  1.00  0.00    -0.206 F 
ATOM     78  C   UNL A   1      43.294  25.283  25.418  1.00  0.00     0.022 A 
BRANCH  75  79
ATOM     79  S   UNL A   1      42.524  22.843  26.522  1.00  0.00     0.124 S 
ATOM     80  O   UNL A   1      43.842  22.553  27.074  1.00  0.00    -0.237 OA
ATOM     81  O   UNL A   1      41.390  22.608  27.408  1.00  0.00    -0.237 OA
ATOM     82  O   UNL A   1      42.325  22.435  25.132  1.00  0.00    -0.744 OA
ENDBRANCH  75  79
ENDBRANCH  48  72
BRANCH  60  83
ATOM     83  C   UNL A   1      44.813  27.771  33.888  1.00  0.00     0.023 A 
ATOM     84  C   UNL A   1      44.718  26.562  34.600  1.00  0.00     0.031 A 
ATOM     85  C   UNL A   1      46.056  28.428  33.868  1.00  0.00     0.131 A 
ATOM     86  C   UNL A   1      45.822  26.091  35.327  1.00  0.00     0.055 A 
ATOM     87  C   UNL A   1      47.171  27.917  34.531  1.00  0.00     0.041 A 
ATOM     88  F   UNL A   1      46.207  29.587  33.205  1.00  0.00    -0.206 F 
ATOM     89  C   UNL A   1      47.053  26.752  35.283  1.00  0.00     0.022 A 
BRANCH  86  90
ATOM     90  S   UNL A   1      45.592  24.676  36.439  1.00  0.00     0.124 S 
ATOM     91  O   UNL A   1      46.674  24.864  37.398  1.00  0.00    -0.237 OA
ATOM     92  O   UNL A   1      44.242  24.899  36.948  1.00  0.00    -0.237 OA
ATOM     93  O   UNL A   1      45.737  23.520  35.556  1.00  0.00    -0.744 OA
ENDBRANCH  86  90
ENDBRANCH  60  83
ENDBRANCH  34  35
ENDBRANCH  27  29
ENDBRANCH  26  27
ENDBRANCH  25  26
ENDBRANCH   1  25
TORSDOF 18
ENDMDL
