MODEL 1
REMARK VINA RESULT:     -10.6      0.000      0.000
REMARK SMILES COc1ccc2c(c1)c(Cc1nc(-c3ccc(C(=O)OCCOC(=O)c4ccc(-c5c6nc(c(-c7cc(S(=O)(=O)[O-])ccc7F)c7ccc([nH]7)c(-c7cc(S(=O)(=O)[O-])ccc7F)c7nc(c(-c8cc(S(=O)(=O)[O-])ccc8F)c8ccc5[nH]8)C=C7)C=C6)cc4)cc3)cs1)c(C)n2C(=O)c1ccc(Cl)cc1
REMARK SMILES IDX 21 1 20 2 18 3 19 4 17 5 14 6 15 7 90 8 16 9 89 10 13 11
REMARK SMILES IDX 11 12 12 13 92 14 91 15 10 16 9 17 3 18 4 19 8 20 5 21 7 22
REMARK SMILES IDX 6 23 95 24 93 25 94 26 2 27 1 28 96 29 97 30 98 31 99 32
REMARK SMILES IDX 104 33 100 34 103 35 101 36 102 37 22 38 23 39 24 40 25 41
REMARK SMILES IDX 26 42 27 43 88 44 28 45 87 46 29 47 30 48 31 49 81 50 32 51
REMARK SMILES IDX 86 52 80 53 82 54 33 55 85 56 79 57 78 58 34 60 66 61 46 62
REMARK SMILES IDX 65 63 47 64 50 65 64 66 83 67 48 68 49 69 63 71 84 72 51 73
REMARK SMILES IDX 35 74 36 75 44 76 37 77 43 78 45 79 42 80 38 81 39 82 40 83
REMARK SMILES IDX 41 84 67 85 68 86 76 87 69 88 75 89 77 90 74 91 70 92 71 93
REMARK SMILES IDX 72 94 73 95 52 96 53 97 61 98 54 99 60 100 62 101 59 102
REMARK SMILES IDX 55 103 56 104 57 105 58 106
REMARK H PARENT 82 59 50 70
REMARK Flexibility Score: inf
ROOT
ATOM      1  C   UNL A   1      34.908  32.727  33.039  1.00  0.00     0.275 C 
ENDROOT
BRANCH   1   2
ATOM      2  O   UNL A   1      36.245  32.217  32.845  1.00  0.00    -0.458 OA
BRANCH   2   3
ATOM      3  C   UNL A   1      37.162  32.535  33.797  1.00  0.00     0.338 C 
ATOM      4  O   UNL A   1      37.054  32.338  34.995  1.00  0.00    -0.246 OA
BRANCH   3   5
ATOM      5  C   UNL A   1      38.389  33.059  33.145  1.00  0.00     0.060 A 
ATOM      6  C   UNL A   1      40.676  33.768  31.686  1.00  0.00     0.001 A 
ATOM      7  C   UNL A   1      40.694  32.650  32.523  1.00  0.00     0.011 A 
ATOM      8  C   UNL A   1      39.549  34.595  31.667  1.00  0.00     0.011 A 
ATOM      9  C   UNL A   1      39.567  32.325  33.271  1.00  0.00     0.016 A 
ATOM     10  C   UNL A   1      38.395  34.230  32.381  1.00  0.00     0.016 A 
BRANCH   6  11
ATOM     11  C   UNL A   1      41.854  34.044  30.895  1.00  0.00     0.081 A 
ATOM     12  C   UNL A   1      42.851  34.605  29.018  1.00  0.00     0.098 A 
ATOM     13  N   UNL A   1      41.834  33.935  29.527  1.00  0.00    -0.241 NA
ATOM     14  S   UNL A   1      44.045  35.089  30.162  1.00  0.00    -0.126 S 
ATOM     15  C   UNL A   1      43.019  34.557  31.431  1.00  0.00     0.095 A 
BRANCH  12  16
ATOM     16  C   UNL A   1      43.036  34.876  27.556  1.00  0.00     0.105 C 
BRANCH  16  17
ATOM     17  C   UNL A   1      43.757  36.163  27.227  1.00  0.00    -0.012 A 
ATOM     18  C   UNL A   1      47.282  35.676  25.829  1.00  0.00     0.119 A 
ATOM     19  C   UNL A   1      47.724  36.948  26.158  1.00  0.00     0.048 A 
ATOM     20  C   UNL A   1      45.970  35.317  26.132  1.00  0.00     0.057 A 
ATOM     21  C   UNL A   1      46.831  37.923  26.640  1.00  0.00     0.031 A 
ATOM     22  C   UNL A   1      45.063  36.265  26.666  1.00  0.00     0.008 A 
ATOM     23  C   UNL A   1      45.475  37.594  26.812  1.00  0.00     0.057 A 
ATOM     24  N   UNL A   1      44.360  38.363  27.171  1.00  0.00    -0.280 N 
ATOM     25  C   UNL A   1      43.352  37.455  27.553  1.00  0.00     0.028 A 
ATOM     26  C   UNL A   1      42.060  37.842  28.196  1.00  0.00     0.065 C 
BRANCH  18  27
ATOM     27  O   UNL A   1      48.056  34.699  25.257  1.00  0.00    -0.497 OA
ATOM     28  C   UNL A   1      49.432  35.052  25.106  1.00  0.00     0.278 C 
ENDBRANCH  18  27
BRANCH  24  29
ATOM     29  C   UNL A   1      44.287  39.787  27.256  1.00  0.00     0.262 C 
ATOM     30  O   UNL A   1      44.799  40.334  28.237  1.00  0.00    -0.268 OA
BRANCH  29  31
ATOM     31  C   UNL A   1      43.677  40.726  26.292  1.00  0.00     0.040 A 
ATOM     32  C   UNL A   1      44.492  41.558  25.517  1.00  0.00     0.015 A 
ATOM     33  C   UNL A   1      42.319  40.605  25.975  1.00  0.00     0.015 A 
ATOM     34  C   UNL A   1      43.933  42.337  24.491  1.00  0.00     0.021 A 
ATOM     35  C   UNL A   1      41.763  41.382  24.952  1.00  0.00     0.021 A 
ATOM     36  C   UNL A   1      42.569  42.257  24.223  1.00  0.00     0.041 A 
ATOM     37  Cl  UNL A   1      41.874  43.224  22.978  1.00  0.00    -0.084 Cl
ENDBRANCH  29  31
ENDBRANCH  24  29
ENDBRANCH  16  17
ENDBRANCH  12  16
ENDBRANCH   6  11
ENDBRANCH   3   5
ENDBRANCH   2   3
ENDBRANCH   1   2
BRANCH   1  38
ATOM     38  C   UNL A   1      34.463  33.515  31.799  1.00  0.00     0.275 C 
BRANCH  38  39
ATOM     39  O   UNL A   1      34.661  32.693  30.641  1.00  0.00    -0.458 OA
BRANCH  39  40
ATOM     40  C   UNL A   1      35.406  33.255  29.652  1.00  0.00     0.338 C 
ATOM     41  O   UNL A   1      35.416  34.412  29.323  1.00  0.00    -0.246 OA
BRANCH  40  42
ATOM     42  C   UNL A   1      36.439  32.248  29.298  1.00  0.00     0.060 A 
ATOM     43  C   UNL A   1      36.160  30.875  29.274  1.00  0.00     0.016 A 
ATOM     44  C   UNL A   1      37.752  32.704  29.216  1.00  0.00     0.016 A 
ATOM     45  C   UNL A   1      37.206  29.957  29.323  1.00  0.00     0.010 A 
ATOM     46  C   UNL A   1      38.788  31.780  29.244  1.00  0.00     0.010 A 
ATOM     47  C   UNL A   1      38.526  30.410  29.381  1.00  0.00    -0.014 A 
BRANCH  47  48
ATOM     48  C   UNL A   1      39.621  29.433  29.393  1.00  0.00     0.031 A 
ATOM     49  C   UNL A   1      40.043  29.032  30.750  1.00  0.00     0.074 A 
ATOM     50  C   UNL A   1      40.247  28.853  28.346  1.00  0.00     0.049 A 
ATOM     51  N   UNL A   1      41.022  29.534  31.427  1.00  0.00    -0.248 NA
ATOM     52  C   UNL A   1      39.192  28.104  31.499  1.00  0.00     0.031 C 
ATOM     53  C   UNL A   1      39.869  28.834  26.936  1.00  0.00     0.029 A 
ATOM     54  N   UNL A   1      41.374  28.072  28.373  1.00  0.00    -0.354 N 
ATOM     55  C   UNL A   1      41.021  28.856  32.639  1.00  0.00     0.074 A 
ATOM     56  C   UNL A   1      39.741  28.196  32.709  1.00  0.00     0.031 C 
ATOM     57  C   UNL A   1      40.642  27.938  26.274  1.00  0.00     0.029 A 
ATOM     58  C   UNL A   1      41.676  27.442  27.173  1.00  0.00     0.049 A 
ATOM     59  H   UNL A   1      41.927  27.966  29.181  1.00  0.00     0.167 HD
ATOM     60  C   UNL A   1      42.157  28.703  33.381  1.00  0.00     0.034 A 
ATOM     61  C   UNL A   1      42.688  26.567  26.924  1.00  0.00     0.034 A 
ATOM     62  C   UNL A   1      43.237  29.501  32.847  1.00  0.00     0.049 A 
ATOM     63  C   UNL A   1      43.668  26.585  28.021  1.00  0.00     0.074 A 
ATOM     64  C   UNL A   1      43.428  30.847  32.596  1.00  0.00     0.029 A 
ATOM     65  N   UNL A   1      44.220  28.846  32.144  1.00  0.00    -0.354 N 
ATOM     66  N   UNL A   1      44.650  27.429  28.076  1.00  0.00    -0.248 NA
ATOM     67  C   UNL A   1      43.380  25.872  29.259  1.00  0.00     0.031 C 
ATOM     68  C   UNL A   1      44.239  30.909  31.427  1.00  0.00     0.029 A 
ATOM     69  C   UNL A   1      44.531  29.602  31.045  1.00  0.00     0.049 A 
ATOM     70  H   UNL A   1      44.628  27.985  32.387  1.00  0.00     0.167 HD
ATOM     71  C   UNL A   1      44.707  27.754  29.413  1.00  0.00     0.074 A 
ATOM     72  C   UNL A   1      44.072  26.638  30.108  1.00  0.00     0.031 C 
ATOM     73  C   UNL A   1      44.949  29.044  29.781  1.00  0.00     0.034 A 
BRANCH  60  74
ATOM     74  C   UNL A   1      42.386  27.585  34.377  1.00  0.00     0.023 A 
ATOM     75  C   UNL A   1      43.091  26.405  34.077  1.00  0.00     0.031 A 
ATOM     76  C   UNL A   1      42.043  27.749  35.734  1.00  0.00     0.131 A 
ATOM     77  C   UNL A   1      43.412  25.455  35.054  1.00  0.00     0.055 A 
ATOM     78  C   UNL A   1      42.428  26.838  36.728  1.00  0.00     0.041 A 
ATOM     79  F   UNL A   1      41.368  28.831  36.152  1.00  0.00    -0.206 F 
ATOM     80  C   UNL A   1      43.115  25.680  36.391  1.00  0.00     0.022 A 
BRANCH  77  81
ATOM     81  S   UNL A   1      44.229  23.905  34.576  1.00  0.00     0.124 S 
ATOM     82  O   UNL A   1      45.148  23.693  35.687  1.00  0.00    -0.237 OA
ATOM     83  O   UNL A   1      43.096  22.984  34.505  1.00  0.00    -0.237 OA
ATOM     84  O   UNL A   1      44.846  24.223  33.291  1.00  0.00    -0.744 OA
ENDBRANCH  77  81
ENDBRANCH  60  74
BRANCH  61  85
ATOM     85  C   UNL A   1      42.779  25.481  25.931  1.00  0.00     0.023 A 
ATOM     86  C   UNL A   1      41.876  24.454  26.140  1.00  0.00     0.031 A 
ATOM     87  C   UNL A   1      43.973  25.183  25.243  1.00  0.00     0.131 A 
ATOM     88  C   UNL A   1      42.308  23.149  25.945  1.00  0.00     0.055 A 
ATOM     89  C   UNL A   1      44.315  23.871  24.889  1.00  0.00     0.041 A 
ATOM     90  F   UNL A   1      44.894  26.134  25.029  1.00  0.00    -0.206 F 
ATOM     91  C   UNL A   1      43.496  22.828  25.294  1.00  0.00     0.022 A 
BRANCH  88  92
ATOM     92  S   UNL A   1      41.498  21.934  26.972  1.00  0.00     0.124 S 
ATOM     93  O   UNL A   1      40.504  21.377  26.061  1.00  0.00    -0.237 OA
ATOM     94  O   UNL A   1      42.632  21.085  27.319  1.00  0.00    -0.237 OA
ATOM     95  O   UNL A   1      40.993  22.751  28.064  1.00  0.00    -0.744 OA
ENDBRANCH  88  92
ENDBRANCH  61  85
BRANCH  73  96
ATOM     96  C   UNL A   1      45.394  30.011  28.704  1.00  0.00     0.023 A 
ATOM     97  C   UNL A   1      46.753  30.350  28.646  1.00  0.00     0.031 A 
ATOM     98  C   UNL A   1      44.514  30.721  27.856  1.00  0.00     0.131 A 
ATOM     99  C   UNL A   1      47.189  31.364  27.783  1.00  0.00     0.055 A 
ATOM    100  C   UNL A   1      44.964  31.671  26.938  1.00  0.00     0.041 A 
ATOM    101  F   UNL A   1      43.186  30.576  27.942  1.00  0.00    -0.206 F 
ATOM    102  C   UNL A   1      46.308  32.008  26.909  1.00  0.00     0.022 A 
BRANCH  99 103
ATOM    103  S   UNL A   1      48.887  31.978  27.881  1.00  0.00     0.124 S 
ATOM    104  O   UNL A   1      49.467  31.125  28.914  1.00  0.00    -0.237 OA
ATOM    105  O   UNL A   1      49.380  31.742  26.525  1.00  0.00    -0.237 OA
ATOM    106  O   UNL A   1      48.735  33.385  28.243  1.00  0.00    -0.744 OA
ENDBRANCH  99 103
ENDBRANCH  73  96
ENDBRANCH  47  48
ENDBRANCH  40  42
ENDBRANCH  39  40
ENDBRANCH  38  39
ENDBRANCH   1  38
TORSDOF 20
ENDMDL
MODEL 2
REMARK VINA RESULT:     -10.3      5.683     10.557
REMARK SMILES COc1ccc2c(c1)c(Cc1nc(-c3ccc(C(=O)OCCOC(=O)c4ccc(-c5c6nc(c(-c7cc(S(=O)(=O)[O-])ccc7F)c7ccc([nH]7)c(-c7cc(S(=O)(=O)[O-])ccc7F)c7nc(c(-c8cc(S(=O)(=O)[O-])ccc8F)c8ccc5[nH]8)C=C7)C=C6)cc4)cc3)cs1)c(C)n2C(=O)c1ccc(Cl)cc1
REMARK SMILES IDX 21 1 20 2 18 3 19 4 17 5 14 6 15 7 90 8 16 9 89 10 13 11
REMARK SMILES IDX 11 12 12 13 92 14 91 15 10 16 9 17 3 18 4 19 8 20 5 21 7 22
REMARK SMILES IDX 6 23 95 24 93 25 94 26 2 27 1 28 96 29 97 30 98 31 99 32
REMARK SMILES IDX 104 33 100 34 103 35 101 36 102 37 22 38 23 39 24 40 25 41
REMARK SMILES IDX 26 42 27 43 88 44 28 45 87 46 29 47 30 48 31 49 81 50 32 51
REMARK SMILES IDX 86 52 80 53 82 54 33 55 85 56 79 57 78 58 34 60 66 61 46 62
REMARK SMILES IDX 65 63 47 64 50 65 64 66 83 67 48 68 49 69 63 71 84 72 51 73
REMARK SMILES IDX 35 74 36 75 44 76 37 77 43 78 45 79 42 80 38 81 39 82 40 83
REMARK SMILES IDX 41 84 67 85 68 86 76 87 69 88 75 89 77 90 74 91 70 92 71 93
REMARK SMILES IDX 72 94 73 95 52 96 53 97 61 98 54 99 60 100 62 101 59 102
REMARK SMILES IDX 55 103 56 104 57 105 58 106
REMARK H PARENT 82 59 50 70
REMARK Flexibility Score: inf
ROOT
ATOM      1  C   UNL A   1      34.019  34.523  30.195  1.00  0.00     0.275 C 
ENDROOT
BRANCH   1   2
ATOM      2  O   UNL A   1      33.167  33.807  29.275  1.00  0.00    -0.458 OA
BRANCH   2   3
ATOM      3  C   UNL A   1      33.622  33.674  28.001  1.00  0.00     0.338 C 
ATOM      4  O   UNL A   1      34.454  34.378  27.456  1.00  0.00    -0.246 OA
BRANCH   3   5
ATOM      5  C   UNL A   1      33.037  32.451  27.394  1.00  0.00     0.060 A 
ATOM      6  C   UNL A   1      31.965  30.314  25.930  1.00  0.00     0.001 A 
ATOM      7  C   UNL A   1      31.229  31.488  26.101  1.00  0.00     0.011 A 
ATOM      8  C   UNL A   1      33.189  30.168  26.588  1.00  0.00     0.011 A 
ATOM      9  C   UNL A   1      31.753  32.531  26.858  1.00  0.00     0.016 A 
ATOM     10  C   UNL A   1      33.738  31.244  27.304  1.00  0.00     0.016 A 
BRANCH   6  11
ATOM     11  C   UNL A   1      31.400  29.273  25.100  1.00  0.00     0.081 A 
ATOM     12  C   UNL A   1      30.632  27.238  24.783  1.00  0.00     0.098 A 
ATOM     13  N   UNL A   1      31.538  27.948  25.428  1.00  0.00    -0.241 NA
ATOM     14  S   UNL A   1      29.824  28.078  23.514  1.00  0.00    -0.126 S 
ATOM     15  C   UNL A   1      30.585  29.532  24.015  1.00  0.00     0.095 A 
BRANCH  12  16
ATOM     16  C   UNL A   1      30.350  25.789  25.044  1.00  0.00     0.105 C 
BRANCH  16  17
ATOM     17  C   UNL A   1      31.502  24.850  24.769  1.00  0.00    -0.012 A 
ATOM     18  C   UNL A   1      32.888  25.063  21.213  1.00  0.00     0.119 A 
ATOM     19  C   UNL A   1      33.471  23.805  21.229  1.00  0.00     0.048 A 
ATOM     20  C   UNL A   1      32.216  25.512  22.348  1.00  0.00     0.057 A 
ATOM     21  C   UNL A   1      33.532  23.051  22.417  1.00  0.00     0.031 A 
ATOM     22  C   UNL A   1      32.219  24.750  23.542  1.00  0.00     0.008 A 
ATOM     23  C   UNL A   1      32.974  23.573  23.597  1.00  0.00     0.057 A 
ATOM     24  N   UNL A   1      32.970  23.110  24.919  1.00  0.00    -0.280 N 
ATOM     25  C   UNL A   1      31.957  23.823  25.592  1.00  0.00     0.028 A 
ATOM     26  C   UNL A   1      31.473  23.512  26.971  1.00  0.00     0.065 C 
BRANCH  18  27
ATOM     27  O   UNL A   1      32.876  25.907  20.132  1.00  0.00    -0.497 OA
ATOM     28  C   UNL A   1      32.152  25.411  19.006  1.00  0.00     0.278 C 
ENDBRANCH  18  27
BRANCH  24  29
ATOM     29  C   UNL A   1      33.748  22.041  25.460  1.00  0.00     0.262 C 
ATOM     30  O   UNL A   1      34.559  22.310  26.351  1.00  0.00    -0.268 OA
BRANCH  29  31
ATOM     31  C   UNL A   1      33.701  20.608  25.101  1.00  0.00     0.040 A 
ATOM     32  C   UNL A   1      32.539  20.066  24.544  1.00  0.00     0.015 A 
ATOM     33  C   UNL A   1      34.886  19.863  25.081  1.00  0.00     0.015 A 
ATOM     34  C   UNL A   1      32.537  18.750  24.056  1.00  0.00     0.021 A 
ATOM     35  C   UNL A   1      34.883  18.550  24.595  1.00  0.00     0.021 A 
ATOM     36  C   UNL A   1      33.704  17.992  24.097  1.00  0.00     0.041 A 
ATOM     37  Cl  UNL A   1      33.705  16.370  23.518  1.00  0.00    -0.084 Cl
ENDBRANCH  29  31
ENDBRANCH  24  29
ENDBRANCH  16  17
ENDBRANCH  12  16
ENDBRANCH   6  11
ENDBRANCH   3   5
ENDBRANCH   2   3
ENDBRANCH   1   2
BRANCH   1  38
ATOM     38  C   UNL A   1      35.388  33.835  30.284  1.00  0.00     0.275 C 
BRANCH  38  39
ATOM     39  O   UNL A   1      35.868  33.946  31.631  1.00  0.00    -0.458 OA
BRANCH  39  40
ATOM     40  C   UNL A   1      35.899  32.782  32.332  1.00  0.00     0.338 C 
ATOM     41  O   UNL A   1      35.113  32.421  33.168  1.00  0.00    -0.246 OA
BRANCH  40  42
ATOM     42  C   UNL A   1      36.875  31.909  31.632  1.00  0.00     0.060 A 
ATOM     43  C   UNL A   1      36.603  30.563  31.357  1.00  0.00     0.016 A 
ATOM     44  C   UNL A   1      38.160  32.420  31.466  1.00  0.00     0.016 A 
ATOM     45  C   UNL A   1      37.651  29.693  31.064  1.00  0.00     0.010 A 
ATOM     46  C   UNL A   1      39.195  31.549  31.152  1.00  0.00     0.010 A 
ATOM     47  C   UNL A   1      38.964  30.172  31.031  1.00  0.00    -0.014 A 
BRANCH  47  48
ATOM     48  C   UNL A   1      40.054  29.254  30.682  1.00  0.00     0.031 A 
ATOM     49  C   UNL A   1      40.861  28.824  31.842  1.00  0.00     0.074 A 
ATOM     50  C   UNL A   1      40.379  28.748  29.473  1.00  0.00     0.049 A 
ATOM     51  N   UNL A   1      41.971  29.351  32.240  1.00  0.00    -0.248 NA
ATOM     52  C   UNL A   1      40.296  27.825  32.752  1.00  0.00     0.031 C 
ATOM     53  C   UNL A   1      39.615  28.763  28.228  1.00  0.00     0.029 A 
ATOM     54  N   UNL A   1      41.497  28.027  29.140  1.00  0.00    -0.354 N 
ATOM     55  C   UNL A   1      42.343  28.628  33.365  1.00  0.00     0.074 A 
ATOM     56  C   UNL A   1      41.163  27.899  33.761  1.00  0.00     0.031 C 
ATOM     57  C   UNL A   1      40.203  27.935  27.329  1.00  0.00     0.029 A 
ATOM     58  C   UNL A   1      41.469  27.461  27.872  1.00  0.00     0.049 A 
ATOM     59  H   UNL A   1      42.260  27.920  29.752  1.00  0.00     0.167 HD
ATOM     60  C   UNL A   1      43.648  28.506  33.747  1.00  0.00     0.034 A 
ATOM     61  C   UNL A   1      42.402  26.650  27.302  1.00  0.00     0.034 A 
ATOM     62  C   UNL A   1      44.498  29.380  32.972  1.00  0.00     0.049 A 
ATOM     63  C   UNL A   1      43.652  26.678  28.077  1.00  0.00     0.074 A 
ATOM     64  C   UNL A   1      44.557  30.744  32.747  1.00  0.00     0.029 A 
ATOM     65  N   UNL A   1      45.265  28.806  31.986  1.00  0.00    -0.354 N 
ATOM     66  N   UNL A   1      44.574  27.570  27.895  1.00  0.00    -0.248 NA
ATOM     67  C   UNL A   1      43.758  25.904  29.307  1.00  0.00     0.031 C 
ATOM     68  C   UNL A   1      44.998  30.892  31.401  1.00  0.00     0.029 A 
ATOM     69  C   UNL A   1      45.220  29.619  30.884  1.00  0.00     0.049 A 
ATOM     70  H   UNL A   1      45.760  27.958  32.059  1.00  0.00     0.167 HD
ATOM     71  C   UNL A   1      44.998  27.847  29.177  1.00  0.00     0.074 A 
ATOM     72  C   UNL A   1      44.632  26.672  29.964  1.00  0.00     0.031 C 
ATOM     73  C   UNL A   1      45.283  29.132  29.527  1.00  0.00     0.034 A 
BRANCH  60  74
ATOM     74  C   UNL A   1      44.196  27.365  34.578  1.00  0.00     0.023 A 
ATOM     75  C   UNL A   1      43.932  26.009  34.312  1.00  0.00     0.031 A 
ATOM     76  C   UNL A   1      45.158  27.602  35.581  1.00  0.00     0.131 A 
ATOM     77  C   UNL A   1      44.565  24.972  35.007  1.00  0.00     0.055 A 
ATOM     78  C   UNL A   1      45.850  26.568  36.226  1.00  0.00     0.041 A 
ATOM     79  F   UNL A   1      45.500  28.852  35.932  1.00  0.00    -0.206 F 
ATOM     80  C   UNL A   1      45.554  25.242  35.943  1.00  0.00     0.022 A 
BRANCH  77  81
ATOM     81  S   UNL A   1      44.096  23.247  34.686  1.00  0.00     0.124 S 
ATOM     82  O   UNL A   1      44.701  22.553  35.816  1.00  0.00    -0.237 OA
ATOM     83  O   UNL A   1      42.637  23.331  34.699  1.00  0.00    -0.237 OA
ATOM     84  O   UNL A   1      44.685  22.968  33.378  1.00  0.00    -0.744 OA
ENDBRANCH  77  81
ENDBRANCH  60  74
BRANCH  61  85
ATOM     85  C   UNL A   1      42.249  25.609  26.270  1.00  0.00     0.023 A 
ATOM     86  C   UNL A   1      41.386  24.588  26.626  1.00  0.00     0.031 A 
ATOM     87  C   UNL A   1      43.260  25.324  25.328  1.00  0.00     0.131 A 
ATOM     88  C   UNL A   1      41.732  23.287  26.289  1.00  0.00     0.055 A 
ATOM     89  C   UNL A   1      43.483  24.024  24.855  1.00  0.00     0.041 A 
ATOM     90  F   UNL A   1      44.136  26.268  24.959  1.00  0.00    -0.206 F 
ATOM     91  C   UNL A   1      42.745  22.977  25.384  1.00  0.00     0.022 A 
BRANCH  88  92
ATOM     92  S   UNL A   1      41.132  22.039  27.415  1.00  0.00     0.124 S 
ATOM     93  O   UNL A   1      42.370  21.413  27.867  1.00  0.00    -0.237 OA
ATOM     94  O   UNL A   1      40.419  22.873  28.376  1.00  0.00    -0.237 OA
ATOM     95  O   UNL A   1      40.278  21.240  26.552  1.00  0.00    -0.744 OA
ENDBRANCH  88  92
ENDBRANCH  61  85
BRANCH  73  96
ATOM     96  C   UNL A   1      45.364  30.162  28.420  1.00  0.00     0.023 A 
ATOM     97  C   UNL A   1      46.631  30.645  28.062  1.00  0.00     0.031 A 
ATOM     98  C   UNL A   1      44.243  30.790  27.832  1.00  0.00     0.131 A 
ATOM     99  C   UNL A   1      46.748  31.715  27.167  1.00  0.00     0.055 A 
ATOM    100  C   UNL A   1      44.368  31.801  26.877  1.00  0.00     0.041 A 
ATOM    101  F   UNL A   1      42.994  30.504  28.217  1.00  0.00    -0.206 F 
ATOM    102  C   UNL A   1      45.627  32.279  26.551  1.00  0.00     0.022 A 
BRANCH  99 103
ATOM    103  S   UNL A   1      48.353  32.505  26.895  1.00  0.00     0.124 S 
ATOM    104  O   UNL A   1      48.082  33.370  25.750  1.00  0.00    -0.237 OA
ATOM    105  O   UNL A   1      48.575  33.197  28.163  1.00  0.00    -0.237 OA
ATOM    106  O   UNL A   1      49.258  31.389  26.637  1.00  0.00    -0.744 OA
ENDBRANCH  99 103
ENDBRANCH  73  96
ENDBRANCH  47  48
ENDBRANCH  40  42
ENDBRANCH  39  40
ENDBRANCH  38  39
ENDBRANCH   1  38
TORSDOF 20
ENDMDL
MODEL 3
REMARK VINA RESULT:     -10.1      4.521     12.913
REMARK SMILES COc1ccc2c(c1)c(Cc1nc(-c3ccc(C(=O)OCCOC(=O)c4ccc(-c5c6nc(c(-c7cc(S(=O)(=O)[O-])ccc7F)c7ccc([nH]7)c(-c7cc(S(=O)(=O)[O-])ccc7F)c7nc(c(-c8cc(S(=O)(=O)[O-])ccc8F)c8ccc5[nH]8)C=C7)C=C6)cc4)cc3)cs1)c(C)n2C(=O)c1ccc(Cl)cc1
REMARK SMILES IDX 21 1 20 2 18 3 19 4 17 5 14 6 15 7 90 8 16 9 89 10 13 11
REMARK SMILES IDX 11 12 12 13 92 14 91 15 10 16 9 17 3 18 4 19 8 20 5 21 7 22
REMARK SMILES IDX 6 23 95 24 93 25 94 26 2 27 1 28 96 29 97 30 98 31 99 32
REMARK SMILES IDX 104 33 100 34 103 35 101 36 102 37 22 38 23 39 24 40 25 41
REMARK SMILES IDX 26 42 27 43 88 44 28 45 87 46 29 47 30 48 31 49 81 50 32 51
REMARK SMILES IDX 86 52 80 53 82 54 33 55 85 56 79 57 78 58 34 60 66 61 46 62
REMARK SMILES IDX 65 63 47 64 50 65 64 66 83 67 48 68 49 69 63 71 84 72 51 73
REMARK SMILES IDX 35 74 36 75 44 76 37 77 43 78 45 79 42 80 38 81 39 82 40 83
REMARK SMILES IDX 41 84 67 85 68 86 76 87 69 88 75 89 77 90 74 91 70 92 71 93
REMARK SMILES IDX 72 94 73 95 52 96 53 97 61 98 54 99 60 100 62 101 59 102
REMARK SMILES IDX 55 103 56 104 57 105 58 106
REMARK H PARENT 82 59 50 70
REMARK Flexibility Score: inf
ROOT
ATOM      1  C   UNL A   1      44.731  23.482  24.480  1.00  0.00     0.275 C 
ENDROOT
BRANCH   1   2
ATOM      2  O   UNL A   1      45.691  23.817  25.506  1.00  0.00    -0.458 OA
BRANCH   2   3
ATOM      3  C   UNL A   1      46.091  25.114  25.566  1.00  0.00     0.338 C 
ATOM      4  O   UNL A   1      46.277  25.855  24.616  1.00  0.00    -0.246 OA
BRANCH   3   5
ATOM      5  C   UNL A   1      46.157  25.545  26.986  1.00  0.00     0.060 A 
ATOM      6  C   UNL A   1      45.934  26.254  29.689  1.00  0.00     0.001 A 
ATOM      7  C   UNL A   1      45.288  27.010  28.709  1.00  0.00     0.011 A 
ATOM      8  C   UNL A   1      46.784  25.212  29.306  1.00  0.00     0.011 A 
ATOM      9  C   UNL A   1      45.432  26.673  27.366  1.00  0.00     0.016 A 
ATOM     10  C   UNL A   1      46.880  24.842  27.955  1.00  0.00     0.016 A 
BRANCH   6  11
ATOM     11  C   UNL A   1      45.723  26.614  31.074  1.00  0.00     0.081 A 
ATOM     12  C   UNL A   1      44.720  26.376  33.015  1.00  0.00     0.098 A 
ATOM     13  N   UNL A   1      44.539  26.333  31.709  1.00  0.00    -0.241 NA
ATOM     14  S   UNL A   1      46.208  27.086  33.517  1.00  0.00    -0.126 S 
ATOM     15  C   UNL A   1      46.719  27.130  31.879  1.00  0.00     0.095 A 
BRANCH  12  16
ATOM     16  C   UNL A   1      43.706  25.929  34.024  1.00  0.00     0.105 C 
BRANCH  16  17
ATOM     17  C   UNL A   1      44.160  24.821  34.946  1.00  0.00    -0.012 A 
ATOM     18  C   UNL A   1      44.530  25.871  38.602  1.00  0.00     0.119 A 
ATOM     19  C   UNL A   1      45.392  24.840  38.943  1.00  0.00     0.048 A 
ATOM     20  C   UNL A   1      44.052  25.949  37.296  1.00  0.00     0.057 A 
ATOM     21  C   UNL A   1      45.659  23.791  38.041  1.00  0.00     0.031 A 
ATOM     22  C   UNL A   1      44.346  24.933  36.354  1.00  0.00     0.008 A 
ATOM     23  C   UNL A   1      45.060  23.804  36.770  1.00  0.00     0.057 A 
ATOM     24  N   UNL A   1      45.057  22.872  35.724  1.00  0.00    -0.280 N 
ATOM     25  C   UNL A   1      44.623  23.561  34.573  1.00  0.00     0.028 A 
ATOM     26  C   UNL A   1      44.658  23.004  33.186  1.00  0.00     0.065 C 
BRANCH  18  27
ATOM     27  O   UNL A   1      44.133  26.873  39.450  1.00  0.00    -0.497 OA
ATOM     28  C   UNL A   1      45.004  27.084  40.562  1.00  0.00     0.278 C 
ENDBRANCH  18  27
BRANCH  24  29
ATOM     29  C   UNL A   1      45.518  21.521  35.772  1.00  0.00     0.262 C 
ATOM     30  O   UNL A   1      45.037  20.718  34.967  1.00  0.00    -0.268 OA
BRANCH  29  31
ATOM     31  C   UNL A   1      46.538  20.938  36.670  1.00  0.00     0.040 A 
ATOM     32  C   UNL A   1      46.183  19.922  37.562  1.00  0.00     0.015 A 
ATOM     33  C   UNL A   1      47.891  21.221  36.451  1.00  0.00     0.015 A 
ATOM     34  C   UNL A   1      47.172  19.257  38.304  1.00  0.00     0.021 A 
ATOM     35  C   UNL A   1      48.876  20.557  37.192  1.00  0.00     0.021 A 
ATOM     36  C   UNL A   1      48.513  19.587  38.127  1.00  0.00     0.041 A 
ATOM     37  Cl  UNL A   1      49.730  18.788  39.047  1.00  0.00    -0.084 Cl
ENDBRANCH  29  31
ENDBRANCH  24  29
ENDBRANCH  16  17
ENDBRANCH  12  16
ENDBRANCH   6  11
ENDBRANCH   3   5
ENDBRANCH   2   3
ENDBRANCH   1   2
BRANCH   1  38
ATOM     38  C   UNL A   1      43.341  23.299  25.103  1.00  0.00     0.275 C 
BRANCH  38  39
ATOM     39  O   UNL A   1      43.502  22.860  26.459  1.00  0.00    -0.458 OA
BRANCH  39  40
ATOM     40  C   UNL A   1      42.362  22.443  27.071  1.00  0.00     0.338 C 
ATOM     41  O   UNL A   1      42.021  21.306  27.268  1.00  0.00    -0.246 OA
BRANCH  40  42
ATOM     42  C   UNL A   1      41.799  23.641  27.744  1.00  0.00     0.060 A 
ATOM     43  C   UNL A   1      40.628  24.265  27.291  1.00  0.00     0.016 A 
ATOM     44  C   UNL A   1      42.604  24.257  28.698  1.00  0.00     0.016 A 
ATOM     45  C   UNL A   1      40.348  25.572  27.682  1.00  0.00     0.010 A 
ATOM     46  C   UNL A   1      42.304  25.553  29.098  1.00  0.00     0.010 A 
ATOM     47  C   UNL A   1      41.226  26.247  28.533  1.00  0.00    -0.014 A 
BRANCH  47  48
ATOM     48  C   UNL A   1      40.899  27.610  28.968  1.00  0.00     0.031 A 
ATOM     49  C   UNL A   1      41.775  28.646  28.383  1.00  0.00     0.074 A 
ATOM     50  C   UNL A   1      39.908  28.020  29.789  1.00  0.00     0.049 A 
ATOM     51  N   UNL A   1      42.828  29.156  28.928  1.00  0.00    -0.248 NA
ATOM     52  C   UNL A   1      41.561  29.029  26.985  1.00  0.00     0.031 C 
ATOM     53  C   UNL A   1      38.746  27.283  30.276  1.00  0.00     0.029 A 
ATOM     54  N   UNL A   1      39.720  29.273  30.314  1.00  0.00    -0.354 N 
ATOM     55  C   UNL A   1      43.321  30.067  28.003  1.00  0.00     0.074 A 
ATOM     56  C   UNL A   1      42.659  29.750  26.762  1.00  0.00     0.031 C 
ATOM     57  C   UNL A   1      37.885  28.143  30.874  1.00  0.00     0.029 A 
ATOM     58  C   UNL A   1      38.505  29.458  30.960  1.00  0.00     0.049 A 
ATOM     59  H   UNL A   1      40.396  29.985  30.240  1.00  0.00     0.167 HD
ATOM     60  C   UNL A   1      44.058  31.151  28.381  1.00  0.00     0.034 A 
ATOM     61  C   UNL A   1      38.024  30.603  31.516  1.00  0.00     0.034 A 
ATOM     62  C   UNL A   1      44.409  31.079  29.781  1.00  0.00     0.049 A 
ATOM     63  C   UNL A   1      39.096  31.603  31.648  1.00  0.00     0.074 A 
ATOM     64  C   UNL A   1      45.094  30.176  30.574  1.00  0.00     0.029 A 
ATOM     65  N   UNL A   1      43.716  31.888  30.650  1.00  0.00    -0.354 N 
ATOM     66  N   UNL A   1      39.893  31.651  32.669  1.00  0.00    -0.248 NA
ATOM     67  C   UNL A   1      39.519  32.367  30.482  1.00  0.00     0.031 C 
ATOM     68  C   UNL A   1      44.449  30.213  31.843  1.00  0.00     0.029 A 
ATOM     69  C   UNL A   1      43.430  31.159  31.774  1.00  0.00     0.049 A 
ATOM     70  H   UNL A   1      43.468  32.827  30.492  1.00  0.00     0.167 HD
ATOM     71  C   UNL A   1      41.112  31.951  32.099  1.00  0.00     0.074 A 
ATOM     72  C   UNL A   1      40.794  32.579  30.820  1.00  0.00     0.031 C 
ATOM     73  C   UNL A   1      42.239  31.344  32.567  1.00  0.00     0.034 A 
BRANCH  60  74
ATOM     74  C   UNL A   1      44.175  32.430  27.578  1.00  0.00     0.023 A 
ATOM     75  C   UNL A   1      43.600  33.653  27.970  1.00  0.00     0.031 A 
ATOM     76  C   UNL A   1      45.029  32.502  26.459  1.00  0.00     0.131 A 
ATOM     77  C   UNL A   1      43.843  34.850  27.285  1.00  0.00     0.055 A 
ATOM     78  C   UNL A   1      45.336  33.709  25.816  1.00  0.00     0.041 A 
ATOM     79  F   UNL A   1      45.640  31.406  25.983  1.00  0.00    -0.206 F 
ATOM     80  C   UNL A   1      44.740  34.894  26.227  1.00  0.00     0.022 A 
BRANCH  77  81
ATOM     81  S   UNL A   1      42.981  36.369  27.782  1.00  0.00     0.124 S 
ATOM     82  O   UNL A   1      41.684  35.856  28.205  1.00  0.00    -0.237 OA
ATOM     83  O   UNL A   1      43.848  36.865  28.849  1.00  0.00    -0.237 OA
ATOM     84  O   UNL A   1      42.979  37.177  26.565  1.00  0.00    -0.744 OA
ENDBRANCH  77  81
ENDBRANCH  60  74
BRANCH  61  85
ATOM     85  C   UNL A   1      36.634  31.049  31.717  1.00  0.00     0.023 A 
ATOM     86  C   UNL A   1      35.944  31.279  30.540  1.00  0.00     0.031 A 
ATOM     87  C   UNL A   1      36.221  31.743  32.873  1.00  0.00     0.131 A 
ATOM     88  C   UNL A   1      35.100  32.380  30.476  1.00  0.00     0.055 A 
ATOM     89  C   UNL A   1      35.232  32.735  32.825  1.00  0.00     0.041 A 
ATOM     90  F   UNL A   1      36.864  31.575  34.037  1.00  0.00    -0.206 F 
ATOM     91  C   UNL A   1      34.700  33.100  31.599  1.00  0.00     0.022 A 
BRANCH  88  92
ATOM     92  S   UNL A   1      34.933  33.098  28.851  1.00  0.00     0.124 S 
ATOM     93  O   UNL A   1      33.964  34.164  29.085  1.00  0.00    -0.237 OA
ATOM     94  O   UNL A   1      36.312  33.498  28.596  1.00  0.00    -0.237 OA
ATOM     95  O   UNL A   1      34.473  31.963  28.066  1.00  0.00    -0.744 OA
ENDBRANCH  88  92
ENDBRANCH  61  85
BRANCH  73  96
ATOM     96  C   UNL A   1      42.131  30.560  33.859  1.00  0.00     0.023 A 
ATOM     97  C   UNL A   1      42.641  31.145  35.027  1.00  0.00     0.031 A 
ATOM     98  C   UNL A   1      41.701  29.217  33.943  1.00  0.00     0.131 A 
ATOM     99  C   UNL A   1      42.720  30.399  36.209  1.00  0.00     0.055 A 
ATOM    100  C   UNL A   1      41.704  28.505  35.143  1.00  0.00     0.041 A 
ATOM    101  F   UNL A   1      41.338  28.526  32.856  1.00  0.00    -0.206 F 
ATOM    102  C   UNL A   1      42.230  29.091  36.283  1.00  0.00     0.022 A 
BRANCH  99 103
ATOM    103  S   UNL A   1      43.602  31.057  37.645  1.00  0.00     0.124 S 
ATOM    104  O   UNL A   1      44.410  32.119  37.054  1.00  0.00    -0.237 OA
ATOM    105  O   UNL A   1      42.505  31.507  38.501  1.00  0.00    -0.237 OA
ATOM    106  O   UNL A   1      44.349  29.912  38.158  1.00  0.00    -0.744 OA
ENDBRANCH  99 103
ENDBRANCH  73  96
ENDBRANCH  47  48
ENDBRANCH  40  42
ENDBRANCH  39  40
ENDBRANCH  38  39
ENDBRANCH   1  38
TORSDOF 20
ENDMDL
