MODEL 1
REMARK VINA RESULT:     -12.5      0.000      0.000
REMARK SMILES CC(=O)Nc1cccc(-c2cc(F)ccc2C(=O)OCCOC(=O)c2ccc(-c3c4nc(c(-c5cc(S(=O)(=O)[O-])ccc5F)c5ccc([nH]5)c(-c5cc(S(=O)(=O)[O-])ccc5F)c5nc(c(-c6cc(S(=O)(=O)[O-])ccc6F)c6ccc3[nH]6)C=C5)C=C4)cc2)c1
REMARK SMILES IDX 21 1 20 2 19 3 17 4 18 5 16 6 10 7 11 8 12 9 15 10 13 11
REMARK SMILES IDX 14 12 9 13 5 14 6 15 88 16 7 17 8 18 4 19 1 20 2 21 3 22
REMARK SMILES IDX 22 24 23 25 24 26 25 27 26 28 87 29 27 30 86 31 28 32 29 33
REMARK SMILES IDX 30 34 80 35 31 36 85 37 79 38 81 39 32 40 84 41 78 42 77 43
REMARK SMILES IDX 33 45 65 46 45 47 64 48 46 49 49 50 63 51 82 52 47 53 48 54
REMARK SMILES IDX 62 56 83 57 50 58 34 59 35 60 43 61 36 62 42 63 44 64 41 65
REMARK SMILES IDX 37 66 38 67 39 68 40 69 66 70 67 71 75 72 68 73 74 74 76 75
REMARK SMILES IDX 73 76 69 77 70 78 71 79 72 80 51 81 52 82 60 83 53 84 59 85
REMARK SMILES IDX 61 86 58 87 54 88 55 89 56 90 57 91
REMARK H PARENT 4 23 81 44 49 55
REMARK Flexibility Score: inf
ROOT
ATOM      1  C   UNL A   1      31.865  30.556  25.875  1.00  0.00     0.275 C 
ENDROOT
BRANCH   1   2
ATOM      2  C   UNL A   1      32.673  29.559  25.051  1.00  0.00     0.275 C 
BRANCH   2   3
ATOM      3  O   UNL A   1      32.661  28.256  25.671  1.00  0.00    -0.458 OA
BRANCH   3   4
ATOM      4  C   UNL A   1      31.669  27.413  25.290  1.00  0.00     0.338 C 
ATOM      5  O   UNL A   1      30.686  27.112  25.936  1.00  0.00    -0.246 OA
BRANCH   4   6
ATOM      6  C   UNL A   1      31.911  26.875  23.922  1.00  0.00     0.068 A 
ATOM      7  C   UNL A   1      31.083  27.186  22.817  1.00  0.00    -0.001 A 
ATOM      8  C   UNL A   1      31.442  26.658  21.562  1.00  0.00     0.048 A 
ATOM      9  C   UNL A   1      32.574  25.858  21.418  1.00  0.00     0.123 A 
ATOM     10  C   UNL A   1      33.069  26.093  23.750  1.00  0.00     0.019 A 
ATOM     11  F   UNL A   1      32.891  25.382  20.207  1.00  0.00    -0.207 F 
ATOM     12  C   UNL A   1      33.388  25.566  22.500  1.00  0.00     0.040 A 
BRANCH   7  13
ATOM     13  C   UNL A   1      29.884  28.037  22.935  1.00  0.00    -0.015 A 
ATOM     14  C   UNL A   1      28.913  30.262  23.235  1.00  0.00     0.041 A 
ATOM     15  C   UNL A   1      27.682  29.661  23.522  1.00  0.00     0.026 A 
ATOM     16  C   UNL A   1      29.993  29.444  22.907  1.00  0.00     0.034 A 
ATOM     17  C   UNL A   1      27.532  28.274  23.472  1.00  0.00     0.003 A 
ATOM     18  C   UNL A   1      28.630  27.467  23.190  1.00  0.00     0.009 A 
BRANCH  14  19
ATOM     19  N   UNL A   1      28.994  31.653  23.418  1.00  0.00    -0.326 N 
ATOM     20  C   UNL A   1      28.105  32.573  21.268  1.00  0.00     0.114 C 
ATOM     21  C   UNL A   1      28.793  32.721  22.594  1.00  0.00     0.221 C 
ATOM     22  O   UNL A   1      29.152  33.833  22.991  1.00  0.00    -0.275 OA
ATOM     23  H   UNL A   1      29.249  31.911  24.333  1.00  0.00     0.169 HD
ENDBRANCH  14  19
ENDBRANCH   7  13
ENDBRANCH   4   6
ENDBRANCH   3   4
ENDBRANCH   2   3
ENDBRANCH   1   2
BRANCH   1  24
ATOM     24  O   UNL A   1      32.463  30.685  27.173  1.00  0.00    -0.458 OA
BRANCH  24  25
ATOM     25  C   UNL A   1      33.157  31.829  27.366  1.00  0.00     0.338 C 
ATOM     26  O   UNL A   1      32.752  32.975  27.267  1.00  0.00    -0.246 OA
BRANCH  25  27
ATOM     27  C   UNL A   1      34.502  31.485  27.834  1.00  0.00     0.060 A 
ATOM     28  C   UNL A   1      34.769  30.151  28.135  1.00  0.00     0.016 A 
ATOM     29  C   UNL A   1      35.443  32.474  28.093  1.00  0.00     0.016 A 
ATOM     30  C   UNL A   1      35.947  29.806  28.787  1.00  0.00     0.010 A 
ATOM     31  C   UNL A   1      36.666  32.111  28.665  1.00  0.00     0.010 A 
ATOM     32  C   UNL A   1      36.915  30.780  29.056  1.00  0.00    -0.014 A 
BRANCH  32  33
ATOM     33  C   UNL A   1      38.151  30.430  29.810  1.00  0.00     0.031 A 
ATOM     34  C   UNL A   1      39.187  29.542  29.170  1.00  0.00     0.074 A 
ATOM     35  C   UNL A   1      38.364  30.914  31.049  1.00  0.00     0.049 A 
ATOM     36  N   UNL A   1      40.222  28.947  29.705  1.00  0.00    -0.248 NA
ATOM     37  C   UNL A   1      39.011  29.270  27.736  1.00  0.00     0.031 C 
ATOM     38  C   UNL A   1      37.484  31.843  31.760  1.00  0.00     0.029 A 
ATOM     39  N   UNL A   1      39.394  30.697  31.931  1.00  0.00    -0.354 N 
ATOM     40  C   UNL A   1      40.786  28.180  28.688  1.00  0.00     0.074 A 
ATOM     41  C   UNL A   1      39.957  28.372  27.516  1.00  0.00     0.031 C 
ATOM     42  C   UNL A   1      38.032  32.150  32.945  1.00  0.00     0.029 A 
ATOM     43  C   UNL A   1      39.245  31.362  33.125  1.00  0.00     0.049 A 
ATOM     44  H   UNL A   1      40.165  30.119  31.727  1.00  0.00     0.167 HD
ATOM     45  C   UNL A   1      41.891  27.393  28.734  1.00  0.00     0.034 A 
ATOM     46  C   UNL A   1      39.973  31.307  34.257  1.00  0.00     0.034 A 
ATOM     47  C   UNL A   1      42.720  27.249  29.908  1.00  0.00     0.049 A 
ATOM     48  C   UNL A   1      41.149  30.369  34.317  1.00  0.00     0.074 A 
ATOM     49  C   UNL A   1      43.865  26.489  30.074  1.00  0.00     0.029 A 
ATOM     50  N   UNL A   1      42.494  27.888  31.124  1.00  0.00    -0.354 N 
ATOM     51  N   UNL A   1      41.628  29.582  33.380  1.00  0.00    -0.248 NA
ATOM     52  C   UNL A   1      41.869  30.297  35.593  1.00  0.00     0.031 C 
ATOM     53  C   UNL A   1      44.292  26.616  31.401  1.00  0.00     0.029 A 
ATOM     54  C   UNL A   1      43.461  27.517  32.048  1.00  0.00     0.049 A 
ATOM     55  H   UNL A   1      41.756  28.513  31.302  1.00  0.00     0.167 HD
ATOM     56  C   UNL A   1      42.717  28.931  33.952  1.00  0.00     0.074 A 
ATOM     57  C   UNL A   1      42.832  29.433  35.307  1.00  0.00     0.031 C 
ATOM     58  C   UNL A   1      43.548  28.007  33.406  1.00  0.00     0.034 A 
BRANCH  45  59
ATOM     59  C   UNL A   1      42.208  26.578  27.498  1.00  0.00     0.023 A 
ATOM     60  C   UNL A   1      41.809  25.237  27.362  1.00  0.00     0.031 A 
ATOM     61  C   UNL A   1      42.998  27.132  26.471  1.00  0.00     0.131 A 
ATOM     62  C   UNL A   1      42.289  24.468  26.290  1.00  0.00     0.055 A 
ATOM     63  C   UNL A   1      43.389  26.387  25.356  1.00  0.00     0.041 A 
ATOM     64  F   UNL A   1      43.430  28.400  26.548  1.00  0.00    -0.206 F 
ATOM     65  C   UNL A   1      43.055  25.039  25.272  1.00  0.00     0.022 A 
BRANCH  62  66
ATOM     66  S   UNL A   1      42.066  22.667  26.352  1.00  0.00     0.124 S 
ATOM     67  O   UNL A   1      42.944  22.300  27.462  1.00  0.00    -0.237 OA
ATOM     68  O   UNL A   1      40.636  22.535  26.597  1.00  0.00    -0.237 OA
ATOM     69  O   UNL A   1      42.519  22.220  25.036  1.00  0.00    -0.744 OA
ENDBRANCH  62  66
ENDBRANCH  45  59
BRANCH  46  70
ATOM     70  C   UNL A   1      39.578  32.119  35.442  1.00  0.00     0.023 A 
ATOM     71  C   UNL A   1      38.733  31.591  36.429  1.00  0.00     0.031 A 
ATOM     72  C   UNL A   1      40.039  33.439  35.603  1.00  0.00     0.131 A 
ATOM     73  C   UNL A   1      38.362  32.383  37.527  1.00  0.00     0.055 A 
ATOM     74  C   UNL A   1      39.707  34.205  36.721  1.00  0.00     0.041 A 
ATOM     75  F   UNL A   1      40.849  33.993  34.686  1.00  0.00    -0.206 F 
ATOM     76  C   UNL A   1      38.856  33.680  37.688  1.00  0.00     0.022 A 
BRANCH  73  77
ATOM     77  S   UNL A   1      37.179  31.709  38.726  1.00  0.00     0.124 S 
ATOM     78  O   UNL A   1      36.017  32.562  38.509  1.00  0.00    -0.237 OA
ATOM     79  O   UNL A   1      37.051  30.325  38.281  1.00  0.00    -0.237 OA
ATOM     80  O   UNL A   1      37.856  31.888  40.009  1.00  0.00    -0.744 OA
ENDBRANCH  73  77
ENDBRANCH  46  70
BRANCH  58  81
ATOM     81  C   UNL A   1      44.679  27.515  34.275  1.00  0.00     0.023 A 
ATOM     82  C   UNL A   1      44.540  26.387  35.102  1.00  0.00     0.031 A 
ATOM     83  C   UNL A   1      45.902  28.206  34.298  1.00  0.00     0.131 A 
ATOM     84  C   UNL A   1      45.586  26.017  35.960  1.00  0.00     0.055 A 
ATOM     85  C   UNL A   1      46.961  27.798  35.109  1.00  0.00     0.041 A 
ATOM     86  F   UNL A   1      46.088  29.294  33.532  1.00  0.00    -0.206 F 
ATOM     87  C   UNL A   1      46.802  26.705  35.957  1.00  0.00     0.022 A 
BRANCH  84  88
ATOM     88  S   UNL A   1      45.305  24.679  37.152  1.00  0.00     0.124 S 
ATOM     89  O   UNL A   1      44.389  25.307  38.100  1.00  0.00    -0.237 OA
ATOM     90  O   UNL A   1      44.734  23.628  36.316  1.00  0.00    -0.237 OA
ATOM     91  O   UNL A   1      46.641  24.398  37.674  1.00  0.00    -0.744 OA
ENDBRANCH  84  88
ENDBRANCH  58  81
ENDBRANCH  32  33
ENDBRANCH  25  27
ENDBRANCH  24  25
ENDBRANCH   1  24
TORSDOF 16
ENDMDL
MODEL 2
REMARK VINA RESULT:     -12.4      6.027     11.060
REMARK SMILES CC(=O)Nc1cccc(-c2cc(F)ccc2C(=O)OCCOC(=O)c2ccc(-c3c4nc(c(-c5cc(S(=O)(=O)[O-])ccc5F)c5ccc([nH]5)c(-c5cc(S(=O)(=O)[O-])ccc5F)c5nc(c(-c6cc(S(=O)(=O)[O-])ccc6F)c6ccc3[nH]6)C=C5)C=C4)cc2)c1
REMARK SMILES IDX 21 1 20 2 19 3 17 4 18 5 16 6 10 7 11 8 12 9 15 10 13 11
REMARK SMILES IDX 14 12 9 13 5 14 6 15 88 16 7 17 8 18 4 19 1 20 2 21 3 22
REMARK SMILES IDX 22 24 23 25 24 26 25 27 26 28 87 29 27 30 86 31 28 32 29 33
REMARK SMILES IDX 30 34 80 35 31 36 85 37 79 38 81 39 32 40 84 41 78 42 77 43
REMARK SMILES IDX 33 45 65 46 45 47 64 48 46 49 49 50 63 51 82 52 47 53 48 54
REMARK SMILES IDX 62 56 83 57 50 58 34 59 35 60 43 61 36 62 42 63 44 64 41 65
REMARK SMILES IDX 37 66 38 67 39 68 40 69 66 70 67 71 75 72 68 73 74 74 76 75
REMARK SMILES IDX 73 76 69 77 70 78 71 79 72 80 51 81 52 82 60 83 53 84 59 85
REMARK SMILES IDX 61 86 58 87 54 88 55 89 56 90 57 91
REMARK H PARENT 4 23 81 44 49 55
REMARK Flexibility Score: inf
ROOT
ATOM      1  C   UNL A   1      37.360  20.243  24.869  1.00  0.00     0.275 C 
ENDROOT
BRANCH   1   2
ATOM      2  C   UNL A   1      35.842  20.295  25.005  1.00  0.00     0.275 C 
BRANCH   2   3
ATOM      3  O   UNL A   1      35.412  21.608  25.421  1.00  0.00    -0.458 OA
BRANCH   3   4
ATOM      4  C   UNL A   1      34.608  22.283  24.561  1.00  0.00     0.338 C 
ATOM      5  O   UNL A   1      34.863  22.578  23.411  1.00  0.00    -0.246 OA
BRANCH   4   6
ATOM      6  C   UNL A   1      33.308  22.633  25.198  1.00  0.00     0.068 A 
ATOM      7  C   UNL A   1      32.159  21.812  25.099  1.00  0.00    -0.001 A 
ATOM      8  C   UNL A   1      31.001  22.223  25.786  1.00  0.00     0.048 A 
ATOM      9  C   UNL A   1      30.991  23.398  26.536  1.00  0.00     0.123 A 
ATOM     10  C   UNL A   1      33.288  23.798  25.988  1.00  0.00     0.019 A 
ATOM     11  F   UNL A   1      29.875  23.752  27.186  1.00  0.00    -0.207 F 
ATOM     12  C   UNL A   1      32.121  24.192  26.640  1.00  0.00     0.040 A 
BRANCH   7  13
ATOM     13  C   UNL A   1      32.140  20.559  24.321  1.00  0.00    -0.015 A 
ATOM     14  C   UNL A   1      32.412  18.129  24.253  1.00  0.00     0.041 A 
ATOM     15  C   UNL A   1      32.475  18.198  22.857  1.00  0.00     0.026 A 
ATOM     16  C   UNL A   1      32.207  19.307  24.970  1.00  0.00     0.034 A 
ATOM     17  C   UNL A   1      32.327  19.416  22.192  1.00  0.00     0.003 A 
ATOM     18  C   UNL A   1      32.171  20.591  22.921  1.00  0.00     0.009 A 
BRANCH  14  19
ATOM     19  N   UNL A   1      32.681  16.879  24.837  1.00  0.00    -0.326 N 
ATOM     20  C   UNL A   1      35.178  16.739  24.781  1.00  0.00     0.114 C 
ATOM     21  C   UNL A   1      33.817  16.141  24.993  1.00  0.00     0.221 C 
ATOM     22  O   UNL A   1      33.699  14.969  25.363  1.00  0.00    -0.275 OA
ATOM     23  H   UNL A   1      31.881  16.445  25.213  1.00  0.00     0.169 HD
ENDBRANCH  14  19
ENDBRANCH   7  13
ENDBRANCH   4   6
ENDBRANCH   3   4
ENDBRANCH   2   3
ENDBRANCH   1   2
BRANCH   1  24
ATOM     24  O   UNL A   1      37.934  21.340  25.596  1.00  0.00    -0.458 OA
BRANCH  24  25
ATOM     25  C   UNL A   1      39.168  21.105  26.095  1.00  0.00     0.338 C 
ATOM     26  O   UNL A   1      39.832  20.086  26.001  1.00  0.00    -0.246 OA
BRANCH  25  27
ATOM     27  C   UNL A   1      39.665  22.340  26.707  1.00  0.00     0.060 A 
ATOM     28  C   UNL A   1      39.161  23.552  26.240  1.00  0.00     0.016 A 
ATOM     29  C   UNL A   1      40.701  22.312  27.633  1.00  0.00     0.016 A 
ATOM     30  C   UNL A   1      39.753  24.748  26.625  1.00  0.00     0.010 A 
ATOM     31  C   UNL A   1      41.234  23.521  28.090  1.00  0.00     0.010 A 
ATOM     32  C   UNL A   1      40.795  24.751  27.560  1.00  0.00    -0.014 A 
BRANCH  32  33
ATOM     33  C   UNL A   1      41.476  26.023  27.930  1.00  0.00     0.031 A 
ATOM     34  C   UNL A   1      40.741  27.048  28.754  1.00  0.00     0.074 A 
ATOM     35  C   UNL A   1      42.748  26.259  27.554  1.00  0.00     0.049 A 
ATOM     36  N   UNL A   1      41.054  28.292  29.013  1.00  0.00    -0.248 NA
ATOM     37  C   UNL A   1      39.466  26.615  29.341  1.00  0.00     0.031 C 
ATOM     38  C   UNL A   1      43.603  25.324  26.820  1.00  0.00     0.029 A 
ATOM     39  N   UNL A   1      43.549  27.357  27.744  1.00  0.00    -0.354 N 
ATOM     40  C   UNL A   1      39.986  28.808  29.741  1.00  0.00     0.074 A 
ATOM     41  C   UNL A   1      39.010  27.745  29.857  1.00  0.00     0.031 C 
ATOM     42  C   UNL A   1      44.818  25.869  26.664  1.00  0.00     0.029 A 
ATOM     43  C   UNL A   1      44.800  27.230  27.189  1.00  0.00     0.049 A 
ATOM     44  H   UNL A   1      43.254  28.161  28.232  1.00  0.00     0.167 HD
ATOM     45  C   UNL A   1      39.839  30.053  30.263  1.00  0.00     0.034 A 
ATOM     46  C   UNL A   1      45.803  28.121  27.069  1.00  0.00     0.034 A 
ATOM     47  C   UNL A   1      40.847  31.084  30.163  1.00  0.00     0.049 A 
ATOM     48  C   UNL A   1      45.593  29.520  27.582  1.00  0.00     0.074 A 
ATOM     49  C   UNL A   1      40.816  32.378  30.656  1.00  0.00     0.029 A 
ATOM     50  N   UNL A   1      42.076  30.936  29.528  1.00  0.00    -0.354 N 
ATOM     51  N   UNL A   1      44.548  30.028  28.194  1.00  0.00    -0.248 NA
ATOM     52  C   UNL A   1      46.690  30.471  27.368  1.00  0.00     0.031 C 
ATOM     53  C   UNL A   1      41.993  33.028  30.264  1.00  0.00     0.029 A 
ATOM     54  C   UNL A   1      42.797  32.121  29.594  1.00  0.00     0.049 A 
ATOM     55  H   UNL A   1      42.390  30.109  29.096  1.00  0.00     0.167 HD
ATOM     56  C   UNL A   1      44.870  31.357  28.453  1.00  0.00     0.074 A 
ATOM     57  C   UNL A   1      46.211  31.563  27.946  1.00  0.00     0.031 C 
ATOM     58  C   UNL A   1      44.126  32.318  29.059  1.00  0.00     0.034 A 
BRANCH  45  59
ATOM     59  C   UNL A   1      38.512  30.375  30.915  1.00  0.00     0.023 A 
ATOM     60  C   UNL A   1      37.463  30.996  30.215  1.00  0.00     0.031 A 
ATOM     61  C   UNL A   1      38.322  30.128  32.289  1.00  0.00     0.131 A 
ATOM     62  C   UNL A   1      36.328  31.448  30.906  1.00  0.00     0.055 A 
ATOM     63  C   UNL A   1      37.147  30.491  32.950  1.00  0.00     0.041 A 
ATOM     64  F   UNL A   1      39.291  29.556  33.021  1.00  0.00    -0.206 F 
ATOM     65  C   UNL A   1      36.150  31.177  32.264  1.00  0.00     0.022 A 
BRANCH  62  66
ATOM     66  S   UNL A   1      35.184  32.568  30.050  1.00  0.00     0.124 S 
ATOM     67  O   UNL A   1      36.080  33.647  29.639  1.00  0.00    -0.237 OA
ATOM     68  O   UNL A   1      34.662  31.728  28.980  1.00  0.00    -0.237 OA
ATOM     69  O   UNL A   1      34.220  32.932  31.087  1.00  0.00    -0.744 OA
ENDBRANCH  62  66
ENDBRANCH  45  59
BRANCH  46  70
ATOM     70  C   UNL A   1      47.069  27.735  26.386  1.00  0.00     0.023 A 
ATOM     71  C   UNL A   1      47.216  27.883  24.999  1.00  0.00     0.031 A 
ATOM     72  C   UNL A   1      48.155  27.210  27.112  1.00  0.00     0.131 A 
ATOM     73  C   UNL A   1      48.413  27.496  24.378  1.00  0.00     0.055 A 
ATOM     74  C   UNL A   1      49.361  26.872  26.497  1.00  0.00     0.041 A 
ATOM     75  F   UNL A   1      48.066  27.045  28.442  1.00  0.00    -0.206 F 
ATOM     76  C   UNL A   1      49.492  27.008  25.119  1.00  0.00     0.022 A 
BRANCH  73  77
ATOM     77  S   UNL A   1      48.528  27.596  22.570  1.00  0.00     0.124 S 
ATOM     78  O   UNL A   1      49.750  28.371  22.392  1.00  0.00    -0.237 OA
ATOM     79  O   UNL A   1      48.600  26.189  22.192  1.00  0.00    -0.237 OA
ATOM     80  O   UNL A   1      47.293  28.278  22.188  1.00  0.00    -0.744 OA
ENDBRANCH  73  77
ENDBRANCH  46  70
BRANCH  58  81
ATOM     81  C   UNL A   1      44.776  33.667  29.236  1.00  0.00     0.023 A 
ATOM     82  C   UNL A   1      44.456  34.757  28.407  1.00  0.00     0.031 A 
ATOM     83  C   UNL A   1      45.753  33.855  30.229  1.00  0.00     0.131 A 
ATOM     84  C   UNL A   1      45.149  35.969  28.548  1.00  0.00     0.055 A 
ATOM     85  C   UNL A   1      46.396  35.081  30.404  1.00  0.00     0.041 A 
ATOM     86  F   UNL A   1      46.101  32.846  31.044  1.00  0.00    -0.206 F 
ATOM     87  C   UNL A   1      46.106  36.142  29.552  1.00  0.00     0.022 A 
BRANCH  84  88
ATOM     88  S   UNL A   1      44.853  37.289  27.340  1.00  0.00     0.124 S 
ATOM     89  O   UNL A   1      46.111  37.308  26.599  1.00  0.00    -0.237 OA
ATOM     90  O   UNL A   1      43.692  36.792  26.611  1.00  0.00    -0.237 OA
ATOM     91  O   UNL A   1      44.606  38.466  28.171  1.00  0.00    -0.744 OA
ENDBRANCH  84  88
ENDBRANCH  58  81
ENDBRANCH  32  33
ENDBRANCH  25  27
ENDBRANCH  24  25
ENDBRANCH   1  24
TORSDOF 16
ENDMDL
MODEL 3
REMARK VINA RESULT:     -12.2      1.523      1.815
REMARK SMILES CC(=O)Nc1cccc(-c2cc(F)ccc2C(=O)OCCOC(=O)c2ccc(-c3c4nc(c(-c5cc(S(=O)(=O)[O-])ccc5F)c5ccc([nH]5)c(-c5cc(S(=O)(=O)[O-])ccc5F)c5nc(c(-c6cc(S(=O)(=O)[O-])ccc6F)c6ccc3[nH]6)C=C5)C=C4)cc2)c1
REMARK SMILES IDX 21 1 20 2 19 3 17 4 18 5 16 6 10 7 11 8 12 9 15 10 13 11
REMARK SMILES IDX 14 12 9 13 5 14 6 15 88 16 7 17 8 18 4 19 1 20 2 21 3 22
REMARK SMILES IDX 22 24 23 25 24 26 25 27 26 28 87 29 27 30 86 31 28 32 29 33
REMARK SMILES IDX 30 34 80 35 31 36 85 37 79 38 81 39 32 40 84 41 78 42 77 43
REMARK SMILES IDX 33 45 65 46 45 47 64 48 46 49 49 50 63 51 82 52 47 53 48 54
REMARK SMILES IDX 62 56 83 57 50 58 34 59 35 60 43 61 36 62 42 63 44 64 41 65
REMARK SMILES IDX 37 66 38 67 39 68 40 69 66 70 67 71 75 72 68 73 74 74 76 75
REMARK SMILES IDX 73 76 69 77 70 78 71 79 72 80 51 81 52 82 60 83 53 84 59 85
REMARK SMILES IDX 61 86 58 87 54 88 55 89 56 90 57 91
REMARK H PARENT 4 23 81 44 49 55
REMARK Flexibility Score: inf
ROOT
ATOM      1  C   UNL A   1      31.744  31.109  26.561  1.00  0.00     0.275 C 
ENDROOT
BRANCH   1   2
ATOM      2  C   UNL A   1      31.389  30.225  25.370  1.00  0.00     0.275 C 
BRANCH   2   3
ATOM      3  O   UNL A   1      32.257  29.073  25.312  1.00  0.00    -0.458 OA
BRANCH   3   4
ATOM      4  C   UNL A   1      31.651  27.861  25.244  1.00  0.00     0.338 C 
ATOM      5  O   UNL A   1      30.948  27.353  26.094  1.00  0.00    -0.246 OA
BRANCH   4   6
ATOM      6  C   UNL A   1      31.939  27.186  23.948  1.00  0.00     0.068 A 
ATOM      7  C   UNL A   1      31.041  27.210  22.853  1.00  0.00    -0.001 A 
ATOM      8  C   UNL A   1      31.446  26.578  21.662  1.00  0.00     0.048 A 
ATOM      9  C   UNL A   1      32.687  25.951  21.568  1.00  0.00     0.123 A 
ATOM     10  C   UNL A   1      33.202  26.577  23.822  1.00  0.00     0.019 A 
ATOM     11  F   UNL A   1      33.043  25.370  20.416  1.00  0.00    -0.207 F 
ATOM     12  C   UNL A   1      33.567  25.940  22.638  1.00  0.00     0.040 A 
BRANCH   7  13
ATOM     13  C   UNL A   1      29.725  27.873  22.917  1.00  0.00    -0.015 A 
ATOM     14  C   UNL A   1      28.416  29.938  22.935  1.00  0.00     0.041 A 
ATOM     15  C   UNL A   1      27.312  29.208  23.392  1.00  0.00     0.026 A 
ATOM     16  C   UNL A   1      29.601  29.255  22.666  1.00  0.00     0.034 A 
ATOM     17  C   UNL A   1      27.390  27.826  23.566  1.00  0.00     0.003 A 
ATOM     18  C   UNL A   1      28.593  27.164  23.340  1.00  0.00     0.009 A 
BRANCH  14  19
ATOM     19  N   UNL A   1      28.275  31.337  22.895  1.00  0.00    -0.326 N 
ATOM     20  C   UNL A   1      27.938  31.816  20.463  1.00  0.00     0.114 C 
ATOM     21  C   UNL A   1      28.194  32.243  21.879  1.00  0.00     0.221 C 
ATOM     22  O   UNL A   1      28.289  33.440  22.164  1.00  0.00    -0.275 OA
ATOM     23  H   UNL A   1      28.224  31.748  23.787  1.00  0.00     0.169 HD
ENDBRANCH  14  19
ENDBRANCH   7  13
ENDBRANCH   4   6
ENDBRANCH   3   4
ENDBRANCH   2   3
ENDBRANCH   1   2
BRANCH   1  24
ATOM     24  O   UNL A   1      33.098  30.842  26.955  1.00  0.00    -0.458 OA
BRANCH  24  25
ATOM     25  C   UNL A   1      33.744  31.891  27.511  1.00  0.00     0.338 C 
ATOM     26  O   UNL A   1      33.308  33.009  27.728  1.00  0.00    -0.246 OA
BRANCH  25  27
ATOM     27  C   UNL A   1      35.076  31.448  27.932  1.00  0.00     0.060 A 
ATOM     28  C   UNL A   1      35.237  30.113  28.295  1.00  0.00     0.016 A 
ATOM     29  C   UNL A   1      36.115  32.358  28.089  1.00  0.00     0.016 A 
ATOM     30  C   UNL A   1      36.412  29.694  28.908  1.00  0.00     0.010 A 
ATOM     31  C   UNL A   1      37.329  31.914  28.621  1.00  0.00     0.010 A 
ATOM     32  C   UNL A   1      37.478  30.587  29.074  1.00  0.00    -0.014 A 
BRANCH  32  33
ATOM     33  C   UNL A   1      38.715  30.164  29.786  1.00  0.00     0.031 A 
ATOM     34  C   UNL A   1      39.667  29.206  29.118  1.00  0.00     0.074 A 
ATOM     35  C   UNL A   1      39.004  30.642  31.012  1.00  0.00     0.049 A 
ATOM     36  N   UNL A   1      40.681  28.549  29.620  1.00  0.00    -0.248 NA
ATOM     37  C   UNL A   1      39.422  28.935  27.694  1.00  0.00     0.031 C 
ATOM     38  C   UNL A   1      38.212  31.632  31.746  1.00  0.00     0.029 A 
ATOM     39  N   UNL A   1      40.050  30.365  31.858  1.00  0.00    -0.354 N 
ATOM     40  C   UNL A   1      41.157  27.740  28.591  1.00  0.00     0.074 A 
ATOM     41  C   UNL A   1      40.300  27.977  27.449  1.00  0.00     0.031 C 
ATOM     42  C   UNL A   1      38.823  31.911  32.906  1.00  0.00     0.029 A 
ATOM     43  C   UNL A   1      39.989  31.047  33.050  1.00  0.00     0.049 A 
ATOM     44  H   UNL A   1      40.774  29.737  31.632  1.00  0.00     0.167 HD
ATOM     45  C   UNL A   1      42.210  26.883  28.605  1.00  0.00     0.034 A 
ATOM     46  C   UNL A   1      40.753  30.953  34.156  1.00  0.00     0.034 A 
ATOM     47  C   UNL A   1      43.071  26.695  29.750  1.00  0.00     0.049 A 
ATOM     48  C   UNL A   1      41.867  29.942  34.182  1.00  0.00     0.074 A 
ATOM     49  C   UNL A   1      44.170  25.864  29.881  1.00  0.00     0.029 A 
ATOM     50  N   UNL A   1      42.931  27.356  30.967  1.00  0.00    -0.354 N 
ATOM     51  N   UNL A   1      42.259  29.119  33.236  1.00  0.00    -0.248 NA
ATOM     52  C   UNL A   1      42.627  29.833  35.432  1.00  0.00     0.031 C 
ATOM     53  C   UNL A   1      44.653  25.973  31.191  1.00  0.00     0.029 A 
ATOM     54  C   UNL A   1      43.906  26.929  31.859  1.00  0.00     0.049 A 
ATOM     55  H   UNL A   1      42.242  28.029  31.165  1.00  0.00     0.167 HD
ATOM     56  C   UNL A   1      43.324  28.404  33.775  1.00  0.00     0.074 A 
ATOM     57  C   UNL A   1      43.522  28.906  35.120  1.00  0.00     0.031 C 
ATOM     58  C   UNL A   1      44.074  27.423  33.207  1.00  0.00     0.034 A 
BRANCH  45  59
ATOM     59  C   UNL A   1      42.429  26.041  27.366  1.00  0.00     0.023 A 
ATOM     60  C   UNL A   1      41.949  24.723  27.262  1.00  0.00     0.031 A 
ATOM     61  C   UNL A   1      43.204  26.539  26.301  1.00  0.00     0.131 A 
ATOM     62  C   UNL A   1      42.339  23.918  26.180  1.00  0.00     0.055 A 
ATOM     63  C   UNL A   1      43.505  25.763  25.180  1.00  0.00     0.041 A 
ATOM     64  F   UNL A   1      43.709  27.782  26.346  1.00  0.00    -0.206 F 
ATOM     65  C   UNL A   1      43.092  24.436  25.125  1.00  0.00     0.022 A 
BRANCH  62  66
ATOM     66  S   UNL A   1      42.019  22.133  26.272  1.00  0.00     0.124 S 
ATOM     67  O   UNL A   1      40.573  22.082  26.066  1.00  0.00    -0.237 OA
ATOM     68  O   UNL A   1      42.838  21.610  25.187  1.00  0.00    -0.237 OA
ATOM     69  O   UNL A   1      42.460  21.775  27.619  1.00  0.00    -0.744 OA
ENDBRANCH  62  66
ENDBRANCH  45  59
BRANCH  46  70
ATOM     70  C   UNL A   1      40.455  31.798  35.346  1.00  0.00     0.023 A 
ATOM     71  C   UNL A   1      39.361  31.514  36.177  1.00  0.00     0.031 A 
ATOM     72  C   UNL A   1      41.259  32.906  35.670  1.00  0.00     0.131 A 
ATOM     73  C   UNL A   1      39.091  32.335  37.282  1.00  0.00     0.055 A 
ATOM     74  C   UNL A   1      41.016  33.692  36.797  1.00  0.00     0.041 A 
ATOM     75  F   UNL A   1      42.317  33.224  34.906  1.00  0.00    -0.206 F 
ATOM     76  C   UNL A   1      39.920  33.412  37.607  1.00  0.00     0.022 A 
BRANCH  73  77
ATOM     77  S   UNL A   1      37.605  32.006  38.270  1.00  0.00     0.124 S 
ATOM     78  O   UNL A   1      38.099  32.209  39.627  1.00  0.00    -0.237 OA
ATOM     79  O   UNL A   1      36.677  33.014  37.767  1.00  0.00    -0.237 OA
ATOM     80  O   UNL A   1      37.268  30.626  37.927  1.00  0.00    -0.744 OA
ENDBRANCH  73  77
ENDBRANCH  46  70
BRANCH  58  81
ATOM     81  C   UNL A   1      45.202  26.866  34.040  1.00  0.00     0.023 A 
ATOM     82  C   UNL A   1      46.490  27.429  34.013  1.00  0.00     0.031 A 
ATOM     83  C   UNL A   1      44.990  25.736  34.848  1.00  0.00     0.131 A 
ATOM     84  C   UNL A   1      47.531  26.826  34.735  1.00  0.00     0.055 A 
ATOM     85  C   UNL A   1      46.015  25.175  35.610  1.00  0.00     0.041 A 
ATOM     86  F   UNL A   1      43.781  25.154  34.906  1.00  0.00    -0.206 F 
ATOM     87  C   UNL A   1      47.298  25.712  35.545  1.00  0.00     0.022 A 
BRANCH  84  88
ATOM     88  S   UNL A   1      49.218  27.458  34.525  1.00  0.00     0.124 S 
ATOM     89  O   UNL A   1      49.202  27.906  33.136  1.00  0.00    -0.237 OA
ATOM     90  O   UNL A   1      49.287  28.510  35.533  1.00  0.00    -0.237 OA
ATOM     91  O   UNL A   1      50.057  26.290  34.790  1.00  0.00    -0.744 OA
ENDBRANCH  84  88
ENDBRANCH  58  81
ENDBRANCH  32  33
ENDBRANCH  25  27
ENDBRANCH  24  25
ENDBRANCH   1  24
TORSDOF 16
ENDMDL
