MODEL 1
REMARK VINA RESULT:     -11.9      0.000      0.000
REMARK SMILES Cc1ccc(N2CC[C@H]([NH+]3CCOCC3)[C@H](CCC(=O)OCCOC(=O)c3ccc(-c4c5nc(c(-c6cc(S(=O)(=O)[O-])ccc6F)c6ccc([nH]6)c(-c6cc(S(=O)(=O)[O-])ccc6F)c6nc(c(-c7cc(S(=O)(=O)[O-])ccc7F)c7ccc4[nH]7)C=C6)C=C5)cc3)C2)nc1
REMARK SMILES IDX 22 1 21 2 19 3 20 4 18 5 17 6 16 7 6 8 7 9 90 10 8 11 9 12
REMARK SMILES IDX 5 13 1 14 2 15 3 16 92 17 4 18 91 19 10 20 11 21 15 22 12 24
REMARK SMILES IDX 14 25 13 26 23 27 24 28 25 29 26 30 27 31 28 32 89 33 29 34
REMARK SMILES IDX 88 35 30 36 31 37 32 38 82 39 33 40 87 41 81 42 83 43 34 44
REMARK SMILES IDX 86 45 80 46 79 47 35 49 67 50 47 51 66 52 48 53 51 54 65 55
REMARK SMILES IDX 84 56 49 57 50 58 64 60 85 61 52 62 36 63 37 64 45 65 38 66
REMARK SMILES IDX 44 67 46 68 43 69 39 70 40 71 41 72 42 73 68 74 69 75 77 76
REMARK SMILES IDX 70 77 76 78 78 79 75 80 71 81 72 82 73 83 74 84 53 85 54 86
REMARK SMILES IDX 62 87 55 88 61 89 63 90 60 91 56 92 57 93 58 94 59 95
REMARK H PARENT 10 23 83 48 51 59
REMARK Flexibility Score: inf
ROOT
ATOM      1  C   UNL A   1      31.450  28.694  26.269  1.00  0.00     0.274 C 
ENDROOT
BRANCH   1   2
ATOM      2  O   UNL A   1      32.523  27.828  25.868  1.00  0.00    -0.462 OA
BRANCH   2   3
ATOM      3  C   UNL A   1      32.405  26.536  26.274  1.00  0.00     0.305 C 
ATOM      4  O   UNL A   1      31.387  26.029  26.728  1.00  0.00    -0.252 OA
BRANCH   3   5
ATOM      5  C   UNL A   1      33.625  25.735  25.902  1.00  0.00     0.123 C 
BRANCH   5   6
ATOM      6  C   UNL A   1      34.046  25.668  24.445  1.00  0.00     0.023 C 
BRANCH   6   7
ATOM      7  C   UNL A   1      34.083  24.326  23.681  1.00  0.00     0.067 C 
ATOM      8  N   UNL A   1      31.803  24.527  22.675  1.00  0.00    -0.356 N 
ATOM      9  C   UNL A   1      31.296  23.358  23.378  1.00  0.00     0.124 C 
ATOM     10  C   UNL A   1      33.236  24.534  22.380  1.00  0.00     0.127 C 
ATOM     11  C   UNL A   1      32.056  23.130  24.682  1.00  0.00     0.087 C 
ATOM     12  C   UNL A   1      33.558  23.015  24.385  1.00  0.00     0.190 C 
BRANCH   8  13
ATOM     13  C   UNL A   1      31.110  25.711  22.887  1.00  0.00     0.128 A 
ATOM     14  C   UNL A   1      28.679  29.201  23.325  1.00  0.00     0.046 C 
ATOM     15  C   UNL A   1      29.566  28.008  23.158  1.00  0.00    -0.033 A 
ATOM     16  C   UNL A   1      30.751  28.055  22.431  1.00  0.00     0.009 A 
ATOM     17  C   UNL A   1      29.245  26.800  23.752  1.00  0.00     0.117 A 
ATOM     18  C   UNL A   1      31.533  26.903  22.305  1.00  0.00     0.047 A 
ATOM     19  N   UNL A   1      29.969  25.668  23.609  1.00  0.00    -0.239 NA
ENDBRANCH   8  13
BRANCH  12  20
ATOM     20  N   UNL A   1      34.395  22.406  25.439  1.00  0.00    -0.328 N 
ATOM     21  C   UNL A   1      35.846  22.696  25.308  1.00  0.00     0.291 C 
ATOM     22  C   UNL A   1      34.242  20.984  25.766  1.00  0.00     0.291 C 
ATOM     23  H   UNL A   1      33.979  22.899  26.228  1.00  0.00     0.348 HD
ATOM     24  C   UNL A   1      36.693  21.649  24.552  1.00  0.00     0.221 C 
ATOM     25  C   UNL A   1      35.091  19.994  24.963  1.00  0.00     0.221 C 
ATOM     26  O   UNL A   1      36.479  20.326  25.043  1.00  0.00    -0.370 OA
ENDBRANCH  12  20
ENDBRANCH   6   7
ENDBRANCH   5   6
ENDBRANCH   3   5
ENDBRANCH   2   3
ENDBRANCH   1   2
BRANCH   1  27
ATOM     27  C   UNL A   1      31.729  30.103  25.749  1.00  0.00     0.275 C 
BRANCH  27  28
ATOM     28  O   UNL A   1      33.111  30.446  25.974  1.00  0.00    -0.458 OA
BRANCH  28  29
ATOM     29  C   UNL A   1      33.336  31.338  26.969  1.00  0.00     0.338 C 
ATOM     30  O   UNL A   1      32.598  32.235  27.337  1.00  0.00    -0.246 OA
BRANCH  29  31
ATOM     31  C   UNL A   1      34.638  31.062  27.596  1.00  0.00     0.060 A 
ATOM     32  C   UNL A   1      34.961  29.768  28.006  1.00  0.00     0.016 A 
ATOM     33  C   UNL A   1      35.498  32.122  27.877  1.00  0.00     0.016 A 
ATOM     34  C   UNL A   1      36.106  29.538  28.759  1.00  0.00     0.010 A 
ATOM     35  C   UNL A   1      36.706  31.869  28.530  1.00  0.00     0.010 A 
ATOM     36  C   UNL A   1      37.018  30.576  28.988  1.00  0.00    -0.014 A 
BRANCH  36  37
ATOM     37  C   UNL A   1      38.309  30.308  29.672  1.00  0.00     0.031 A 
ATOM     38  C   UNL A   1      39.310  29.375  29.051  1.00  0.00     0.074 A 
ATOM     39  C   UNL A   1      38.562  30.882  30.866  1.00  0.00     0.049 A 
ATOM     40  N   UNL A   1      40.364  28.818  29.585  1.00  0.00    -0.248 NA
ATOM     41  C   UNL A   1      39.081  29.009  27.646  1.00  0.00     0.031 C 
ATOM     42  C   UNL A   1      37.693  31.850  31.542  1.00  0.00     0.029 A 
ATOM     43  N   UNL A   1      39.616  30.728  31.731  1.00  0.00    -0.354 N 
ATOM     44  C   UNL A   1      40.900  27.996  28.599  1.00  0.00     0.074 A 
ATOM     45  C   UNL A   1      40.046  28.125  27.437  1.00  0.00     0.031 C 
ATOM     46  C   UNL A   1      38.258  32.217  32.701  1.00  0.00     0.029 A 
ATOM     47  C   UNL A   1      39.467  31.432  32.903  1.00  0.00     0.049 A 
ATOM     48  H   UNL A   1      40.400  30.167  31.533  1.00  0.00     0.167 HD
ATOM     49  C   UNL A   1      41.999  27.204  28.670  1.00  0.00     0.034 A 
ATOM     50  C   UNL A   1      40.181  31.399  34.045  1.00  0.00     0.034 A 
ATOM     51  C   UNL A   1      42.841  27.116  29.840  1.00  0.00     0.049 A 
ATOM     52  C   UNL A   1      41.344  30.450  34.132  1.00  0.00     0.074 A 
ATOM     53  C   UNL A   1      43.991  26.366  30.025  1.00  0.00     0.029 A 
ATOM     54  N   UNL A   1      42.624  27.804  31.028  1.00  0.00    -0.354 N 
ATOM     55  N   UNL A   1      41.807  29.629  33.217  1.00  0.00    -0.248 NA
ATOM     56  C   UNL A   1      42.063  30.405  35.409  1.00  0.00     0.031 C 
ATOM     57  C   UNL A   1      44.430  26.554  31.342  1.00  0.00     0.029 A 
ATOM     58  C   UNL A   1      43.595  27.471  31.961  1.00  0.00     0.049 A 
ATOM     59  H   UNL A   1      41.887  28.438  31.185  1.00  0.00     0.167 HD
ATOM     60  C   UNL A   1      42.876  28.968  33.812  1.00  0.00     0.074 A 
ATOM     61  C   UNL A   1      43.004  29.508  35.152  1.00  0.00     0.031 C 
ATOM     62  C   UNL A   1      43.678  28.000  33.302  1.00  0.00     0.034 A 
BRANCH  49  63
ATOM     63  C   UNL A   1      42.301  26.324  27.481  1.00  0.00     0.023 A 
ATOM     64  C   UNL A   1      41.849  24.996  27.397  1.00  0.00     0.031 A 
ATOM     65  C   UNL A   1      43.091  26.817  26.426  1.00  0.00     0.131 A 
ATOM     66  C   UNL A   1      42.246  24.187  26.320  1.00  0.00     0.055 A 
ATOM     67  C   UNL A   1      43.422  26.030  25.321  1.00  0.00     0.041 A 
ATOM     68  F   UNL A   1      43.571  28.070  26.460  1.00  0.00    -0.206 F 
ATOM     69  C   UNL A   1      43.012  24.702  25.271  1.00  0.00     0.022 A 
BRANCH  66  70
ATOM     70  S   UNL A   1      41.862  22.414  26.374  1.00  0.00     0.124 S 
ATOM     71  O   UNL A   1      42.363  22.042  27.695  1.00  0.00    -0.237 OA
ATOM     72  O   UNL A   1      40.413  22.400  26.213  1.00  0.00    -0.237 OA
ATOM     73  O   UNL A   1      42.620  21.864  25.252  1.00  0.00    -0.744 OA
ENDBRANCH  66  70
ENDBRANCH  49  63
BRANCH  50  74
ATOM     74  C   UNL A   1      39.758  32.212  35.221  1.00  0.00     0.023 A 
ATOM     75  C   UNL A   1      38.935  31.672  36.219  1.00  0.00     0.031 A 
ATOM     76  C   UNL A   1      40.160  33.556  35.352  1.00  0.00     0.131 A 
ATOM     77  C   UNL A   1      38.518  32.476  37.292  1.00  0.00     0.055 A 
ATOM     78  C   UNL A   1      39.787  34.335  36.448  1.00  0.00     0.041 A 
ATOM     79  F   UNL A   1      40.947  34.124  34.424  1.00  0.00    -0.206 F 
ATOM     80  C   UNL A   1      38.953  33.798  37.421  1.00  0.00     0.022 A 
BRANCH  77  81
ATOM     81  S   UNL A   1      37.340  31.789  38.487  1.00  0.00     0.124 S 
ATOM     82  O   UNL A   1      36.225  32.723  38.376  1.00  0.00    -0.237 OA
ATOM     83  O   UNL A   1      37.112  30.451  37.953  1.00  0.00    -0.237 OA
ATOM     84  O   UNL A   1      38.070  31.837  39.752  1.00  0.00    -0.744 OA
ENDBRANCH  77  81
ENDBRANCH  50  74
BRANCH  62  85
ATOM     85  C   UNL A   1      44.765  27.488  34.208  1.00  0.00     0.023 A 
ATOM     86  C   UNL A   1      44.535  26.421  35.094  1.00  0.00     0.031 A 
ATOM     87  C   UNL A   1      46.033  28.093  34.207  1.00  0.00     0.131 A 
ATOM     88  C   UNL A   1      45.544  26.024  35.983  1.00  0.00     0.055 A 
ATOM     89  C   UNL A   1      47.052  27.659  35.056  1.00  0.00     0.041 A 
ATOM     90  F   UNL A   1      46.300  29.118  33.382  1.00  0.00    -0.206 F 
ATOM     91  C   UNL A   1      46.806  26.627  35.959  1.00  0.00     0.022 A 
BRANCH  88  92
ATOM     92  S   UNL A   1      45.163  24.761  37.226  1.00  0.00     0.124 S 
ATOM     93  O   UNL A   1      45.653  23.546  36.582  1.00  0.00    -0.237 OA
ATOM     94  O   UNL A   1      45.921  25.220  38.384  1.00  0.00    -0.237 OA
ATOM     95  O   UNL A   1      43.709  24.846  37.365  1.00  0.00    -0.744 OA
ENDBRANCH  88  92
ENDBRANCH  62  85
ENDBRANCH  36  37
ENDBRANCH  29  31
ENDBRANCH  28  29
ENDBRANCH  27  28
ENDBRANCH   1  27
TORSDOF 18
ENDMDL
MODEL 2
REMARK VINA RESULT:     -11.8      4.950      9.950
REMARK SMILES Cc1ccc(N2CC[C@H]([NH+]3CCOCC3)[C@H](CCC(=O)OCCOC(=O)c3ccc(-c4c5nc(c(-c6cc(S(=O)(=O)[O-])ccc6F)c6ccc([nH]6)c(-c6cc(S(=O)(=O)[O-])ccc6F)c6nc(c(-c7cc(S(=O)(=O)[O-])ccc7F)c7ccc4[nH]7)C=C6)C=C5)cc3)C2)nc1
REMARK SMILES IDX 22 1 21 2 19 3 20 4 18 5 17 6 16 7 6 8 7 9 90 10 8 11 9 12
REMARK SMILES IDX 5 13 1 14 2 15 3 16 92 17 4 18 91 19 10 20 11 21 15 22 12 24
REMARK SMILES IDX 14 25 13 26 23 27 24 28 25 29 26 30 27 31 28 32 89 33 29 34
REMARK SMILES IDX 88 35 30 36 31 37 32 38 82 39 33 40 87 41 81 42 83 43 34 44
REMARK SMILES IDX 86 45 80 46 79 47 35 49 67 50 47 51 66 52 48 53 51 54 65 55
REMARK SMILES IDX 84 56 49 57 50 58 64 60 85 61 52 62 36 63 37 64 45 65 38 66
REMARK SMILES IDX 44 67 46 68 43 69 39 70 40 71 41 72 42 73 68 74 69 75 77 76
REMARK SMILES IDX 70 77 76 78 78 79 75 80 71 81 72 82 73 83 74 84 53 85 54 86
REMARK SMILES IDX 62 87 55 88 61 89 63 90 60 91 56 92 57 93 58 94 59 95
REMARK H PARENT 10 23 83 48 51 59
REMARK Flexibility Score: inf
ROOT
ATOM      1  C   UNL A   1      35.753  21.729  24.172  1.00  0.00     0.274 C 
ENDROOT
BRANCH   1   2
ATOM      2  O   UNL A   1      35.122  22.794  24.902  1.00  0.00    -0.462 OA
BRANCH   2   3
ATOM      3  C   UNL A   1      34.936  23.943  24.201  1.00  0.00     0.305 C 
ATOM      4  O   UNL A   1      34.894  24.027  22.980  1.00  0.00    -0.252 OA
BRANCH   3   5
ATOM      5  C   UNL A   1      34.571  25.084  25.115  1.00  0.00     0.123 C 
BRANCH   5   6
ATOM      6  C   UNL A   1      33.495  24.872  26.164  1.00  0.00     0.023 C 
BRANCH   6   7
ATOM      7  C   UNL A   1      32.251  25.785  26.235  1.00  0.00     0.067 C 
ATOM      8  N   UNL A   1      30.735  24.273  24.946  1.00  0.00    -0.356 N 
ATOM      9  C   UNL A   1      30.561  25.229  23.862  1.00  0.00     0.124 C 
ATOM     10  C   UNL A   1      31.006  24.835  26.269  1.00  0.00     0.127 C 
ATOM     11  C   UNL A   1      31.768  26.157  23.751  1.00  0.00     0.087 C 
ATOM     12  C   UNL A   1      32.004  26.852  25.099  1.00  0.00     0.190 C 
BRANCH   8  13
ATOM     13  C   UNL A   1      31.227  23.027  24.582  1.00  0.00     0.128 A 
ATOM     14  C   UNL A   1      33.068  19.276  23.675  1.00  0.00     0.046 C 
ATOM     15  C   UNL A   1      32.415  20.594  23.946  1.00  0.00    -0.033 A 
ATOM     16  C   UNL A   1      32.188  21.534  22.945  1.00  0.00     0.009 A 
ATOM     17  C   UNL A   1      31.984  20.921  25.220  1.00  0.00     0.117 A 
ATOM     18  C   UNL A   1      31.580  22.752  23.264  1.00  0.00     0.047 A 
ATOM     19  N   UNL A   1      31.430  22.108  25.552  1.00  0.00    -0.239 NA
ENDBRANCH   8  13
BRANCH  12  20
ATOM     20  N   UNL A   1      32.855  28.060  25.080  1.00  0.00    -0.328 N 
ATOM     21  C   UNL A   1      33.438  28.416  26.399  1.00  0.00     0.291 C 
ATOM     22  C   UNL A   1      32.364  29.292  24.451  1.00  0.00     0.291 C 
ATOM     23  H   UNL A   1      33.560  27.704  24.436  1.00  0.00     0.348 HD
ATOM     24  C   UNL A   1      32.653  29.439  27.247  1.00  0.00     0.221 C 
ATOM     25  C   UNL A   1      31.570  30.254  25.340  1.00  0.00     0.221 C 
ATOM     26  O   UNL A   1      32.316  30.610  26.505  1.00  0.00    -0.370 OA
ENDBRANCH  12  20
ENDBRANCH   6   7
ENDBRANCH   5   6
ENDBRANCH   3   5
ENDBRANCH   2   3
ENDBRANCH   1   2
BRANCH   1  27
ATOM     27  C   UNL A   1      36.640  20.931  25.125  1.00  0.00     0.275 C 
BRANCH  27  28
ATOM     28  O   UNL A   1      37.363  21.829  25.992  1.00  0.00    -0.458 OA
BRANCH  28  29
ATOM     29  C   UNL A   1      38.699  21.613  26.069  1.00  0.00     0.338 C 
ATOM     30  O   UNL A   1      39.307  20.611  25.736  1.00  0.00    -0.246 OA
BRANCH  29  31
ATOM     31  C   UNL A   1      39.362  22.809  26.615  1.00  0.00     0.060 A 
ATOM     32  C   UNL A   1      39.010  24.079  26.154  1.00  0.00     0.016 A 
ATOM     33  C   UNL A   1      40.418  22.654  27.510  1.00  0.00     0.016 A 
ATOM     34  C   UNL A   1      39.756  25.189  26.531  1.00  0.00     0.010 A 
ATOM     35  C   UNL A   1      41.090  23.785  27.978  1.00  0.00     0.010 A 
ATOM     36  C   UNL A   1      40.773  25.064  27.485  1.00  0.00    -0.014 A 
BRANCH  36  37
ATOM     37  C   UNL A   1      41.481  26.267  27.995  1.00  0.00     0.031 A 
ATOM     38  C   UNL A   1      40.737  27.293  28.800  1.00  0.00     0.074 A 
ATOM     39  C   UNL A   1      42.785  26.445  27.702  1.00  0.00     0.049 A 
ATOM     40  N   UNL A   1      41.090  28.510  29.119  1.00  0.00    -0.248 NA
ATOM     41  C   UNL A   1      39.410  26.901  29.297  1.00  0.00     0.031 C 
ATOM     42  C   UNL A   1      43.630  25.491  26.977  1.00  0.00     0.029 A 
ATOM     43  N   UNL A   1      43.630  27.494  27.966  1.00  0.00    -0.354 N 
ATOM     44  C   UNL A   1      40.012  29.049  29.813  1.00  0.00     0.074 A 
ATOM     45  C   UNL A   1      38.990  28.025  29.860  1.00  0.00     0.031 C 
ATOM     46  C   UNL A   1      44.870  25.987  26.873  1.00  0.00     0.029 A 
ATOM     47  C   UNL A   1      44.884  27.335  27.423  1.00  0.00     0.049 A 
ATOM     48  H   UNL A   1      43.364  28.282  28.490  1.00  0.00     0.167 HD
ATOM     49  C   UNL A   1      39.893  30.289  30.350  1.00  0.00     0.034 A 
ATOM     50  C   UNL A   1      45.910  28.201  27.312  1.00  0.00     0.034 A 
ATOM     51  C   UNL A   1      40.942  31.280  30.303  1.00  0.00     0.049 A 
ATOM     52  C   UNL A   1      45.725  29.598  27.838  1.00  0.00     0.074 A 
ATOM     53  C   UNL A   1      40.947  32.562  30.828  1.00  0.00     0.029 A 
ATOM     54  N   UNL A   1      42.179  31.099  29.694  1.00  0.00    -0.354 N 
ATOM     55  N   UNL A   1      44.679  30.120  28.436  1.00  0.00    -0.248 NA
ATOM     56  C   UNL A   1      46.845  30.526  27.651  1.00  0.00     0.031 C 
ATOM     57  C   UNL A   1      42.159  33.173  30.482  1.00  0.00     0.029 A 
ATOM     58  C   UNL A   1      42.939  32.254  29.799  1.00  0.00     0.049 A 
ATOM     59  H   UNL A   1      42.472  30.270  29.252  1.00  0.00     0.167 HD
ATOM     60  C   UNL A   1      45.018  31.442  28.699  1.00  0.00     0.074 A 
ATOM     61  C   UNL A   1      46.373  31.626  28.218  1.00  0.00     0.031 C 
ATOM     62  C   UNL A   1      44.276  32.420  29.280  1.00  0.00     0.034 A 
BRANCH  49  63
ATOM     63  C   UNL A   1      38.562  30.657  30.962  1.00  0.00     0.023 A 
ATOM     64  C   UNL A   1      37.542  31.278  30.221  1.00  0.00     0.031 A 
ATOM     65  C   UNL A   1      38.328  30.415  32.328  1.00  0.00     0.131 A 
ATOM     66  C   UNL A   1      36.365  31.696  30.862  1.00  0.00     0.055 A 
ATOM     67  C   UNL A   1      37.125  30.767  32.944  1.00  0.00     0.041 A 
ATOM     68  F   UNL A   1      39.272  29.845  33.093  1.00  0.00    -0.206 F 
ATOM     69  C   UNL A   1      36.141  31.425  32.214  1.00  0.00     0.022 A 
BRANCH  66  70
ATOM     70  S   UNL A   1      35.186  32.720  29.937  1.00  0.00     0.124 S 
ATOM     71  O   UNL A   1      36.038  33.816  29.481  1.00  0.00    -0.237 OA
ATOM     72  O   UNL A   1      34.715  31.804  28.904  1.00  0.00    -0.237 OA
ATOM     73  O   UNL A   1      34.191  33.092  30.941  1.00  0.00    -0.744 OA
ENDBRANCH  66  70
ENDBRANCH  49  63
BRANCH  50  74
ATOM     74  C   UNL A   1      47.155  27.805  26.594  1.00  0.00     0.023 A 
ATOM     75  C   UNL A   1      47.259  27.925  25.200  1.00  0.00     0.031 A 
ATOM     76  C   UNL A   1      48.258  27.280  27.296  1.00  0.00     0.131 A 
ATOM     77  C   UNL A   1      48.429  27.503  24.549  1.00  0.00     0.055 A 
ATOM     78  C   UNL A   1      49.438  26.913  26.649  1.00  0.00     0.041 A 
ATOM     79  F   UNL A   1      48.210  27.142  28.631  1.00  0.00    -0.206 F 
ATOM     80  C   UNL A   1      49.524  27.014  25.265  1.00  0.00     0.022 A 
BRANCH  77  81
ATOM     81  S   UNL A   1      48.475  27.540  22.737  1.00  0.00     0.124 S 
ATOM     82  O   UNL A   1      49.723  28.253  22.485  1.00  0.00    -0.237 OA
ATOM     83  O   UNL A   1      48.470  26.119  22.405  1.00  0.00    -0.237 OA
ATOM     84  O   UNL A   1      47.259  28.266  22.379  1.00  0.00    -0.744 OA
ENDBRANCH  77  81
ENDBRANCH  50  74
BRANCH  62  85
ATOM     85  C   UNL A   1      44.942  33.762  29.429  1.00  0.00     0.023 A 
ATOM     86  C   UNL A   1      44.760  34.777  28.475  1.00  0.00     0.031 A 
ATOM     87  C   UNL A   1      45.790  34.016  30.520  1.00  0.00     0.131 A 
ATOM     88  C   UNL A   1      45.460  35.985  28.601  1.00  0.00     0.055 A 
ATOM     89  C   UNL A   1      46.443  35.239  30.670  1.00  0.00     0.041 A 
ATOM     90  F   UNL A   1      45.999  33.076  31.456  1.00  0.00    -0.206 F 
ATOM     91  C   UNL A   1      46.289  36.228  29.701  1.00  0.00     0.022 A 
BRANCH  88  92
ATOM     92  S   UNL A   1      45.335  37.208  27.268  1.00  0.00     0.124 S 
ATOM     93  O   UNL A   1      43.945  37.057  26.850  1.00  0.00    -0.237 OA
ATOM     94  O   UNL A   1      45.664  38.454  27.952  1.00  0.00    -0.237 OA
ATOM     95  O   UNL A   1      46.329  36.756  26.295  1.00  0.00    -0.744 OA
ENDBRANCH  88  92
ENDBRANCH  62  85
ENDBRANCH  36  37
ENDBRANCH  29  31
ENDBRANCH  28  29
ENDBRANCH  27  28
ENDBRANCH   1  27
TORSDOF 18
ENDMDL
MODEL 3
REMARK VINA RESULT:     -11.7      1.817      2.112
REMARK SMILES Cc1ccc(N2CC[C@H]([NH+]3CCOCC3)[C@H](CCC(=O)OCCOC(=O)c3ccc(-c4c5nc(c(-c6cc(S(=O)(=O)[O-])ccc6F)c6ccc([nH]6)c(-c6cc(S(=O)(=O)[O-])ccc6F)c6nc(c(-c7cc(S(=O)(=O)[O-])ccc7F)c7ccc4[nH]7)C=C6)C=C5)cc3)C2)nc1
REMARK SMILES IDX 22 1 21 2 19 3 20 4 18 5 17 6 16 7 6 8 7 9 90 10 8 11 9 12
REMARK SMILES IDX 5 13 1 14 2 15 3 16 92 17 4 18 91 19 10 20 11 21 15 22 12 24
REMARK SMILES IDX 14 25 13 26 23 27 24 28 25 29 26 30 27 31 28 32 89 33 29 34
REMARK SMILES IDX 88 35 30 36 31 37 32 38 82 39 33 40 87 41 81 42 83 43 34 44
REMARK SMILES IDX 86 45 80 46 79 47 35 49 67 50 47 51 66 52 48 53 51 54 65 55
REMARK SMILES IDX 84 56 49 57 50 58 64 60 85 61 52 62 36 63 37 64 45 65 38 66
REMARK SMILES IDX 44 67 46 68 43 69 39 70 40 71 41 72 42 73 68 74 69 75 77 76
REMARK SMILES IDX 70 77 76 78 78 79 75 80 71 81 72 82 73 83 74 84 53 85 54 86
REMARK SMILES IDX 62 87 55 88 61 89 63 90 60 91 56 92 57 93 58 94 59 95
REMARK H PARENT 10 23 83 48 51 59
REMARK Flexibility Score: inf
ROOT
ATOM      1  C   UNL A   1      31.307  28.727  26.016  1.00  0.00     0.274 C 
ENDROOT
BRANCH   1   2
ATOM      2  O   UNL A   1      32.334  27.868  25.495  1.00  0.00    -0.462 OA
BRANCH   2   3
ATOM      3  C   UNL A   1      32.493  26.692  26.158  1.00  0.00     0.305 C 
ATOM      4  O   UNL A   1      31.637  26.146  26.843  1.00  0.00    -0.252 OA
BRANCH   3   5
ATOM      5  C   UNL A   1      33.789  26.025  25.777  1.00  0.00     0.123 C 
BRANCH   5   6
ATOM      6  C   UNL A   1      34.139  25.880  24.308  1.00  0.00     0.023 C 
BRANCH   6   7
ATOM      7  C   UNL A   1      34.247  24.490  23.641  1.00  0.00     0.067 C 
ATOM      8  N   UNL A   1      31.896  24.415  22.795  1.00  0.00    -0.356 N 
ATOM      9  C   UNL A   1      31.545  23.266  23.616  1.00  0.00     0.124 C 
ATOM     10  C   UNL A   1      33.299  24.523  22.395  1.00  0.00     0.127 C 
ATOM     11  C   UNL A   1      32.409  23.207  24.873  1.00  0.00     0.087 C 
ATOM     12  C   UNL A   1      33.892  23.198  24.475  1.00  0.00     0.190 C 
BRANCH   8  13
ATOM     13  C   UNL A   1      31.114  25.549  22.971  1.00  0.00     0.128 A 
ATOM     14  C   UNL A   1      28.408  28.838  23.343  1.00  0.00     0.046 C 
ATOM     15  C   UNL A   1      29.387  27.717  23.194  1.00  0.00    -0.033 A 
ATOM     16  C   UNL A   1      30.498  27.803  22.361  1.00  0.00     0.009 A 
ATOM     17  C   UNL A   1      29.231  26.543  23.911  1.00  0.00     0.117 A 
ATOM     18  C   UNL A   1      31.372  26.716  22.258  1.00  0.00     0.047 A 
ATOM     19  N   UNL A   1      30.045  25.470  23.795  1.00  0.00    -0.239 NA
ENDBRANCH   8  13
BRANCH  12  20
ATOM     20  N   UNL A   1      34.850  22.748  25.505  1.00  0.00    -0.328 N 
ATOM     21  C   UNL A   1      36.250  23.187  25.270  1.00  0.00     0.291 C 
ATOM     22  C   UNL A   1      34.878  21.338  25.914  1.00  0.00     0.291 C 
ATOM     23  H   UNL A   1      34.426  23.237  26.291  1.00  0.00     0.348 HD
ATOM     24  C   UNL A   1      37.167  22.198  24.518  1.00  0.00     0.221 C 
ATOM     25  C   UNL A   1      35.788  20.403  25.112  1.00  0.00     0.221 C 
ATOM     26  O   UNL A   1      37.131  20.890  25.089  1.00  0.00    -0.370 OA
ENDBRANCH  12  20
ENDBRANCH   6   7
ENDBRANCH   5   6
ENDBRANCH   3   5
ENDBRANCH   2   3
ENDBRANCH   1   2
BRANCH   1  27
ATOM     27  C   UNL A   1      31.647  30.175  25.668  1.00  0.00     0.275 C 
BRANCH  27  28
ATOM     28  O   UNL A   1      33.032  30.441  25.970  1.00  0.00    -0.458 OA
BRANCH  28  29
ATOM     29  C   UNL A   1      33.250  31.360  26.942  1.00  0.00     0.338 C 
ATOM     30  O   UNL A   1      32.512  32.271  27.276  1.00  0.00    -0.246 OA
BRANCH  29  31
ATOM     31  C   UNL A   1      34.544  31.097  27.591  1.00  0.00     0.060 A 
ATOM     32  C   UNL A   1      34.863  29.809  28.025  1.00  0.00     0.016 A 
ATOM     33  C   UNL A   1      35.398  32.163  27.867  1.00  0.00     0.016 A 
ATOM     34  C   UNL A   1      35.999  29.594  28.797  1.00  0.00     0.010 A 
ATOM     35  C   UNL A   1      36.597  31.922  28.541  1.00  0.00     0.010 A 
ATOM     36  C   UNL A   1      36.905  30.637  29.023  1.00  0.00    -0.014 A 
BRANCH  36  37
ATOM     37  C   UNL A   1      38.188  30.382  29.729  1.00  0.00     0.031 A 
ATOM     38  C   UNL A   1      39.209  29.462  29.124  1.00  0.00     0.074 A 
ATOM     39  C   UNL A   1      38.413  30.956  30.928  1.00  0.00     0.049 A 
ATOM     40  N   UNL A   1      40.260  28.915  29.674  1.00  0.00    -0.248 NA
ATOM     41  C   UNL A   1      39.009  29.096  27.713  1.00  0.00     0.031 C 
ATOM     42  C   UNL A   1      37.522  31.913  31.591  1.00  0.00     0.029 A 
ATOM     43  N   UNL A   1      39.453  30.812  31.811  1.00  0.00    -0.354 N 
ATOM     44  C   UNL A   1      40.823  28.102  28.696  1.00  0.00     0.074 A 
ATOM     45  C   UNL A   1      39.988  28.224  27.519  1.00  0.00     0.031 C 
ATOM     46  C   UNL A   1      38.062  32.283  32.760  1.00  0.00     0.029 A 
ATOM     47  C   UNL A   1      39.276  31.512  32.982  1.00  0.00     0.049 A 
ATOM     48  H   UNL A   1      40.247  30.261  31.625  1.00  0.00     0.167 HD
ATOM     49  C   UNL A   1      41.929  27.322  28.785  1.00  0.00     0.034 A 
ATOM     50  C   UNL A   1      39.970  31.484  34.136  1.00  0.00     0.034 A 
ATOM     51  C   UNL A   1      42.752  27.241  29.969  1.00  0.00     0.049 A 
ATOM     52  C   UNL A   1      41.143  30.549  34.241  1.00  0.00     0.074 A 
ATOM     53  C   UNL A   1      43.907  26.504  30.172  1.00  0.00     0.029 A 
ATOM     54  N   UNL A   1      42.506  27.924  31.155  1.00  0.00    -0.354 N 
ATOM     55  N   UNL A   1      41.630  29.734  33.333  1.00  0.00    -0.248 NA
ATOM     56  C   UNL A   1      41.840  30.509  35.531  1.00  0.00     0.031 C 
ATOM     57  C   UNL A   1      44.321  26.694  31.497  1.00  0.00     0.029 A 
ATOM     58  C   UNL A   1      43.465  27.600  32.103  1.00  0.00     0.049 A 
ATOM     59  H   UNL A   1      41.759  28.549  31.300  1.00  0.00     0.167 HD
ATOM     60  C   UNL A   1      42.696  29.085  33.945  1.00  0.00     0.074 A 
ATOM     61  C   UNL A   1      42.795  29.623  35.287  1.00  0.00     0.031 C 
ATOM     62  C   UNL A   1      43.518  28.126  33.446  1.00  0.00     0.034 A 
BRANCH  49  63
ATOM     63  C   UNL A   1      42.262  26.449  27.599  1.00  0.00     0.023 A 
ATOM     64  C   UNL A   1      41.791  25.129  27.484  1.00  0.00     0.031 A 
ATOM     65  C   UNL A   1      43.100  26.938  26.581  1.00  0.00     0.131 A 
ATOM     66  C   UNL A   1      42.215  24.324  26.415  1.00  0.00     0.055 A 
ATOM     67  C   UNL A   1      43.460  26.156  25.481  1.00  0.00     0.041 A 
ATOM     68  F   UNL A   1      43.599  28.182  26.645  1.00  0.00    -0.206 F 
ATOM     69  C   UNL A   1      43.029  24.836  25.401  1.00  0.00     0.022 A 
BRANCH  66  70
ATOM     70  S   UNL A   1      41.800  22.558  26.436  1.00  0.00     0.124 S 
ATOM     71  O   UNL A   1      42.556  22.061  25.289  1.00  0.00    -0.237 OA
ATOM     72  O   UNL A   1      42.279  22.137  27.748  1.00  0.00    -0.237 OA
ATOM     73  O   UNL A   1      40.348  22.544  26.269  1.00  0.00    -0.744 OA
ENDBRANCH  66  70
ENDBRANCH  49  63
BRANCH  50  74
ATOM     74  C   UNL A   1      39.518  32.290  35.306  1.00  0.00     0.023 A 
ATOM     75  C   UNL A   1      39.918  33.625  35.467  1.00  0.00     0.031 A 
ATOM     76  C   UNL A   1      38.687  31.726  36.294  1.00  0.00     0.131 A 
ATOM     77  C   UNL A   1      39.509  34.343  36.601  1.00  0.00     0.055 A 
ATOM     78  C   UNL A   1      38.240  32.461  37.392  1.00  0.00     0.041 A 
ATOM     79  F   UNL A   1      38.276  30.451  36.190  1.00  0.00    -0.206 F 
ATOM     80  C   UNL A   1      38.661  33.776  37.555  1.00  0.00     0.022 A 
BRANCH  77  81
ATOM     81  S   UNL A   1      40.161  36.017  36.850  1.00  0.00     0.124 S 
ATOM     82  O   UNL A   1      41.578  35.755  37.077  1.00  0.00    -0.237 OA
ATOM     83  O   UNL A   1      39.822  36.665  35.587  1.00  0.00    -0.237 OA
ATOM     84  O   UNL A   1      39.422  36.501  38.014  1.00  0.00    -0.744 OA
ENDBRANCH  77  81
ENDBRANCH  50  74
BRANCH  62  85
ATOM     85  C   UNL A   1      44.595  27.625  34.370  1.00  0.00     0.023 A 
ATOM     86  C   UNL A   1      45.851  28.254  34.438  1.00  0.00     0.031 A 
ATOM     87  C   UNL A   1      44.375  26.489  35.167  1.00  0.00     0.131 A 
ATOM     88  C   UNL A   1      46.859  27.711  35.246  1.00  0.00     0.055 A 
ATOM     89  C   UNL A   1      45.364  25.984  36.011  1.00  0.00     0.041 A 
ATOM     90  F   UNL A   1      43.194  25.850  35.135  1.00  0.00    -0.206 F 
ATOM     91  C   UNL A   1      46.619  26.589  36.045  1.00  0.00     0.022 A 
BRANCH  88  92
ATOM     92  S   UNL A   1      48.516  28.446  35.183  1.00  0.00     0.124 S 
ATOM     93  O   UNL A   1      48.691  28.672  33.752  1.00  0.00    -0.237 OA
ATOM     94  O   UNL A   1      48.361  29.642  36.004  1.00  0.00    -0.237 OA
ATOM     95  O   UNL A   1      49.372  27.408  35.757  1.00  0.00    -0.744 OA
ENDBRANCH  88  92
ENDBRANCH  62  85
ENDBRANCH  36  37
ENDBRANCH  29  31
ENDBRANCH  28  29
ENDBRANCH  27  28
ENDBRANCH   1  27
TORSDOF 18
ENDMDL
