MODEL 1
REMARK VINA RESULT:     -12.2      0.000      0.000
REMARK SMILES COc1ccc2c(c1)c(CC(=O)OCCOC(=O)c1ccc(-c3c4nc(c(-c5cc(S(=O)(=O)[O-])ccc5F)c5ccc([nH]5)c(-c5cc(S(=O)(=O)[O-])ccc5F)c5nc(c(-c6cc(S(=O)(=O)[O-])ccc6F)c6ccc3[nH]6)C=C5)C=C4)cc1)c(C)n2Cc1ccc(Br)cc1
REMARK SMILES IDX 14 1 13 2 11 3 12 4 10 5 9 6 3 7 4 8 8 9 5 10 7 11 6 12
REMARK SMILES IDX 84 13 82 14 83 15 2 16 1 17 85 18 86 19 87 20 92 21 88 22
REMARK SMILES IDX 91 23 89 24 90 25 15 26 16 27 17 28 18 29 19 30 20 31 81 32
REMARK SMILES IDX 21 33 80 34 22 35 23 36 24 37 74 38 25 39 79 40 73 41 75 42
REMARK SMILES IDX 26 43 78 44 72 45 71 46 27 48 59 49 39 50 58 51 40 52 43 53
REMARK SMILES IDX 57 54 76 55 41 56 42 57 56 59 77 60 44 61 28 62 29 63 37 64
REMARK SMILES IDX 30 65 36 66 38 67 35 68 31 69 32 70 33 71 34 72 60 73 61 74
REMARK SMILES IDX 69 75 62 76 68 77 70 78 67 79 63 80 64 81 65 82 66 83 45 84
REMARK SMILES IDX 46 85 54 86 47 87 53 88 55 89 52 90 48 91 49 92 50 93 51 94
REMARK H PARENT 75 47 43 58
REMARK Flexibility Score: inf
ROOT
ATOM      1  C   UNL A   1      37.037  22.294  24.295  1.00  0.00     0.274 C 
ENDROOT
BRANCH   1   2
ATOM      2  O   UNL A   1      35.601  22.435  24.346  1.00  0.00    -0.462 OA
BRANCH   2   3
ATOM      3  C   UNL A   1      35.131  23.674  24.053  1.00  0.00     0.310 C 
ATOM      4  O   UNL A   1      34.955  24.081  22.907  1.00  0.00    -0.252 OA
BRANCH   3   5
ATOM      5  C   UNL A   1      34.921  24.579  25.231  1.00  0.00     0.160 C 
BRANCH   5   6
ATOM      6  C   UNL A   1      33.671  25.390  25.400  1.00  0.00    -0.008 A 
ATOM      7  C   UNL A   1      33.532  28.937  26.935  1.00  0.00     0.119 A 
ATOM      8  C   UNL A   1      32.178  29.136  26.711  1.00  0.00     0.048 A 
ATOM      9  C   UNL A   1      34.149  27.768  26.456  1.00  0.00     0.057 A 
ATOM     10  C   UNL A   1      31.409  28.158  26.066  1.00  0.00     0.031 A 
ATOM     11  C   UNL A   1      33.397  26.721  25.874  1.00  0.00     0.007 A 
ATOM     12  C   UNL A   1      32.021  26.942  25.707  1.00  0.00     0.049 A 
ATOM     13  N   UNL A   1      31.507  25.782  25.156  1.00  0.00    -0.340 N 
ATOM     14  C   UNL A   1      32.424  24.776  25.345  1.00  0.00     0.020 A 
ATOM     15  C   UNL A   1      32.116  23.317  25.424  1.00  0.00     0.065 C 
BRANCH   7  16
ATOM     16  O   UNL A   1      34.358  29.833  27.561  1.00  0.00    -0.497 OA
ATOM     17  C   UNL A   1      33.834  31.142  27.773  1.00  0.00     0.278 C 
ENDBRANCH   7  16
BRANCH  13  18
ATOM     18  C   UNL A   1      30.195  25.625  24.536  1.00  0.00     0.157 C 
BRANCH  18  19
ATOM     19  C   UNL A   1      29.795  26.861  23.746  1.00  0.00    -0.028 A 
ATOM     20  C   UNL A   1      30.721  27.553  22.948  1.00  0.00     0.007 A 
ATOM     21  C   UNL A   1      28.480  27.345  23.792  1.00  0.00     0.007 A 
ATOM     22  C   UNL A   1      30.373  28.714  22.257  1.00  0.00     0.016 A 
ATOM     23  C   UNL A   1      28.116  28.493  23.076  1.00  0.00     0.016 A 
ATOM     24  C   UNL A   1      29.067  29.178  22.322  1.00  0.00     0.017 A 
ATOM     25  Br  UNL A   1      28.583  30.741  21.376  1.00  0.00    -0.051 Br
ENDBRANCH  18  19
ENDBRANCH  13  18
ENDBRANCH   5   6
ENDBRANCH   3   5
ENDBRANCH   2   3
ENDBRANCH   1   2
BRANCH   1  26
ATOM     26  C   UNL A   1      37.598  22.024  25.694  1.00  0.00     0.275 C 
BRANCH  26  27
ATOM     27  O   UNL A   1      38.953  22.494  25.740  1.00  0.00    -0.458 OA
BRANCH  27  28
ATOM     28  C   UNL A   1      39.603  22.390  26.924  1.00  0.00     0.338 C 
ATOM     29  O   UNL A   1      40.169  21.407  27.373  1.00  0.00    -0.246 OA
BRANCH  28  30
ATOM     30  C   UNL A   1      39.751  23.769  27.422  1.00  0.00     0.060 A 
ATOM     31  C   UNL A   1      38.849  24.750  27.014  1.00  0.00     0.016 A 
ATOM     32  C   UNL A   1      40.902  24.113  28.142  1.00  0.00     0.016 A 
ATOM     33  C   UNL A   1      39.158  26.085  27.243  1.00  0.00     0.010 A 
ATOM     34  C   UNL A   1      41.227  25.453  28.336  1.00  0.00     0.010 A 
ATOM     35  C   UNL A   1      40.372  26.442  27.858  1.00  0.00    -0.014 A 
BRANCH  35  36
ATOM     36  C   UNL A   1      40.486  27.812  28.347  1.00  0.00     0.031 A 
ATOM     37  C   UNL A   1      41.686  28.456  27.774  1.00  0.00     0.074 A 
ATOM     38  C   UNL A   1      39.682  28.552  29.134  1.00  0.00     0.049 A 
ATOM     39  N   UNL A   1      42.867  28.468  28.296  1.00  0.00    -0.248 NA
ATOM     40  C   UNL A   1      41.622  28.933  26.386  1.00  0.00     0.031 C 
ATOM     41  C   UNL A   1      38.283  28.324  29.485  1.00  0.00     0.029 A 
ATOM     42  N   UNL A   1      39.972  29.745  29.747  1.00  0.00    -0.354 N 
ATOM     43  C   UNL A   1      43.630  29.214  27.413  1.00  0.00     0.074 A 
ATOM     44  C   UNL A   1      42.904  29.226  26.168  1.00  0.00     0.031 C 
ATOM     45  C   UNL A   1      37.789  29.441  30.079  1.00  0.00     0.029 A 
ATOM     46  C   UNL A   1      38.878  30.382  30.312  1.00  0.00     0.049 A 
ATOM     47  H   UNL A   1      40.882  30.118  29.783  1.00  0.00     0.167 HD
ATOM     48  C   UNL A   1      44.594  30.051  27.888  1.00  0.00     0.034 A 
ATOM     49  C   UNL A   1      38.868  31.595  30.920  1.00  0.00     0.034 A 
ATOM     50  C   UNL A   1      44.849  29.809  29.286  1.00  0.00     0.049 A 
ATOM     51  C   UNL A   1      40.226  31.916  31.414  1.00  0.00     0.074 A 
ATOM     52  C   UNL A   1      45.549  28.908  30.056  1.00  0.00     0.029 A 
ATOM     53  N   UNL A   1      43.978  30.457  30.118  1.00  0.00    -0.354 N 
ATOM     54  N   UNL A   1      40.803  31.306  32.412  1.00  0.00    -0.248 NA
ATOM     55  C   UNL A   1      41.088  32.806  30.641  1.00  0.00     0.031 C 
ATOM     56  C   UNL A   1      45.024  29.006  31.382  1.00  0.00     0.029 A 
ATOM     57  C   UNL A   1      44.024  29.973  31.399  1.00  0.00     0.049 A 
ATOM     58  H   UNL A   1      43.386  31.188  29.830  1.00  0.00     0.167 HD
ATOM     59  C   UNL A   1      42.144  31.381  32.111  1.00  0.00     0.074 A 
ATOM     60  C   UNL A   1      42.271  32.471  31.155  1.00  0.00     0.031 C 
ATOM     61  C   UNL A   1      42.972  30.322  32.335  1.00  0.00     0.034 A 
BRANCH  48  62
ATOM     62  C   UNL A   1      44.924  31.390  27.260  1.00  0.00     0.023 A 
ATOM     63  C   UNL A   1      44.096  32.523  27.361  1.00  0.00     0.031 A 
ATOM     64  C   UNL A   1      46.212  31.624  26.737  1.00  0.00     0.131 A 
ATOM     65  C   UNL A   1      44.518  33.792  26.947  1.00  0.00     0.055 A 
ATOM     66  C   UNL A   1      46.662  32.904  26.388  1.00  0.00     0.041 A 
ATOM     67  F   UNL A   1      47.095  30.621  26.600  1.00  0.00    -0.206 F 
ATOM     68  C   UNL A   1      45.813  33.998  26.491  1.00  0.00     0.022 A 
BRANCH  65  69
ATOM     69  S   UNL A   1      43.372  35.198  27.019  1.00  0.00     0.124 S 
ATOM     70  O   UNL A   1      42.706  35.114  25.725  1.00  0.00    -0.237 OA
ATOM     71  O   UNL A   1      42.555  34.847  28.178  1.00  0.00    -0.237 OA
ATOM     72  O   UNL A   1      44.253  36.347  27.211  1.00  0.00    -0.744 OA
ENDBRANCH  65  69
ENDBRANCH  48  62
BRANCH  49  73
ATOM     73  C   UNL A   1      37.826  32.645  30.921  1.00  0.00     0.023 A 
ATOM     74  C   UNL A   1      37.152  32.942  32.116  1.00  0.00     0.031 A 
ATOM     75  C   UNL A   1      37.241  33.081  29.716  1.00  0.00     0.131 A 
ATOM     76  C   UNL A   1      35.901  33.578  32.078  1.00  0.00     0.055 A 
ATOM     77  C   UNL A   1      36.002  33.727  29.683  1.00  0.00     0.041 A 
ATOM     78  F   UNL A   1      37.823  32.812  28.537  1.00  0.00    -0.206 F 
ATOM     79  C   UNL A   1      35.316  33.961  30.868  1.00  0.00     0.022 A 
BRANCH  76  80
ATOM     80  S   UNL A   1      34.961  33.846  33.605  1.00  0.00     0.124 S 
ATOM     81  O   UNL A   1      35.685  33.017  34.565  1.00  0.00    -0.237 OA
ATOM     82  O   UNL A   1      35.098  35.286  33.790  1.00  0.00    -0.237 OA
ATOM     83  O   UNL A   1      33.623  33.369  33.268  1.00  0.00    -0.744 OA
ENDBRANCH  76  80
ENDBRANCH  49  73
BRANCH  61  84
ATOM     84  C   UNL A   1      42.685  29.405  33.488  1.00  0.00     0.023 A 
ATOM     85  C   UNL A   1      43.411  29.641  34.670  1.00  0.00     0.031 A 
ATOM     86  C   UNL A   1      41.825  28.295  33.463  1.00  0.00     0.131 A 
ATOM     87  C   UNL A   1      43.301  28.774  35.759  1.00  0.00     0.055 A 
ATOM     88  C   UNL A   1      41.663  27.468  34.581  1.00  0.00     0.041 A 
ATOM     89  F   UNL A   1      41.163  27.942  32.350  1.00  0.00    -0.206 F 
ATOM     90  C   UNL A   1      42.414  27.696  35.732  1.00  0.00     0.022 A 
BRANCH  87  91
ATOM     91  S   UNL A   1      44.403  28.960  37.184  1.00  0.00     0.124 S 
ATOM     92  O   UNL A   1      45.709  29.109  36.549  1.00  0.00    -0.237 OA
ATOM     93  O   UNL A   1      43.878  30.163  37.828  1.00  0.00    -0.237 OA
ATOM     94  O   UNL A   1      44.214  27.725  37.941  1.00  0.00    -0.744 OA
ENDBRANCH  87  91
ENDBRANCH  61  84
ENDBRANCH  35  36
ENDBRANCH  28  30
ENDBRANCH  27  28
ENDBRANCH  26  27
ENDBRANCH   1  26
TORSDOF 18
ENDMDL
MODEL 2
REMARK VINA RESULT:     -12.2      1.854      2.864
REMARK SMILES COc1ccc2c(c1)c(CC(=O)OCCOC(=O)c1ccc(-c3c4nc(c(-c5cc(S(=O)(=O)[O-])ccc5F)c5ccc([nH]5)c(-c5cc(S(=O)(=O)[O-])ccc5F)c5nc(c(-c6cc(S(=O)(=O)[O-])ccc6F)c6ccc3[nH]6)C=C5)C=C4)cc1)c(C)n2Cc1ccc(Br)cc1
REMARK SMILES IDX 14 1 13 2 11 3 12 4 10 5 9 6 3 7 4 8 8 9 5 10 7 11 6 12
REMARK SMILES IDX 84 13 82 14 83 15 2 16 1 17 85 18 86 19 87 20 92 21 88 22
REMARK SMILES IDX 91 23 89 24 90 25 15 26 16 27 17 28 18 29 19 30 20 31 81 32
REMARK SMILES IDX 21 33 80 34 22 35 23 36 24 37 74 38 25 39 79 40 73 41 75 42
REMARK SMILES IDX 26 43 78 44 72 45 71 46 27 48 59 49 39 50 58 51 40 52 43 53
REMARK SMILES IDX 57 54 76 55 41 56 42 57 56 59 77 60 44 61 28 62 29 63 37 64
REMARK SMILES IDX 30 65 36 66 38 67 35 68 31 69 32 70 33 71 34 72 60 73 61 74
REMARK SMILES IDX 69 75 62 76 68 77 70 78 67 79 63 80 64 81 65 82 66 83 45 84
REMARK SMILES IDX 46 85 54 86 47 87 53 88 55 89 52 90 48 91 49 92 50 93 51 94
REMARK H PARENT 75 47 43 58
REMARK Flexibility Score: inf
ROOT
ATOM      1  C   UNL A   1      38.008  22.236  25.696  1.00  0.00     0.274 C 
ENDROOT
BRANCH   1   2
ATOM      2  O   UNL A   1      37.216  21.173  25.124  1.00  0.00    -0.462 OA
BRANCH   2   3
ATOM      3  C   UNL A   1      35.906  21.174  25.477  1.00  0.00     0.310 C 
ATOM      4  O   UNL A   1      35.117  20.284  25.168  1.00  0.00    -0.252 OA
BRANCH   3   5
ATOM      5  C   UNL A   1      35.436  22.399  26.204  1.00  0.00     0.160 C 
BRANCH   5   6
ATOM      6  C   UNL A   1      34.361  23.289  25.654  1.00  0.00    -0.008 A 
ATOM      7  C   UNL A   1      30.717  23.404  26.945  1.00  0.00     0.119 A 
ATOM      8  C   UNL A   1      30.308  24.446  26.125  1.00  0.00     0.048 A 
ATOM      9  C   UNL A   1      32.065  23.004  26.937  1.00  0.00     0.057 A 
ATOM     10  C   UNL A   1      31.211  25.060  25.246  1.00  0.00     0.031 A 
ATOM     11  C   UNL A   1      32.989  23.540  26.010  1.00  0.00     0.007 A 
ATOM     12  C   UNL A   1      32.524  24.559  25.165  1.00  0.00     0.049 A 
ATOM     13  N   UNL A   1      33.585  24.893  24.342  1.00  0.00    -0.340 N 
ATOM     14  C   UNL A   1      34.509  23.877  24.403  1.00  0.00     0.020 A 
ATOM     15  C   UNL A   1      35.496  23.530  23.338  1.00  0.00     0.065 C 
BRANCH   7  16
ATOM     16  O   UNL A   1      29.904  22.743  27.827  1.00  0.00    -0.497 OA
ATOM     17  C   UNL A   1      28.651  22.289  27.323  1.00  0.00     0.278 C 
ENDBRANCH   7  16
BRANCH  13  18
ATOM     18  C   UNL A   1      33.690  26.082  23.502  1.00  0.00     0.157 C 
BRANCH  18  19
ATOM     19  C   UNL A   1      33.331  27.346  24.269  1.00  0.00    -0.028 A 
ATOM     20  C   UNL A   1      33.943  27.659  25.495  1.00  0.00     0.007 A 
ATOM     21  C   UNL A   1      32.373  28.239  23.768  1.00  0.00     0.007 A 
ATOM     22  C   UNL A   1      33.586  28.792  26.226  1.00  0.00     0.016 A 
ATOM     23  C   UNL A   1      32.033  29.394  24.483  1.00  0.00     0.016 A 
ATOM     24  C   UNL A   1      32.631  29.659  25.713  1.00  0.00     0.017 A 
ATOM     25  Br  UNL A   1      32.154  31.204  26.691  1.00  0.00    -0.051 Br
ENDBRANCH  18  19
ENDBRANCH  13  18
ENDBRANCH   5   6
ENDBRANCH   3   5
ENDBRANCH   2   3
ENDBRANCH   1   2
BRANCH   1  26
ATOM     26  C   UNL A   1      39.367  21.703  26.158  1.00  0.00     0.275 C 
BRANCH  26  27
ATOM     27  O   UNL A   1      39.781  22.448  27.312  1.00  0.00    -0.458 OA
BRANCH  27  28
ATOM     28  C   UNL A   1      41.052  22.919  27.320  1.00  0.00     0.338 C 
ATOM     29  O   UNL A   1      42.058  22.340  26.944  1.00  0.00    -0.246 OA
BRANCH  28  30
ATOM     30  C   UNL A   1      40.941  24.364  27.588  1.00  0.00     0.060 A 
ATOM     31  C   UNL A   1      41.903  24.996  28.373  1.00  0.00     0.016 A 
ATOM     32  C   UNL A   1      39.773  25.037  27.211  1.00  0.00     0.016 A 
ATOM     33  C   UNL A   1      41.642  26.270  28.862  1.00  0.00     0.010 A 
ATOM     34  C   UNL A   1      39.497  26.298  27.734  1.00  0.00     0.010 A 
ATOM     35  C   UNL A   1      40.416  26.903  28.586  1.00  0.00    -0.014 A 
BRANCH  35  36
ATOM     36  C   UNL A   1      40.338  28.336  28.856  1.00  0.00     0.031 A 
ATOM     37  C   UNL A   1      41.501  29.027  28.263  1.00  0.00     0.074 A 
ATOM     38  C   UNL A   1      39.396  29.082  29.463  1.00  0.00     0.049 A 
ATOM     39  N   UNL A   1      42.628  29.262  28.847  1.00  0.00    -0.248 NA
ATOM     40  C   UNL A   1      41.496  29.276  26.814  1.00  0.00     0.031 C 
ATOM     41  C   UNL A   1      38.008  28.741  29.759  1.00  0.00     0.029 A 
ATOM     42  N   UNL A   1      39.502  30.381  29.894  1.00  0.00    -0.354 N 
ATOM     43  C   UNL A   1      43.371  29.954  27.906  1.00  0.00     0.074 A 
ATOM     44  C   UNL A   1      42.751  29.688  26.632  1.00  0.00     0.031 C 
ATOM     45  C   UNL A   1      37.347  29.866  30.136  1.00  0.00     0.029 A 
ATOM     46  C   UNL A   1      38.303  30.957  30.282  1.00  0.00     0.049 A 
ATOM     47  H   UNL A   1      40.359  30.863  29.926  1.00  0.00     0.167 HD
ATOM     48  C   UNL A   1      44.195  30.964  28.299  1.00  0.00     0.034 A 
ATOM     49  C   UNL A   1      38.110  32.238  30.687  1.00  0.00     0.034 A 
ATOM     50  C   UNL A   1      44.363  30.969  29.731  1.00  0.00     0.049 A 
ATOM     51  C   UNL A   1      39.379  32.793  31.207  1.00  0.00     0.074 A 
ATOM     52  C   UNL A   1      45.095  30.288  30.677  1.00  0.00     0.029 A 
ATOM     53  N   UNL A   1      43.362  31.625  30.394  1.00  0.00    -0.354 N 
ATOM     54  N   UNL A   1      39.939  32.417  32.322  1.00  0.00    -0.248 NA
ATOM     55  C   UNL A   1      40.196  33.655  30.355  1.00  0.00     0.031 C 
ATOM     56  C   UNL A   1      44.458  30.520  31.935  1.00  0.00     0.029 A 
ATOM     57  C   UNL A   1      43.359  31.349  31.736  1.00  0.00     0.049 A 
ATOM     58  H   UNL A   1      42.718  32.226  29.956  1.00  0.00     0.167 HD
ATOM     59  C   UNL A   1      41.284  32.608  32.097  1.00  0.00     0.074 A 
ATOM     60  C   UNL A   1      41.365  33.548  30.988  1.00  0.00     0.031 C 
ATOM     61  C   UNL A   1      42.203  31.705  32.538  1.00  0.00     0.034 A 
BRANCH  48  62
ATOM     62  C   UNL A   1      44.424  32.223  27.487  1.00  0.00     0.023 A 
ATOM     63  C   UNL A   1      43.848  33.467  27.801  1.00  0.00     0.031 A 
ATOM     64  C   UNL A   1      45.431  32.251  26.501  1.00  0.00     0.131 A 
ATOM     65  C   UNL A   1      44.233  34.649  27.157  1.00  0.00     0.055 A 
ATOM     66  C   UNL A   1      45.869  33.441  25.906  1.00  0.00     0.041 A 
ATOM     67  F   UNL A   1      46.060  31.126  26.123  1.00  0.00    -0.206 F 
ATOM     68  C   UNL A   1      45.269  34.650  26.232  1.00  0.00     0.022 A 
BRANCH  65  69
ATOM     69  S   UNL A   1      43.389  36.209  27.541  1.00  0.00     0.124 S 
ATOM     70  O   UNL A   1      44.491  37.044  28.005  1.00  0.00    -0.237 OA
ATOM     71  O   UNL A   1      42.827  36.562  26.240  1.00  0.00    -0.237 OA
ATOM     72  O   UNL A   1      42.408  35.826  28.554  1.00  0.00    -0.744 OA
ENDBRANCH  65  69
ENDBRANCH  48  62
BRANCH  49  73
ATOM     73  C   UNL A   1      36.961  33.140  30.456  1.00  0.00     0.023 A 
ATOM     74  C   UNL A   1      36.200  33.579  31.552  1.00  0.00     0.031 A 
ATOM     75  C   UNL A   1      36.391  33.270  29.174  1.00  0.00     0.131 A 
ATOM     76  C   UNL A   1      34.892  34.046  31.357  1.00  0.00     0.055 A 
ATOM     77  C   UNL A   1      35.092  33.749  28.982  1.00  0.00     0.041 A 
ATOM     78  F   UNL A   1      37.057  32.851  28.086  1.00  0.00    -0.206 F 
ATOM     79  C   UNL A   1      34.328  34.122  30.081  1.00  0.00     0.022 A 
BRANCH  76  80
ATOM     80  S   UNL A   1      33.854  34.488  32.777  1.00  0.00     0.124 S 
ATOM     81  O   UNL A   1      33.529  33.181  33.342  1.00  0.00    -0.237 OA
ATOM     82  O   UNL A   1      34.765  35.305  33.569  1.00  0.00    -0.237 OA
ATOM     83  O   UNL A   1      32.728  35.191  32.169  1.00  0.00    -0.744 OA
ENDBRANCH  76  80
ENDBRANCH  49  73
BRANCH  61  84
ATOM     84  C   UNL A   1      41.928  30.945  33.802  1.00  0.00     0.023 A 
ATOM     85  C   UNL A   1      42.376  31.537  34.997  1.00  0.00     0.031 A 
ATOM     86  C   UNL A   1      41.343  29.671  33.886  1.00  0.00     0.131 A 
ATOM     87  C   UNL A   1      42.272  30.858  36.213  1.00  0.00     0.055 A 
ATOM     88  C   UNL A   1      41.175  29.021  35.116  1.00  0.00     0.041 A 
ATOM     89  F   UNL A   1      40.970  28.993  32.789  1.00  0.00    -0.206 F 
ATOM     90  C   UNL A   1      41.654  29.608  36.285  1.00  0.00     0.022 A 
BRANCH  87  91
ATOM     91  S   UNL A   1      43.051  31.533  37.701  1.00  0.00     0.124 S 
ATOM     92  O   UNL A   1      41.906  31.748  38.582  1.00  0.00    -0.237 OA
ATOM     93  O   UNL A   1      43.953  30.453  38.098  1.00  0.00    -0.237 OA
ATOM     94  O   UNL A   1      43.715  32.747  37.233  1.00  0.00    -0.744 OA
ENDBRANCH  87  91
ENDBRANCH  61  84
ENDBRANCH  35  36
ENDBRANCH  28  30
ENDBRANCH  27  28
ENDBRANCH  26  27
ENDBRANCH   1  26
TORSDOF 18
ENDMDL
MODEL 3
REMARK VINA RESULT:     -12.1      5.206      8.302
REMARK SMILES COc1ccc2c(c1)c(CC(=O)OCCOC(=O)c1ccc(-c3c4nc(c(-c5cc(S(=O)(=O)[O-])ccc5F)c5ccc([nH]5)c(-c5cc(S(=O)(=O)[O-])ccc5F)c5nc(c(-c6cc(S(=O)(=O)[O-])ccc6F)c6ccc3[nH]6)C=C5)C=C4)cc1)c(C)n2Cc1ccc(Br)cc1
REMARK SMILES IDX 14 1 13 2 11 3 12 4 10 5 9 6 3 7 4 8 8 9 5 10 7 11 6 12
REMARK SMILES IDX 84 13 82 14 83 15 2 16 1 17 85 18 86 19 87 20 92 21 88 22
REMARK SMILES IDX 91 23 89 24 90 25 15 26 16 27 17 28 18 29 19 30 20 31 81 32
REMARK SMILES IDX 21 33 80 34 22 35 23 36 24 37 74 38 25 39 79 40 73 41 75 42
REMARK SMILES IDX 26 43 78 44 72 45 71 46 27 48 59 49 39 50 58 51 40 52 43 53
REMARK SMILES IDX 57 54 76 55 41 56 42 57 56 59 77 60 44 61 28 62 29 63 37 64
REMARK SMILES IDX 30 65 36 66 38 67 35 68 31 69 32 70 33 71 34 72 60 73 61 74
REMARK SMILES IDX 69 75 62 76 68 77 70 78 67 79 63 80 64 81 65 82 66 83 45 84
REMARK SMILES IDX 46 85 54 86 47 87 53 88 55 89 52 90 48 91 49 92 50 93 51 94
REMARK H PARENT 75 47 43 58
REMARK Flexibility Score: inf
ROOT
ATOM      1  C   UNL A   1      44.040  21.144  25.370  1.00  0.00     0.274 C 
ENDROOT
BRANCH   1   2
ATOM      2  O   UNL A   1      43.769  22.115  24.338  1.00  0.00    -0.462 OA
BRANCH   2   3
ATOM      3  C   UNL A   1      44.447  23.285  24.452  1.00  0.00     0.310 C 
ATOM      4  O   UNL A   1      45.524  23.505  23.903  1.00  0.00    -0.252 OA
BRANCH   3   5
ATOM      5  C   UNL A   1      43.842  24.292  25.387  1.00  0.00     0.160 C 
BRANCH   5   6
ATOM      6  C   UNL A   1      44.684  25.221  26.210  1.00  0.00    -0.008 A 
ATOM      7  C   UNL A   1      46.504  28.346  24.840  1.00  0.00     0.119 A 
ATOM      8  C   UNL A   1      46.980  28.783  26.068  1.00  0.00     0.048 A 
ATOM      9  C   UNL A   1      45.654  27.229  24.785  1.00  0.00     0.057 A 
ATOM     10  C   UNL A   1      46.672  28.084  27.243  1.00  0.00     0.031 A 
ATOM     11  C   UNL A   1      45.384  26.448  25.934  1.00  0.00     0.007 A 
ATOM     12  C   UNL A   1      45.924  26.896  27.149  1.00  0.00     0.049 A 
ATOM     13  N   UNL A   1      45.554  25.965  28.103  1.00  0.00    -0.340 N 
ATOM     14  C   UNL A   1      45.161  24.820  27.453  1.00  0.00     0.020 A 
ATOM     15  C   UNL A   1      45.205  23.437  28.016  1.00  0.00     0.065 C 
BRANCH   7  16
ATOM     16  O   UNL A   1      46.758  28.962  23.643  1.00  0.00    -0.497 OA
ATOM     17  C   UNL A   1      47.461  28.195  22.668  1.00  0.00     0.278 C 
ENDBRANCH   7  16
BRANCH  13  18
ATOM     18  C   UNL A   1      45.624  26.134  29.551  1.00  0.00     0.157 C 
BRANCH  18  19
ATOM     19  C   UNL A   1      47.036  25.918  30.075  1.00  0.00    -0.028 A 
ATOM     20  C   UNL A   1      48.111  25.666  29.205  1.00  0.00     0.007 A 
ATOM     21  C   UNL A   1      47.304  25.966  31.450  1.00  0.00     0.007 A 
ATOM     22  C   UNL A   1      49.399  25.421  29.681  1.00  0.00     0.016 A 
ATOM     23  C   UNL A   1      48.602  25.752  31.932  1.00  0.00     0.016 A 
ATOM     24  C   UNL A   1      49.640  25.469  31.047  1.00  0.00     0.017 A 
ATOM     25  Br  UNL A   1      51.386  25.154  31.698  1.00  0.00    -0.051 Br
ENDBRANCH  18  19
ENDBRANCH  13  18
ENDBRANCH   5   6
ENDBRANCH   3   5
ENDBRANCH   2   3
ENDBRANCH   1   2
BRANCH   1  26
ATOM     26  C   UNL A   1      42.741  20.714  26.056  1.00  0.00     0.275 C 
BRANCH  26  27
ATOM     27  O   UNL A   1      42.274  21.798  26.871  1.00  0.00    -0.458 OA
BRANCH  27  28
ATOM     28  C   UNL A   1      40.960  22.117  26.783  1.00  0.00     0.338 C 
ATOM     29  O   UNL A   1      40.040  21.381  26.467  1.00  0.00    -0.246 OA
BRANCH  28  30
ATOM     30  C   UNL A   1      40.823  23.433  27.432  1.00  0.00     0.060 A 
ATOM     31  C   UNL A   1      39.921  24.364  26.922  1.00  0.00     0.016 A 
ATOM     32  C   UNL A   1      41.736  23.797  28.429  1.00  0.00     0.016 A 
ATOM     33  C   UNL A   1      40.005  25.684  27.344  1.00  0.00     0.010 A 
ATOM     34  C   UNL A   1      41.844  25.129  28.822  1.00  0.00     0.010 A 
ATOM     35  C   UNL A   1      41.001  26.080  28.256  1.00  0.00    -0.014 A 
BRANCH  35  36
ATOM     36  C   UNL A   1      40.836  27.386  28.887  1.00  0.00     0.031 A 
ATOM     37  C   UNL A   1      41.754  28.366  28.273  1.00  0.00     0.074 A 
ATOM     38  C   UNL A   1      39.983  27.820  29.835  1.00  0.00     0.049 A 
ATOM     39  N   UNL A   1      42.953  28.638  28.667  1.00  0.00    -0.248 NA
ATOM     40  C   UNL A   1      41.394  28.928  26.964  1.00  0.00     0.031 C 
ATOM     41  C   UNL A   1      38.742  27.208  30.300  1.00  0.00     0.029 A 
ATOM     42  N   UNL A   1      40.046  28.990  30.550  1.00  0.00    -0.354 N 
ATOM     43  C   UNL A   1      43.386  29.631  27.803  1.00  0.00     0.074 A 
ATOM     44  C   UNL A   1      42.525  29.562  26.650  1.00  0.00     0.031 C 
ATOM     45  C   UNL A   1      38.069  28.103  31.069  1.00  0.00     0.029 A 
ATOM     46  C   UNL A   1      38.913  29.270  31.296  1.00  0.00     0.049 A 
ATOM     47  H   UNL A   1      40.833  29.582  30.535  1.00  0.00     0.167 HD
ATOM     48  C   UNL A   1      44.167  30.644  28.270  1.00  0.00     0.034 A 
ATOM     49  C   UNL A   1      38.683  30.381  32.040  1.00  0.00     0.034 A 
ATOM     50  C   UNL A   1      44.653  30.356  29.596  1.00  0.00     0.049 A 
ATOM     51  C   UNL A   1      39.971  30.999  32.425  1.00  0.00     0.074 A 
ATOM     52  C   UNL A   1      45.649  29.604  30.179  1.00  0.00     0.029 A 
ATOM     53  N   UNL A   1      43.766  30.681  30.585  1.00  0.00    -0.354 N 
ATOM     54  N   UNL A   1      40.805  30.476  33.279  1.00  0.00    -0.248 NA
ATOM     55  C   UNL A   1      40.478  32.147  31.676  1.00  0.00     0.031 C 
ATOM     56  C   UNL A   1      45.293  29.447  31.554  1.00  0.00     0.029 A 
ATOM     57  C   UNL A   1      44.096  30.116  31.788  1.00  0.00     0.049 A 
ATOM     58  H   UNL A   1      42.979  31.256  30.447  1.00  0.00     0.167 HD
ATOM     59  C   UNL A   1      42.036  30.921  32.851  1.00  0.00     0.074 A 
ATOM     60  C   UNL A   1      41.764  32.086  32.022  1.00  0.00     0.031 C 
ATOM     61  C   UNL A   1      43.122  30.098  32.863  1.00  0.00     0.034 A 
BRANCH  48  62
ATOM     62  C   UNL A   1      44.072  32.072  27.773  1.00  0.00     0.023 A 
ATOM     63  C   UNL A   1      43.450  33.108  28.494  1.00  0.00     0.031 A 
ATOM     64  C   UNL A   1      44.824  32.479  26.652  1.00  0.00     0.131 A 
ATOM     65  C   UNL A   1      43.552  34.449  28.107  1.00  0.00     0.055 A 
ATOM     66  C   UNL A   1      44.987  33.826  26.303  1.00  0.00     0.041 A 
ATOM     67  F   UNL A   1      45.469  31.581  25.890  1.00  0.00    -0.206 F 
ATOM     68  C   UNL A   1      44.349  34.821  27.032  1.00  0.00     0.022 A 
BRANCH  65  69
ATOM     69  S   UNL A   1      42.653  35.730  29.025  1.00  0.00     0.124 S 
ATOM     70  O   UNL A   1      41.740  34.936  29.840  1.00  0.00    -0.237 OA
ATOM     71  O   UNL A   1      43.740  36.387  29.746  1.00  0.00    -0.237 OA
ATOM     72  O   UNL A   1      42.034  36.534  27.975  1.00  0.00    -0.744 OA
ENDBRANCH  65  69
ENDBRANCH  48  62
BRANCH  49  73
ATOM     73  C   UNL A   1      37.423  31.121  32.272  1.00  0.00     0.023 A 
ATOM     74  C   UNL A   1      36.687  31.588  31.171  1.00  0.00     0.031 A 
ATOM     75  C   UNL A   1      37.138  31.684  33.532  1.00  0.00     0.131 A 
ATOM     76  C   UNL A   1      35.768  32.636  31.333  1.00  0.00     0.055 A 
ATOM     77  C   UNL A   1      36.212  32.718  33.692  1.00  0.00     0.041 A 
ATOM     78  F   UNL A   1      37.819  31.297  34.622  1.00  0.00    -0.206 F 
ATOM     79  C   UNL A   1      35.535  33.213  32.584  1.00  0.00     0.022 A 
BRANCH  76  80
ATOM     80  S   UNL A   1      34.912  33.336  29.896  1.00  0.00     0.124 S 
ATOM     81  O   UNL A   1      34.501  32.140  29.166  1.00  0.00    -0.237 OA
ATOM     82  O   UNL A   1      33.834  34.086  30.529  1.00  0.00    -0.237 OA
ATOM     83  O   UNL A   1      35.945  34.132  29.240  1.00  0.00    -0.744 OA
ENDBRANCH  76  80
ENDBRANCH  49  73
BRANCH  61  84
ATOM     84  C   UNL A   1      43.223  29.042  33.924  1.00  0.00     0.023 A 
ATOM     85  C   UNL A   1      44.013  29.355  35.044  1.00  0.00     0.031 A 
ATOM     86  C   UNL A   1      42.669  27.752  33.857  1.00  0.00     0.131 A 
ATOM     87  C   UNL A   1      44.263  28.398  36.031  1.00  0.00     0.055 A 
ATOM     88  C   UNL A   1      42.864  26.817  34.882  1.00  0.00     0.041 A 
ATOM     89  F   UNL A   1      41.978  27.337  32.784  1.00  0.00    -0.206 F 
ATOM     90  C   UNL A   1      43.676  27.133  35.968  1.00  0.00     0.022 A 
BRANCH  87  91
ATOM     91  S   UNL A   1      45.458  28.740  37.347  1.00  0.00     0.124 S 
ATOM     92  O   UNL A   1      46.554  27.834  37.016  1.00  0.00    -0.237 OA
ATOM     93  O   UNL A   1      45.739  30.161  37.151  1.00  0.00    -0.237 OA
ATOM     94  O   UNL A   1      44.734  28.422  38.575  1.00  0.00    -0.744 OA
ENDBRANCH  87  91
ENDBRANCH  61  84
ENDBRANCH  35  36
ENDBRANCH  28  30
ENDBRANCH  27  28
ENDBRANCH  26  27
ENDBRANCH   1  26
TORSDOF 18
ENDMDL
