MODEL 1
REMARK VINA RESULT:     -11.0      0.000      0.000
REMARK SMILES C[C@@H](NC(=O)CCCNC(=O)c1ccco1)C(=O)OCCOC(=O)c1ccc(-c2c3nc(c(-c4cc(S(=O)(=O)[O-])ccc4F)c4ccc([nH]4)c(-c4cc(S(=O)(=O)[O-])ccc4F)c4nc(c(-c5cc(S(=O)(=O)[O-])ccc5F)c5ccc2[nH]5)C=C4)C=C3)cc1
REMARK SMILES IDX 19 1 17 2 18 3 2 4 1 5 3 6 4 7 5 9 6 10 7 11 8 12 9 13 10 14
REMARK SMILES IDX 11 16 12 17 13 18 16 19 14 20 15 21 20 22 21 23 22 24 23 25
REMARK SMILES IDX 24 26 25 27 26 28 87 29 27 30 86 31 28 32 29 33 30 34 80 35
REMARK SMILES IDX 31 36 85 37 79 38 81 39 32 40 84 41 78 42 77 43 33 45 65 46
REMARK SMILES IDX 45 47 64 48 46 49 49 50 63 51 82 52 47 53 48 54 62 56 83 57
REMARK SMILES IDX 50 58 34 59 35 60 43 61 36 62 42 63 44 64 41 65 37 66 38 67
REMARK SMILES IDX 39 68 40 69 66 70 67 71 75 72 68 73 74 74 76 75 73 76 69 77
REMARK SMILES IDX 70 78 71 79 72 80 51 81 52 82 60 83 53 84 59 85 61 86 58 87
REMARK SMILES IDX 54 88 55 89 56 90 57 91
REMARK H PARENT 3 8 9 15 81 44 49 55
REMARK Flexibility Score: inf
ROOT
ATOM      1  O   UNL A   1      31.777  28.036  26.002  1.00  0.00    -0.461 OA
ENDROOT
BRANCH   1   2
ATOM      2  C   UNL A   1      31.931  26.919  25.243  1.00  0.00     0.328 C 
ATOM      3  O   UNL A   1      32.915  26.700  24.544  1.00  0.00    -0.250 OA
BRANCH   2   4
ATOM      4  C   UNL A   1      30.672  26.022  25.206  1.00  0.00     0.189 C 
ATOM      5  C   UNL A   1      30.316  25.231  23.953  1.00  0.00     0.043 C 
BRANCH   4   6
ATOM      6  N   UNL A   1      30.439  25.202  26.400  1.00  0.00    -0.343 N 
ATOM      7  C   UNL A   1      30.914  23.955  26.686  1.00  0.00     0.220 C 
ATOM      8  H   UNL A   1      29.861  25.606  27.086  1.00  0.00     0.164 HD
ATOM      9  O   UNL A   1      30.227  23.219  27.399  1.00  0.00    -0.275 OA
BRANCH   7  10
ATOM     10  C   UNL A   1      32.318  23.551  26.287  1.00  0.00     0.102 C 
BRANCH  10  11
ATOM     11  C   UNL A   1      33.370  23.198  27.349  1.00  0.00     0.031 C 
BRANCH  11  12
ATOM     12  C   UNL A   1      34.009  21.803  27.500  1.00  0.00     0.117 C 
BRANCH  12  13
ATOM     13  N   UNL A   1      35.128  21.547  26.614  1.00  0.00    -0.349 N 
ATOM     14  C   UNL A   1      35.230  20.740  25.492  1.00  0.00     0.286 C 
ATOM     15  H   UNL A   1      35.954  22.027  26.850  1.00  0.00     0.163 HD
ATOM     16  O   UNL A   1      36.358  20.383  25.142  1.00  0.00    -0.266 OA
BRANCH  14  17
ATOM     17  C   UNL A   1      34.074  20.313  24.739  1.00  0.00     0.191 A 
ATOM     18  C   UNL A   1      33.143  20.934  23.929  1.00  0.00     0.056 A 
ATOM     19  O   UNL A   1      33.871  18.954  24.682  1.00  0.00    -0.459 OA
ATOM     20  C   UNL A   1      32.352  19.903  23.350  1.00  0.00     0.043 A 
ATOM     21  C   UNL A   1      32.845  18.719  23.837  1.00  0.00     0.196 A 
ENDBRANCH  14  17
ENDBRANCH  12  13
ENDBRANCH  11  12
ENDBRANCH  10  11
ENDBRANCH   7  10
ENDBRANCH   4   6
ENDBRANCH   2   4
ENDBRANCH   1   2
BRANCH   1  22
ATOM     22  C   UNL A   1      31.402  29.260  25.322  1.00  0.00     0.274 C 
BRANCH  22  23
ATOM     23  C   UNL A   1      31.846  30.502  26.096  1.00  0.00     0.275 C 
BRANCH  23  24
ATOM     24  O   UNL A   1      33.232  30.450  26.451  1.00  0.00    -0.458 OA
BRANCH  24  25
ATOM     25  C   UNL A   1      33.638  31.453  27.259  1.00  0.00     0.338 C 
ATOM     26  O   UNL A   1      33.022  32.431  27.634  1.00  0.00    -0.246 OA
BRANCH  25  27
ATOM     27  C   UNL A   1      34.903  31.127  27.875  1.00  0.00     0.060 A 
ATOM     28  C   UNL A   1      35.841  32.161  27.981  1.00  0.00     0.016 A 
ATOM     29  C   UNL A   1      35.181  29.814  28.231  1.00  0.00     0.016 A 
ATOM     30  C   UNL A   1      37.097  31.882  28.466  1.00  0.00     0.010 A 
ATOM     31  C   UNL A   1      36.429  29.541  28.754  1.00  0.00     0.010 A 
ATOM     32  C   UNL A   1      37.369  30.580  28.886  1.00  0.00    -0.014 A 
BRANCH  32  33
ATOM     33  C   UNL A   1      38.621  30.302  29.587  1.00  0.00     0.031 A 
ATOM     34  C   UNL A   1      39.584  29.347  28.982  1.00  0.00     0.074 A 
ATOM     35  C   UNL A   1      38.759  30.862  30.799  1.00  0.00     0.049 A 
ATOM     36  N   UNL A   1      40.621  28.779  29.525  1.00  0.00    -0.248 NA
ATOM     37  C   UNL A   1      39.325  28.952  27.589  1.00  0.00     0.031 C 
ATOM     38  C   UNL A   1      37.815  31.818  31.398  1.00  0.00     0.029 A 
ATOM     39  N   UNL A   1      39.711  30.692  31.759  1.00  0.00    -0.354 N 
ATOM     40  C   UNL A   1      41.127  27.927  28.552  1.00  0.00     0.074 A 
ATOM     41  C   UNL A   1      40.266  28.041  27.394  1.00  0.00     0.031 C 
ATOM     42  C   UNL A   1      38.232  32.136  32.629  1.00  0.00     0.029 A 
ATOM     43  C   UNL A   1      39.420  31.354  32.927  1.00  0.00     0.049 A 
ATOM     44  H   UNL A   1      40.523  30.151  31.628  1.00  0.00     0.167 HD
ATOM     45  C   UNL A   1      42.213  27.123  28.652  1.00  0.00     0.034 A 
ATOM     46  C   UNL A   1      40.029  31.282  34.122  1.00  0.00     0.034 A 
ATOM     47  C   UNL A   1      42.991  27.047  29.867  1.00  0.00     0.049 A 
ATOM     48  C   UNL A   1      41.215  30.366  34.215  1.00  0.00     0.074 A 
ATOM     49  C   UNL A   1      44.109  26.283  30.140  1.00  0.00     0.029 A 
ATOM     50  N   UNL A   1      42.708  27.767  31.028  1.00  0.00    -0.354 N 
ATOM     51  N   UNL A   1      41.701  29.557  33.298  1.00  0.00    -0.248 NA
ATOM     52  C   UNL A   1      41.940  30.356  35.484  1.00  0.00     0.031 C 
ATOM     53  C   UNL A   1      44.462  26.497  31.479  1.00  0.00     0.029 A 
ATOM     54  C   UNL A   1      43.617  27.455  32.024  1.00  0.00     0.049 A 
ATOM     55  H   UNL A   1      41.967  28.408  31.126  1.00  0.00     0.167 HD
ATOM     56  C   UNL A   1      42.814  28.959  33.868  1.00  0.00     0.074 A 
ATOM     57  C   UNL A   1      42.927  29.515  35.208  1.00  0.00     0.031 C 
ATOM     58  C   UNL A   1      43.668  28.040  33.347  1.00  0.00     0.034 A 
BRANCH  45  59
ATOM     59  C   UNL A   1      42.537  26.248  27.464  1.00  0.00     0.023 A 
ATOM     60  C   UNL A   1      42.022  24.944  27.340  1.00  0.00     0.031 A 
ATOM     61  C   UNL A   1      43.446  26.684  26.483  1.00  0.00     0.131 A 
ATOM     62  C   UNL A   1      42.489  24.095  26.324  1.00  0.00     0.055 A 
ATOM     63  C   UNL A   1      43.839  25.863  25.422  1.00  0.00     0.041 A 
ATOM     64  F   UNL A   1      43.998  27.905  26.556  1.00  0.00    -0.206 F 
ATOM     65  C   UNL A   1      43.377  24.553  25.350  1.00  0.00     0.022 A 
BRANCH  62  66
ATOM     66  S   UNL A   1      42.055  22.333  26.398  1.00  0.00     0.124 S 
ATOM     67  O   UNL A   1      42.498  21.976  27.743  1.00  0.00    -0.237 OA
ATOM     68  O   UNL A   1      40.611  22.355  26.186  1.00  0.00    -0.237 OA
ATOM     69  O   UNL A   1      42.835  21.741  25.314  1.00  0.00    -0.744 OA
ENDBRANCH  62  66
ENDBRANCH  45  59
BRANCH  46  70
ATOM     70  C   UNL A   1      39.522  32.077  35.271  1.00  0.00     0.023 A 
ATOM     71  C   UNL A   1      39.958  33.393  35.479  1.00  0.00     0.031 A 
ATOM     72  C   UNL A   1      38.555  31.557  36.152  1.00  0.00     0.131 A 
ATOM     73  C   UNL A   1      39.451  34.137  36.556  1.00  0.00     0.055 A 
ATOM     74  C   UNL A   1      38.018  32.317  37.194  1.00  0.00     0.041 A 
ATOM     75  F   UNL A   1      38.085  30.309  35.987  1.00  0.00    -0.206 F 
ATOM     76  C   UNL A   1      38.474  33.613  37.405  1.00  0.00     0.022 A 
BRANCH  73  77
ATOM     77  S   UNL A   1      40.134  35.789  36.862  1.00  0.00     0.124 S 
ATOM     78  O   UNL A   1      39.456  36.167  38.097  1.00  0.00    -0.237 OA
ATOM     79  O   UNL A   1      41.562  35.509  36.973  1.00  0.00    -0.237 OA
ATOM     80  O   UNL A   1      39.738  36.544  35.676  1.00  0.00    -0.744 OA
ENDBRANCH  73  77
ENDBRANCH  46  70
BRANCH  58  81
ATOM     81  C   UNL A   1      44.818  27.640  34.232  1.00  0.00     0.023 A 
ATOM     82  C   UNL A   1      44.668  26.668  35.233  1.00  0.00     0.031 A 
ATOM     83  C   UNL A   1      46.069  28.259  34.074  1.00  0.00     0.131 A 
ATOM     84  C   UNL A   1      45.742  26.388  36.087  1.00  0.00     0.055 A 
ATOM     85  C   UNL A   1      47.153  27.923  34.882  1.00  0.00     0.041 A 
ATOM     86  F   UNL A   1      46.255  29.197  33.132  1.00  0.00    -0.206 F 
ATOM     87  C   UNL A   1      46.988  26.993  35.906  1.00  0.00     0.022 A 
BRANCH  84  88
ATOM     88  S   UNL A   1      45.454  25.297  37.505  1.00  0.00     0.124 S 
ATOM     89  O   UNL A   1      44.243  24.590  37.101  1.00  0.00    -0.237 OA
ATOM     90  O   UNL A   1      46.676  24.499  37.540  1.00  0.00    -0.237 OA
ATOM     91  O   UNL A   1      45.288  26.226  38.621  1.00  0.00    -0.744 OA
ENDBRANCH  84  88
ENDBRANCH  58  81
ENDBRANCH  32  33
ENDBRANCH  25  27
ENDBRANCH  24  25
ENDBRANCH  23  24
ENDBRANCH  22  23
ENDBRANCH   1  22
TORSDOF 20
ENDMDL
MODEL 2
REMARK VINA RESULT:     -10.8      4.573      9.955
REMARK SMILES C[C@@H](NC(=O)CCCNC(=O)c1ccco1)C(=O)OCCOC(=O)c1ccc(-c2c3nc(c(-c4cc(S(=O)(=O)[O-])ccc4F)c4ccc([nH]4)c(-c4cc(S(=O)(=O)[O-])ccc4F)c4nc(c(-c5cc(S(=O)(=O)[O-])ccc5F)c5ccc2[nH]5)C=C4)C=C3)cc1
REMARK SMILES IDX 19 1 17 2 18 3 2 4 1 5 3 6 4 7 5 9 6 10 7 11 8 12 9 13 10 14
REMARK SMILES IDX 11 16 12 17 13 18 16 19 14 20 15 21 20 22 21 23 22 24 23 25
REMARK SMILES IDX 24 26 25 27 26 28 87 29 27 30 86 31 28 32 29 33 30 34 80 35
REMARK SMILES IDX 31 36 85 37 79 38 81 39 32 40 84 41 78 42 77 43 33 45 65 46
REMARK SMILES IDX 45 47 64 48 46 49 49 50 63 51 82 52 47 53 48 54 62 56 83 57
REMARK SMILES IDX 50 58 34 59 35 60 43 61 36 62 42 63 44 64 41 65 37 66 38 67
REMARK SMILES IDX 39 68 40 69 66 70 67 71 75 72 68 73 74 74 76 75 73 76 69 77
REMARK SMILES IDX 70 78 71 79 72 80 51 81 52 82 60 83 53 84 59 85 61 86 58 87
REMARK SMILES IDX 54 88 55 89 56 90 57 91
REMARK H PARENT 3 8 9 15 81 44 49 55
REMARK Flexibility Score: inf
ROOT
ATOM      1  O   UNL A   1      34.921  21.677  25.381  1.00  0.00    -0.461 OA
ENDROOT
BRANCH   1   2
ATOM      2  C   UNL A   1      33.806  21.547  26.146  1.00  0.00     0.328 C 
ATOM      3  O   UNL A   1      33.828  21.365  27.359  1.00  0.00    -0.250 OA
BRANCH   2   4
ATOM      4  C   UNL A   1      32.500  21.474  25.321  1.00  0.00     0.189 C 
ATOM      5  C   UNL A   1      32.254  20.326  24.350  1.00  0.00     0.043 C 
BRANCH   4   6
ATOM      6  N   UNL A   1      31.267  21.786  26.052  1.00  0.00    -0.343 N 
ATOM      7  C   UNL A   1      30.758  23.006  26.389  1.00  0.00     0.220 C 
ATOM      8  H   UNL A   1      30.736  21.008  26.339  1.00  0.00     0.164 HD
ATOM      9  O   UNL A   1      30.079  23.092  27.414  1.00  0.00    -0.275 OA
BRANCH   7  10
ATOM     10  C   UNL A   1      30.876  24.182  25.441  1.00  0.00     0.102 C 
BRANCH  10  11
ATOM     11  C   UNL A   1      30.448  25.592  25.875  1.00  0.00     0.031 C 
BRANCH  11  12
ATOM     12  C   UNL A   1      31.410  26.642  26.466  1.00  0.00     0.117 C 
BRANCH  12  13
ATOM     13  N   UNL A   1      31.474  27.890  25.731  1.00  0.00    -0.349 N 
ATOM     14  C   UNL A   1      31.995  28.181  24.480  1.00  0.00     0.286 C 
ATOM     15  H   UNL A   1      31.083  28.662  26.200  1.00  0.00     0.163 HD
ATOM     16  O   UNL A   1      32.284  29.355  24.236  1.00  0.00    -0.266 OA
BRANCH  14  17
ATOM     17  C   UNL A   1      32.205  27.165  23.476  1.00  0.00     0.191 A 
ATOM     18  C   UNL A   1      31.539  26.752  22.337  1.00  0.00     0.056 A 
ATOM     19  O   UNL A   1      33.403  26.493  23.553  1.00  0.00    -0.459 OA
ATOM     20  C   UNL A   1      32.376  25.799  21.696  1.00  0.00     0.043 A 
ATOM     21  C   UNL A   1      33.500  25.686  22.474  1.00  0.00     0.196 A 
ENDBRANCH  14  17
ENDBRANCH  12  13
ENDBRANCH  11  12
ENDBRANCH  10  11
ENDBRANCH   7  10
ENDBRANCH   4   6
ENDBRANCH   2   4
ENDBRANCH   1   2
BRANCH   1  22
ATOM     22  C   UNL A   1      35.677  20.476  25.089  1.00  0.00     0.274 C 
BRANCH  22  23
ATOM     23  C   UNL A   1      37.128  20.788  24.723  1.00  0.00     0.275 C 
BRANCH  23  24
ATOM     24  O   UNL A   1      37.684  21.818  25.547  1.00  0.00    -0.458 OA
BRANCH  24  25
ATOM     25  C   UNL A   1      38.894  21.523  26.068  1.00  0.00     0.338 C 
ATOM     26  O   UNL A   1      39.526  20.487  25.999  1.00  0.00    -0.246 OA
BRANCH  25  27
ATOM     27  C   UNL A   1      39.533  22.716  26.574  1.00  0.00     0.060 A 
ATOM     28  C   UNL A   1      40.521  22.540  27.550  1.00  0.00     0.016 A 
ATOM     29  C   UNL A   1      39.084  23.966  26.167  1.00  0.00     0.016 A 
ATOM     30  C   UNL A   1      41.089  23.646  28.138  1.00  0.00     0.010 A 
ATOM     31  C   UNL A   1      39.682  25.076  26.728  1.00  0.00     0.010 A 
ATOM     32  C   UNL A   1      40.692  24.908  27.693  1.00  0.00    -0.014 A 
BRANCH  32  33
ATOM     33  C   UNL A   1      41.419  26.089  28.155  1.00  0.00     0.031 A 
ATOM     34  C   UNL A   1      40.676  27.150  28.881  1.00  0.00     0.074 A 
ATOM     35  C   UNL A   1      42.707  26.174  27.786  1.00  0.00     0.049 A 
ATOM     36  N   UNL A   1      41.051  28.362  29.165  1.00  0.00    -0.248 NA
ATOM     37  C   UNL A   1      39.311  26.810  29.316  1.00  0.00     0.031 C 
ATOM     38  C   UNL A   1      43.452  25.122  27.078  1.00  0.00     0.029 A 
ATOM     39  N   UNL A   1      43.608  27.187  27.916  1.00  0.00    -0.354 N 
ATOM     40  C   UNL A   1      39.958  28.952  29.786  1.00  0.00     0.074 A 
ATOM     41  C   UNL A   1      38.899  27.966  29.814  1.00  0.00     0.031 C 
ATOM     42  C   UNL A   1      44.693  25.555  26.825  1.00  0.00     0.029 A 
ATOM     43  C   UNL A   1      44.801  26.930  27.284  1.00  0.00     0.049 A 
ATOM     44  H   UNL A   1      43.424  28.018  28.412  1.00  0.00     0.167 HD
ATOM     45  C   UNL A   1      39.874  30.215  30.268  1.00  0.00     0.034 A 
ATOM     46  C   UNL A   1      45.841  27.749  27.059  1.00  0.00     0.034 A 
ATOM     47  C   UNL A   1      40.974  31.144  30.159  1.00  0.00     0.049 A 
ATOM     48  C   UNL A   1      45.714  29.152  27.582  1.00  0.00     0.074 A 
ATOM     49  C   UNL A   1      41.053  32.455  30.584  1.00  0.00     0.029 A 
ATOM     50  N   UNL A   1      42.198  30.846  29.557  1.00  0.00    -0.354 N 
ATOM     51  N   UNL A   1      44.682  29.717  28.171  1.00  0.00    -0.248 NA
ATOM     52  C   UNL A   1      46.880  30.019  27.425  1.00  0.00     0.031 C 
ATOM     53  C   UNL A   1      42.297  32.965  30.187  1.00  0.00     0.029 A 
ATOM     54  C   UNL A   1      43.030  31.950  29.584  1.00  0.00     0.049 A 
ATOM     55  H   UNL A   1      42.435  29.973  29.167  1.00  0.00     0.167 HD
ATOM     56  C   UNL A   1      45.083  31.006  28.487  1.00  0.00     0.074 A 
ATOM     57  C   UNL A   1      46.459  31.122  28.028  1.00  0.00     0.031 C 
ATOM     58  C   UNL A   1      44.393  32.005  29.098  1.00  0.00     0.034 A 
BRANCH  45  59
ATOM     59  C   UNL A   1      38.551  30.641  30.862  1.00  0.00     0.023 A 
ATOM     60  C   UNL A   1      37.553  31.259  30.085  1.00  0.00     0.031 A 
ATOM     61  C   UNL A   1      38.314  30.513  32.243  1.00  0.00     0.131 A 
ATOM     62  C   UNL A   1      36.418  31.809  30.702  1.00  0.00     0.055 A 
ATOM     63  C   UNL A   1      37.140  30.983  32.837  1.00  0.00     0.041 A 
ATOM     64  F   UNL A   1      39.235  29.960  33.047  1.00  0.00    -0.206 F 
ATOM     65  C   UNL A   1      36.192  31.654  32.070  1.00  0.00     0.022 A 
BRANCH  62  66
ATOM     66  S   UNL A   1      35.329  32.879  29.719  1.00  0.00     0.124 S 
ATOM     67  O   UNL A   1      34.582  33.577  30.762  1.00  0.00    -0.237 OA
ATOM     68  O   UNL A   1      36.279  33.689  28.964  1.00  0.00    -0.237 OA
ATOM     69  O   UNL A   1      34.545  31.936  28.926  1.00  0.00    -0.744 OA
ENDBRANCH  62  66
ENDBRANCH  45  59
BRANCH  46  70
ATOM     70  C   UNL A   1      47.034  27.260  26.320  1.00  0.00     0.023 A 
ATOM     71  C   UNL A   1      48.061  26.580  26.989  1.00  0.00     0.031 A 
ATOM     72  C   UNL A   1      47.149  27.418  24.926  1.00  0.00     0.131 A 
ATOM     73  C   UNL A   1      49.170  26.105  26.272  1.00  0.00     0.055 A 
ATOM     74  C   UNL A   1      48.231  26.902  24.209  1.00  0.00     0.041 A 
ATOM     75  F   UNL A   1      46.184  28.042  24.230  1.00  0.00    -0.206 F 
ATOM     76  C   UNL A   1      49.255  26.248  24.886  1.00  0.00     0.022 A 
BRANCH  73  77
ATOM     77  S   UNL A   1      50.533  25.342  27.194  1.00  0.00     0.124 S 
ATOM     78  O   UNL A   1      49.862  24.223  27.846  1.00  0.00    -0.237 OA
ATOM     79  O   UNL A   1      51.465  24.998  26.125  1.00  0.00    -0.237 OA
ATOM     80  O   UNL A   1      50.977  26.410  28.088  1.00  0.00    -0.744 OA
ENDBRANCH  73  77
ENDBRANCH  46  70
BRANCH  58  81
ATOM     81  C   UNL A   1      45.159  33.277  29.337  1.00  0.00     0.023 A 
ATOM     82  C   UNL A   1      45.195  34.302  28.379  1.00  0.00     0.031 A 
ATOM     83  C   UNL A   1      45.873  33.448  30.535  1.00  0.00     0.131 A 
ATOM     84  C   UNL A   1      45.989  35.433  28.610  1.00  0.00     0.055 A 
ATOM     85  C   UNL A   1      46.604  34.607  30.787  1.00  0.00     0.041 A 
ATOM     86  F   UNL A   1      45.870  32.491  31.476  1.00  0.00    -0.206 F 
ATOM     87  C   UNL A   1      46.676  35.602  29.814  1.00  0.00     0.022 A 
BRANCH  84  88
ATOM     88  S   UNL A   1      46.193  36.631  27.266  1.00  0.00     0.124 S 
ATOM     89  O   UNL A   1      47.507  37.195  27.562  1.00  0.00    -0.237 OA
ATOM     90  O   UNL A   1      46.116  35.787  26.079  1.00  0.00    -0.237 OA
ATOM     91  O   UNL A   1      45.069  37.546  27.452  1.00  0.00    -0.744 OA
ENDBRANCH  84  88
ENDBRANCH  58  81
ENDBRANCH  32  33
ENDBRANCH  25  27
ENDBRANCH  24  25
ENDBRANCH  23  24
ENDBRANCH  22  23
ENDBRANCH   1  22
TORSDOF 20
ENDMDL
MODEL 3
REMARK VINA RESULT:     -10.8      4.821     10.438
REMARK SMILES C[C@@H](NC(=O)CCCNC(=O)c1ccco1)C(=O)OCCOC(=O)c1ccc(-c2c3nc(c(-c4cc(S(=O)(=O)[O-])ccc4F)c4ccc([nH]4)c(-c4cc(S(=O)(=O)[O-])ccc4F)c4nc(c(-c5cc(S(=O)(=O)[O-])ccc5F)c5ccc2[nH]5)C=C4)C=C3)cc1
REMARK SMILES IDX 19 1 17 2 18 3 2 4 1 5 3 6 4 7 5 9 6 10 7 11 8 12 9 13 10 14
REMARK SMILES IDX 11 16 12 17 13 18 16 19 14 20 15 21 20 22 21 23 22 24 23 25
REMARK SMILES IDX 24 26 25 27 26 28 87 29 27 30 86 31 28 32 29 33 30 34 80 35
REMARK SMILES IDX 31 36 85 37 79 38 81 39 32 40 84 41 78 42 77 43 33 45 65 46
REMARK SMILES IDX 45 47 64 48 46 49 49 50 63 51 82 52 47 53 48 54 62 56 83 57
REMARK SMILES IDX 50 58 34 59 35 60 43 61 36 62 42 63 44 64 41 65 37 66 38 67
REMARK SMILES IDX 39 68 40 69 66 70 67 71 75 72 68 73 74 74 76 75 73 76 69 77
REMARK SMILES IDX 70 78 71 79 72 80 51 81 52 82 60 83 53 84 59 85 61 86 58 87
REMARK SMILES IDX 54 88 55 89 56 90 57 91
REMARK H PARENT 3 8 9 15 81 44 49 55
REMARK Flexibility Score: inf
ROOT
ATOM      1  O   UNL A   1      34.471  22.225  25.534  1.00  0.00    -0.461 OA
ENDROOT
BRANCH   1   2
ATOM      2  C   UNL A   1      33.637  23.193  25.071  1.00  0.00     0.328 C 
ATOM      3  O   UNL A   1      32.883  23.843  25.786  1.00  0.00    -0.250 OA
BRANCH   2   4
ATOM      4  C   UNL A   1      33.598  23.284  23.527  1.00  0.00     0.189 C 
ATOM      5  C   UNL A   1      32.410  22.737  22.745  1.00  0.00     0.043 C 
BRANCH   4   6
ATOM      6  N   UNL A   1      34.030  24.563  22.954  1.00  0.00    -0.343 N 
ATOM      7  C   UNL A   1      33.267  25.613  22.533  1.00  0.00     0.220 C 
ATOM      8  H   UNL A   1      35.003  24.678  22.859  1.00  0.00     0.164 HD
ATOM      9  O   UNL A   1      33.699  26.319  21.619  1.00  0.00    -0.275 OA
BRANCH   7  10
ATOM     10  C   UNL A   1      32.010  26.005  23.282  1.00  0.00     0.102 C 
BRANCH  10  11
ATOM     11  C   UNL A   1      30.861  26.735  22.571  1.00  0.00     0.031 C 
BRANCH  11  12
ATOM     12  C   UNL A   1      30.152  27.982  23.134  1.00  0.00     0.117 C 
BRANCH  12  13
ATOM     13  N   UNL A   1      28.703  27.924  23.103  1.00  0.00    -0.349 N 
ATOM     14  C   UNL A   1      27.757  28.930  22.989  1.00  0.00     0.286 C 
ATOM     15  H   UNL A   1      28.328  27.017  23.176  1.00  0.00     0.163 HD
ATOM     16  O   UNL A   1      26.610  28.688  23.373  1.00  0.00    -0.266 OA
BRANCH  14  17
ATOM     17  C   UNL A   1      28.073  30.230  22.446  1.00  0.00     0.191 A 
ATOM     18  C   UNL A   1      28.082  30.795  21.184  1.00  0.00     0.056 A 
ATOM     19  O   UNL A   1      28.317  31.217  23.371  1.00  0.00    -0.459 OA
ATOM     20  C   UNL A   1      28.331  32.184  21.359  1.00  0.00     0.043 A 
ATOM     21  C   UNL A   1      28.458  32.387  22.710  1.00  0.00     0.196 A 
ENDBRANCH  14  17
ENDBRANCH  12  13
ENDBRANCH  11  12
ENDBRANCH  10  11
ENDBRANCH   7  10
ENDBRANCH   4   6
ENDBRANCH   2   4
ENDBRANCH   1   2
BRANCH   1  22
ATOM     22  C   UNL A   1      35.505  21.747  24.638  1.00  0.00     0.274 C 
BRANCH  22  23
ATOM     23  C   UNL A   1      36.668  21.108  25.397  1.00  0.00     0.275 C 
BRANCH  23  24
ATOM     24  O   UNL A   1      37.920  21.734  25.096  1.00  0.00    -0.458 OA
BRANCH  24  25
ATOM     25  C   UNL A   1      38.921  21.414  25.942  1.00  0.00     0.338 C 
ATOM     26  O   UNL A   1      39.424  20.329  26.159  1.00  0.00    -0.246 OA
BRANCH  25  27
ATOM     27  C   UNL A   1      39.553  22.609  26.453  1.00  0.00     0.060 A 
ATOM     28  C   UNL A   1      40.544  22.434  27.427  1.00  0.00     0.016 A 
ATOM     29  C   UNL A   1      39.096  23.858  26.054  1.00  0.00     0.016 A 
ATOM     30  C   UNL A   1      41.106  23.540  28.020  1.00  0.00     0.010 A 
ATOM     31  C   UNL A   1      39.687  24.969  26.621  1.00  0.00     0.010 A 
ATOM     32  C   UNL A   1      40.700  24.802  27.583  1.00  0.00    -0.014 A 
BRANCH  32  33
ATOM     33  C   UNL A   1      41.420  25.985  28.050  1.00  0.00     0.031 A 
ATOM     34  C   UNL A   1      40.669  27.042  28.774  1.00  0.00     0.074 A 
ATOM     35  C   UNL A   1      42.710  26.075  27.689  1.00  0.00     0.049 A 
ATOM     36  N   UNL A   1      41.038  28.255  29.062  1.00  0.00    -0.248 NA
ATOM     37  C   UNL A   1      39.304  26.697  29.200  1.00  0.00     0.031 C 
ATOM     38  C   UNL A   1      43.462  25.027  26.984  1.00  0.00     0.029 A 
ATOM     39  N   UNL A   1      43.607  27.092  27.824  1.00  0.00    -0.354 N 
ATOM     40  C   UNL A   1      39.939  28.841  29.677  1.00  0.00     0.074 A 
ATOM     41  C   UNL A   1      38.884  27.850  29.698  1.00  0.00     0.031 C 
ATOM     42  C   UNL A   1      44.703  25.465  26.738  1.00  0.00     0.029 A 
ATOM     43  C   UNL A   1      44.803  26.840  27.199  1.00  0.00     0.049 A 
ATOM     44  H   UNL A   1      43.416  27.921  28.320  1.00  0.00     0.167 HD
ATOM     45  C   UNL A   1      39.848  30.102  30.161  1.00  0.00     0.034 A 
ATOM     46  C   UNL A   1      45.841  27.663  26.981  1.00  0.00     0.034 A 
ATOM     47  C   UNL A   1      40.945  31.036  30.058  1.00  0.00     0.049 A 
ATOM     48  C   UNL A   1      45.706  29.064  27.504  1.00  0.00     0.074 A 
ATOM     49  C   UNL A   1      41.018  32.347  30.485  1.00  0.00     0.029 A 
ATOM     50  N   UNL A   1      42.173  30.744  29.462  1.00  0.00    -0.354 N 
ATOM     51  N   UNL A   1      44.669  29.625  28.089  1.00  0.00    -0.248 NA
ATOM     52  C   UNL A   1      46.870  29.937  27.355  1.00  0.00     0.031 C 
ATOM     53  C   UNL A   1      42.262  32.862  30.095  1.00  0.00     0.029 A 
ATOM     54  C   UNL A   1      43.002  31.851  29.495  1.00  0.00     0.049 A 
ATOM     55  H   UNL A   1      42.416  29.872  29.073  1.00  0.00     0.167 HD
ATOM     56  C   UNL A   1      45.064  30.915  28.408  1.00  0.00     0.074 A 
ATOM     57  C   UNL A   1      46.442  31.037  27.957  1.00  0.00     0.031 C 
ATOM     58  C   UNL A   1      44.367  31.911  29.016  1.00  0.00     0.034 A 
BRANCH  45  59
ATOM     59  C   UNL A   1      38.521  30.523  30.747  1.00  0.00     0.023 A 
ATOM     60  C   UNL A   1      37.546  31.187  29.979  1.00  0.00     0.031 A 
ATOM     61  C   UNL A   1      38.256  30.341  32.117  1.00  0.00     0.131 A 
ATOM     62  C   UNL A   1      36.407  31.727  30.598  1.00  0.00     0.055 A 
ATOM     63  C   UNL A   1      37.078  30.804  32.710  1.00  0.00     0.041 A 
ATOM     64  F   UNL A   1      39.154  29.742  32.914  1.00  0.00    -0.206 F 
ATOM     65  C   UNL A   1      36.154  31.519  31.954  1.00  0.00     0.022 A 
BRANCH  62  66
ATOM     66  S   UNL A   1      35.351  32.853  29.641  1.00  0.00     0.124 S 
ATOM     67  O   UNL A   1      34.345  31.936  29.113  1.00  0.00    -0.237 OA
ATOM     68  O   UNL A   1      34.889  33.793  30.657  1.00  0.00    -0.237 OA
ATOM     69  O   UNL A   1      36.260  33.411  28.642  1.00  0.00    -0.744 OA
ENDBRANCH  62  66
ENDBRANCH  45  59
BRANCH  46  70
ATOM     70  C   UNL A   1      47.041  27.179  26.248  1.00  0.00     0.023 A 
ATOM     71  C   UNL A   1      48.080  26.528  26.926  1.00  0.00     0.031 A 
ATOM     72  C   UNL A   1      47.149  27.313  24.850  1.00  0.00     0.131 A 
ATOM     73  C   UNL A   1      49.194  26.057  26.215  1.00  0.00     0.055 A 
ATOM     74  C   UNL A   1      48.238  26.802  24.140  1.00  0.00     0.041 A 
ATOM     75  F   UNL A   1      46.174  27.910  24.146  1.00  0.00    -0.206 F 
ATOM     76  C   UNL A   1      49.274  26.176  24.826  1.00  0.00     0.022 A 
BRANCH  73  77
ATOM     77  S   UNL A   1      50.571  25.332  27.147  1.00  0.00     0.124 S 
ATOM     78  O   UNL A   1      49.915  24.224  27.833  1.00  0.00    -0.237 OA
ATOM     79  O   UNL A   1      51.499  24.969  26.081  1.00  0.00    -0.237 OA
ATOM     80  O   UNL A   1      51.011  26.427  28.009  1.00  0.00    -0.744 OA
ENDBRANCH  73  77
ENDBRANCH  46  70
BRANCH  58  81
ATOM     81  C   UNL A   1      45.127  33.185  29.262  1.00  0.00     0.023 A 
ATOM     82  C   UNL A   1      45.113  34.237  28.333  1.00  0.00     0.031 A 
ATOM     83  C   UNL A   1      45.886  33.332  30.434  1.00  0.00     0.131 A 
ATOM     84  C   UNL A   1      45.901  35.371  28.564  1.00  0.00     0.055 A 
ATOM     85  C   UNL A   1      46.612  34.493  30.691  1.00  0.00     0.041 A 
ATOM     86  F   UNL A   1      45.932  32.349  31.347  1.00  0.00    -0.206 F 
ATOM     87  C   UNL A   1      46.634  35.515  29.745  1.00  0.00     0.022 A 
BRANCH  84  88
ATOM     88  S   UNL A   1      46.038  36.610  27.248  1.00  0.00     0.124 S 
ATOM     89  O   UNL A   1      46.612  35.828  26.157  1.00  0.00    -0.237 OA
ATOM     90  O   UNL A   1      44.652  37.031  27.069  1.00  0.00    -0.237 OA
ATOM     91  O   UNL A   1      46.924  37.620  27.822  1.00  0.00    -0.744 OA
ENDBRANCH  84  88
ENDBRANCH  58  81
ENDBRANCH  32  33
ENDBRANCH  25  27
ENDBRANCH  24  25
ENDBRANCH  23  24
ENDBRANCH  22  23
ENDBRANCH   1  22
TORSDOF 20
ENDMDL
