MODEL 1
REMARK VINA RESULT:     -12.6      0.000      0.000
REMARK SMILES Cc1cc(C)c2c(c1)C=C(C(=O)OCCOC(=O)c1ccc(-c3c4nc(c(-c5cc(S(=O)(=O)[O-])ccc5F)c5ccc([nH]5)c(-c5cc(S(=O)(=O)[O-])ccc5F)c5nc(c(-c6cc(S(=O)(=O)[O-])ccc6F)c6ccc3[nH]6)C=C5)C=C4)cc1)[C@@H](C(F)(F)F)O2
REMARK SMILES IDX 15 1 14 2 13 3 11 4 12 5 10 6 1 7 2 8 3 9 8 10 4 11 7 12
REMARK SMILES IDX 5 13 6 14 9 15 87 16 82 17 83 18 84 19 85 20 86 21 16 22
REMARK SMILES IDX 17 23 18 24 19 25 20 26 81 27 21 28 80 29 22 30 23 31 24 32
REMARK SMILES IDX 74 33 25 34 79 35 73 36 75 37 26 38 78 39 72 40 71 41 27 43
REMARK SMILES IDX 59 44 39 45 58 46 40 47 43 48 57 49 76 50 41 51 42 52 56 54
REMARK SMILES IDX 77 55 44 56 28 57 29 58 37 59 30 60 36 61 38 62 35 63 31 64
REMARK SMILES IDX 32 65 33 66 34 67 60 68 61 69 69 70 62 71 68 72 70 73 67 74
REMARK SMILES IDX 63 75 64 76 65 77 66 78 45 79 46 80 54 81 47 82 53 83 55 84
REMARK SMILES IDX 52 85 48 86 49 87 50 88 51 89
REMARK H PARENT 75 42 43 53
REMARK Flexibility Score: inf
ROOT
ATOM      1  C   UNL A   1      36.547  20.605  25.009  1.00  0.00     0.275 C 
ENDROOT
BRANCH   1   2
ATOM      2  C   UNL A   1      35.174  21.253  24.835  1.00  0.00     0.275 C 
BRANCH   2   3
ATOM      3  O   UNL A   1      35.261  22.694  24.865  1.00  0.00    -0.459 OA
BRANCH   3   4
ATOM      4  C   UNL A   1      35.092  23.307  23.670  1.00  0.00     0.338 C 
ATOM      5  O   UNL A   1      35.643  23.010  22.620  1.00  0.00    -0.246 OA
BRANCH   4   6
ATOM      6  C   UNL A   1      34.124  24.412  23.780  1.00  0.00     0.087 C 
ATOM      7  C   UNL A   1      32.754  29.178  27.416  1.00  0.00     0.044 C 
ATOM      8  C   UNL A   1      32.552  28.227  26.272  1.00  0.00    -0.050 A 
ATOM      9  C   UNL A   1      31.362  28.210  25.536  1.00  0.00     0.010 A 
ATOM     10  C   UNL A   1      33.545  27.293  25.967  1.00  0.00     0.015 A 
ATOM     11  C   UNL A   1      31.166  27.287  24.492  1.00  0.00    -0.008 A 
ATOM     12  C   UNL A   1      33.351  26.359  24.944  1.00  0.00     0.018 A 
ATOM     13  C   UNL A   1      29.880  27.294  23.720  1.00  0.00     0.048 C 
ATOM     14  C   UNL A   1      32.173  26.355  24.199  1.00  0.00     0.130 A 
ATOM     15  C   UNL A   1      34.364  25.355  24.696  1.00  0.00     0.027 C 
ATOM     16  O   UNL A   1      31.948  25.477  23.170  1.00  0.00    -0.475 OA
ATOM     17  C   UNL A   1      32.853  24.353  22.989  1.00  0.00     0.316 C 
BRANCH  17  18
ATOM     18  C   UNL A   1      32.085  23.050  23.267  1.00  0.00     0.430 C 
ATOM     19  F   UNL A   1      30.764  23.189  22.998  1.00  0.00    -0.167 F 
ATOM     20  F   UNL A   1      32.525  22.036  22.480  1.00  0.00    -0.167 F 
ATOM     21  F   UNL A   1      32.197  22.644  24.550  1.00  0.00    -0.167 F 
ENDBRANCH  17  18
ENDBRANCH   4   6
ENDBRANCH   3   4
ENDBRANCH   2   3
ENDBRANCH   1   2
BRANCH   1  22
ATOM     22  O   UNL A   1      37.578  21.609  25.041  1.00  0.00    -0.458 OA
BRANCH  22  23
ATOM     23  C   UNL A   1      38.680  21.272  25.749  1.00  0.00     0.338 C 
ATOM     24  O   UNL A   1      39.242  20.190  25.767  1.00  0.00    -0.246 OA
BRANCH  23  25
ATOM     25  C   UNL A   1      39.196  22.441  26.479  1.00  0.00     0.060 A 
ATOM     26  C   UNL A   1      38.681  23.692  26.172  1.00  0.00     0.016 A 
ATOM     27  C   UNL A   1      40.320  22.331  27.293  1.00  0.00     0.016 A 
ATOM     28  C   UNL A   1      39.391  24.838  26.515  1.00  0.00     0.010 A 
ATOM     29  C   UNL A   1      40.933  23.493  27.781  1.00  0.00     0.010 A 
ATOM     30  C   UNL A   1      40.515  24.767  27.350  1.00  0.00    -0.014 A 
BRANCH  30  31
ATOM     31  C   UNL A   1      41.252  26.009  27.737  1.00  0.00     0.031 A 
ATOM     32  C   UNL A   1      40.590  27.054  28.605  1.00  0.00     0.074 A 
ATOM     33  C   UNL A   1      42.532  26.196  27.346  1.00  0.00     0.049 A 
ATOM     34  N   UNL A   1      40.986  28.270  28.884  1.00  0.00    -0.248 NA
ATOM     35  C   UNL A   1      39.306  26.690  29.230  1.00  0.00     0.031 C 
ATOM     36  C   UNL A   1      43.328  25.246  26.562  1.00  0.00     0.029 A 
ATOM     37  N   UNL A   1      43.402  27.236  27.570  1.00  0.00    -0.354 N 
ATOM     38  C   UNL A   1      39.982  28.832  29.667  1.00  0.00     0.074 A 
ATOM     39  C   UNL A   1      38.948  27.829  29.807  1.00  0.00     0.031 C 
ATOM     40  C   UNL A   1      44.580  25.708  26.441  1.00  0.00     0.029 A 
ATOM     41  C   UNL A   1      44.648  27.045  27.015  1.00  0.00     0.049 A 
ATOM     42  H   UNL A   1      43.158  28.042  28.079  1.00  0.00     0.167 HD
ATOM     43  C   UNL A   1      39.930  30.069  30.220  1.00  0.00     0.034 A 
ATOM     44  C   UNL A   1      45.714  27.863  26.920  1.00  0.00     0.034 A 
ATOM     45  C   UNL A   1      40.994  31.039  30.120  1.00  0.00     0.049 A 
ATOM     46  C   UNL A   1      45.604  29.259  27.468  1.00  0.00     0.074 A 
ATOM     47  C   UNL A   1      41.042  32.320  30.642  1.00  0.00     0.029 A 
ATOM     48  N   UNL A   1      42.203  30.830  29.472  1.00  0.00    -0.354 N 
ATOM     49  N   UNL A   1      44.601  29.812  28.108  1.00  0.00    -0.248 NA
ATOM     50  C   UNL A   1      46.751  30.150  27.252  1.00  0.00     0.031 C 
ATOM     51  C   UNL A   1      42.253  32.905  30.262  1.00  0.00     0.029 A 
ATOM     52  C   UNL A   1      42.991  31.966  29.560  1.00  0.00     0.049 A 
ATOM     53  H   UNL A   1      42.462  29.997  29.015  1.00  0.00     0.167 HD
ATOM     54  C   UNL A   1      45.002  31.115  28.381  1.00  0.00     0.074 A 
ATOM     55  C   UNL A   1      46.341  31.261  27.848  1.00  0.00     0.031 C 
ATOM     56  C   UNL A   1      44.320  32.100  29.015  1.00  0.00     0.034 A 
BRANCH  43  57
ATOM     57  C   UNL A   1      38.672  30.469  30.950  1.00  0.00     0.023 A 
ATOM     58  C   UNL A   1      37.629  31.162  30.313  1.00  0.00     0.031 A 
ATOM     59  C   UNL A   1      38.503  30.119  32.303  1.00  0.00     0.131 A 
ATOM     60  C   UNL A   1      36.482  31.519  31.040  1.00  0.00     0.055 A 
ATOM     61  C   UNL A   1      37.333  30.420  33.002  1.00  0.00     0.041 A 
ATOM     62  F   UNL A   1      39.474  29.469  32.966  1.00  0.00    -0.206 F 
ATOM     63  C   UNL A   1      36.317  31.131  32.372  1.00  0.00     0.022 A 
BRANCH  60  64
ATOM     64  S   UNL A   1      35.238  32.570  30.242  1.00  0.00     0.124 S 
ATOM     65  O   UNL A   1      34.822  31.732  29.121  1.00  0.00    -0.237 OA
ATOM     66  O   UNL A   1      34.253  32.756  31.301  1.00  0.00    -0.237 OA
ATOM     67  O   UNL A   1      35.988  33.768  29.872  1.00  0.00    -0.744 OA
ENDBRANCH  60  64
ENDBRANCH  43  57
BRANCH  44  68
ATOM     68  C   UNL A   1      46.948  27.406  26.220  1.00  0.00     0.023 A 
ATOM     69  C   UNL A   1      47.152  27.690  24.861  1.00  0.00     0.031 A 
ATOM     70  C   UNL A   1      47.949  26.690  26.903  1.00  0.00     0.131 A 
ATOM     71  C   UNL A   1      48.325  27.253  24.227  1.00  0.00     0.055 A 
ATOM     72  C   UNL A   1      49.134  26.299  26.280  1.00  0.00     0.041 A 
ATOM     73  F   UNL A   1      47.801  26.392  28.204  1.00  0.00    -0.206 F 
ATOM     74  C   UNL A   1      49.326  26.577  24.930  1.00  0.00     0.022 A 
BRANCH  71  75
ATOM     75  S   UNL A   1      48.516  27.550  22.448  1.00  0.00     0.124 S 
ATOM     76  O   UNL A   1      48.568  26.188  21.925  1.00  0.00    -0.237 OA
ATOM     77  O   UNL A   1      47.312  28.312  22.135  1.00  0.00    -0.237 OA
ATOM     78  O   UNL A   1      49.766  28.301  22.360  1.00  0.00    -0.744 OA
ENDBRANCH  71  75
ENDBRANCH  44  68
BRANCH  56  79
ATOM     79  C   UNL A   1      45.020  33.420  29.192  1.00  0.00     0.023 A 
ATOM     80  C   UNL A   1      44.870  34.458  28.258  1.00  0.00     0.031 A 
ATOM     81  C   UNL A   1      45.808  33.655  30.333  1.00  0.00     0.131 A 
ATOM     82  C   UNL A   1      45.523  35.681  28.469  1.00  0.00     0.055 A 
ATOM     83  C   UNL A   1      46.415  34.889  30.560  1.00  0.00     0.041 A 
ATOM     84  F   UNL A   1      45.978  32.694  31.254  1.00  0.00    -0.206 F 
ATOM     85  C   UNL A   1      46.278  35.910  29.623  1.00  0.00     0.022 A 
BRANCH  82  86
ATOM     86  S   UNL A   1      45.398  36.965  27.195  1.00  0.00     0.124 S 
ATOM     87  O   UNL A   1      45.919  38.135  27.895  1.00  0.00    -0.237 OA
ATOM     88  O   UNL A   1      46.240  36.435  26.128  1.00  0.00    -0.237 OA
ATOM     89  O   UNL A   1      43.969  37.008  26.891  1.00  0.00    -0.744 OA
ENDBRANCH  82  86
ENDBRANCH  56  79
ENDBRANCH  30  31
ENDBRANCH  23  25
ENDBRANCH  22  23
ENDBRANCH   1  22
TORSDOF 15
ENDMDL
MODEL 2
REMARK VINA RESULT:     -12.6      1.369      1.670
REMARK SMILES Cc1cc(C)c2c(c1)C=C(C(=O)OCCOC(=O)c1ccc(-c3c4nc(c(-c5cc(S(=O)(=O)[O-])ccc5F)c5ccc([nH]5)c(-c5cc(S(=O)(=O)[O-])ccc5F)c5nc(c(-c6cc(S(=O)(=O)[O-])ccc6F)c6ccc3[nH]6)C=C5)C=C4)cc1)[C@@H](C(F)(F)F)O2
REMARK SMILES IDX 15 1 14 2 13 3 11 4 12 5 10 6 1 7 2 8 3 9 8 10 4 11 7 12
REMARK SMILES IDX 5 13 6 14 9 15 87 16 82 17 83 18 84 19 85 20 86 21 16 22
REMARK SMILES IDX 17 23 18 24 19 25 20 26 81 27 21 28 80 29 22 30 23 31 24 32
REMARK SMILES IDX 74 33 25 34 79 35 73 36 75 37 26 38 78 39 72 40 71 41 27 43
REMARK SMILES IDX 59 44 39 45 58 46 40 47 43 48 57 49 76 50 41 51 42 52 56 54
REMARK SMILES IDX 77 55 44 56 28 57 29 58 37 59 30 60 36 61 38 62 35 63 31 64
REMARK SMILES IDX 32 65 33 66 34 67 60 68 61 69 69 70 62 71 68 72 70 73 67 74
REMARK SMILES IDX 63 75 64 76 65 77 66 78 45 79 46 80 54 81 47 82 53 83 55 84
REMARK SMILES IDX 52 85 48 86 49 87 50 88 51 89
REMARK H PARENT 75 42 43 53
REMARK Flexibility Score: inf
ROOT
ATOM      1  C   UNL A   1      36.557  20.544  25.000  1.00  0.00     0.275 C 
ENDROOT
BRANCH   1   2
ATOM      2  C   UNL A   1      35.196  21.228  24.877  1.00  0.00     0.275 C 
BRANCH   2   3
ATOM      3  O   UNL A   1      35.322  22.666  24.887  1.00  0.00    -0.459 OA
BRANCH   3   4
ATOM      4  C   UNL A   1      35.151  23.267  23.687  1.00  0.00     0.338 C 
ATOM      5  O   UNL A   1      35.704  22.966  22.639  1.00  0.00    -0.246 OA
BRANCH   4   6
ATOM      6  C   UNL A   1      34.175  24.367  23.787  1.00  0.00     0.087 C 
ATOM      7  C   UNL A   1      32.744  29.128  27.406  1.00  0.00     0.044 C 
ATOM      8  C   UNL A   1      32.559  28.175  26.261  1.00  0.00    -0.050 A 
ATOM      9  C   UNL A   1      31.375  28.151  25.515  1.00  0.00     0.010 A 
ATOM     10  C   UNL A   1      33.560  27.247  25.966  1.00  0.00     0.015 A 
ATOM     11  C   UNL A   1      31.194  27.226  24.469  1.00  0.00    -0.008 A 
ATOM     12  C   UNL A   1      33.380  26.311  24.942  1.00  0.00     0.018 A 
ATOM     13  C   UNL A   1      29.915  27.225  23.685  1.00  0.00     0.048 C 
ATOM     14  C   UNL A   1      32.209  26.300  24.186  1.00  0.00     0.130 A 
ATOM     15  C   UNL A   1      34.401  25.312  24.704  1.00  0.00     0.027 C 
ATOM     16  O   UNL A   1      31.999  25.420  23.156  1.00  0.00    -0.475 OA
ATOM     17  C   UNL A   1      32.912  24.300  22.984  1.00  0.00     0.316 C 
BRANCH  17  18
ATOM     18  C   UNL A   1      32.149  22.993  23.256  1.00  0.00     0.430 C 
ATOM     19  F   UNL A   1      32.256  22.621  24.555  1.00  0.00    -0.167 F 
ATOM     20  F   UNL A   1      30.822  23.131  23.012  1.00  0.00    -0.167 F 
ATOM     21  F   UNL A   1      32.594  21.964  22.502  1.00  0.00    -0.167 F 
ENDBRANCH  17  18
ENDBRANCH   4   6
ENDBRANCH   3   4
ENDBRANCH   2   3
ENDBRANCH   1   2
BRANCH   1  22
ATOM     22  O   UNL A   1      37.612  21.523  25.020  1.00  0.00    -0.458 OA
BRANCH  22  23
ATOM     23  C   UNL A   1      38.706  21.168  25.734  1.00  0.00     0.338 C 
ATOM     24  O   UNL A   1      39.248  20.077  25.757  1.00  0.00    -0.246 OA
BRANCH  23  25
ATOM     25  C   UNL A   1      39.238  22.330  26.464  1.00  0.00     0.060 A 
ATOM     26  C   UNL A   1      38.718  23.585  26.179  1.00  0.00     0.016 A 
ATOM     27  C   UNL A   1      40.379  22.212  27.253  1.00  0.00     0.016 A 
ATOM     28  C   UNL A   1      39.436  24.727  26.518  1.00  0.00     0.010 A 
ATOM     29  C   UNL A   1      41.003  23.369  27.738  1.00  0.00     0.010 A 
ATOM     30  C   UNL A   1      40.577  24.646  27.328  1.00  0.00    -0.014 A 
BRANCH  30  31
ATOM     31  C   UNL A   1      41.323  25.884  27.711  1.00  0.00     0.031 A 
ATOM     32  C   UNL A   1      40.666  26.940  28.570  1.00  0.00     0.074 A 
ATOM     33  C   UNL A   1      42.606  26.058  27.325  1.00  0.00     0.049 A 
ATOM     34  N   UNL A   1      41.073  28.155  28.843  1.00  0.00    -0.248 NA
ATOM     35  C   UNL A   1      39.377  26.592  29.191  1.00  0.00     0.031 C 
ATOM     36  C   UNL A   1      43.398  25.096  26.551  1.00  0.00     0.029 A 
ATOM     37  N   UNL A   1      43.485  27.091  27.547  1.00  0.00    -0.354 N 
ATOM     38  C   UNL A   1      40.069  28.731  29.618  1.00  0.00     0.074 A 
ATOM     39  C   UNL A   1      39.026  27.738  29.759  1.00  0.00     0.031 C 
ATOM     40  C   UNL A   1      44.655  25.546  26.434  1.00  0.00     0.029 A 
ATOM     41  C   UNL A   1      44.732  26.885  27.000  1.00  0.00     0.049 A 
ATOM     42  H   UNL A   1      43.246  27.903  28.050  1.00  0.00     0.167 HD
ATOM     43  C   UNL A   1      40.026  29.972  30.163  1.00  0.00     0.034 A 
ATOM     44  C   UNL A   1      45.806  27.694  26.905  1.00  0.00     0.034 A 
ATOM     45  C   UNL A   1      41.099  30.931  30.062  1.00  0.00     0.049 A 
ATOM     46  C   UNL A   1      45.705  29.094  27.443  1.00  0.00     0.074 A 
ATOM     47  C   UNL A   1      41.156  32.215  30.577  1.00  0.00     0.029 A 
ATOM     48  N   UNL A   1      42.310  30.707  29.421  1.00  0.00    -0.354 N 
ATOM     49  N   UNL A   1      44.705  29.659  28.076  1.00  0.00    -0.248 NA
ATOM     50  C   UNL A   1      46.862  29.973  27.228  1.00  0.00     0.031 C 
ATOM     51  C   UNL A   1      42.374  32.787  30.199  1.00  0.00     0.029 A 
ATOM     52  C   UNL A   1      43.107  31.837  29.507  1.00  0.00     0.049 A 
ATOM     53  H   UNL A   1      42.563  29.869  28.971  1.00  0.00     0.167 HD
ATOM     54  C   UNL A   1      45.116  30.961  28.343  1.00  0.00     0.074 A 
ATOM     55  C   UNL A   1      46.459  31.092  27.815  1.00  0.00     0.031 C 
ATOM     56  C   UNL A   1      44.440  31.956  28.967  1.00  0.00     0.034 A 
BRANCH  43  57
ATOM     57  C   UNL A   1      38.768  30.387  30.885  1.00  0.00     0.023 A 
ATOM     58  C   UNL A   1      37.720  31.056  30.230  1.00  0.00     0.031 A 
ATOM     59  C   UNL A   1      38.605  30.078  32.248  1.00  0.00     0.131 A 
ATOM     60  C   UNL A   1      36.573  31.429  30.949  1.00  0.00     0.055 A 
ATOM     61  C   UNL A   1      37.436  30.394  32.941  1.00  0.00     0.041 A 
ATOM     62  F   UNL A   1      39.581  29.454  32.928  1.00  0.00    -0.206 F 
ATOM     63  C   UNL A   1      36.414  31.080  32.293  1.00  0.00     0.022 A 
BRANCH  60  64
ATOM     64  S   UNL A   1      35.322  32.448  30.123  1.00  0.00     0.124 S 
ATOM     65  O   UNL A   1      34.910  31.576  29.027  1.00  0.00    -0.237 OA
ATOM     66  O   UNL A   1      34.336  32.657  31.178  1.00  0.00    -0.237 OA
ATOM     67  O   UNL A   1      36.063  33.641  29.719  1.00  0.00    -0.744 OA
ENDBRANCH  60  64
ENDBRANCH  43  57
BRANCH  44  68
ATOM     68  C   UNL A   1      47.039  27.221  26.213  1.00  0.00     0.023 A 
ATOM     69  C   UNL A   1      48.046  26.546  26.919  1.00  0.00     0.031 A 
ATOM     70  C   UNL A   1      47.220  27.423  24.832  1.00  0.00     0.131 A 
ATOM     71  C   UNL A   1      49.195  26.106  26.242  1.00  0.00     0.055 A 
ATOM     72  C   UNL A   1      48.341  26.941  24.156  1.00  0.00     0.041 A 
ATOM     73  F   UNL A   1      46.286  28.064  24.112  1.00  0.00    -0.206 F 
ATOM     74  C   UNL A   1      49.341  26.281  24.863  1.00  0.00     0.022 A 
BRANCH  71  75
ATOM     75  S   UNL A   1      50.523  25.325  27.199  1.00  0.00     0.124 S 
ATOM     76  O   UNL A   1      50.958  26.425  28.054  1.00  0.00    -0.237 OA
ATOM     77  O   UNL A   1      49.820  24.234  27.865  1.00  0.00    -0.237 OA
ATOM     78  O   UNL A   1      51.482  24.913  26.177  1.00  0.00    -0.744 OA
ENDBRANCH  71  75
ENDBRANCH  44  68
BRANCH  56  79
ATOM     79  C   UNL A   1      45.151  33.271  29.140  1.00  0.00     0.023 A 
ATOM     80  C   UNL A   1      45.087  34.270  28.155  1.00  0.00     0.031 A 
ATOM     81  C   UNL A   1      45.860  33.541  30.323  1.00  0.00     0.131 A 
ATOM     82  C   UNL A   1      45.747  35.491  28.361  1.00  0.00     0.055 A 
ATOM     83  C   UNL A   1      46.473  34.773  30.542  1.00  0.00     0.041 A 
ATOM     84  F   UNL A   1      45.946  32.616  31.293  1.00  0.00    -0.206 F 
ATOM     85  C   UNL A   1      46.423  35.755  29.556  1.00  0.00     0.022 A 
BRANCH  82  86
ATOM     86  S   UNL A   1      45.738  36.721  27.030  1.00  0.00     0.124 S 
ATOM     87  O   UNL A   1      46.255  35.950  25.904  1.00  0.00    -0.237 OA
ATOM     88  O   UNL A   1      44.330  37.094  26.954  1.00  0.00    -0.237 OA
ATOM     89  O   UNL A   1      46.628  37.769  27.526  1.00  0.00    -0.744 OA
ENDBRANCH  82  86
ENDBRANCH  56  79
ENDBRANCH  30  31
ENDBRANCH  23  25
ENDBRANCH  22  23
ENDBRANCH   1  22
TORSDOF 15
ENDMDL
MODEL 3
REMARK VINA RESULT:     -12.5      5.004     10.016
REMARK SMILES Cc1cc(C)c2c(c1)C=C(C(=O)OCCOC(=O)c1ccc(-c3c4nc(c(-c5cc(S(=O)(=O)[O-])ccc5F)c5ccc([nH]5)c(-c5cc(S(=O)(=O)[O-])ccc5F)c5nc(c(-c6cc(S(=O)(=O)[O-])ccc6F)c6ccc3[nH]6)C=C5)C=C4)cc1)[C@@H](C(F)(F)F)O2
REMARK SMILES IDX 15 1 14 2 13 3 11 4 12 5 10 6 1 7 2 8 3 9 8 10 4 11 7 12
REMARK SMILES IDX 5 13 6 14 9 15 87 16 82 17 83 18 84 19 85 20 86 21 16 22
REMARK SMILES IDX 17 23 18 24 19 25 20 26 81 27 21 28 80 29 22 30 23 31 24 32
REMARK SMILES IDX 74 33 25 34 79 35 73 36 75 37 26 38 78 39 72 40 71 41 27 43
REMARK SMILES IDX 59 44 39 45 58 46 40 47 43 48 57 49 76 50 41 51 42 52 56 54
REMARK SMILES IDX 77 55 44 56 28 57 29 58 37 59 30 60 36 61 38 62 35 63 31 64
REMARK SMILES IDX 32 65 33 66 34 67 60 68 61 69 69 70 62 71 68 72 70 73 67 74
REMARK SMILES IDX 63 75 64 76 65 77 66 78 45 79 46 80 54 81 47 82 53 83 55 84
REMARK SMILES IDX 52 85 48 86 49 87 50 88 51 89
REMARK H PARENT 75 42 43 53
REMARK Flexibility Score: inf
ROOT
ATOM      1  C   UNL A   1      31.635  30.471  25.739  1.00  0.00     0.275 C 
ENDROOT
BRANCH   1   2
ATOM      2  C   UNL A   1      31.579  29.075  25.119  1.00  0.00     0.275 C 
BRANCH   2   3
ATOM      3  O   UNL A   1      32.453  28.155  25.808  1.00  0.00    -0.459 OA
BRANCH   3   4
ATOM      4  C   UNL A   1      31.828  27.198  26.532  1.00  0.00     0.338 C 
ATOM      5  O   UNL A   1      31.011  27.381  27.423  1.00  0.00    -0.246 OA
BRANCH   4   6
ATOM      6  C   UNL A   1      32.254  25.854  26.103  1.00  0.00     0.087 C 
ATOM      7  C   UNL A   1      37.353  22.711  24.714  1.00  0.00     0.044 C 
ATOM      8  C   UNL A   1      35.874  22.928  24.851  1.00  0.00    -0.050 A 
ATOM      9  C   UNL A   1      34.949  22.019  24.324  1.00  0.00     0.010 A 
ATOM     10  C   UNL A   1      35.401  24.091  25.461  1.00  0.00     0.015 A 
ATOM     11  C   UNL A   1      33.565  22.252  24.421  1.00  0.00    -0.008 A 
ATOM     12  C   UNL A   1      34.027  24.341  25.544  1.00  0.00     0.018 A 
ATOM     13  C   UNL A   1      32.597  21.258  23.849  1.00  0.00     0.048 C 
ATOM     14  C   UNL A   1      33.105  23.426  25.037  1.00  0.00     0.130 A 
ATOM     15  C   UNL A   1      33.563  25.588  26.116  1.00  0.00     0.027 C 
ATOM     16  O   UNL A   1      31.750  23.614  25.119  1.00  0.00    -0.475 OA
ATOM     17  C   UNL A   1      31.239  24.912  25.530  1.00  0.00     0.316 C 
BRANCH  17  18
ATOM     18  C   UNL A   1      30.496  25.550  24.345  1.00  0.00     0.430 C 
ATOM     19  F   UNL A   1      31.344  26.248  23.549  1.00  0.00    -0.167 F 
ATOM     20  F   UNL A   1      29.923  24.610  23.553  1.00  0.00    -0.167 F 
ATOM     21  F   UNL A   1      29.520  26.397  24.738  1.00  0.00    -0.167 F 
ENDBRANCH  17  18
ENDBRANCH   4   6
ENDBRANCH   3   4
ENDBRANCH   2   3
ENDBRANCH   1   2
BRANCH   1  22
ATOM     22  O   UNL A   1      32.372  30.445  26.974  1.00  0.00    -0.458 OA
BRANCH  22  23
ATOM     23  C   UNL A   1      33.051  31.581  27.256  1.00  0.00     0.338 C 
ATOM     24  O   UNL A   1      32.614  32.719  27.255  1.00  0.00    -0.246 OA
BRANCH  23  25
ATOM     25  C   UNL A   1      34.431  31.265  27.658  1.00  0.00     0.060 A 
ATOM     26  C   UNL A   1      34.763  29.939  27.898  1.00  0.00     0.016 A 
ATOM     27  C   UNL A   1      35.320  32.279  28.004  1.00  0.00     0.016 A 
ATOM     28  C   UNL A   1      35.891  29.631  28.651  1.00  0.00     0.010 A 
ATOM     29  C   UNL A   1      36.539  31.948  28.611  1.00  0.00     0.010 A 
ATOM     30  C   UNL A   1      36.817  30.623  28.999  1.00  0.00    -0.014 A 
BRANCH  30  31
ATOM     31  C   UNL A   1      38.042  30.275  29.784  1.00  0.00     0.031 A 
ATOM     32  C   UNL A   1      39.113  29.396  29.181  1.00  0.00     0.074 A 
ATOM     33  C   UNL A   1      38.223  30.772  31.027  1.00  0.00     0.049 A 
ATOM     34  N   UNL A   1      40.141  28.828  29.762  1.00  0.00    -0.248 NA
ATOM     35  C   UNL A   1      39.008  29.102  27.742  1.00  0.00     0.031 C 
ATOM     36  C   UNL A   1      37.310  31.689  31.717  1.00  0.00     0.029 A 
ATOM     37  N   UNL A   1      39.246  30.599  31.929  1.00  0.00    -0.354 N 
ATOM     38  C   UNL A   1      40.770  28.072  28.777  1.00  0.00     0.074 A 
ATOM     39  C   UNL A   1      40.000  28.239  27.563  1.00  0.00     0.031 C 
ATOM     40  C   UNL A   1      37.849  32.056  32.888  1.00  0.00     0.029 A 
ATOM     41  C   UNL A   1      39.075  31.300  33.101  1.00  0.00     0.049 A 
ATOM     42  H   UNL A   1      40.027  30.026  31.754  1.00  0.00     0.167 HD
ATOM     43  C   UNL A   1      41.889  27.313  28.876  1.00  0.00     0.034 A 
ATOM     44  C   UNL A   1      39.784  31.303  34.248  1.00  0.00     0.034 A 
ATOM     45  C   UNL A   1      42.680  27.200  30.078  1.00  0.00     0.049 A 
ATOM     46  C   UNL A   1      40.972  30.389  34.364  1.00  0.00     0.074 A 
ATOM     47  C   UNL A   1      43.829  26.457  30.285  1.00  0.00     0.029 A 
ATOM     48  N   UNL A   1      42.416  27.863  31.269  1.00  0.00    -0.354 N 
ATOM     49  N   UNL A   1      41.487  29.595  33.456  1.00  0.00    -0.248 NA
ATOM     50  C   UNL A   1      41.654  30.348  35.664  1.00  0.00     0.031 C 
ATOM     51  C   UNL A   1      44.227  26.624  31.615  1.00  0.00     0.029 A 
ATOM     52  C   UNL A   1      43.366  27.526  32.219  1.00  0.00     0.049 A 
ATOM     53  H   UNL A   1      41.663  28.481  31.417  1.00  0.00     0.167 HD
ATOM     54  C   UNL A   1      42.562  28.964  34.074  1.00  0.00     0.074 A 
ATOM     55  C   UNL A   1      42.628  29.481  35.426  1.00  0.00     0.031 C 
ATOM     56  C   UNL A   1      43.414  28.041  33.566  1.00  0.00     0.034 A 
BRANCH  43  57
ATOM     57  C   UNL A   1      42.310  26.508  27.672  1.00  0.00     0.023 A 
ATOM     58  C   UNL A   1      41.949  25.159  27.514  1.00  0.00     0.031 A 
ATOM     59  C   UNL A   1      43.062  27.115  26.648  1.00  0.00     0.131 A 
ATOM     60  C   UNL A   1      42.374  24.451  26.379  1.00  0.00     0.055 A 
ATOM     61  C   UNL A   1      43.426  26.423  25.492  1.00  0.00     0.041 A 
ATOM     62  F   UNL A   1      43.448  28.396  26.754  1.00  0.00    -0.206 F 
ATOM     63  C   UNL A   1      43.088  25.080  25.355  1.00  0.00     0.022 A 
BRANCH  60  64
ATOM     64  S   UNL A   1      42.048  22.669  26.291  1.00  0.00     0.124 S 
ATOM     65  O   UNL A   1      40.591  22.633  26.365  1.00  0.00    -0.237 OA
ATOM     66  O   UNL A   1      42.632  22.303  25.006  1.00  0.00    -0.237 OA
ATOM     67  O   UNL A   1      42.740  22.136  27.463  1.00  0.00    -0.744 OA
ENDBRANCH  60  64
ENDBRANCH  43  57
BRANCH  44  68
ATOM     68  C   UNL A   1      39.345  32.146  35.396  1.00  0.00     0.023 A 
ATOM     69  C   UNL A   1      39.789  33.469  35.529  1.00  0.00     0.031 A 
ATOM     70  C   UNL A   1      38.461  31.644  36.370  1.00  0.00     0.131 A 
ATOM     71  C   UNL A   1      39.356  34.244  36.618  1.00  0.00     0.055 A 
ATOM     72  C   UNL A   1      37.995  32.433  37.422  1.00  0.00     0.041 A 
ATOM     73  F   UNL A   1      38.007  30.383  36.288  1.00  0.00    -0.206 F 
ATOM     74  C   UNL A   1      38.448  33.742  37.553  1.00  0.00     0.022 A 
BRANCH  71  75
ATOM     75  S   UNL A   1      40.025  35.918  36.816  1.00  0.00     0.124 S 
ATOM     76  O   UNL A   1      39.671  36.531  35.540  1.00  0.00    -0.237 OA
ATOM     77  O   UNL A   1      39.298  36.401  37.985  1.00  0.00    -0.237 OA
ATOM     78  O   UNL A   1      41.454  35.691  37.025  1.00  0.00    -0.744 OA
ENDBRANCH  71  75
ENDBRANCH  44  68
BRANCH  56  79
ATOM     79  C   UNL A   1      44.512  27.545  34.467  1.00  0.00     0.023 A 
ATOM     80  C   UNL A   1      44.354  26.383  35.240  1.00  0.00     0.031 A 
ATOM     81  C   UNL A   1      45.745  28.219  34.516  1.00  0.00     0.131 A 
ATOM     82  C   UNL A   1      45.408  25.942  36.053  1.00  0.00     0.055 A 
ATOM     83  C   UNL A   1      46.805  27.748  35.289  1.00  0.00     0.041 A 
ATOM     84  F   UNL A   1      45.943  29.333  33.793  1.00  0.00    -0.206 F 
ATOM     85  C   UNL A   1      46.638  26.605  36.067  1.00  0.00     0.022 A 
BRANCH  82  86
ATOM     86  S   UNL A   1      45.140  24.501  37.120  1.00  0.00     0.124 S 
ATOM     87  O   UNL A   1      43.869  24.830  37.757  1.00  0.00    -0.237 OA
ATOM     88  O   UNL A   1      45.106  23.400  36.163  1.00  0.00    -0.237 OA
ATOM     89  O   UNL A   1      46.301  24.512  38.008  1.00  0.00    -0.744 OA
ENDBRANCH  82  86
ENDBRANCH  56  79
ENDBRANCH  30  31
ENDBRANCH  23  25
ENDBRANCH  22  23
ENDBRANCH   1  22
TORSDOF 15
ENDMDL
