MODEL 1
REMARK VINA RESULT:     -12.5      0.000      0.000
REMARK SMILES COc1ccc(S(=O)(=O)N2CCC[C@H](C(=O)N3CCC[C@H](C(=O)OCCOC(=O)c4ccc(-c5c6nc(c(-c7cc(S(=O)(=O)[O-])ccc7F)c7ccc([nH]7)c(-c7cc(S(=O)(=O)[O-])ccc7F)c7nc(c(-c8cc(S(=O)(=O)[O-])ccc8F)c8ccc5[nH]8)C=C7)C=C6)cc4)C3)C2)cc1
REMARK SMILES IDX 25 1 24 2 22 3 23 4 21 5 17 6 18 7 93 8 19 9 20 10 15 11
REMARK SMILES IDX 16 12 14 13 10 14 11 15 94 16 12 17 13 18 7 19 8 20 9 21
REMARK SMILES IDX 6 22 3 23 4 24 96 25 5 26 95 27 2 28 1 29 26 30 27 31 28 32
REMARK SMILES IDX 29 33 30 34 31 35 92 36 32 37 91 38 33 39 34 40 35 41 85 42
REMARK SMILES IDX 36 43 90 44 84 45 86 46 37 47 89 48 83 49 82 50 38 52 70 53
REMARK SMILES IDX 50 54 69 55 51 56 54 57 68 58 87 59 52 60 53 61 67 63 88 64
REMARK SMILES IDX 55 65 39 66 40 67 48 68 41 69 47 70 49 71 46 72 42 73 43 74
REMARK SMILES IDX 44 75 45 76 71 77 72 78 80 79 73 80 79 81 81 82 78 83 74 84
REMARK SMILES IDX 75 85 76 86 77 87 56 88 57 89 65 90 58 91 64 92 66 93 63 94
REMARK SMILES IDX 59 95 60 96 61 97 62 98
REMARK H PARENT 86 51 54 62
REMARK Flexibility Score: inf
ROOT
ATOM      1  C   UNL A   1      36.660  22.478  23.751  1.00  0.00     0.274 C 
ENDROOT
BRANCH   1   2
ATOM      2  O   UNL A   1      35.466  23.011  24.350  1.00  0.00    -0.462 OA
BRANCH   2   3
ATOM      3  C   UNL A   1      34.511  23.471  23.507  1.00  0.00     0.310 C 
ATOM      4  O   UNL A   1      34.655  24.420  22.742  1.00  0.00    -0.252 OA
BRANCH   3   5
ATOM      5  C   UNL A   1      33.199  22.708  23.605  1.00  0.00     0.119 C 
ATOM      6  N   UNL A   1      32.230  24.072  25.386  1.00  0.00    -0.342 N 
ATOM      7  C   UNL A   1      32.133  22.952  26.316  1.00  0.00     0.119 C 
ATOM      8  C   UNL A   1      32.108  23.702  23.987  1.00  0.00     0.134 C 
ATOM      9  C   UNL A   1      33.151  21.860  26.013  1.00  0.00     0.022 C 
ATOM     10  C   UNL A   1      33.178  21.488  24.529  1.00  0.00     0.019 C 
BRANCH   6  11
ATOM     11  C   UNL A   1      32.754  25.272  25.824  1.00  0.00     0.227 C 
ATOM     12  O   UNL A   1      33.976  25.450  25.874  1.00  0.00    -0.275 OA
BRANCH  11  13
ATOM     13  C   UNL A   1      31.836  26.306  26.489  1.00  0.00     0.094 C 
ATOM     14  N   UNL A   1      30.810  27.351  24.497  1.00  0.00    -0.197 NA
ATOM     15  C   UNL A   1      31.510  28.632  24.685  1.00  0.00     0.102 C 
ATOM     16  C   UNL A   1      30.581  26.464  25.648  1.00  0.00     0.116 C 
ATOM     17  C   UNL A   1      32.136  28.850  26.057  1.00  0.00     0.018 C 
ATOM     18  C   UNL A   1      32.366  27.646  26.973  1.00  0.00     0.016 C 
BRANCH  14  19
ATOM     19  S   UNL A   1      29.764  27.221  23.167  1.00  0.00     0.243 S 
ATOM     20  O   UNL A   1      28.643  26.396  23.537  1.00  0.00    -0.207 OA
ATOM     21  O   UNL A   1      30.582  26.915  22.006  1.00  0.00    -0.207 OA
BRANCH  19  22
ATOM     22  C   UNL A   1      29.120  28.861  22.896  1.00  0.00     0.082 A 
ATOM     23  C   UNL A   1      28.292  31.500  22.531  1.00  0.00     0.118 A 
ATOM     24  C   UNL A   1      29.436  31.033  21.883  1.00  0.00     0.048 A 
ATOM     25  C   UNL A   1      27.531  30.633  23.314  1.00  0.00     0.048 A 
ATOM     26  C   UNL A   1      29.861  29.715  22.073  1.00  0.00     0.025 A 
ATOM     27  C   UNL A   1      27.950  29.318  23.503  1.00  0.00     0.025 A 
BRANCH  23  28
ATOM     28  O   UNL A   1      27.966  32.813  22.328  1.00  0.00    -0.497 OA
ATOM     29  C   UNL A   1      28.814  33.719  23.034  1.00  0.00     0.278 C 
ENDBRANCH  23  28
ENDBRANCH  19  22
ENDBRANCH  14  19
ENDBRANCH  11  13
ENDBRANCH   6  11
ENDBRANCH   3   5
ENDBRANCH   2   3
ENDBRANCH   1   2
BRANCH   1  30
ATOM     30  C   UNL A   1      37.170  21.278  24.549  1.00  0.00     0.275 C 
BRANCH  30  31
ATOM     31  O   UNL A   1      37.610  21.670  25.863  1.00  0.00    -0.458 OA
BRANCH  31  32
ATOM     32  C   UNL A   1      38.929  21.474  26.102  1.00  0.00     0.338 C 
ATOM     33  O   UNL A   1      39.604  20.507  25.794  1.00  0.00    -0.246 OA
BRANCH  32  34
ATOM     34  C   UNL A   1      39.502  22.677  26.717  1.00  0.00     0.060 A 
ATOM     35  C   UNL A   1      39.090  23.926  26.251  1.00  0.00     0.016 A 
ATOM     36  C   UNL A   1      40.521  22.572  27.661  1.00  0.00     0.016 A 
ATOM     37  C   UNL A   1      39.717  25.083  26.694  1.00  0.00     0.010 A 
ATOM     38  C   UNL A   1      41.131  23.738  28.130  1.00  0.00     0.010 A 
ATOM     39  C   UNL A   1      40.745  24.998  27.635  1.00  0.00    -0.014 A 
BRANCH  39  40
ATOM     40  C   UNL A   1      41.459  26.222  28.067  1.00  0.00     0.031 A 
ATOM     41  C   UNL A   1      40.709  27.283  28.819  1.00  0.00     0.074 A 
ATOM     42  C   UNL A   1      42.764  26.379  27.770  1.00  0.00     0.049 A 
ATOM     43  N   UNL A   1      41.077  28.500  29.118  1.00  0.00    -0.248 NA
ATOM     44  C   UNL A   1      39.360  26.927  29.285  1.00  0.00     0.031 C 
ATOM     45  C   UNL A   1      43.602  25.382  27.100  1.00  0.00     0.029 A 
ATOM     46  N   UNL A   1      43.607  27.441  27.973  1.00  0.00    -0.354 N 
ATOM     47  C   UNL A   1      39.989  29.074  29.765  1.00  0.00     0.074 A 
ATOM     48  C   UNL A   1      38.949  28.069  29.818  1.00  0.00     0.031 C 
ATOM     49  C   UNL A   1      44.834  25.889  26.929  1.00  0.00     0.029 A 
ATOM     50  C   UNL A   1      44.851  27.267  27.411  1.00  0.00     0.049 A 
ATOM     51  H   UNL A   1      43.348  28.249  28.473  1.00  0.00     0.167 HD
ATOM     52  C   UNL A   1      39.873  30.332  30.256  1.00  0.00     0.034 A 
ATOM     53  C   UNL A   1      45.866  28.139  27.249  1.00  0.00     0.034 A 
ATOM     54  C   UNL A   1      40.938  31.304  30.215  1.00  0.00     0.049 A 
ATOM     55  C   UNL A   1      45.694  29.548  27.763  1.00  0.00     0.074 A 
ATOM     56  C   UNL A   1      40.946  32.596  30.713  1.00  0.00     0.029 A 
ATOM     57  N   UNL A   1      42.183  31.094  29.637  1.00  0.00    -0.354 N 
ATOM     58  N   UNL A   1      44.655  30.087  28.360  1.00  0.00    -0.248 NA
ATOM     59  C   UNL A   1      46.826  30.464  27.582  1.00  0.00     0.031 C 
ATOM     60  C   UNL A   1      42.171  33.185  30.382  1.00  0.00     0.029 A 
ATOM     61  C   UNL A   1      42.955  32.240  29.740  1.00  0.00     0.049 A 
ATOM     62  H   UNL A   1      42.476  30.253  29.216  1.00  0.00     0.167 HD
ATOM     63  C   UNL A   1      45.024  31.396  28.653  1.00  0.00     0.074 A 
ATOM     64  C   UNL A   1      46.382  31.561  28.177  1.00  0.00     0.031 C 
ATOM     65  C   UNL A   1      44.309  32.376  29.261  1.00  0.00     0.034 A 
BRANCH  52  66
ATOM     66  C   UNL A   1      38.535  30.750  30.810  1.00  0.00     0.023 A 
ATOM     67  C   UNL A   1      37.544  31.347  30.014  1.00  0.00     0.031 A 
ATOM     68  C   UNL A   1      38.252  30.543  32.173  1.00  0.00     0.131 A 
ATOM     69  C   UNL A   1      36.334  31.758  30.596  1.00  0.00     0.055 A 
ATOM     70  C   UNL A   1      37.022  30.895  32.732  1.00  0.00     0.041 A 
ATOM     71  F   UNL A   1      39.172  29.999  32.986  1.00  0.00    -0.206 F 
ATOM     72  C   UNL A   1      36.059  31.515  31.944  1.00  0.00     0.022 A 
BRANCH  69  73
ATOM     73  S   UNL A   1      35.162  32.710  29.591  1.00  0.00     0.124 S 
ATOM     74  O   UNL A   1      34.663  31.690  28.674  1.00  0.00    -0.237 OA
ATOM     75  O   UNL A   1      34.214  33.194  30.587  1.00  0.00    -0.237 OA
ATOM     76  O   UNL A   1      35.997  33.740  28.973  1.00  0.00    -0.744 OA
ENDBRANCH  69  73
ENDBRANCH  52  66
BRANCH  53  77
ATOM     77  C   UNL A   1      47.096  27.742  26.506  1.00  0.00     0.023 A 
ATOM     78  C   UNL A   1      47.219  27.964  25.127  1.00  0.00     0.031 A 
ATOM     79  C   UNL A   1      48.149  27.074  27.162  1.00  0.00     0.131 A 
ATOM     80  C   UNL A   1      48.341  27.479  24.437  1.00  0.00     0.055 A 
ATOM     81  C   UNL A   1      49.290  26.646  26.482  1.00  0.00     0.041 A 
ATOM     82  F   UNL A   1      48.085  26.833  28.481  1.00  0.00    -0.206 F 
ATOM     83  C   UNL A   1      49.383  26.832  25.107  1.00  0.00     0.022 A 
BRANCH  80  84
ATOM     84  S   UNL A   1      48.370  27.608  22.628  1.00  0.00     0.124 S 
ATOM     85  O   UNL A   1      49.610  28.341  22.401  1.00  0.00    -0.237 OA
ATOM     86  O   UNL A   1      48.369  26.205  22.226  1.00  0.00    -0.237 OA
ATOM     87  O   UNL A   1      47.144  28.342  22.321  1.00  0.00    -0.744 OA
ENDBRANCH  80  84
ENDBRANCH  53  77
BRANCH  65  88
ATOM     88  C   UNL A   1      45.014  33.686  29.500  1.00  0.00     0.023 A 
ATOM     89  C   UNL A   1      44.930  34.751  28.587  1.00  0.00     0.031 A 
ATOM     90  C   UNL A   1      45.784  33.866  30.663  1.00  0.00     0.131 A 
ATOM     91  C   UNL A   1      45.644  35.933  28.829  1.00  0.00     0.055 A 
ATOM     92  C   UNL A   1      46.447  35.065  30.925  1.00  0.00     0.041 A 
ATOM     93  F   UNL A   1      45.897  32.879  31.566  1.00  0.00    -0.206 F 
ATOM     94  C   UNL A   1      46.388  36.102  30.000  1.00  0.00     0.022 A 
BRANCH  91  95
ATOM     95  S   UNL A   1      45.649  37.225  27.556  1.00  0.00     0.124 S 
ATOM     96  O   UNL A   1      46.703  36.763  26.660  1.00  0.00    -0.237 OA
ATOM     97  O   UNL A   1      44.289  37.153  27.032  1.00  0.00    -0.237 OA
ATOM     98  O   UNL A   1      45.960  38.442  28.303  1.00  0.00    -0.744 OA
ENDBRANCH  91  95
ENDBRANCH  65  88
ENDBRANCH  39  40
ENDBRANCH  32  34
ENDBRANCH  31  32
ENDBRANCH  30  31
ENDBRANCH   1  30
TORSDOF 19
ENDMDL
MODEL 2
REMARK VINA RESULT:     -12.4      4.823     10.235
REMARK SMILES COc1ccc(S(=O)(=O)N2CCC[C@H](C(=O)N3CCC[C@H](C(=O)OCCOC(=O)c4ccc(-c5c6nc(c(-c7cc(S(=O)(=O)[O-])ccc7F)c7ccc([nH]7)c(-c7cc(S(=O)(=O)[O-])ccc7F)c7nc(c(-c8cc(S(=O)(=O)[O-])ccc8F)c8ccc5[nH]8)C=C7)C=C6)cc4)C3)C2)cc1
REMARK SMILES IDX 25 1 24 2 22 3 23 4 21 5 17 6 18 7 93 8 19 9 20 10 15 11
REMARK SMILES IDX 16 12 14 13 10 14 11 15 94 16 12 17 13 18 7 19 8 20 9 21
REMARK SMILES IDX 6 22 3 23 4 24 96 25 5 26 95 27 2 28 1 29 26 30 27 31 28 32
REMARK SMILES IDX 29 33 30 34 31 35 92 36 32 37 91 38 33 39 34 40 35 41 85 42
REMARK SMILES IDX 36 43 90 44 84 45 86 46 37 47 89 48 83 49 82 50 38 52 70 53
REMARK SMILES IDX 50 54 69 55 51 56 54 57 68 58 87 59 52 60 53 61 67 63 88 64
REMARK SMILES IDX 55 65 39 66 40 67 48 68 41 69 47 70 49 71 46 72 42 73 43 74
REMARK SMILES IDX 44 75 45 76 71 77 72 78 80 79 73 80 79 81 81 82 78 83 74 84
REMARK SMILES IDX 75 85 76 86 77 87 56 88 57 89 65 90 58 91 64 92 66 93 63 94
REMARK SMILES IDX 59 95 60 96 61 97 62 98
REMARK H PARENT 86 51 54 62
REMARK Flexibility Score: inf
ROOT
ATOM      1  C   UNL A   1      31.053  29.925  24.812  1.00  0.00     0.274 C 
ENDROOT
BRANCH   1   2
ATOM      2  O   UNL A   1      31.362  28.529  24.963  1.00  0.00    -0.462 OA
BRANCH   2   3
ATOM      3  C   UNL A   1      31.447  27.795  23.828  1.00  0.00     0.310 C 
ATOM      4  O   UNL A   1      30.492  27.502  23.114  1.00  0.00    -0.252 OA
BRANCH   3   5
ATOM      5  C   UNL A   1      32.860  27.329  23.514  1.00  0.00     0.119 C 
ATOM      6  N   UNL A   1      32.797  25.326  24.911  1.00  0.00    -0.342 N 
ATOM      7  C   UNL A   1      33.894  25.775  25.763  1.00  0.00     0.119 C 
ATOM      8  C   UNL A   1      32.867  25.805  23.542  1.00  0.00     0.134 C 
ATOM      9  C   UNL A   1      34.024  27.293  25.786  1.00  0.00     0.022 C 
ATOM     10  C   UNL A   1      33.983  27.900  24.382  1.00  0.00     0.019 C 
BRANCH   6  11
ATOM     11  C   UNL A   1      31.655  24.814  25.493  1.00  0.00     0.227 C 
ATOM     12  O   UNL A   1      31.230  25.267  26.562  1.00  0.00    -0.275 OA
BRANCH  11  13
ATOM     13  C   UNL A   1      31.041  23.515  24.954  1.00  0.00     0.094 C 
ATOM     14  N   UNL A   1      33.043  22.066  24.874  1.00  0.00    -0.197 NA
ATOM     15  C   UNL A   1      33.086  22.036  23.403  1.00  0.00     0.102 C 
ATOM     16  C   UNL A   1      31.772  22.334  25.567  1.00  0.00     0.116 C 
ATOM     17  C   UNL A   1      31.818  22.496  22.694  1.00  0.00     0.018 C 
ATOM     18  C   UNL A   1      30.783  23.314  23.470  1.00  0.00     0.016 C 
BRANCH  14  19
ATOM     19  S   UNL A   1      34.240  21.199  25.708  1.00  0.00     0.243 S 
ATOM     20  O   UNL A   1      33.965  21.266  27.120  1.00  0.00    -0.207 OA
ATOM     21  O   UNL A   1      35.524  21.609  25.164  1.00  0.00    -0.207 OA
BRANCH  19  22
ATOM     22  C   UNL A   1      34.026  19.496  25.229  1.00  0.00     0.082 A 
ATOM     23  C   UNL A   1      33.629  16.792  24.668  1.00  0.00     0.118 A 
ATOM     24  C   UNL A   1      32.579  17.561  25.170  1.00  0.00     0.048 A 
ATOM     25  C   UNL A   1      34.859  17.387  24.393  1.00  0.00     0.048 A 
ATOM     26  C   UNL A   1      32.777  18.913  25.463  1.00  0.00     0.025 A 
ATOM     27  C   UNL A   1      35.060  18.735  24.682  1.00  0.00     0.025 A 
BRANCH  23  28
ATOM     28  O   UNL A   1      33.367  15.468  24.447  1.00  0.00    -0.497 OA
ATOM     29  C   UNL A   1      32.557  14.876  25.463  1.00  0.00     0.278 C 
ENDBRANCH  23  28
ENDBRANCH  19  22
ENDBRANCH  14  19
ENDBRANCH  11  13
ENDBRANCH   6  11
ENDBRANCH   3   5
ENDBRANCH   2   3
ENDBRANCH   1   2
BRANCH   1  30
ATOM     30  C   UNL A   1      31.387  30.689  26.093  1.00  0.00     0.275 C 
BRANCH  30  31
ATOM     31  O   UNL A   1      32.801  30.666  26.365  1.00  0.00    -0.458 OA
BRANCH  31  32
ATOM     32  C   UNL A   1      33.260  31.717  27.085  1.00  0.00     0.338 C 
ATOM     33  O   UNL A   1      32.669  32.749  27.351  1.00  0.00    -0.246 OA
BRANCH  32  34
ATOM     34  C   UNL A   1      34.588  31.402  27.626  1.00  0.00     0.060 A 
ATOM     35  C   UNL A   1      34.855  30.090  28.018  1.00  0.00     0.016 A 
ATOM     36  C   UNL A   1      35.517  32.414  27.852  1.00  0.00     0.016 A 
ATOM     37  C   UNL A   1      36.039  29.780  28.675  1.00  0.00     0.010 A 
ATOM     38  C   UNL A   1      36.721  32.098  28.486  1.00  0.00     0.010 A 
ATOM     39  C   UNL A   1      36.980  30.783  28.918  1.00  0.00    -0.014 A 
BRANCH  39  40
ATOM     40  C   UNL A   1      38.217  30.473  29.672  1.00  0.00     0.031 A 
ATOM     41  C   UNL A   1      39.214  29.516  29.085  1.00  0.00     0.074 A 
ATOM     42  C   UNL A   1      38.429  31.038  30.876  1.00  0.00     0.049 A 
ATOM     43  N   UNL A   1      40.253  28.958  29.646  1.00  0.00    -0.248 NA
ATOM     44  C   UNL A   1      39.004  29.128  27.681  1.00  0.00     0.031 C 
ATOM     45  C   UNL A   1      37.555  32.029  31.509  1.00  0.00     0.029 A 
ATOM     46  N   UNL A   1      39.430  30.842  31.793  1.00  0.00    -0.354 N 
ATOM     47  C   UNL A   1      40.795  28.115  28.683  1.00  0.00     0.074 A 
ATOM     48  C   UNL A   1      39.971  28.239  27.500  1.00  0.00     0.031 C 
ATOM     49  C   UNL A   1      38.049  32.339  32.718  1.00  0.00     0.029 A 
ATOM     50  C   UNL A   1      39.229  31.519  32.974  1.00  0.00     0.049 A 
ATOM     51  H   UNL A   1      40.216  30.276  31.622  1.00  0.00     0.167 HD
ATOM     52  C   UNL A   1      41.876  27.305  28.790  1.00  0.00     0.034 A 
ATOM     53  C   UNL A   1      39.885  31.438  34.149  1.00  0.00     0.034 A 
ATOM     54  C   UNL A   1      42.696  27.224  29.973  1.00  0.00     0.049 A 
ATOM     55  C   UNL A   1      41.057  30.494  34.256  1.00  0.00     0.074 A 
ATOM     56  C   UNL A   1      43.836  26.466  30.182  1.00  0.00     0.029 A 
ATOM     57  N   UNL A   1      42.462  27.921  31.151  1.00  0.00    -0.354 N 
ATOM     58  N   UNL A   1      41.554  29.688  33.344  1.00  0.00    -0.248 NA
ATOM     59  C   UNL A   1      41.756  30.445  35.546  1.00  0.00     0.031 C 
ATOM     60  C   UNL A   1      44.252  26.658  31.504  1.00  0.00     0.029 A 
ATOM     61  C   UNL A   1      43.417  27.589  32.099  1.00  0.00     0.049 A 
ATOM     62  H   UNL A   1      41.726  28.559  31.293  1.00  0.00     0.167 HD
ATOM     63  C   UNL A   1      42.642  29.062  33.944  1.00  0.00     0.074 A 
ATOM     64  C   UNL A   1      42.735  29.591  35.289  1.00  0.00     0.031 C 
ATOM     65  C   UNL A   1      43.491  28.135  33.433  1.00  0.00     0.034 A 
BRANCH  52  66
ATOM     66  C   UNL A   1      42.189  26.393  27.631  1.00  0.00     0.023 A 
ATOM     67  C   UNL A   1      41.717  25.072  27.564  1.00  0.00     0.031 A 
ATOM     68  C   UNL A   1      42.981  26.866  26.569  1.00  0.00     0.131 A 
ATOM     69  C   UNL A   1      42.080  24.255  26.482  1.00  0.00     0.055 A 
ATOM     70  C   UNL A   1      43.285  26.070  25.464  1.00  0.00     0.041 A 
ATOM     71  F   UNL A   1      43.480  28.113  26.593  1.00  0.00    -0.206 F 
ATOM     72  C   UNL A   1      42.841  24.752  25.421  1.00  0.00     0.022 A 
BRANCH  69  73
ATOM     73  S   UNL A   1      41.630  22.499  26.525  1.00  0.00     0.124 S 
ATOM     74  O   UNL A   1      40.176  22.563  26.400  1.00  0.00    -0.237 OA
ATOM     75  O   UNL A   1      42.347  21.960  25.376  1.00  0.00    -0.237 OA
ATOM     76  O   UNL A   1      42.117  22.052  27.830  1.00  0.00    -0.744 OA
ENDBRANCH  69  73
ENDBRANCH  52  66
BRANCH  53  77
ATOM     77  C   UNL A   1      39.412  32.206  35.336  1.00  0.00     0.023 A 
ATOM     78  C   UNL A   1      39.769  33.549  35.525  1.00  0.00     0.031 A 
ATOM     79  C   UNL A   1      38.640  31.583  36.336  1.00  0.00     0.131 A 
ATOM     80  C   UNL A   1      39.400  34.211  36.707  1.00  0.00     0.055 A 
ATOM     81  C   UNL A   1      38.225  32.264  37.481  1.00  0.00     0.041 A 
ATOM     82  F   UNL A   1      38.270  30.299  36.209  1.00  0.00    -0.206 F 
ATOM     83  C   UNL A   1      38.620  33.582  37.680  1.00  0.00     0.022 A 
BRANCH  80  84
ATOM     84  S   UNL A   1      40.049  35.880  37.004  1.00  0.00     0.124 S 
ATOM     85  O   UNL A   1      39.320  36.274  38.204  1.00  0.00    -0.237 OA
ATOM     86  O   UNL A   1      41.475  35.621  37.175  1.00  0.00    -0.237 OA
ATOM     87  O   UNL A   1      39.691  36.605  35.788  1.00  0.00    -0.744 OA
ENDBRANCH  80  84
ENDBRANCH  53  77
BRANCH  65  88
ATOM     88  C   UNL A   1      44.628  27.691  34.315  1.00  0.00     0.023 A 
ATOM     89  C   UNL A   1      45.861  28.365  34.330  1.00  0.00     0.031 A 
ATOM     90  C   UNL A   1      44.471  26.572  35.153  1.00  0.00     0.131 A 
ATOM     91  C   UNL A   1      46.907  27.885  35.132  1.00  0.00     0.055 A 
ATOM     92  C   UNL A   1      45.497  26.132  35.989  1.00  0.00     0.041 A 
ATOM     93  F   UNL A   1      43.313  25.894  35.174  1.00  0.00    -0.206 F 
ATOM     94  C   UNL A   1      46.727  26.783  35.973  1.00  0.00     0.022 A 
BRANCH  91  95
ATOM     95  S   UNL A   1      48.535  28.674  35.007  1.00  0.00     0.124 S 
ATOM     96  O   UNL A   1      48.182  30.089  34.950  1.00  0.00    -0.237 OA
ATOM     97  O   UNL A   1      49.192  28.229  36.231  1.00  0.00    -0.237 OA
ATOM     98  O   UNL A   1      49.089  28.124  33.772  1.00  0.00    -0.744 OA
ENDBRANCH  91  95
ENDBRANCH  65  88
ENDBRANCH  39  40
ENDBRANCH  32  34
ENDBRANCH  31  32
ENDBRANCH  30  31
ENDBRANCH   1  30
TORSDOF 19
ENDMDL
MODEL 3
REMARK VINA RESULT:     -12.2      1.714      7.625
REMARK SMILES COc1ccc(S(=O)(=O)N2CCC[C@H](C(=O)N3CCC[C@H](C(=O)OCCOC(=O)c4ccc(-c5c6nc(c(-c7cc(S(=O)(=O)[O-])ccc7F)c7ccc([nH]7)c(-c7cc(S(=O)(=O)[O-])ccc7F)c7nc(c(-c8cc(S(=O)(=O)[O-])ccc8F)c8ccc5[nH]8)C=C7)C=C6)cc4)C3)C2)cc1
REMARK SMILES IDX 25 1 24 2 22 3 23 4 21 5 17 6 18 7 93 8 19 9 20 10 15 11
REMARK SMILES IDX 16 12 14 13 10 14 11 15 94 16 12 17 13 18 7 19 8 20 9 21
REMARK SMILES IDX 6 22 3 23 4 24 96 25 5 26 95 27 2 28 1 29 26 30 27 31 28 32
REMARK SMILES IDX 29 33 30 34 31 35 92 36 32 37 91 38 33 39 34 40 35 41 85 42
REMARK SMILES IDX 36 43 90 44 84 45 86 46 37 47 89 48 83 49 82 50 38 52 70 53
REMARK SMILES IDX 50 54 69 55 51 56 54 57 68 58 87 59 52 60 53 61 67 63 88 64
REMARK SMILES IDX 55 65 39 66 40 67 48 68 41 69 47 70 49 71 46 72 42 73 43 74
REMARK SMILES IDX 44 75 45 76 71 77 72 78 80 79 73 80 79 81 81 82 78 83 74 84
REMARK SMILES IDX 75 85 76 86 77 87 56 88 57 89 65 90 58 91 64 92 66 93 63 94
REMARK SMILES IDX 59 95 60 96 61 97 62 98
REMARK H PARENT 86 51 54 62
REMARK Flexibility Score: inf
ROOT
ATOM      1  C   UNL A   1      37.375  19.353  24.983  1.00  0.00     0.274 C 
ENDROOT
BRANCH   1   2
ATOM      2  O   UNL A   1      36.785  20.647  24.771  1.00  0.00    -0.462 OA
BRANCH   2   3
ATOM      3  C   UNL A   1      35.560  20.857  25.307  1.00  0.00     0.310 C 
ATOM      4  O   UNL A   1      34.547  20.237  24.998  1.00  0.00    -0.252 OA
BRANCH   3   5
ATOM      5  C   UNL A   1      35.535  21.974  26.340  1.00  0.00     0.119 C 
ATOM      6  N   UNL A   1      33.758  23.276  25.281  1.00  0.00    -0.342 N 
ATOM      7  C   UNL A   1      34.610  24.443  25.078  1.00  0.00     0.119 C 
ATOM      8  C   UNL A   1      34.100  22.479  26.447  1.00  0.00     0.134 C 
ATOM      9  C   UNL A   1      36.086  24.075  24.998  1.00  0.00     0.022 C 
ATOM     10  C   UNL A   1      36.511  23.132  26.126  1.00  0.00     0.019 C 
BRANCH   6  11
ATOM     11  C   UNL A   1      32.972  22.823  24.240  1.00  0.00     0.227 C 
ATOM     12  O   UNL A   1      33.453  22.630  23.118  1.00  0.00    -0.275 OA
BRANCH  11  13
ATOM     13  C   UNL A   1      31.445  22.794  24.397  1.00  0.00     0.094 C 
ATOM     14  N   UNL A   1      30.938  25.214  24.357  1.00  0.00    -0.197 NA
ATOM     15  C   UNL A   1      30.554  25.258  25.777  1.00  0.00     0.102 C 
ATOM     16  C   UNL A   1      30.848  23.948  23.611  1.00  0.00     0.116 C 
ATOM     17  C   UNL A   1      30.277  23.910  26.431  1.00  0.00     0.018 C 
ATOM     18  C   UNL A   1      30.788  22.634  25.757  1.00  0.00     0.016 C 
BRANCH  14  19
ATOM     19  S   UNL A   1      30.860  26.665  23.482  1.00  0.00     0.243 S 
ATOM     20  O   UNL A   1      29.492  27.117  23.455  1.00  0.00    -0.207 OA
ATOM     21  O   UNL A   1      31.620  26.471  22.259  1.00  0.00    -0.207 OA
BRANCH  19  22
ATOM     22  C   UNL A   1      31.771  27.859  24.441  1.00  0.00     0.082 A 
ATOM     23  C   UNL A   1      33.251  29.577  26.066  1.00  0.00     0.118 A 
ATOM     24  C   UNL A   1      33.860  28.458  25.498  1.00  0.00     0.048 A 
ATOM     25  C   UNL A   1      31.919  29.868  25.776  1.00  0.00     0.048 A 
ATOM     26  C   UNL A   1      33.120  27.588  24.693  1.00  0.00     0.025 A 
ATOM     27  C   UNL A   1      31.177  29.005  24.972  1.00  0.00     0.025 A 
BRANCH  23  28
ATOM     28  O   UNL A   1      34.032  30.355  26.876  1.00  0.00    -0.497 OA
ATOM     29  C   UNL A   1      35.075  29.625  27.523  1.00  0.00     0.278 C 
ENDBRANCH  23  28
ENDBRANCH  19  22
ENDBRANCH  14  19
ENDBRANCH  11  13
ENDBRANCH   6  11
ENDBRANCH   3   5
ENDBRANCH   2   3
ENDBRANCH   1   2
BRANCH   1  30
ATOM     30  C   UNL A   1      38.845  19.493  25.376  1.00  0.00     0.275 C 
BRANCH  30  31
ATOM     31  O   UNL A   1      39.131  20.810  25.883  1.00  0.00    -0.458 OA
BRANCH  31  32
ATOM     32  C   UNL A   1      40.095  20.858  26.833  1.00  0.00     0.338 C 
ATOM     33  O   UNL A   1      40.697  19.920  27.326  1.00  0.00    -0.246 OA
BRANCH  32  34
ATOM     34  C   UNL A   1      40.418  22.257  27.136  1.00  0.00     0.060 A 
ATOM     35  C   UNL A   1      39.765  23.263  26.424  1.00  0.00     0.016 A 
ATOM     36  C   UNL A   1      41.440  22.568  28.030  1.00  0.00     0.016 A 
ATOM     37  C   UNL A   1      40.150  24.590  26.568  1.00  0.00     0.010 A 
ATOM     38  C   UNL A   1      41.807  23.905  28.199  1.00  0.00     0.010 A 
ATOM     39  C   UNL A   1      41.177  24.921  27.455  1.00  0.00    -0.014 A 
BRANCH  39  40
ATOM     40  C   UNL A   1      41.634  26.325  27.569  1.00  0.00     0.031 A 
ATOM     41  C   UNL A   1      42.943  26.724  26.951  1.00  0.00     0.074 A 
ATOM     42  C   UNL A   1      40.884  27.224  28.236  1.00  0.00     0.049 A 
ATOM     43  N   UNL A   1      43.621  27.832  27.093  1.00  0.00    -0.248 NA
ATOM     44  C   UNL A   1      43.577  25.737  26.062  1.00  0.00     0.031 C 
ATOM     45  C   UNL A   1      39.567  26.957  28.819  1.00  0.00     0.029 A 
ATOM     46  N   UNL A   1      41.131  28.535  28.554  1.00  0.00    -0.354 N 
ATOM     47  C   UNL A   1      44.785  27.659  26.353  1.00  0.00     0.074 A 
ATOM     48  C   UNL A   1      44.717  26.341  25.759  1.00  0.00     0.031 C 
ATOM     49  C   UNL A   1      39.132  28.063  29.442  1.00  0.00     0.029 A 
ATOM     50  C   UNL A   1      40.165  29.091  29.363  1.00  0.00     0.049 A 
ATOM     51  H   UNL A   1      41.918  29.030  28.235  1.00  0.00     0.167 HD
ATOM     52  C   UNL A   1      45.817  28.524  26.198  1.00  0.00     0.034 A 
ATOM     53  C   UNL A   1      40.147  30.270  30.016  1.00  0.00     0.034 A 
ATOM     54  C   UNL A   1      45.843  29.844  26.779  1.00  0.00     0.049 A 
ATOM     55  C   UNL A   1      41.330  31.195  29.865  1.00  0.00     0.074 A 
ATOM     56  C   UNL A   1      46.818  30.819  26.660  1.00  0.00     0.029 A 
ATOM     57  N   UNL A   1      44.850  30.373  27.593  1.00  0.00    -0.354 N 
ATOM     58  N   UNL A   1      42.433  31.018  29.174  1.00  0.00    -0.248 NA
ATOM     59  C   UNL A   1      41.266  32.477  30.578  1.00  0.00     0.031 C 
ATOM     60  C   UNL A   1      46.444  31.910  27.451  1.00  0.00     0.029 A 
ATOM     61  C   UNL A   1      45.203  31.647  28.008  1.00  0.00     0.049 A 
ATOM     62  H   UNL A   1      44.016  29.911  27.840  1.00  0.00     0.167 HD
ATOM     63  C   UNL A   1      43.179  32.179  29.348  1.00  0.00     0.074 A 
ATOM     64  C   UNL A   1      42.396  33.053  30.197  1.00  0.00     0.031 C 
ATOM     65  C   UNL A   1      44.401  32.500  28.851  1.00  0.00     0.034 A 
BRANCH  52  66
ATOM     66  C   UNL A   1      47.026  28.047  25.436  1.00  0.00     0.023 A 
ATOM     67  C   UNL A   1      47.158  28.222  24.049  1.00  0.00     0.031 A 
ATOM     68  C   UNL A   1      48.070  27.400  26.123  1.00  0.00     0.131 A 
ATOM     69  C   UNL A   1      48.287  27.714  23.386  1.00  0.00     0.055 A 
ATOM     70  C   UNL A   1      49.219  26.954  25.469  1.00  0.00     0.041 A 
ATOM     71  F   UNL A   1      47.985  27.184  27.446  1.00  0.00    -0.206 F 
ATOM     72  C   UNL A   1      49.328  27.102  24.090  1.00  0.00     0.022 A 
BRANCH  69  73
ATOM     73  S   UNL A   1      48.333  27.770  21.574  1.00  0.00     0.124 S 
ATOM     74  O   UNL A   1      46.975  28.204  21.257  1.00  0.00    -0.237 OA
ATOM     75  O   UNL A   1      49.391  28.740  21.315  1.00  0.00    -0.237 OA
ATOM     76  O   UNL A   1      48.644  26.392  21.195  1.00  0.00    -0.744 OA
ENDBRANCH  69  73
ENDBRANCH  52  66
BRANCH  53  77
ATOM     77  C   UNL A   1      39.020  30.614  30.930  1.00  0.00     0.023 A 
ATOM     78  C   UNL A   1      37.928  31.374  30.485  1.00  0.00     0.031 A 
ATOM     79  C   UNL A   1      39.049  30.234  32.285  1.00  0.00     0.131 A 
ATOM     80  C   UNL A   1      36.938  31.775  31.396  1.00  0.00     0.055 A 
ATOM     81  C   UNL A   1      38.032  30.585  33.173  1.00  0.00     0.041 A 
ATOM     82  F   UNL A   1      40.070  29.507  32.766  1.00  0.00    -0.206 F 
ATOM     83  C   UNL A   1      36.976  31.375  32.734  1.00  0.00     0.022 A 
BRANCH  80  84
ATOM     84  S   UNL A   1      35.651  32.922  30.829  1.00  0.00     0.124 S 
ATOM     85  O   UNL A   1      34.861  32.071  29.947  1.00  0.00    -0.237 OA
ATOM     86  O   UNL A   1      35.019  33.309  32.086  1.00  0.00    -0.237 OA
ATOM     87  O   UNL A   1      36.409  33.980  30.163  1.00  0.00    -0.744 OA
ENDBRANCH  80  84
ENDBRANCH  53  77
BRANCH  65  88
ATOM     88  C   UNL A   1      44.924  33.877  29.164  1.00  0.00     0.023 A 
ATOM     89  C   UNL A   1      44.524  35.007  28.429  1.00  0.00     0.031 A 
ATOM     90  C   UNL A   1      45.842  34.057  30.214  1.00  0.00     0.131 A 
ATOM     91  C   UNL A   1      45.076  36.261  28.726  1.00  0.00     0.055 A 
ATOM     92  C   UNL A   1      46.346  35.316  30.540  1.00  0.00     0.041 A 
ATOM     93  F   UNL A   1      46.257  33.010  30.945  1.00  0.00    -0.206 F 
ATOM     94  C   UNL A   1      45.972  36.425  29.786  1.00  0.00     0.022 A 
BRANCH  91  95
ATOM     95  S   UNL A   1      44.667  37.669  27.659  1.00  0.00     0.124 S 
ATOM     96  O   UNL A   1      43.553  37.142  26.876  1.00  0.00    -0.237 OA
ATOM     97  O   UNL A   1      44.331  38.708  28.627  1.00  0.00    -0.237 OA
ATOM     98  O   UNL A   1      45.899  37.900  26.907  1.00  0.00    -0.744 OA
ENDBRANCH  91  95
ENDBRANCH  65  88
ENDBRANCH  39  40
ENDBRANCH  32  34
ENDBRANCH  31  32
ENDBRANCH  30  31
ENDBRANCH   1  30
TORSDOF 19
ENDMDL
