MODEL 1
REMARK VINA RESULT:     -11.6      0.000      0.000
REMARK SMILES CCSc1cccc(-c2ccc([C@@H](C)C(=O)OCCOC(=O)c3ccc(-c4c5nc(c(-c6cc(S(=O)(=O)[O-])ccc6F)c6ccc([nH]6)c(-c6cc(S(=O)(=O)[O-])ccc6F)c6nc(c(-c7cc(S(=O)(=O)[O-])ccc7F)c7ccc4[nH]7)C=C6)C=C5)cc3)cc2)c1
REMARK SMILES IDX 18 1 17 2 15 3 16 4 13 5 14 6 12 7 9 8 10 9 87 10 11 11
REMARK SMILES IDX 86 12 8 13 4 14 5 15 88 16 6 17 7 18 3 19 2 20 1 21 19 22
REMARK SMILES IDX 20 23 21 24 22 25 23 26 24 27 85 28 25 29 84 30 26 31 27 32
REMARK SMILES IDX 28 33 78 34 29 35 83 36 77 37 79 38 30 39 82 40 76 41 75 42
REMARK SMILES IDX 31 44 63 45 43 46 62 47 44 48 47 49 61 50 80 51 45 52 46 53
REMARK SMILES IDX 60 55 81 56 48 57 32 58 33 59 41 60 34 61 40 62 42 63 39 64
REMARK SMILES IDX 35 65 36 66 37 67 38 68 64 69 65 70 73 71 66 72 72 73 74 74
REMARK SMILES IDX 71 75 67 76 68 77 69 78 70 79 49 80 50 81 58 82 51 83 57 84
REMARK SMILES IDX 59 85 56 86 52 87 53 88 54 89 55 90
REMARK H PARENT 79 43 47 54
REMARK Flexibility Score: inf
ROOT
ATOM      1  C   UNL A   1      35.383  20.365  25.010  1.00  0.00     0.274 C 
ENDROOT
BRANCH   1   2
ATOM      2  O   UNL A   1      34.695  19.168  24.598  1.00  0.00    -0.462 OA
BRANCH   2   3
ATOM      3  C   UNL A   1      33.439  18.987  25.087  1.00  0.00     0.313 C 
ATOM      4  O   UNL A   1      33.188  18.384  26.126  1.00  0.00    -0.252 OA
BRANCH   3   5
ATOM      5  C   UNL A   1      32.339  19.537  24.183  1.00  0.00     0.126 C 
ATOM      6  C   UNL A   1      32.528  18.993  22.766  1.00  0.00     0.025 C 
BRANCH   5   7
ATOM      7  C   UNL A   1      32.145  21.047  24.199  1.00  0.00    -0.034 A 
ATOM      8  C   UNL A   1      31.681  23.855  24.248  1.00  0.00    -0.018 A 
ATOM      9  C   UNL A   1      32.121  23.205  23.082  1.00  0.00     0.009 A 
ATOM     10  C   UNL A   1      31.510  23.080  25.400  1.00  0.00     0.009 A 
ATOM     11  C   UNL A   1      32.345  21.827  23.055  1.00  0.00     0.005 A 
ATOM     12  C   UNL A   1      31.729  21.696  25.373  1.00  0.00     0.005 A 
BRANCH   8  13
ATOM     13  C   UNL A   1      31.366  25.294  24.222  1.00  0.00    -0.017 A 
ATOM     14  C   UNL A   1      32.016  27.645  24.339  1.00  0.00     0.008 A 
ATOM     15  C   UNL A   1      30.705  28.022  24.038  1.00  0.00     0.015 A 
ATOM     16  C   UNL A   1      32.344  26.283  24.422  1.00  0.00     0.023 A 
ATOM     17  C   UNL A   1      29.716  27.058  23.871  1.00  0.00     0.002 A 
ATOM     18  C   UNL A   1      30.046  25.709  23.966  1.00  0.00     0.009 A 
BRANCH  14  19
ATOM     19  S   UNL A   1      33.278  28.894  24.512  1.00  0.00    -0.126 SA
BRANCH  19  20
ATOM     20  C   UNL A   1      32.736  29.719  26.053  1.00  0.00     0.071 C 
ATOM     21  C   UNL A   1      32.731  28.782  27.250  1.00  0.00     0.016 C 
ENDBRANCH  19  20
ENDBRANCH  14  19
ENDBRANCH   8  13
ENDBRANCH   5   7
ENDBRANCH   3   5
ENDBRANCH   2   3
ENDBRANCH   1   2
BRANCH   1  22
ATOM     22  C   UNL A   1      36.899  20.165  25.001  1.00  0.00     0.275 C 
BRANCH  22  23
ATOM     23  O   UNL A   1      37.575  21.322  25.524  1.00  0.00    -0.458 OA
BRANCH  23  24
ATOM     24  C   UNL A   1      38.853  21.103  25.914  1.00  0.00     0.338 C 
ATOM     25  O   UNL A   1      39.511  20.092  25.753  1.00  0.00    -0.246 OA
BRANCH  24  26
ATOM     26  C   UNL A   1      39.413  22.340  26.477  1.00  0.00     0.060 A 
ATOM     27  C   UNL A   1      38.831  23.549  26.093  1.00  0.00     0.016 A 
ATOM     28  C   UNL A   1      40.549  22.327  27.285  1.00  0.00     0.016 A 
ATOM     29  C   UNL A   1      39.398  24.756  26.486  1.00  0.00     0.010 A 
ATOM     30  C   UNL A   1      41.111  23.542  27.696  1.00  0.00     0.010 A 
ATOM     31  C   UNL A   1      40.550  24.764  27.281  1.00  0.00    -0.014 A 
BRANCH  31  32
ATOM     32  C   UNL A   1      41.189  26.064  27.606  1.00  0.00     0.031 A 
ATOM     33  C   UNL A   1      42.544  26.392  27.044  1.00  0.00     0.074 A 
ATOM     34  C   UNL A   1      40.525  26.968  28.349  1.00  0.00     0.049 A 
ATOM     35  N   UNL A   1      43.272  27.466  27.208  1.00  0.00    -0.248 NA
ATOM     36  C   UNL A   1      43.161  25.372  26.183  1.00  0.00     0.031 C 
ATOM     37  C   UNL A   1      39.187  26.774  28.913  1.00  0.00     0.029 A 
ATOM     38  N   UNL A   1      40.875  28.232  28.747  1.00  0.00    -0.354 N 
ATOM     39  C   UNL A   1      44.438  27.250  26.482  1.00  0.00     0.074 A 
ATOM     40  C   UNL A   1      44.330  25.927  25.902  1.00  0.00     0.031 C 
ATOM     41  C   UNL A   1      38.826  27.886  29.572  1.00  0.00     0.029 A 
ATOM     42  C   UNL A   1      39.919  28.853  29.516  1.00  0.00     0.049 A 
ATOM     43  H   UNL A   1      41.731  28.655  28.507  1.00  0.00     0.167 HD
ATOM     44  C   UNL A   1      45.497  28.082  26.311  1.00  0.00     0.034 A 
ATOM     45  C   UNL A   1      39.930  30.058  30.119  1.00  0.00     0.034 A 
ATOM     46  C   UNL A   1      45.590  29.398  26.899  1.00  0.00     0.049 A 
ATOM     47  C   UNL A   1      41.138  30.943  29.954  1.00  0.00     0.074 A 
ATOM     48  C   UNL A   1      46.618  30.320  26.795  1.00  0.00     0.029 A 
ATOM     49  N   UNL A   1      44.620  29.979  27.706  1.00  0.00    -0.354 N 
ATOM     50  N   UNL A   1      42.243  30.718  29.279  1.00  0.00    -0.248 NA
ATOM     51  C   UNL A   1      41.096  32.247  30.628  1.00  0.00     0.031 C 
ATOM     52  C   UNL A   1      46.294  31.431  27.583  1.00  0.00     0.029 A 
ATOM     53  C   UNL A   1      45.035  31.235  28.126  1.00  0.00     0.049 A 
ATOM     54  H   UNL A   1      43.763  29.560  27.946  1.00  0.00     0.167 HD
ATOM     55  C   UNL A   1      43.020  31.862  29.436  1.00  0.00     0.074 A 
ATOM     56  C   UNL A   1      42.246  32.782  30.246  1.00  0.00     0.031 C 
ATOM     57  C   UNL A   1      44.262  32.130  28.954  1.00  0.00     0.034 A 
BRANCH  44  58
ATOM     58  C   UNL A   1      46.659  27.558  25.500  1.00  0.00     0.023 A 
ATOM     59  C   UNL A   1      46.914  28.006  24.192  1.00  0.00     0.031 A 
ATOM     60  C   UNL A   1      47.499  26.564  26.031  1.00  0.00     0.131 A 
ATOM     61  C   UNL A   1      47.937  27.413  23.436  1.00  0.00     0.055 A 
ATOM     62  C   UNL A   1      48.561  26.029  25.300  1.00  0.00     0.041 A 
ATOM     63  F   UNL A   1      47.290  26.081  27.266  1.00  0.00    -0.206 F 
ATOM     64  C   UNL A   1      48.776  26.442  23.989  1.00  0.00     0.022 A 
BRANCH  61  65
ATOM     65  S   UNL A   1      48.070  27.828  21.674  1.00  0.00     0.124 S 
ATOM     66  O   UNL A   1      48.286  26.513  21.074  1.00  0.00    -0.237 OA
ATOM     67  O   UNL A   1      46.782  28.452  21.398  1.00  0.00    -0.237 OA
ATOM     68  O   UNL A   1      49.222  28.727  21.619  1.00  0.00    -0.744 OA
ENDBRANCH  61  65
ENDBRANCH  44  58
BRANCH  45  69
ATOM     69  C   UNL A   1      38.782  30.485  30.968  1.00  0.00     0.023 A 
ATOM     70  C   UNL A   1      37.689  31.175  30.422  1.00  0.00     0.031 A 
ATOM     71  C   UNL A   1      38.787  30.246  32.353  1.00  0.00     0.131 A 
ATOM     72  C   UNL A   1      36.663  31.635  31.263  1.00  0.00     0.055 A 
ATOM     73  C   UNL A   1      37.742  30.663  33.178  1.00  0.00     0.041 A 
ATOM     74  F   UNL A   1      39.810  29.589  32.925  1.00  0.00    -0.206 F 
ATOM     75  C   UNL A   1      36.676  31.373  32.634  1.00  0.00     0.022 A 
BRANCH  72  76
ATOM     76  S   UNL A   1      35.340  32.649  30.547  1.00  0.00     0.124 S 
ATOM     77  O   UNL A   1      36.035  33.905  30.288  1.00  0.00    -0.237 OA
ATOM     78  O   UNL A   1      34.963  31.871  29.372  1.00  0.00    -0.237 OA
ATOM     79  O   UNL A   1      34.337  32.698  31.608  1.00  0.00    -0.744 OA
ENDBRANCH  72  76
ENDBRANCH  45  69
BRANCH  57  80
ATOM     80  C   UNL A   1      44.833  33.489  29.278  1.00  0.00     0.023 A 
ATOM     81  C   UNL A   1      44.524  34.622  28.503  1.00  0.00     0.031 A 
ATOM     82  C   UNL A   1      45.729  33.644  30.350  1.00  0.00     0.131 A 
ATOM     83  C   UNL A   1      45.159  35.844  28.768  1.00  0.00     0.055 A 
ATOM     84  C   UNL A   1      46.313  34.878  30.645  1.00  0.00     0.041 A 
ATOM     85  F   UNL A   1      46.060  32.596  31.121  1.00  0.00    -0.206 F 
ATOM     86  C   UNL A   1      46.042  35.982  29.843  1.00  0.00     0.022 A 
BRANCH  83  87
ATOM     87  S   UNL A   1      44.900  37.226  27.621  1.00  0.00     0.124 S 
ATOM     88  O   UNL A   1      43.725  36.789  26.876  1.00  0.00    -0.237 OA
ATOM     89  O   UNL A   1      44.700  38.350  28.529  1.00  0.00    -0.237 OA
ATOM     90  O   UNL A   1      46.142  37.267  26.849  1.00  0.00    -0.744 OA
ENDBRANCH  83  87
ENDBRANCH  57  80
ENDBRANCH  31  32
ENDBRANCH  24  26
ENDBRANCH  23  24
ENDBRANCH  22  23
ENDBRANCH   1  22
TORSDOF 18
ENDMDL
MODEL 2
REMARK VINA RESULT:     -11.6      5.157     10.777
REMARK SMILES CCSc1cccc(-c2ccc([C@@H](C)C(=O)OCCOC(=O)c3ccc(-c4c5nc(c(-c6cc(S(=O)(=O)[O-])ccc6F)c6ccc([nH]6)c(-c6cc(S(=O)(=O)[O-])ccc6F)c6nc(c(-c7cc(S(=O)(=O)[O-])ccc7F)c7ccc4[nH]7)C=C6)C=C5)cc3)cc2)c1
REMARK SMILES IDX 18 1 17 2 15 3 16 4 13 5 14 6 12 7 9 8 10 9 87 10 11 11
REMARK SMILES IDX 86 12 8 13 4 14 5 15 88 16 6 17 7 18 3 19 2 20 1 21 19 22
REMARK SMILES IDX 20 23 21 24 22 25 23 26 24 27 85 28 25 29 84 30 26 31 27 32
REMARK SMILES IDX 28 33 78 34 29 35 83 36 77 37 79 38 30 39 82 40 76 41 75 42
REMARK SMILES IDX 31 44 63 45 43 46 62 47 44 48 47 49 61 50 80 51 45 52 46 53
REMARK SMILES IDX 60 55 81 56 48 57 32 58 33 59 41 60 34 61 40 62 42 63 39 64
REMARK SMILES IDX 35 65 36 66 37 67 38 68 64 69 65 70 73 71 66 72 72 73 74 74
REMARK SMILES IDX 71 75 67 76 68 77 69 78 70 79 49 80 50 81 58 82 51 83 57 84
REMARK SMILES IDX 59 85 56 86 52 87 53 88 54 89 55 90
REMARK H PARENT 79 43 47 54
REMARK Flexibility Score: inf
ROOT
ATOM      1  C   UNL A   1      31.045  30.880  25.453  1.00  0.00     0.274 C 
ENDROOT
BRANCH   1   2
ATOM      2  O   UNL A   1      31.905  29.728  25.543  1.00  0.00    -0.462 OA
BRANCH   2   3
ATOM      3  C   UNL A   1      31.359  28.530  25.203  1.00  0.00     0.313 C 
ATOM      4  O   UNL A   1      30.795  28.312  24.135  1.00  0.00    -0.252 OA
BRANCH   3   5
ATOM      5  C   UNL A   1      31.435  27.480  26.307  1.00  0.00     0.126 C 
ATOM      6  C   UNL A   1      31.811  28.158  27.626  1.00  0.00     0.025 C 
BRANCH   5   7
ATOM      7  C   UNL A   1      32.301  26.261  26.020  1.00  0.00    -0.034 A 
ATOM      8  C   UNL A   1      33.923  23.962  25.584  1.00  0.00    -0.018 A 
ATOM      9  C   UNL A   1      34.367  25.249  25.237  1.00  0.00     0.009 A 
ATOM     10  C   UNL A   1      32.637  23.841  26.124  1.00  0.00     0.009 A 
ATOM     11  C   UNL A   1      33.574  26.379  25.453  1.00  0.00     0.005 A 
ATOM     12  C   UNL A   1      31.842  24.973  26.347  1.00  0.00     0.005 A 
BRANCH   8  13
ATOM     13  C   UNL A   1      34.815  22.801  25.428  1.00  0.00    -0.017 A 
ATOM     14  C   UNL A   1      35.212  20.429  25.002  1.00  0.00     0.008 A 
ATOM     15  C   UNL A   1      36.590  20.656  25.022  1.00  0.00     0.015 A 
ATOM     16  C   UNL A   1      34.329  21.502  25.197  1.00  0.00     0.023 A 
ATOM     17  C   UNL A   1      37.090  21.927  25.284  1.00  0.00     0.002 A 
ATOM     18  C   UNL A   1      36.209  22.986  25.488  1.00  0.00     0.009 A 
BRANCH  14  19
ATOM     19  S   UNL A   1      34.589  18.800  24.626  1.00  0.00    -0.126 SA
BRANCH  19  20
ATOM     20  C   UNL A   1      32.795  19.139  24.495  1.00  0.00     0.071 C 
ATOM     21  C   UNL A   1      32.155  18.454  23.299  1.00  0.00     0.016 C 
ENDBRANCH  19  20
ENDBRANCH  14  19
ENDBRANCH   8  13
ENDBRANCH   5   7
ENDBRANCH   3   5
ENDBRANCH   2   3
ENDBRANCH   1   2
BRANCH   1  22
ATOM     22  C   UNL A   1      31.412  31.931  26.501  1.00  0.00     0.275 C 
BRANCH  22  23
ATOM     23  O   UNL A   1      32.595  31.548  27.224  1.00  0.00    -0.458 OA
BRANCH  23  24
ATOM     24  C   UNL A   1      33.397  32.578  27.583  1.00  0.00     0.338 C 
ATOM     25  O   UNL A   1      33.108  33.759  27.625  1.00  0.00    -0.246 OA
BRANCH  24  26
ATOM     26  C   UNL A   1      34.686  32.054  28.056  1.00  0.00     0.060 A 
ATOM     27  C   UNL A   1      34.741  30.713  28.438  1.00  0.00     0.016 A 
ATOM     28  C   UNL A   1      35.797  32.881  28.218  1.00  0.00     0.016 A 
ATOM     29  C   UNL A   1      35.894  30.194  29.016  1.00  0.00     0.010 A 
ATOM     30  C   UNL A   1      36.965  32.355  28.784  1.00  0.00     0.010 A 
ATOM     31  C   UNL A   1      37.012  31.015  29.206  1.00  0.00    -0.014 A 
BRANCH  31  32
ATOM     32  C   UNL A   1      38.196  30.462  29.912  1.00  0.00     0.031 A 
ATOM     33  C   UNL A   1      38.477  30.870  31.332  1.00  0.00     0.074 A 
ATOM     34  C   UNL A   1      38.974  29.550  29.301  1.00  0.00     0.049 A 
ATOM     35  N   UNL A   1      39.455  30.506  32.121  1.00  0.00    -0.248 NA
ATOM     36  C   UNL A   1      37.530  31.815  31.941  1.00  0.00     0.031 C 
ATOM     37  C   UNL A   1      38.772  29.050  27.939  1.00  0.00     0.029 A 
ATOM     38  N   UNL A   1      40.080  28.873  29.745  1.00  0.00    -0.354 N 
ATOM     39  C   UNL A   1      39.251  31.184  33.317  1.00  0.00     0.074 A 
ATOM     40  C   UNL A   1      38.071  32.005  33.136  1.00  0.00     0.031 C 
ATOM     41  C   UNL A   1      39.716  28.135  27.666  1.00  0.00     0.029 A 
ATOM     42  C   UNL A   1      40.613  28.015  28.812  1.00  0.00     0.049 A 
ATOM     43  H   UNL A   1      40.458  28.991  30.646  1.00  0.00     0.167 HD
ATOM     44  C   UNL A   1      39.976  31.121  34.462  1.00  0.00     0.034 A 
ATOM     45  C   UNL A   1      41.710  27.234  28.868  1.00  0.00     0.034 A 
ATOM     46  C   UNL A   1      41.152  30.299  34.626  1.00  0.00     0.049 A 
ATOM     47  C   UNL A   1      42.527  27.220  30.134  1.00  0.00     0.074 A 
ATOM     48  C   UNL A   1      41.965  30.164  35.739  1.00  0.00     0.029 A 
ATOM     49  N   UNL A   1      41.688  29.473  33.645  1.00  0.00    -0.354 N 
ATOM     50  N   UNL A   1      42.333  27.881  31.253  1.00  0.00    -0.248 NA
ATOM     51  C   UNL A   1      43.709  26.348  30.146  1.00  0.00     0.031 C 
ATOM     52  C   UNL A   1      43.020  29.303  35.413  1.00  0.00     0.029 A 
ATOM     53  C   UNL A   1      42.832  28.845  34.119  1.00  0.00     0.049 A 
ATOM     54  H   UNL A   1      41.311  29.350  32.745  1.00  0.00     0.167 HD
ATOM     55  C   UNL A   1      43.361  27.490  32.106  1.00  0.00     0.074 A 
ATOM     56  C   UNL A   1      44.155  26.518  31.381  1.00  0.00     0.031 C 
ATOM     57  C   UNL A   1      43.626  27.897  33.375  1.00  0.00     0.034 A 
BRANCH  44  58
ATOM     58  C   UNL A   1      39.543  32.015  35.600  1.00  0.00     0.023 A 
ATOM     59  C   UNL A   1      38.750  31.538  36.658  1.00  0.00     0.031 A 
ATOM     60  C   UNL A   1      39.897  33.375  35.604  1.00  0.00     0.131 A 
ATOM     61  C   UNL A   1      38.279  32.428  37.637  1.00  0.00     0.055 A 
ATOM     62  C   UNL A   1      39.486  34.241  36.619  1.00  0.00     0.041 A 
ATOM     63  F   UNL A   1      40.635  33.892  34.609  1.00  0.00    -0.206 F 
ATOM     64  C   UNL A   1      38.660  33.772  37.636  1.00  0.00     0.022 A 
BRANCH  61  65
ATOM     65  S   UNL A   1      37.050  31.836  38.834  1.00  0.00     0.124 S 
ATOM     66  O   UNL A   1      35.910  32.702  38.542  1.00  0.00    -0.237 OA
ATOM     67  O   UNL A   1      36.898  30.434  38.463  1.00  0.00    -0.237 OA
ATOM     68  O   UNL A   1      37.688  32.073  40.127  1.00  0.00    -0.744 OA
ENDBRANCH  61  65
ENDBRANCH  44  58
BRANCH  45  69
ATOM     69  C   UNL A   1      42.126  26.432  27.683  1.00  0.00     0.023 A 
ATOM     70  C   UNL A   1      41.975  25.038  27.658  1.00  0.00     0.031 A 
ATOM     71  C   UNL A   1      42.724  27.053  26.573  1.00  0.00     0.131 A 
ATOM     72  C   UNL A   1      42.452  24.304  26.560  1.00  0.00     0.055 A 
ATOM     73  C   UNL A   1      43.153  26.325  25.463  1.00  0.00     0.041 A 
ATOM     74  F   UNL A   1      42.891  28.386  26.548  1.00  0.00    -0.206 F 
ATOM     75  C   UNL A   1      43.028  24.939  25.458  1.00  0.00     0.022 A 
BRANCH  72  76
ATOM     76  S   UNL A   1      42.375  22.493  26.624  1.00  0.00     0.124 S 
ATOM     77  O   UNL A   1      41.751  22.267  27.923  1.00  0.00    -0.237 OA
ATOM     78  O   UNL A   1      41.556  22.182  25.457  1.00  0.00    -0.237 OA
ATOM     79  O   UNL A   1      43.776  22.089  26.525  1.00  0.00    -0.744 OA
ENDBRANCH  72  76
ENDBRANCH  45  69
BRANCH  57  80
ATOM     80  C   UNL A   1      44.813  27.259  34.054  1.00  0.00     0.023 A 
ATOM     81  C   UNL A   1      44.685  26.074  34.802  1.00  0.00     0.031 A 
ATOM     82  C   UNL A   1      46.079  27.865  33.987  1.00  0.00     0.131 A 
ATOM     83  C   UNL A   1      45.787  25.571  35.508  1.00  0.00     0.055 A 
ATOM     84  C   UNL A   1      47.187  27.327  34.644  1.00  0.00     0.041 A 
ATOM     85  F   UNL A   1      46.258  28.998  33.289  1.00  0.00    -0.206 F 
ATOM     86  C   UNL A   1      47.041  26.183  35.424  1.00  0.00     0.022 A 
BRANCH  83  87
ATOM     87  S   UNL A   1      45.536  24.166  36.629  1.00  0.00     0.124 S 
ATOM     88  O   UNL A   1      44.975  24.815  37.809  1.00  0.00    -0.237 OA
ATOM     89  O   UNL A   1      44.621  23.322  35.869  1.00  0.00    -0.237 OA
ATOM     90  O   UNL A   1      46.882  23.621  36.803  1.00  0.00    -0.744 OA
ENDBRANCH  83  87
ENDBRANCH  57  80
ENDBRANCH  31  32
ENDBRANCH  24  26
ENDBRANCH  23  24
ENDBRANCH  22  23
ENDBRANCH   1  22
TORSDOF 18
ENDMDL
MODEL 3
REMARK VINA RESULT:     -11.5      0.817      7.606
REMARK SMILES CCSc1cccc(-c2ccc([C@@H](C)C(=O)OCCOC(=O)c3ccc(-c4c5nc(c(-c6cc(S(=O)(=O)[O-])ccc6F)c6ccc([nH]6)c(-c6cc(S(=O)(=O)[O-])ccc6F)c6nc(c(-c7cc(S(=O)(=O)[O-])ccc7F)c7ccc4[nH]7)C=C6)C=C5)cc3)cc2)c1
REMARK SMILES IDX 18 1 17 2 15 3 16 4 13 5 14 6 12 7 9 8 10 9 87 10 11 11
REMARK SMILES IDX 86 12 8 13 4 14 5 15 88 16 6 17 7 18 3 19 2 20 1 21 19 22
REMARK SMILES IDX 20 23 21 24 22 25 23 26 24 27 85 28 25 29 84 30 26 31 27 32
REMARK SMILES IDX 28 33 78 34 29 35 83 36 77 37 79 38 30 39 82 40 76 41 75 42
REMARK SMILES IDX 31 44 63 45 43 46 62 47 44 48 47 49 61 50 80 51 45 52 46 53
REMARK SMILES IDX 60 55 81 56 48 57 32 58 33 59 41 60 34 61 40 62 42 63 39 64
REMARK SMILES IDX 35 65 36 66 37 67 38 68 64 69 65 70 73 71 66 72 72 73 74 74
REMARK SMILES IDX 71 75 67 76 68 77 69 78 70 79 49 80 50 81 58 82 51 83 57 84
REMARK SMILES IDX 59 85 56 86 52 87 53 88 54 89 55 90
REMARK H PARENT 79 43 47 54
REMARK Flexibility Score: inf
ROOT
ATOM      1  C   UNL A   1      35.741  21.259  24.584  1.00  0.00     0.274 C 
ENDROOT
BRANCH   1   2
ATOM      2  O   UNL A   1      34.637  20.359  24.796  1.00  0.00    -0.462 OA
BRANCH   2   3
ATOM      3  C   UNL A   1      33.653  20.785  25.632  1.00  0.00     0.313 C 
ATOM      4  O   UNL A   1      33.787  20.898  26.847  1.00  0.00    -0.252 OA
BRANCH   3   5
ATOM      5  C   UNL A   1      32.320  21.044  24.937  1.00  0.00     0.126 C 
ATOM      6  C   UNL A   1      32.250  20.219  23.650  1.00  0.00     0.025 C 
BRANCH   5   7
ATOM      7  C   UNL A   1      31.950  22.503  24.706  1.00  0.00    -0.034 A 
ATOM      8  C   UNL A   1      31.351  25.258  24.312  1.00  0.00    -0.018 A 
ATOM      9  C   UNL A   1      30.594  24.461  25.186  1.00  0.00     0.009 A 
ATOM     10  C   UNL A   1      32.395  24.643  23.610  1.00  0.00     0.009 A 
ATOM     11  C   UNL A   1      30.888  23.109  25.384  1.00  0.00     0.005 A 
ATOM     12  C   UNL A   1      32.696  23.289  23.812  1.00  0.00     0.005 A 
BRANCH   8  13
ATOM     13  C   UNL A   1      31.075  26.699  24.193  1.00  0.00    -0.017 A 
ATOM     14  C   UNL A   1      31.301  29.008  24.958  1.00  0.00     0.008 A 
ATOM     15  C   UNL A   1      30.605  29.450  23.830  1.00  0.00     0.015 A 
ATOM     16  C   UNL A   1      31.540  27.636  25.132  1.00  0.00     0.023 A 
ATOM     17  C   UNL A   1      30.107  28.535  22.908  1.00  0.00     0.002 A 
ATOM     18  C   UNL A   1      30.338  27.175  23.092  1.00  0.00     0.009 A 
BRANCH  14  19
ATOM     19  S   UNL A   1      31.965  30.197  26.110  1.00  0.00    -0.126 SA
BRANCH  19  20
ATOM     20  C   UNL A   1      33.010  29.118  27.155  1.00  0.00     0.071 C 
ATOM     21  C   UNL A   1      34.418  28.957  26.607  1.00  0.00     0.016 C 
ENDBRANCH  19  20
ENDBRANCH  14  19
ENDBRANCH   8  13
ENDBRANCH   5   7
ENDBRANCH   3   5
ENDBRANCH   2   3
ENDBRANCH   1   2
BRANCH   1  22
ATOM     22  C   UNL A   1      37.072  20.601  24.948  1.00  0.00     0.275 C 
BRANCH  22  23
ATOM     23  O   UNL A   1      37.662  21.230  26.100  1.00  0.00    -0.458 OA
BRANCH  23  24
ATOM     24  C   UNL A   1      39.006  21.096  26.193  1.00  0.00     0.338 C 
ATOM     25  O   UNL A   1      39.678  20.142  25.847  1.00  0.00    -0.246 OA
BRANCH  24  26
ATOM     26  C   UNL A   1      39.592  22.355  26.674  1.00  0.00     0.060 A 
ATOM     27  C   UNL A   1      39.069  23.547  26.174  1.00  0.00     0.016 A 
ATOM     28  C   UNL A   1      40.698  22.369  27.523  1.00  0.00     0.016 A 
ATOM     29  C   UNL A   1      39.666  24.762  26.489  1.00  0.00     0.010 A 
ATOM     30  C   UNL A   1      41.290  23.594  27.856  1.00  0.00     0.010 A 
ATOM     31  C   UNL A   1      40.790  24.795  27.323  1.00  0.00    -0.014 A 
BRANCH  31  32
ATOM     32  C   UNL A   1      41.466  26.095  27.567  1.00  0.00     0.031 A 
ATOM     33  C   UNL A   1      40.784  27.146  28.398  1.00  0.00     0.074 A 
ATOM     34  C   UNL A   1      42.710  26.300  27.099  1.00  0.00     0.049 A 
ATOM     35  N   UNL A   1      41.200  28.343  28.725  1.00  0.00    -0.248 NA
ATOM     36  C   UNL A   1      39.456  26.803  28.928  1.00  0.00     0.031 C 
ATOM     37  C   UNL A   1      43.485  25.334  26.316  1.00  0.00     0.029 A 
ATOM     38  N   UNL A   1      43.548  27.379  27.222  1.00  0.00    -0.354 N 
ATOM     39  C   UNL A   1      40.183  28.903  29.490  1.00  0.00     0.074 A 
ATOM     40  C   UNL A   1      39.118  27.923  29.550  1.00  0.00     0.031 C 
ATOM     41  C   UNL A   1      44.689  25.861  26.041  1.00  0.00     0.029 A 
ATOM     42  C   UNL A   1      44.757  27.213  26.588  1.00  0.00     0.049 A 
ATOM     43  H   UNL A   1      43.306  28.195  27.715  1.00  0.00     0.167 HD
ATOM     44  C   UNL A   1      40.146  30.119  30.092  1.00  0.00     0.034 A 
ATOM     45  C   UNL A   1      45.795  28.061  26.451  1.00  0.00     0.034 A 
ATOM     46  C   UNL A   1      41.216  31.086  30.020  1.00  0.00     0.049 A 
ATOM     47  C   UNL A   1      45.709  29.424  27.087  1.00  0.00     0.074 A 
ATOM     48  C   UNL A   1      41.281  32.348  30.586  1.00  0.00     0.029 A 
ATOM     49  N   UNL A   1      42.411  30.900  29.335  1.00  0.00    -0.354 N 
ATOM     50  N   UNL A   1      44.733  29.948  27.793  1.00  0.00    -0.248 NA
ATOM     51  C   UNL A   1      46.869  30.307  26.912  1.00  0.00     0.031 C 
ATOM     52  C   UNL A   1      42.486  32.944  30.197  1.00  0.00     0.029 A 
ATOM     53  C   UNL A   1      43.207  32.032  29.444  1.00  0.00     0.049 A 
ATOM     54  H   UNL A   1      42.657  30.084  28.843  1.00  0.00     0.167 HD
ATOM     55  C   UNL A   1      45.171  31.218  28.159  1.00  0.00     0.074 A 
ATOM     56  C   UNL A   1      46.507  31.368  27.618  1.00  0.00     0.031 C 
ATOM     57  C   UNL A   1      44.527  32.175  28.877  1.00  0.00     0.034 A 
BRANCH  44  58
ATOM     58  C   UNL A   1      38.878  30.483  30.827  1.00  0.00     0.023 A 
ATOM     59  C   UNL A   1      37.778  31.062  30.170  1.00  0.00     0.031 A 
ATOM     60  C   UNL A   1      38.785  30.286  32.216  1.00  0.00     0.131 A 
ATOM     61  C   UNL A   1      36.663  31.486  30.911  1.00  0.00     0.055 A 
ATOM     62  C   UNL A   1      37.644  30.642  32.937  1.00  0.00     0.041 A 
ATOM     63  F   UNL A   1      39.812  29.758  32.901  1.00  0.00    -0.206 F 
ATOM     64  C   UNL A   1      36.580  31.260  32.286  1.00  0.00     0.022 A 
BRANCH  61  65
ATOM     65  S   UNL A   1      35.381  32.460  30.073  1.00  0.00     0.124 S 
ATOM     66  O   UNL A   1      36.121  33.664  29.699  1.00  0.00    -0.237 OA
ATOM     67  O   UNL A   1      34.987  31.586  28.975  1.00  0.00    -0.237 OA
ATOM     68  O   UNL A   1      34.369  32.657  31.108  1.00  0.00    -0.744 OA
ENDBRANCH  61  65
ENDBRANCH  44  58
BRANCH  45  69
ATOM     69  C   UNL A   1      46.988  27.668  25.649  1.00  0.00     0.023 A 
ATOM     70  C   UNL A   1      47.086  27.985  24.285  1.00  0.00     0.031 A 
ATOM     71  C   UNL A   1      48.031  26.927  26.232  1.00  0.00     0.131 A 
ATOM     72  C   UNL A   1      48.185  27.528  23.540  1.00  0.00     0.055 A 
ATOM     73  C   UNL A   1      49.144  26.518  25.499  1.00  0.00     0.041 A 
ATOM     74  F   UNL A   1      47.985  26.599  27.534  1.00  0.00    -0.206 F 
ATOM     75  C   UNL A   1      49.220  26.808  24.140  1.00  0.00     0.022 A 
BRANCH  72  76
ATOM     76  S   UNL A   1      48.207  27.828  21.751  1.00  0.00     0.124 S 
ATOM     77  O   UNL A   1      48.479  26.494  21.229  1.00  0.00    -0.237 OA
ATOM     78  O   UNL A   1      46.865  28.349  21.513  1.00  0.00    -0.237 OA
ATOM     79  O   UNL A   1      49.288  28.797  21.582  1.00  0.00    -0.744 OA
ENDBRANCH  72  76
ENDBRANCH  45  69
BRANCH  57  80
ATOM     80  C   UNL A   1      45.289  33.452  29.134  1.00  0.00     0.023 A 
ATOM     81  C   UNL A   1      45.294  34.507  28.203  1.00  0.00     0.031 A 
ATOM     82  C   UNL A   1      46.053  33.599  30.304  1.00  0.00     0.131 A 
ATOM     83  C   UNL A   1      46.100  35.633  28.426  1.00  0.00     0.055 A 
ATOM     84  C   UNL A   1      46.808  34.748  30.548  1.00  0.00     0.041 A 
ATOM     85  F   UNL A   1      46.086  32.623  31.225  1.00  0.00    -0.206 F 
ATOM     86  C   UNL A   1      46.848  35.765  29.599  1.00  0.00     0.022 A 
BRANCH  83  87
ATOM     87  S   UNL A   1      46.246  36.874  27.110  1.00  0.00     0.124 S 
ATOM     88  O   UNL A   1      46.353  36.042  25.916  1.00  0.00    -0.237 OA
ATOM     89  O   UNL A   1      45.006  37.628  27.254  1.00  0.00    -0.237 OA
ATOM     90  O   UNL A   1      47.462  37.606  27.464  1.00  0.00    -0.744 OA
ENDBRANCH  83  87
ENDBRANCH  57  80
ENDBRANCH  31  32
ENDBRANCH  24  26
ENDBRANCH  23  24
ENDBRANCH  22  23
ENDBRANCH   1  22
TORSDOF 18
ENDMDL
