MODEL 1
REMARK VINA RESULT:     -10.5      0.000      0.000
REMARK SMILES COCCOc1ccc(C(=O)OCCOC(=O)c2ccc(-c3c4nc(c(-c5cc(S(=O)(=O)[O-])ccc5F)c5ccc([nH]5)c(-c5cc(S(=O)(=O)[O-])ccc5F)c5nc(c(-c6cc(S(=O)(=O)[O-])ccc6F)c6ccc3[nH]6)C=C5)C=C4)cc2)cc1Br
REMARK SMILES IDX 13 1 12 2 10 3 11 4 9 5 6 6 7 7 82 8 8 9 81 10 83 11 5 12
REMARK SMILES IDX 4 13 3 14 2 15 1 16 14 17 15 18 16 19 17 20 18 21 19 22
REMARK SMILES IDX 80 23 20 24 79 25 21 26 22 27 23 28 73 29 24 30 78 31 72 32
REMARK SMILES IDX 74 33 25 34 77 35 71 36 70 37 26 39 58 40 38 41 57 42 39 43
REMARK SMILES IDX 42 44 56 45 75 46 40 47 41 48 55 50 76 51 43 52 27 53 28 54
REMARK SMILES IDX 36 55 29 56 35 57 37 58 34 59 30 60 31 61 32 62 33 63 59 64
REMARK SMILES IDX 60 65 68 66 61 67 67 68 69 69 66 70 62 71 63 72 64 73 65 74
REMARK SMILES IDX 44 75 45 76 53 77 46 78 52 79 54 80 51 81 47 82 48 83 49 84
REMARK SMILES IDX 50 85
REMARK H PARENT 74 38 42 49
REMARK Flexibility Score: inf
ROOT
ATOM      1  C   UNL A   1      35.385  21.198  24.954  1.00  0.00     0.275 C 
ENDROOT
BRANCH   1   2
ATOM      2  O   UNL A   1      35.600  22.625  24.934  1.00  0.00    -0.458 OA
BRANCH   2   3
ATOM      3  C   UNL A   1      35.351  23.225  23.747  1.00  0.00     0.338 C 
ATOM      4  O   UNL A   1      36.009  23.131  22.726  1.00  0.00    -0.246 OA
BRANCH   3   5
ATOM      5  C   UNL A   1      34.148  24.074  23.829  1.00  0.00     0.061 A 
ATOM      6  C   UNL A   1      32.019  25.922  23.687  1.00  0.00     0.133 A 
ATOM      7  C   UNL A   1      31.992  24.719  22.966  1.00  0.00     0.048 A 
ATOM      8  C   UNL A   1      33.146  26.194  24.478  1.00  0.00     0.060 A 
ATOM      9  C   UNL A   1      33.034  23.800  23.043  1.00  0.00     0.019 A 
ATOM     10  C   UNL A   1      34.199  25.260  24.556  1.00  0.00     0.035 A 
ATOM     11  Br  UNL A   1      33.494  27.802  25.431  1.00  0.00    -0.047 Br
BRANCH   6  12
ATOM     12  O   UNL A   1      30.877  26.627  23.448  1.00  0.00    -0.490 OA
BRANCH  12  13
ATOM     13  C   UNL A   1      30.825  27.765  22.603  1.00  0.00     0.258 C 
BRANCH  13  14
ATOM     14  C   UNL A   1      30.906  29.110  23.336  1.00  0.00     0.201 C 
BRANCH  14  15
ATOM     15  O   UNL A   1      29.665  29.817  23.347  1.00  0.00    -0.381 OA
ATOM     16  C   UNL A   1      29.005  29.779  22.086  1.00  0.00     0.195 C 
ENDBRANCH  14  15
ENDBRANCH  13  14
ENDBRANCH  12  13
ENDBRANCH   6  12
ENDBRANCH   3   5
ENDBRANCH   2   3
ENDBRANCH   1   2
BRANCH   1  17
ATOM     17  C   UNL A   1      36.700  20.414  24.959  1.00  0.00     0.275 C 
BRANCH  17  18
ATOM     18  O   UNL A   1      37.836  21.298  24.919  1.00  0.00    -0.458 OA
BRANCH  18  19
ATOM     19  C   UNL A   1      38.851  20.940  25.736  1.00  0.00     0.338 C 
ATOM     20  O   UNL A   1      39.410  19.856  25.783  1.00  0.00    -0.246 OA
BRANCH  19  21
ATOM     21  C   UNL A   1      39.315  22.082  26.535  1.00  0.00     0.060 A 
ATOM     22  C   UNL A   1      38.821  23.334  26.195  1.00  0.00     0.016 A 
ATOM     23  C   UNL A   1      40.411  21.977  27.387  1.00  0.00     0.016 A 
ATOM     24  C   UNL A   1      39.534  24.476  26.527  1.00  0.00     0.010 A 
ATOM     25  C   UNL A   1      41.018  23.145  27.872  1.00  0.00     0.010 A 
ATOM     26  C   UNL A   1      40.629  24.414  27.399  1.00  0.00    -0.014 A 
BRANCH  26  27
ATOM     27  C   UNL A   1      41.362  25.667  27.765  1.00  0.00     0.031 A 
ATOM     28  C   UNL A   1      40.693  26.733  28.602  1.00  0.00     0.074 A 
ATOM     29  C   UNL A   1      42.649  25.840  27.391  1.00  0.00     0.049 A 
ATOM     30  N   UNL A   1      41.090  27.953  28.865  1.00  0.00    -0.248 NA
ATOM     31  C   UNL A   1      39.396  26.388  29.204  1.00  0.00     0.031 C 
ATOM     32  C   UNL A   1      43.451  24.873  26.634  1.00  0.00     0.029 A 
ATOM     33  N   UNL A   1      43.522  26.879  27.607  1.00  0.00    -0.354 N 
ATOM     34  C   UNL A   1      40.066  28.541  29.605  1.00  0.00     0.074 A 
ATOM     35  C   UNL A   1      39.022  27.545  29.731  1.00  0.00     0.031 C 
ATOM     36  C   UNL A   1      44.704  25.329  26.514  1.00  0.00     0.029 A 
ATOM     37  C   UNL A   1      44.766  26.680  27.050  1.00  0.00     0.049 A 
ATOM     38  H   UNL A   1      43.281  27.690  28.112  1.00  0.00     0.167 HD
ATOM     39  C   UNL A   1      40.005  29.793  30.127  1.00  0.00     0.034 A 
ATOM     40  C   UNL A   1      45.823  27.506  26.917  1.00  0.00     0.034 A 
ATOM     41  C   UNL A   1      41.080  30.755  30.031  1.00  0.00     0.049 A 
ATOM     42  C   UNL A   1      45.705  28.911  27.440  1.00  0.00     0.074 A 
ATOM     43  C   UNL A   1      41.130  32.045  30.531  1.00  0.00     0.029 A 
ATOM     44  N   UNL A   1      42.299  30.531  29.401  1.00  0.00    -0.354 N 
ATOM     45  N   UNL A   1      44.701  29.477  28.069  1.00  0.00    -0.248 NA
ATOM     46  C   UNL A   1      46.858  29.793  27.222  1.00  0.00     0.031 C 
ATOM     47  C   UNL A   1      42.341  32.624  30.139  1.00  0.00     0.029 A 
ATOM     48  C   UNL A   1      43.090  31.668  29.473  1.00  0.00     0.049 A 
ATOM     49  H   UNL A   1      42.562  29.687  28.966  1.00  0.00     0.167 HD
ATOM     50  C   UNL A   1      45.111  30.779  28.338  1.00  0.00     0.074 A 
ATOM     51  C   UNL A   1      46.463  30.901  27.830  1.00  0.00     0.031 C 
ATOM     52  C   UNL A   1      44.432  31.783  28.948  1.00  0.00     0.034 A 
BRANCH  39  53
ATOM     53  C   UNL A   1      38.711  30.217  30.787  1.00  0.00     0.023 A 
ATOM     54  C   UNL A   1      37.666  30.832  30.075  1.00  0.00     0.031 A 
ATOM     55  C   UNL A   1      38.532  30.022  32.170  1.00  0.00     0.131 A 
ATOM     56  C   UNL A   1      36.532  31.300  30.758  1.00  0.00     0.055 A 
ATOM     57  C   UNL A   1      37.363  30.410  32.828  1.00  0.00     0.041 A 
ATOM     58  F   UNL A   1      39.500  29.460  32.912  1.00  0.00    -0.206 F 
ATOM     59  C   UNL A   1      36.360  31.069  32.125  1.00  0.00     0.022 A 
BRANCH  56  60
ATOM     60  S   UNL A   1      35.355  32.354  29.866  1.00  0.00     0.124 S 
ATOM     61  O   UNL A   1      34.979  31.494  28.746  1.00  0.00    -0.237 OA
ATOM     62  O   UNL A   1      34.320  32.590  30.866  1.00  0.00    -0.237 OA
ATOM     63  O   UNL A   1      36.150  33.525  29.501  1.00  0.00    -0.744 OA
ENDBRANCH  56  60
ENDBRANCH  39  53
BRANCH  40  64
ATOM     64  C   UNL A   1      47.045  27.060  26.184  1.00  0.00     0.023 A 
ATOM     65  C   UNL A   1      48.085  26.388  26.845  1.00  0.00     0.031 A 
ATOM     66  C   UNL A   1      47.210  27.338  24.814  1.00  0.00     0.131 A 
ATOM     67  C   UNL A   1      49.258  26.055  26.146  1.00  0.00     0.055 A 
ATOM     68  C   UNL A   1      48.347  26.941  24.108  1.00  0.00     0.041 A 
ATOM     69  F   UNL A   1      46.254  27.988  24.129  1.00  0.00    -0.206 F 
ATOM     70  C   UNL A   1      49.387  26.308  24.779  1.00  0.00     0.022 A 
BRANCH  67  71
ATOM     71  S   UNL A   1      50.658  25.376  27.078  1.00  0.00     0.124 S 
ATOM     72  O   UNL A   1      51.086  26.533  27.855  1.00  0.00    -0.237 OA
ATOM     73  O   UNL A   1      50.028  24.295  27.828  1.00  0.00    -0.237 OA
ATOM     74  O   UNL A   1      51.586  24.949  26.032  1.00  0.00    -0.744 OA
ENDBRANCH  67  71
ENDBRANCH  40  64
BRANCH  52  75
ATOM     75  C   UNL A   1      45.171  33.086  29.138  1.00  0.00     0.023 A 
ATOM     76  C   UNL A   1      45.142  34.102  28.166  1.00  0.00     0.031 A 
ATOM     77  C   UNL A   1      45.950  33.297  30.290  1.00  0.00     0.131 A 
ATOM     78  C   UNL A   1      45.933  35.249  28.330  1.00  0.00     0.055 A 
ATOM     79  C   UNL A   1      46.675  34.472  30.482  1.00  0.00     0.041 A 
ATOM     80  F   UNL A   1      46.021  32.358  31.248  1.00  0.00    -0.206 F 
ATOM     81  C   UNL A   1      46.684  35.449  29.491  1.00  0.00     0.022 A 
BRANCH  78  82
ATOM     82  S   UNL A   1      46.064  36.420  26.951  1.00  0.00     0.124 S 
ATOM     83  O   UNL A   1      47.114  37.319  27.417  1.00  0.00    -0.237 OA
ATOM     84  O   UNL A   1      46.418  35.549  25.835  1.00  0.00    -0.237 OA
ATOM     85  O   UNL A   1      44.729  37.011  26.876  1.00  0.00    -0.744 OA
ENDBRANCH  78  82
ENDBRANCH  52  75
ENDBRANCH  26  27
ENDBRANCH  19  21
ENDBRANCH  18  19
ENDBRANCH  17  18
ENDBRANCH   1  17
TORSDOF 18
ENDMDL
MODEL 2
REMARK VINA RESULT:     -10.5      1.932      8.052
REMARK SMILES COCCOc1ccc(C(=O)OCCOC(=O)c2ccc(-c3c4nc(c(-c5cc(S(=O)(=O)[O-])ccc5F)c5ccc([nH]5)c(-c5cc(S(=O)(=O)[O-])ccc5F)c5nc(c(-c6cc(S(=O)(=O)[O-])ccc6F)c6ccc3[nH]6)C=C5)C=C4)cc2)cc1Br
REMARK SMILES IDX 13 1 12 2 10 3 11 4 9 5 6 6 7 7 82 8 8 9 81 10 83 11 5 12
REMARK SMILES IDX 4 13 3 14 2 15 1 16 14 17 15 18 16 19 17 20 18 21 19 22
REMARK SMILES IDX 80 23 20 24 79 25 21 26 22 27 23 28 73 29 24 30 78 31 72 32
REMARK SMILES IDX 74 33 25 34 77 35 71 36 70 37 26 39 58 40 38 41 57 42 39 43
REMARK SMILES IDX 42 44 56 45 75 46 40 47 41 48 55 50 76 51 43 52 27 53 28 54
REMARK SMILES IDX 36 55 29 56 35 57 37 58 34 59 30 60 31 61 32 62 33 63 59 64
REMARK SMILES IDX 60 65 68 66 61 67 67 68 69 69 66 70 62 71 63 72 64 73 65 74
REMARK SMILES IDX 44 75 45 76 53 77 46 78 52 79 54 80 51 81 47 82 48 83 49 84
REMARK SMILES IDX 50 85
REMARK H PARENT 74 38 42 49
REMARK Flexibility Score: inf
ROOT
ATOM      1  C   UNL A   1      35.959  20.943  24.932  1.00  0.00     0.275 C 
ENDROOT
BRANCH   1   2
ATOM      2  O   UNL A   1      36.094  22.369  25.105  1.00  0.00    -0.458 OA
BRANCH   2   3
ATOM      3  C   UNL A   1      35.846  23.106  23.997  1.00  0.00     0.338 C 
ATOM      4  O   UNL A   1      36.370  22.985  22.903  1.00  0.00    -0.246 OA
BRANCH   3   5
ATOM      5  C   UNL A   1      34.839  24.147  24.273  1.00  0.00     0.061 A 
ATOM      6  C   UNL A   1      32.637  25.833  24.803  1.00  0.00     0.133 A 
ATOM      7  C   UNL A   1      33.434  25.321  25.839  1.00  0.00     0.048 A 
ATOM      8  C   UNL A   1      32.956  25.473  23.485  1.00  0.00     0.060 A 
ATOM      9  C   UNL A   1      34.527  24.500  25.581  1.00  0.00     0.019 A 
ATOM     10  C   UNL A   1      34.066  24.642  23.226  1.00  0.00     0.035 A 
ATOM     11  Br  UNL A   1      31.961  25.907  21.925  1.00  0.00    -0.047 Br
BRANCH   6  12
ATOM     12  O   UNL A   1      31.651  26.615  25.326  1.00  0.00    -0.490 OA
BRANCH  12  13
ATOM     13  C   UNL A   1      31.807  27.381  26.509  1.00  0.00     0.258 C 
BRANCH  13  14
ATOM     14  C   UNL A   1      32.189  28.848  26.276  1.00  0.00     0.201 C 
BRANCH  14  15
ATOM     15  O   UNL A   1      33.031  29.377  27.300  1.00  0.00    -0.381 OA
ATOM     16  C   UNL A   1      34.389  28.976  27.150  1.00  0.00     0.195 C 
ENDBRANCH  14  15
ENDBRANCH  13  14
ENDBRANCH  12  13
ENDBRANCH   6  12
ENDBRANCH   3   5
ENDBRANCH   2   3
ENDBRANCH   1   2
BRANCH   1  17
ATOM     17  C   UNL A   1      37.296  20.212  25.078  1.00  0.00     0.275 C 
BRANCH  17  18
ATOM     18  O   UNL A   1      38.401  21.134  25.050  1.00  0.00    -0.458 OA
BRANCH  18  19
ATOM     19  C   UNL A   1      39.330  20.921  26.009  1.00  0.00     0.338 C 
ATOM     20  O   UNL A   1      39.914  19.876  26.248  1.00  0.00    -0.246 OA
BRANCH  19  21
ATOM     21  C   UNL A   1      39.666  22.170  26.706  1.00  0.00     0.060 A 
ATOM     22  C   UNL A   1      39.004  23.320  26.298  1.00  0.00     0.016 A 
ATOM     23  C   UNL A   1      40.791  22.269  27.519  1.00  0.00     0.016 A 
ATOM     24  C   UNL A   1      39.574  24.565  26.521  1.00  0.00     0.010 A 
ATOM     25  C   UNL A   1      41.257  23.538  27.896  1.00  0.00     0.010 A 
ATOM     26  C   UNL A   1      40.693  24.708  27.350  1.00  0.00    -0.014 A 
BRANCH  26  27
ATOM     27  C   UNL A   1      41.269  26.067  27.598  1.00  0.00     0.031 A 
ATOM     28  C   UNL A   1      42.613  26.449  27.021  1.00  0.00     0.074 A 
ATOM     29  C   UNL A   1      40.573  26.987  28.302  1.00  0.00     0.049 A 
ATOM     30  N   UNL A   1      43.357  27.498  27.272  1.00  0.00    -0.248 NA
ATOM     31  C   UNL A   1      43.208  25.519  26.050  1.00  0.00     0.031 C 
ATOM     32  C   UNL A   1      39.235  26.789  28.870  1.00  0.00     0.029 A 
ATOM     33  N   UNL A   1      40.879  28.281  28.651  1.00  0.00    -0.354 N 
ATOM     34  C   UNL A   1      44.531  27.321  26.544  1.00  0.00     0.074 A 
ATOM     35  C   UNL A   1      44.405  26.053  25.856  1.00  0.00     0.031 C 
ATOM     36  C   UNL A   1      38.812  27.931  29.425  1.00  0.00     0.029 A 
ATOM     37  C   UNL A   1      39.896  28.901  29.390  1.00  0.00     0.049 A 
ATOM     38  H   UNL A   1      41.721  28.723  28.395  1.00  0.00     0.167 HD
ATOM     39  C   UNL A   1      45.611  28.140  26.461  1.00  0.00     0.034 A 
ATOM     40  C   UNL A   1      39.880  30.086  30.032  1.00  0.00     0.034 A 
ATOM     41  C   UNL A   1      45.695  29.426  27.117  1.00  0.00     0.049 A 
ATOM     42  C   UNL A   1      41.115  30.944  29.984  1.00  0.00     0.074 A 
ATOM     43  C   UNL A   1      46.735  30.340  27.092  1.00  0.00     0.029 A 
ATOM     44  N   UNL A   1      44.700  29.985  27.910  1.00  0.00    -0.354 N 
ATOM     45  N   UNL A   1      42.247  30.728  29.355  1.00  0.00    -0.248 NA
ATOM     46  C   UNL A   1      41.074  32.198  30.744  1.00  0.00     0.031 C 
ATOM     47  C   UNL A   1      46.400  31.411  27.927  1.00  0.00     0.029 A 
ATOM     48  C   UNL A   1      45.115  31.213  28.403  1.00  0.00     0.049 A 
ATOM     49  H   UNL A   1      43.826  29.569  28.095  1.00  0.00     0.167 HD
ATOM     50  C   UNL A   1      43.048  31.832  29.631  1.00  0.00     0.074 A 
ATOM     51  C   UNL A   1      42.255  32.721  30.456  1.00  0.00     0.031 C 
ATOM     52  C   UNL A   1      44.322  32.086  29.239  1.00  0.00     0.034 A 
BRANCH  39  53
ATOM     53  C   UNL A   1      46.813  27.642  25.688  1.00  0.00     0.023 A 
ATOM     54  C   UNL A   1      47.071  28.027  24.361  1.00  0.00     0.031 A 
ATOM     55  C   UNL A   1      47.707  26.735  26.290  1.00  0.00     0.131 A 
ATOM     56  C   UNL A   1      48.142  27.452  23.658  1.00  0.00     0.055 A 
ATOM     57  C   UNL A   1      48.822  26.235  25.613  1.00  0.00     0.041 A 
ATOM     58  F   UNL A   1      47.507  26.310  27.547  1.00  0.00    -0.206 F 
ATOM     59  C   UNL A   1      49.036  26.579  24.283  1.00  0.00     0.022 A 
BRANCH  56  60
ATOM     60  S   UNL A   1      48.260  27.738  21.870  1.00  0.00     0.124 S 
ATOM     61  O   UNL A   1      49.438  28.597  21.786  1.00  0.00    -0.237 OA
ATOM     62  O   UNL A   1      48.415  26.386  21.344  1.00  0.00    -0.237 OA
ATOM     63  O   UNL A   1      46.995  28.395  21.543  1.00  0.00    -0.744 OA
ENDBRANCH  56  60
ENDBRANCH  39  53
BRANCH  40  64
ATOM     64  C   UNL A   1      38.696  30.490  30.847  1.00  0.00     0.023 A 
ATOM     65  C   UNL A   1      37.602  31.149  30.265  1.00  0.00     0.031 A 
ATOM     66  C   UNL A   1      38.660  30.260  32.236  1.00  0.00     0.131 A 
ATOM     67  C   UNL A   1      36.541  31.590  31.072  1.00  0.00     0.055 A 
ATOM     68  C   UNL A   1      37.570  30.636  33.022  1.00  0.00     0.041 A 
ATOM     69  F   UNL A   1      39.681  29.643  32.852  1.00  0.00    -0.206 F 
ATOM     70  C   UNL A   1      36.507  31.320  32.442  1.00  0.00     0.022 A 
BRANCH  67  71
ATOM     71  S   UNL A   1      35.248  32.616  30.320  1.00  0.00     0.124 S 
ATOM     72  O   UNL A   1      34.275  32.705  31.402  1.00  0.00    -0.237 OA
ATOM     73  O   UNL A   1      35.976  33.841  30.008  1.00  0.00    -0.237 OA
ATOM     74  O   UNL A   1      34.824  31.832  29.161  1.00  0.00    -0.744 OA
ENDBRANCH  67  71
ENDBRANCH  40  64
BRANCH  52  75
ATOM     75  C   UNL A   1      44.912  33.408  29.666  1.00  0.00     0.023 A 
ATOM     76  C   UNL A   1      44.762  34.571  28.889  1.00  0.00     0.031 A 
ATOM     77  C   UNL A   1      45.670  33.497  30.847  1.00  0.00     0.131 A 
ATOM     78  C   UNL A   1      45.421  35.751  29.263  1.00  0.00     0.055 A 
ATOM     79  C   UNL A   1      46.260  34.693  31.254  1.00  0.00     0.041 A 
ATOM     80  F   UNL A   1      45.852  32.417  31.625  1.00  0.00    -0.206 F 
ATOM     81  C   UNL A   1      46.152  35.825  30.451  1.00  0.00     0.022 A 
BRANCH  78  82
ATOM     82  S   UNL A   1      45.410  37.155  28.115  1.00  0.00     0.124 S 
ATOM     83  O   UNL A   1      45.920  36.547  26.890  1.00  0.00    -0.237 OA
ATOM     84  O   UNL A   1      44.002  37.536  28.100  1.00  0.00    -0.237 OA
ATOM     85  O   UNL A   1      46.307  38.121  28.747  1.00  0.00    -0.744 OA
ENDBRANCH  78  82
ENDBRANCH  52  75
ENDBRANCH  26  27
ENDBRANCH  19  21
ENDBRANCH  18  19
ENDBRANCH  17  18
ENDBRANCH   1  17
TORSDOF 18
ENDMDL
MODEL 3
REMARK VINA RESULT:     -10.5      4.974     10.295
REMARK SMILES COCCOc1ccc(C(=O)OCCOC(=O)c2ccc(-c3c4nc(c(-c5cc(S(=O)(=O)[O-])ccc5F)c5ccc([nH]5)c(-c5cc(S(=O)(=O)[O-])ccc5F)c5nc(c(-c6cc(S(=O)(=O)[O-])ccc6F)c6ccc3[nH]6)C=C5)C=C4)cc2)cc1Br
REMARK SMILES IDX 13 1 12 2 10 3 11 4 9 5 6 6 7 7 82 8 8 9 81 10 83 11 5 12
REMARK SMILES IDX 4 13 3 14 2 15 1 16 14 17 15 18 16 19 17 20 18 21 19 22
REMARK SMILES IDX 80 23 20 24 79 25 21 26 22 27 23 28 73 29 24 30 78 31 72 32
REMARK SMILES IDX 74 33 25 34 77 35 71 36 70 37 26 39 58 40 38 41 57 42 39 43
REMARK SMILES IDX 42 44 56 45 75 46 40 47 41 48 55 50 76 51 43 52 27 53 28 54
REMARK SMILES IDX 36 55 29 56 35 57 37 58 34 59 30 60 31 61 32 62 33 63 59 64
REMARK SMILES IDX 60 65 68 66 61 67 67 68 69 69 66 70 62 71 63 72 64 73 65 74
REMARK SMILES IDX 44 75 45 76 53 77 46 78 52 79 54 80 51 81 47 82 48 83 49 84
REMARK SMILES IDX 50 85
REMARK H PARENT 74 38 42 49
REMARK Flexibility Score: inf
ROOT
ATOM      1  C   UNL A   1      32.422  29.375  24.797  1.00  0.00     0.275 C 
ENDROOT
BRANCH   1   2
ATOM      2  O   UNL A   1      32.094  27.989  25.023  1.00  0.00    -0.458 OA
BRANCH   2   3
ATOM      3  C   UNL A   1      32.676  27.115  24.168  1.00  0.00     0.338 C 
ATOM      4  O   UNL A   1      32.906  27.291  22.984  1.00  0.00    -0.246 OA
BRANCH   3   5
ATOM      5  C   UNL A   1      32.997  25.848  24.849  1.00  0.00     0.061 A 
ATOM      6  C   UNL A   1      33.482  23.237  25.808  1.00  0.00     0.133 A 
ATOM      7  C   UNL A   1      34.495  23.992  25.196  1.00  0.00     0.048 A 
ATOM      8  C   UNL A   1      32.207  23.811  25.921  1.00  0.00     0.060 A 
ATOM      9  C   UNL A   1      34.262  25.284  24.733  1.00  0.00     0.019 A 
ATOM     10  C   UNL A   1      31.975  25.121  25.453  1.00  0.00     0.035 A 
ATOM     11  Br  UNL A   1      30.639  22.955  26.571  1.00  0.00    -0.047 Br
BRANCH   6  12
ATOM     12  O   UNL A   1      33.976  22.023  26.180  1.00  0.00    -0.490 OA
BRANCH  12  13
ATOM     13  C   UNL A   1      34.107  20.927  25.289  1.00  0.00     0.258 C 
BRANCH  13  14
ATOM     14  C   UNL A   1      32.890  20.688  24.386  1.00  0.00     0.201 C 
BRANCH  14  15
ATOM     15  O   UNL A   1      32.170  19.501  24.718  1.00  0.00    -0.381 OA
ATOM     16  C   UNL A   1      32.895  18.654  25.604  1.00  0.00     0.195 C 
ENDBRANCH  14  15
ENDBRANCH  13  14
ENDBRANCH  12  13
ENDBRANCH   6  12
ENDBRANCH   3   5
ENDBRANCH   2   3
ENDBRANCH   1   2
BRANCH   1  17
ATOM     17  C   UNL A   1      31.683  30.310  25.758  1.00  0.00     0.275 C 
BRANCH  17  18
ATOM     18  O   UNL A   1      32.343  30.372  27.037  1.00  0.00    -0.458 OA
BRANCH  18  19
ATOM     19  C   UNL A   1      33.025  31.518  27.257  1.00  0.00     0.338 C 
ATOM     20  O   UNL A   1      32.571  32.651  27.282  1.00  0.00    -0.246 OA
BRANCH  19  21
ATOM     21  C   UNL A   1      34.429  31.242  27.590  1.00  0.00     0.060 A 
ATOM     22  C   UNL A   1      34.761  29.929  27.893  1.00  0.00     0.016 A 
ATOM     23  C   UNL A   1      35.323  32.268  27.882  1.00  0.00     0.016 A 
ATOM     24  C   UNL A   1      35.877  29.655  28.670  1.00  0.00     0.010 A 
ATOM     25  C   UNL A   1      36.542  31.960  28.506  1.00  0.00     0.010 A 
ATOM     26  C   UNL A   1      36.810  30.656  28.967  1.00  0.00    -0.014 A 
BRANCH  26  27
ATOM     27  C   UNL A   1      38.022  30.327  29.782  1.00  0.00     0.031 A 
ATOM     28  C   UNL A   1      39.097  29.418  29.229  1.00  0.00     0.074 A 
ATOM     29  C   UNL A   1      38.194  30.875  31.005  1.00  0.00     0.049 A 
ATOM     30  N   UNL A   1      40.118  28.872  29.841  1.00  0.00    -0.248 NA
ATOM     31  C   UNL A   1      38.997  29.061  27.806  1.00  0.00     0.031 C 
ATOM     32  C   UNL A   1      37.275  31.820  31.649  1.00  0.00     0.029 A 
ATOM     33  N   UNL A   1      39.205  30.736  31.925  1.00  0.00    -0.354 N 
ATOM     34  C   UNL A   1      40.742  28.057  28.899  1.00  0.00     0.074 A 
ATOM     35  C   UNL A   1      39.969  28.170  27.679  1.00  0.00     0.031 C 
ATOM     36  C   UNL A   1      37.796  32.226  32.813  1.00  0.00     0.029 A 
ATOM     37  C   UNL A   1      39.009  31.467  33.077  1.00  0.00     0.049 A 
ATOM     38  H   UNL A   1      39.996  30.169  31.775  1.00  0.00     0.167 HD
ATOM     39  C   UNL A   1      41.852  27.289  29.041  1.00  0.00     0.034 A 
ATOM     40  C   UNL A   1      39.681  31.483  34.245  1.00  0.00     0.034 A 
ATOM     41  C   UNL A   1      42.636  27.230  30.254  1.00  0.00     0.049 A 
ATOM     42  C   UNL A   1      40.865  30.570  34.403  1.00  0.00     0.074 A 
ATOM     43  C   UNL A   1      43.783  26.495  30.505  1.00  0.00     0.029 A 
ATOM     44  N   UNL A   1      42.362  27.939  31.418  1.00  0.00    -0.354 N 
ATOM     45  N   UNL A   1      41.397  29.747  33.528  1.00  0.00    -0.248 NA
ATOM     46  C   UNL A   1      41.531  30.577  35.711  1.00  0.00     0.031 C 
ATOM     47  C   UNL A   1      44.156  26.700  31.837  1.00  0.00     0.029 A 
ATOM     48  C   UNL A   1      43.298  27.633  32.396  1.00  0.00     0.049 A 
ATOM     49  H   UNL A   1      41.612  28.567  31.532  1.00  0.00     0.167 HD
ATOM     50  C   UNL A   1      42.474  29.152  34.178  1.00  0.00     0.074 A 
ATOM     51  C   UNL A   1      42.530  29.734  35.504  1.00  0.00     0.031 C 
ATOM     52  C   UNL A   1      43.336  28.208  33.721  1.00  0.00     0.034 A 
BRANCH  39  53
ATOM     53  C   UNL A   1      42.244  26.399  27.881  1.00  0.00     0.023 A 
ATOM     54  C   UNL A   1      41.720  25.107  27.710  1.00  0.00     0.031 A 
ATOM     55  C   UNL A   1      43.189  26.850  26.940  1.00  0.00     0.131 A 
ATOM     56  C   UNL A   1      42.198  24.286  26.675  1.00  0.00     0.055 A 
ATOM     57  C   UNL A   1      43.595  26.061  25.861  1.00  0.00     0.041 A 
ATOM     58  F   UNL A   1      43.745  28.067  27.058  1.00  0.00    -0.206 F 
ATOM     59  C   UNL A   1      43.112  24.764  25.733  1.00  0.00     0.022 A 
BRANCH  56  60
ATOM     60  S   UNL A   1      41.729  22.533  26.670  1.00  0.00     0.124 S 
ATOM     61  O   UNL A   1      42.235  22.097  25.371  1.00  0.00    -0.237 OA
ATOM     62  O   UNL A   1      42.432  22.015  27.838  1.00  0.00    -0.237 OA
ATOM     63  O   UNL A   1      40.271  22.567  26.782  1.00  0.00    -0.744 OA
ENDBRANCH  56  60
ENDBRANCH  39  53
BRANCH  40  64
ATOM     64  C   UNL A   1      39.200  32.320  35.384  1.00  0.00     0.023 A 
ATOM     65  C   UNL A   1      39.681  33.623  35.583  1.00  0.00     0.031 A 
ATOM     66  C   UNL A   1      38.277  31.812  36.318  1.00  0.00     0.131 A 
ATOM     67  C   UNL A   1      39.273  34.355  36.710  1.00  0.00     0.055 A 
ATOM     68  C   UNL A   1      37.819  32.570  37.397  1.00  0.00     0.041 A 
ATOM     69  F   UNL A   1      37.788  30.568  36.186  1.00  0.00    -0.206 F 
ATOM     70  C   UNL A   1      38.330  33.846  37.606  1.00  0.00     0.022 A 
BRANCH  67  71
ATOM     71  S   UNL A   1      40.071  35.949  37.046  1.00  0.00     0.124 S 
ATOM     72  O   UNL A   1      39.476  36.315  38.325  1.00  0.00    -0.237 OA
ATOM     73  O   UNL A   1      41.483  35.581  37.076  1.00  0.00    -0.237 OA
ATOM     74  O   UNL A   1      39.668  36.776  35.910  1.00  0.00    -0.744 OA
ENDBRANCH  67  71
ENDBRANCH  40  64
BRANCH  52  75
ATOM     75  C   UNL A   1      44.444  27.790  34.658  1.00  0.00     0.023 A 
ATOM     76  C   UNL A   1      44.220  26.885  35.711  1.00  0.00     0.031 A 
ATOM     77  C   UNL A   1      45.732  28.337  34.519  1.00  0.00     0.131 A 
ATOM     78  C   UNL A   1      45.247  26.611  36.626  1.00  0.00     0.055 A 
ATOM     79  C   UNL A   1      46.770  28.002  35.388  1.00  0.00     0.041 A 
ATOM     80  F   UNL A   1      46.001  29.211  33.536  1.00  0.00    -0.206 F 
ATOM     81  C   UNL A   1      46.526  27.148  36.460  1.00  0.00     0.022 A 
BRANCH  78  82
ATOM     82  S   UNL A   1      44.856  25.639  38.106  1.00  0.00     0.124 S 
ATOM     83  O   UNL A   1      44.169  24.484  37.537  1.00  0.00    -0.237 OA
ATOM     84  O   UNL A   1      46.178  25.382  38.670  1.00  0.00    -0.237 OA
ATOM     85  O   UNL A   1      44.012  26.537  38.892  1.00  0.00    -0.744 OA
ENDBRANCH  78  82
ENDBRANCH  52  75
ENDBRANCH  26  27
ENDBRANCH  19  21
ENDBRANCH  18  19
ENDBRANCH  17  18
ENDBRANCH   1  17
TORSDOF 18
ENDMDL
