MODEL 1
REMARK VINA RESULT:     -11.2      0.000      0.000
REMARK SMILES C[C@@H](CS(=O)(=O)[C@@H]1CCC[C@H](S(C)(=O)=O)C1)C(=O)OCCOC(=O)c1ccc(-c2c3nc(c(-c4cc(S(=O)(=O)[O-])ccc4F)c4ccc([nH]4)c(-c4cc(S(=O)(=O)[O-])ccc4F)c4nc(c(-c5cc(S(=O)(=O)[O-])ccc5F)c5ccc2[nH]5)C=C4)C=C3)cc1
REMARK SMILES IDX 20 1 19 2 17 3 18 4 2 5 1 6 3 7 4 8 5 9 6 10 7 11 8 12 16 13
REMARK SMILES IDX 9 14 11 15 10 16 12 17 13 18 14 19 15 20 21 21 22 22 23 23
REMARK SMILES IDX 24 24 25 25 26 26 87 27 27 28 86 29 28 30 29 31 30 32 80 33
REMARK SMILES IDX 31 34 85 35 79 36 81 37 32 38 84 39 78 40 77 41 33 43 65 44
REMARK SMILES IDX 45 45 64 46 46 47 49 48 63 49 82 50 47 51 48 52 62 54 83 55
REMARK SMILES IDX 50 56 34 57 35 58 43 59 36 60 42 61 44 62 41 63 37 64 38 65
REMARK SMILES IDX 39 66 40 67 66 68 67 69 75 70 68 71 74 72 76 73 73 74 69 75
REMARK SMILES IDX 70 76 71 77 72 78 51 79 52 80 60 81 53 82 59 83 61 84 58 85
REMARK SMILES IDX 54 86 55 87 56 88 57 89
REMARK H PARENT 81 42 49 53
REMARK Flexibility Score: inf
ROOT
ATOM      1  C   UNL A   1      35.176  20.681  25.204  1.00  0.00     0.274 C 
ENDROOT
BRANCH   1   2
ATOM      2  O   UNL A   1      34.345  19.681  24.584  1.00  0.00    -0.462 OA
BRANCH   2   3
ATOM      3  C   UNL A   1      33.006  19.881  24.671  1.00  0.00     0.309 C 
ATOM      4  O   UNL A   1      32.166  19.009  24.845  1.00  0.00    -0.252 OA
BRANCH   3   5
ATOM      5  C   UNL A   1      32.626  21.342  24.507  1.00  0.00     0.111 C 
ATOM      6  C   UNL A   1      32.418  21.797  23.063  1.00  0.00     0.021 C 
BRANCH   5   7
ATOM      7  C   UNL A   1      31.539  21.753  25.494  1.00  0.00     0.152 C 
BRANCH   7   8
ATOM      8  S   UNL A   1      31.909  23.040  26.670  1.00  0.00     0.154 S 
ATOM      9  O   UNL A   1      30.704  23.333  27.421  1.00  0.00    -0.229 OA
ATOM     10  O   UNL A   1      33.108  22.624  27.376  1.00  0.00    -0.229 OA
BRANCH   8  11
ATOM     11  C   UNL A   1      32.340  24.510  25.730  1.00  0.00     0.110 C 
ATOM     12  C   UNL A   1      33.814  24.516  25.317  1.00  0.00     0.020 C 
ATOM     13  C   UNL A   1      31.996  25.774  26.528  1.00  0.00     0.039 C 
ATOM     14  C   UNL A   1      34.162  25.771  24.527  1.00  0.00     0.003 C 
ATOM     15  C   UNL A   1      32.346  27.044  25.743  1.00  0.00     0.109 C 
ATOM     16  C   UNL A   1      33.813  27.036  25.305  1.00  0.00     0.020 C 
BRANCH  15  17
ATOM     17  S   UNL A   1      31.938  28.501  26.724  1.00  0.00     0.150 S 
ATOM     18  C   UNL A   1      33.504  29.119  27.288  1.00  0.00     0.158 C 
ATOM     19  O   UNL A   1      31.396  29.499  25.822  1.00  0.00    -0.229 OA
ATOM     20  O   UNL A   1      31.193  28.078  27.894  1.00  0.00    -0.229 OA
ENDBRANCH  15  17
ENDBRANCH   8  11
ENDBRANCH   7   8
ENDBRANCH   5   7
ENDBRANCH   3   5
ENDBRANCH   2   3
ENDBRANCH   1   2
BRANCH   1  21
ATOM     21  C   UNL A   1      36.659  20.339  25.042  1.00  0.00     0.275 C 
BRANCH  21  22
ATOM     22  O   UNL A   1      37.494  21.478  25.316  1.00  0.00    -0.458 OA
BRANCH  22  23
ATOM     23  C   UNL A   1      38.689  21.186  25.883  1.00  0.00     0.338 C 
ATOM     24  O   UNL A   1      39.250  20.104  25.908  1.00  0.00    -0.246 OA
BRANCH  23  25
ATOM     25  C   UNL A   1      39.321  22.428  26.351  1.00  0.00     0.060 A 
ATOM     26  C   UNL A   1      38.739  23.638  25.970  1.00  0.00     0.016 A 
ATOM     27  C   UNL A   1      40.505  22.413  27.086  1.00  0.00     0.016 A 
ATOM     28  C   UNL A   1      39.341  24.845  26.303  1.00  0.00     0.010 A 
ATOM     29  C   UNL A   1      41.101  23.630  27.439  1.00  0.00     0.010 A 
ATOM     30  C   UNL A   1      40.526  24.851  27.042  1.00  0.00    -0.014 A 
BRANCH  30  31
ATOM     31  C   UNL A   1      41.165  26.146  27.373  1.00  0.00     0.031 A 
ATOM     32  C   UNL A   1      42.541  26.450  26.860  1.00  0.00     0.074 A 
ATOM     33  C   UNL A   1      40.488  27.053  28.104  1.00  0.00     0.049 A 
ATOM     34  N   UNL A   1      43.314  27.471  27.121  1.00  0.00    -0.248 NA
ATOM     35  C   UNL A   1      43.124  25.474  25.926  1.00  0.00     0.031 C 
ATOM     36  C   UNL A   1      39.118  26.887  28.594  1.00  0.00     0.029 A 
ATOM     37  N   UNL A   1      40.859  28.290  28.562  1.00  0.00    -0.354 N 
ATOM     38  C   UNL A   1      44.486  27.253  26.406  1.00  0.00     0.074 A 
ATOM     39  C   UNL A   1      44.323  25.995  25.708  1.00  0.00     0.031 C 
ATOM     40  C   UNL A   1      38.767  27.980  29.290  1.00  0.00     0.029 A 
ATOM     41  C   UNL A   1      39.904  28.892  29.349  1.00  0.00     0.049 A 
ATOM     42  H   UNL A   1      41.725  28.707  28.350  1.00  0.00     0.167 HD
ATOM     43  C   UNL A   1      45.593  28.033  26.347  1.00  0.00     0.034 A 
ATOM     44  C   UNL A   1      39.959  30.028  30.072  1.00  0.00     0.034 A 
ATOM     45  C   UNL A   1      45.730  29.286  27.050  1.00  0.00     0.049 A 
ATOM     46  C   UNL A   1      41.232  30.834  30.053  1.00  0.00     0.074 A 
ATOM     47  C   UNL A   1      46.804  30.158  27.058  1.00  0.00     0.029 A 
ATOM     48  N   UNL A   1      44.761  29.843  27.876  1.00  0.00    -0.354 N 
ATOM     49  N   UNL A   1      42.348  30.602  29.399  1.00  0.00    -0.248 NA
ATOM     50  C   UNL A   1      41.256  32.053  30.872  1.00  0.00     0.031 C 
ATOM     51  C   UNL A   1      46.509  31.211  27.933  1.00  0.00     0.029 A 
ATOM     52  C   UNL A   1      45.225  31.030  28.422  1.00  0.00     0.049 A 
ATOM     53  H   UNL A   1      43.876  29.451  28.049  1.00  0.00     0.167 HD
ATOM     54  C   UNL A   1      43.200  31.655  29.718  1.00  0.00     0.074 A 
ATOM     55  C   UNL A   1      42.462  32.533  30.603  1.00  0.00     0.031 C 
ATOM     56  C   UNL A   1      44.477  31.879  29.317  1.00  0.00     0.034 A 
BRANCH  43  57
ATOM     57  C   UNL A   1      46.761  27.516  25.549  1.00  0.00     0.023 A 
ATOM     58  C   UNL A   1      47.012  27.940  24.233  1.00  0.00     0.031 A 
ATOM     59  C   UNL A   1      47.629  26.563  26.112  1.00  0.00     0.131 A 
ATOM     60  C   UNL A   1      48.070  27.372  23.505  1.00  0.00     0.055 A 
ATOM     61  C   UNL A   1      48.719  26.050  25.407  1.00  0.00     0.041 A 
ATOM     62  F   UNL A   1      47.423  26.105  27.358  1.00  0.00    -0.206 F 
ATOM     63  C   UNL A   1      48.939  26.447  24.091  1.00  0.00     0.022 A 
BRANCH  60  64
ATOM     64  S   UNL A   1      48.231  27.774  21.744  1.00  0.00     0.124 S 
ATOM     65  O   UNL A   1      48.526  26.464  21.167  1.00  0.00    -0.237 OA
ATOM     66  O   UNL A   1      46.921  28.331  21.425  1.00  0.00    -0.237 OA
ATOM     67  O   UNL A   1      49.339  28.727  21.708  1.00  0.00    -0.744 OA
ENDBRANCH  60  64
ENDBRANCH  43  57
BRANCH  44  68
ATOM     68  C   UNL A   1      38.812  30.434  30.933  1.00  0.00     0.023 A 
ATOM     69  C   UNL A   1      37.856  31.356  30.484  1.00  0.00     0.031 A 
ATOM     70  C   UNL A   1      38.690  29.942  32.246  1.00  0.00     0.131 A 
ATOM     71  C   UNL A   1      36.844  31.793  31.354  1.00  0.00     0.055 A 
ATOM     72  C   UNL A   1      37.652  30.339  33.089  1.00  0.00     0.041 A 
ATOM     73  F   UNL A   1      39.580  29.059  32.726  1.00  0.00    -0.206 F 
ATOM     74  C   UNL A   1      36.729  31.281  32.649  1.00  0.00     0.022 A 
BRANCH  71  75
ATOM     75  S   UNL A   1      35.734  33.116  30.800  1.00  0.00     0.124 S 
ATOM     76  O   UNL A   1      36.071  34.195  31.723  1.00  0.00    -0.237 OA
ATOM     77  O   UNL A   1      36.155  33.303  29.415  1.00  0.00    -0.237 OA
ATOM     78  O   UNL A   1      34.403  32.539  30.973  1.00  0.00    -0.744 OA
ENDBRANCH  71  75
ENDBRANCH  44  68
BRANCH  56  79
ATOM     79  C   UNL A   1      45.128  33.144  29.815  1.00  0.00     0.023 A 
ATOM     80  C   UNL A   1      45.879  33.165  31.003  1.00  0.00     0.031 A 
ATOM     81  C   UNL A   1      44.973  34.346  29.104  1.00  0.00     0.131 A 
ATOM     82  C   UNL A   1      46.402  34.377  31.475  1.00  0.00     0.055 A 
ATOM     83  C   UNL A   1      45.542  35.539  29.551  1.00  0.00     0.041 A 
ATOM     84  F   UNL A   1      44.264  34.380  27.964  1.00  0.00    -0.206 F 
ATOM     85  C   UNL A   1      46.251  35.561  30.749  1.00  0.00     0.022 A 
BRANCH  82  86
ATOM     86  S   UNL A   1      47.216  34.402  33.095  1.00  0.00     0.124 S 
ATOM     87  O   UNL A   1      46.094  34.651  33.995  1.00  0.00    -0.237 OA
ATOM     88  O   UNL A   1      47.809  33.071  33.168  1.00  0.00    -0.237 OA
ATOM     89  O   UNL A   1      48.174  35.501  32.981  1.00  0.00    -0.744 OA
ENDBRANCH  82  86
ENDBRANCH  56  79
ENDBRANCH  30  31
ENDBRANCH  23  25
ENDBRANCH  22  23
ENDBRANCH  21  22
ENDBRANCH   1  21
TORSDOF 18
ENDMDL
MODEL 2
REMARK VINA RESULT:     -11.0      1.428      1.764
REMARK SMILES C[C@@H](CS(=O)(=O)[C@@H]1CCC[C@H](S(C)(=O)=O)C1)C(=O)OCCOC(=O)c1ccc(-c2c3nc(c(-c4cc(S(=O)(=O)[O-])ccc4F)c4ccc([nH]4)c(-c4cc(S(=O)(=O)[O-])ccc4F)c4nc(c(-c5cc(S(=O)(=O)[O-])ccc5F)c5ccc2[nH]5)C=C4)C=C3)cc1
REMARK SMILES IDX 20 1 19 2 17 3 18 4 2 5 1 6 3 7 4 8 5 9 6 10 7 11 8 12 16 13
REMARK SMILES IDX 9 14 11 15 10 16 12 17 13 18 14 19 15 20 21 21 22 22 23 23
REMARK SMILES IDX 24 24 25 25 26 26 87 27 27 28 86 29 28 30 29 31 30 32 80 33
REMARK SMILES IDX 31 34 85 35 79 36 81 37 32 38 84 39 78 40 77 41 33 43 65 44
REMARK SMILES IDX 45 45 64 46 46 47 49 48 63 49 82 50 47 51 48 52 62 54 83 55
REMARK SMILES IDX 50 56 34 57 35 58 43 59 36 60 42 61 44 62 41 63 37 64 38 65
REMARK SMILES IDX 39 66 40 67 66 68 67 69 75 70 68 71 74 72 76 73 73 74 69 75
REMARK SMILES IDX 70 76 71 77 72 78 51 79 52 80 60 81 53 82 59 83 61 84 58 85
REMARK SMILES IDX 54 86 55 87 56 88 57 89
REMARK H PARENT 81 42 49 53
REMARK Flexibility Score: inf
ROOT
ATOM      1  C   UNL A   1      35.185  20.640  25.240  1.00  0.00     0.274 C 
ENDROOT
BRANCH   1   2
ATOM      2  O   UNL A   1      34.310  19.625  24.712  1.00  0.00    -0.462 OA
BRANCH   2   3
ATOM      3  C   UNL A   1      32.980  19.849  24.859  1.00  0.00     0.309 C 
ATOM      4  O   UNL A   1      32.146  19.007  25.165  1.00  0.00    -0.252 OA
BRANCH   3   5
ATOM      5  C   UNL A   1      32.600  21.292  24.581  1.00  0.00     0.111 C 
ATOM      6  C   UNL A   1      32.256  21.600  23.125  1.00  0.00     0.021 C 
BRANCH   5   7
ATOM      7  C   UNL A   1      31.620  21.824  25.620  1.00  0.00     0.152 C 
BRANCH   7   8
ATOM      8  S   UNL A   1      32.069  23.286  26.535  1.00  0.00     0.154 S 
ATOM      9  O   UNL A   1      30.906  23.740  27.273  1.00  0.00    -0.229 OA
ATOM     10  O   UNL A   1      33.291  22.967  27.252  1.00  0.00    -0.229 OA
BRANCH   8  11
ATOM     11  C   UNL A   1      32.486  24.557  25.334  1.00  0.00     0.110 C 
ATOM     12  C   UNL A   1      33.940  24.453  24.869  1.00  0.00     0.020 C 
ATOM     13  C   UNL A   1      32.200  25.950  25.909  1.00  0.00     0.039 C 
ATOM     14  C   UNL A   1      34.277  25.540  23.856  1.00  0.00     0.003 C 
ATOM     15  C   UNL A   1      32.538  27.053  24.898  1.00  0.00     0.109 C 
ATOM     16  C   UNL A   1      33.985  26.931  24.412  1.00  0.00     0.020 C 
BRANCH  15  17
ATOM     17  S   UNL A   1      32.199  28.669  25.622  1.00  0.00     0.150 S 
ATOM     18  C   UNL A   1      31.776  28.327  27.312  1.00  0.00     0.158 C 
ATOM     19  O   UNL A   1      33.447  29.409  25.647  1.00  0.00    -0.229 OA
ATOM     20  O   UNL A   1      31.022  29.226  24.985  1.00  0.00    -0.229 OA
ENDBRANCH  15  17
ENDBRANCH   8  11
ENDBRANCH   7   8
ENDBRANCH   5   7
ENDBRANCH   3   5
ENDBRANCH   2   3
ENDBRANCH   1   2
BRANCH   1  21
ATOM     21  C   UNL A   1      36.652  20.283  24.991  1.00  0.00     0.275 C 
BRANCH  21  22
ATOM     22  O   UNL A   1      37.511  21.420  25.192  1.00  0.00    -0.458 OA
BRANCH  22  23
ATOM     23  C   UNL A   1      38.711  21.135  25.752  1.00  0.00     0.338 C 
ATOM     24  O   UNL A   1      39.278  20.056  25.777  1.00  0.00    -0.246 OA
BRANCH  23  25
ATOM     25  C   UNL A   1      39.340  22.382  26.213  1.00  0.00     0.060 A 
ATOM     26  C   UNL A   1      38.742  23.587  25.843  1.00  0.00     0.016 A 
ATOM     27  C   UNL A   1      40.536  22.376  26.928  1.00  0.00     0.016 A 
ATOM     28  C   UNL A   1      39.338  24.798  26.168  1.00  0.00     0.010 A 
ATOM     29  C   UNL A   1      41.127  23.597  27.274  1.00  0.00     0.010 A 
ATOM     30  C   UNL A   1      40.534  24.814  26.889  1.00  0.00    -0.014 A 
BRANCH  30  31
ATOM     31  C   UNL A   1      41.168  26.113  27.212  1.00  0.00     0.031 A 
ATOM     32  C   UNL A   1      42.537  26.426  26.686  1.00  0.00     0.074 A 
ATOM     33  C   UNL A   1      40.491  27.017  27.946  1.00  0.00     0.049 A 
ATOM     34  N   UNL A   1      43.306  27.453  26.940  1.00  0.00    -0.248 NA
ATOM     35  C   UNL A   1      43.119  25.452  25.751  1.00  0.00     0.031 C 
ATOM     36  C   UNL A   1      39.125  26.843  28.447  1.00  0.00     0.029 A 
ATOM     37  N   UNL A   1      40.857  28.258  28.399  1.00  0.00    -0.354 N 
ATOM     38  C   UNL A   1      44.473  27.241  26.216  1.00  0.00     0.074 A 
ATOM     39  C   UNL A   1      44.313  25.980  25.521  1.00  0.00     0.031 C 
ATOM     40  C   UNL A   1      38.774  27.936  29.144  1.00  0.00     0.029 A 
ATOM     41  C   UNL A   1      39.904  28.856  29.192  1.00  0.00     0.049 A 
ATOM     42  H   UNL A   1      41.718  28.680  28.178  1.00  0.00     0.167 HD
ATOM     43  C   UNL A   1      45.574  28.028  26.146  1.00  0.00     0.034 A 
ATOM     44  C   UNL A   1      39.958  29.994  29.912  1.00  0.00     0.034 A 
ATOM     45  C   UNL A   1      45.709  29.283  26.845  1.00  0.00     0.049 A 
ATOM     46  C   UNL A   1      41.225  30.808  29.881  1.00  0.00     0.074 A 
ATOM     47  C   UNL A   1      46.778  30.163  26.842  1.00  0.00     0.029 A 
ATOM     48  N   UNL A   1      44.743  29.835  27.678  1.00  0.00    -0.354 N 
ATOM     49  N   UNL A   1      42.337  30.582  29.219  1.00  0.00    -0.248 NA
ATOM     50  C   UNL A   1      41.247  32.028  30.697  1.00  0.00     0.031 C 
ATOM     51  C   UNL A   1      46.482  31.215  27.718  1.00  0.00     0.029 A 
ATOM     52  C   UNL A   1      45.203  31.027  28.217  1.00  0.00     0.049 A 
ATOM     53  H   UNL A   1      43.862  29.438  27.859  1.00  0.00     0.167 HD
ATOM     54  C   UNL A   1      43.185  31.641  29.528  1.00  0.00     0.074 A 
ATOM     55  C   UNL A   1      42.448  32.516  30.418  1.00  0.00     0.031 C 
ATOM     56  C   UNL A   1      44.457  31.873  29.117  1.00  0.00     0.034 A 
BRANCH  43  57
ATOM     57  C   UNL A   1      46.740  27.517  25.339  1.00  0.00     0.023 A 
ATOM     58  C   UNL A   1      46.987  27.953  24.026  1.00  0.00     0.031 A 
ATOM     59  C   UNL A   1      47.609  26.559  25.892  1.00  0.00     0.131 A 
ATOM     60  C   UNL A   1      48.042  27.390  23.290  1.00  0.00     0.055 A 
ATOM     61  C   UNL A   1      48.696  26.051  25.178  1.00  0.00     0.041 A 
ATOM     62  F   UNL A   1      47.407  26.090  27.134  1.00  0.00    -0.206 F 
ATOM     63  C   UNL A   1      48.912  26.459  23.865  1.00  0.00     0.022 A 
BRANCH  60  64
ATOM     64  S   UNL A   1      48.197  27.807  21.532  1.00  0.00     0.124 S 
ATOM     65  O   UNL A   1      46.887  28.390  21.250  1.00  0.00    -0.237 OA
ATOM     66  O   UNL A   1      49.323  28.734  21.524  1.00  0.00    -0.237 OA
ATOM     67  O   UNL A   1      48.447  26.517  20.892  1.00  0.00    -0.744 OA
ENDBRANCH  60  64
ENDBRANCH  43  57
BRANCH  44  68
ATOM     68  C   UNL A   1      38.815  30.393  30.781  1.00  0.00     0.023 A 
ATOM     69  C   UNL A   1      37.830  31.282  30.325  1.00  0.00     0.031 A 
ATOM     70  C   UNL A   1      38.725  29.931  32.107  1.00  0.00     0.131 A 
ATOM     71  C   UNL A   1      36.822  31.716  31.201  1.00  0.00     0.055 A 
ATOM     72  C   UNL A   1      37.691  30.324  32.958  1.00  0.00     0.041 A 
ATOM     73  F   UNL A   1      39.643  29.082  32.595  1.00  0.00    -0.206 F 
ATOM     74  C   UNL A   1      36.739  31.233  32.510  1.00  0.00     0.022 A 
BRANCH  71  75
ATOM     75  S   UNL A   1      35.673  32.999  30.633  1.00  0.00     0.124 S 
ATOM     76  O   UNL A   1      35.908  32.994  29.193  1.00  0.00    -0.237 OA
ATOM     77  O   UNL A   1      34.387  32.469  31.074  1.00  0.00    -0.237 OA
ATOM     78  O   UNL A   1      36.126  34.197  31.335  1.00  0.00    -0.744 OA
ENDBRANCH  71  75
ENDBRANCH  44  68
BRANCH  56  79
ATOM     79  C   UNL A   1      45.104  33.143  29.606  1.00  0.00     0.023 A 
ATOM     80  C   UNL A   1      44.987  34.348  28.893  1.00  0.00     0.031 A 
ATOM     81  C   UNL A   1      45.867  33.139  30.786  1.00  0.00     0.131 A 
ATOM     82  C   UNL A   1      45.670  35.490  29.338  1.00  0.00     0.055 A 
ATOM     83  C   UNL A   1      46.500  34.292  31.253  1.00  0.00     0.041 A 
ATOM     84  F   UNL A   1      46.010  32.013  31.503  1.00  0.00    -0.206 F 
ATOM     85  C   UNL A   1      46.413  35.472  30.521  1.00  0.00     0.022 A 
BRANCH  82  86
ATOM     86  S   UNL A   1      45.641  36.980  28.305  1.00  0.00     0.124 S 
ATOM     87  O   UNL A   1      46.099  36.466  27.018  1.00  0.00    -0.237 OA
ATOM     88  O   UNL A   1      44.239  37.378  28.370  1.00  0.00    -0.237 OA
ATOM     89  O   UNL A   1      46.572  37.883  28.979  1.00  0.00    -0.744 OA
ENDBRANCH  82  86
ENDBRANCH  56  79
ENDBRANCH  30  31
ENDBRANCH  23  25
ENDBRANCH  22  23
ENDBRANCH  21  22
ENDBRANCH   1  21
TORSDOF 18
ENDMDL
MODEL 3
REMARK VINA RESULT:     -11.0      2.643      8.114
REMARK SMILES C[C@@H](CS(=O)(=O)[C@@H]1CCC[C@H](S(C)(=O)=O)C1)C(=O)OCCOC(=O)c1ccc(-c2c3nc(c(-c4cc(S(=O)(=O)[O-])ccc4F)c4ccc([nH]4)c(-c4cc(S(=O)(=O)[O-])ccc4F)c4nc(c(-c5cc(S(=O)(=O)[O-])ccc5F)c5ccc2[nH]5)C=C4)C=C3)cc1
REMARK SMILES IDX 20 1 19 2 17 3 18 4 2 5 1 6 3 7 4 8 5 9 6 10 7 11 8 12 16 13
REMARK SMILES IDX 9 14 11 15 10 16 12 17 13 18 14 19 15 20 21 21 22 22 23 23
REMARK SMILES IDX 24 24 25 25 26 26 87 27 27 28 86 29 28 30 29 31 30 32 80 33
REMARK SMILES IDX 31 34 85 35 79 36 81 37 32 38 84 39 78 40 77 41 33 43 65 44
REMARK SMILES IDX 45 45 64 46 46 47 49 48 63 49 82 50 47 51 48 52 62 54 83 55
REMARK SMILES IDX 50 56 34 57 35 58 43 59 36 60 42 61 44 62 41 63 37 64 38 65
REMARK SMILES IDX 39 66 40 67 66 68 67 69 75 70 68 71 74 72 76 73 73 74 69 75
REMARK SMILES IDX 70 76 71 77 72 78 51 79 52 80 60 81 53 82 59 83 61 84 58 85
REMARK SMILES IDX 54 86 55 87 56 88 57 89
REMARK H PARENT 81 42 49 53
REMARK Flexibility Score: inf
ROOT
ATOM      1  C   UNL A   1      34.932  20.704  25.059  1.00  0.00     0.274 C 
ENDROOT
BRANCH   1   2
ATOM      2  O   UNL A   1      34.590  21.984  24.493  1.00  0.00    -0.462 OA
BRANCH   2   3
ATOM      3  C   UNL A   1      33.317  22.118  24.047  1.00  0.00     0.309 C 
ATOM      4  O   UNL A   1      32.749  21.356  23.276  1.00  0.00    -0.252 OA
BRANCH   3   5
ATOM      5  C   UNL A   1      32.636  23.359  24.595  1.00  0.00     0.111 C 
ATOM      6  C   UNL A   1      33.368  24.041  25.750  1.00  0.00     0.021 C 
BRANCH   5   7
ATOM      7  C   UNL A   1      32.161  24.279  23.477  1.00  0.00     0.152 C 
BRANCH   7   8
ATOM      8  S   UNL A   1      33.389  25.108  22.485  1.00  0.00     0.154 S 
ATOM      9  O   UNL A   1      34.700  24.656  22.909  1.00  0.00    -0.229 OA
ATOM     10  O   UNL A   1      32.987  24.939  21.101  1.00  0.00    -0.229 OA
BRANCH   8  11
ATOM     11  C   UNL A   1      33.271  26.864  22.853  1.00  0.00     0.110 C 
ATOM     12  C   UNL A   1      33.795  27.193  24.253  1.00  0.00     0.020 C 
ATOM     13  C   UNL A   1      31.825  27.348  22.688  1.00  0.00     0.039 C 
ATOM     14  C   UNL A   1      33.682  28.684  24.550  1.00  0.00     0.003 C 
ATOM     15  C   UNL A   1      31.699  28.847  22.988  1.00  0.00     0.109 C 
ATOM     16  C   UNL A   1      32.250  29.181  24.377  1.00  0.00     0.020 C 
BRANCH  15  17
ATOM     17  S   UNL A   1      29.983  29.366  22.794  1.00  0.00     0.150 S 
ATOM     18  C   UNL A   1      29.029  27.910  23.142  1.00  0.00     0.158 C 
ATOM     19  O   UNL A   1      29.691  30.317  23.851  1.00  0.00    -0.229 OA
ATOM     20  O   UNL A   1      29.757  29.711  21.405  1.00  0.00    -0.229 OA
ENDBRANCH  15  17
ENDBRANCH   8  11
ENDBRANCH   7   8
ENDBRANCH   5   7
ENDBRANCH   3   5
ENDBRANCH   2   3
ENDBRANCH   1   2
BRANCH   1  21
ATOM     21  C   UNL A   1      36.434  20.437  24.944  1.00  0.00     0.275 C 
BRANCH  21  22
ATOM     22  O   UNL A   1      37.199  21.416  25.670  1.00  0.00    -0.458 OA
BRANCH  22  23
ATOM     23  C   UNL A   1      38.495  21.083  25.881  1.00  0.00     0.338 C 
ATOM     24  O   UNL A   1      39.052  20.043  25.572  1.00  0.00    -0.246 OA
BRANCH  23  25
ATOM     25  C   UNL A   1      39.214  22.249  26.417  1.00  0.00     0.060 A 
ATOM     26  C   UNL A   1      38.762  23.517  26.051  1.00  0.00     0.016 A 
ATOM     27  C   UNL A   1      40.356  22.104  27.202  1.00  0.00     0.016 A 
ATOM     28  C   UNL A   1      39.454  24.653  26.448  1.00  0.00     0.010 A 
ATOM     29  C   UNL A   1      41.043  23.250  27.621  1.00  0.00     0.010 A 
ATOM     30  C   UNL A   1      40.598  24.530  27.239  1.00  0.00    -0.014 A 
BRANCH  30  31
ATOM     31  C   UNL A   1      41.336  25.751  27.640  1.00  0.00     0.031 A 
ATOM     32  C   UNL A   1      40.643  26.809  28.446  1.00  0.00     0.074 A 
ATOM     33  C   UNL A   1      42.634  25.882  27.306  1.00  0.00     0.049 A 
ATOM     34  N   UNL A   1      41.073  27.991  28.804  1.00  0.00    -0.248 NA
ATOM     35  C   UNL A   1      39.283  26.494  28.911  1.00  0.00     0.031 C 
ATOM     36  C   UNL A   1      43.424  24.881  26.585  1.00  0.00     0.029 A 
ATOM     37  N   UNL A   1      43.516  26.908  27.527  1.00  0.00    -0.354 N 
ATOM     38  C   UNL A   1      40.031  28.574  29.516  1.00  0.00     0.074 A 
ATOM     39  C   UNL A   1      38.944  27.617  29.530  1.00  0.00     0.031 C 
ATOM     40  C   UNL A   1      44.672  25.347  26.418  1.00  0.00     0.029 A 
ATOM     41  C   UNL A   1      44.753  26.698  26.961  1.00  0.00     0.049 A 
ATOM     42  H   UNL A   1      43.287  27.716  28.039  1.00  0.00     0.167 HD
ATOM     43  C   UNL A   1      39.992  29.797  30.098  1.00  0.00     0.034 A 
ATOM     44  C   UNL A   1      45.813  27.523  26.853  1.00  0.00     0.034 A 
ATOM     45  C   UNL A   1      41.090  30.733  30.074  1.00  0.00     0.049 A 
ATOM     46  C   UNL A   1      45.713  28.907  27.438  1.00  0.00     0.074 A 
ATOM     47  C   UNL A   1      41.161  31.997  30.634  1.00  0.00     0.029 A 
ATOM     48  N   UNL A   1      42.312  30.507  29.451  1.00  0.00    -0.354 N 
ATOM     49  N   UNL A   1      44.710  29.462  28.081  1.00  0.00    -0.248 NA
ATOM     50  C   UNL A   1      46.884  29.779  27.279  1.00  0.00     0.031 C 
ATOM     51  C   UNL A   1      42.400  32.557  30.300  1.00  0.00     0.029 A 
ATOM     52  C   UNL A   1      43.129  31.618  29.587  1.00  0.00     0.049 A 
ATOM     53  H   UNL A   1      42.560  29.679  28.981  1.00  0.00     0.167 HD
ATOM     54  C   UNL A   1      45.138  30.744  28.416  1.00  0.00     0.074 A 
ATOM     55  C   UNL A   1      46.495  30.871  27.923  1.00  0.00     0.031 C 
ATOM     56  C   UNL A   1      44.473  31.728  29.071  1.00  0.00     0.034 A 
BRANCH  43  57
ATOM     57  C   UNL A   1      38.697  30.214  30.746  1.00  0.00     0.023 A 
ATOM     58  C   UNL A   1      37.703  30.915  30.043  1.00  0.00     0.031 A 
ATOM     59  C   UNL A   1      38.463  29.917  32.101  1.00  0.00     0.131 A 
ATOM     60  C   UNL A   1      36.546  31.347  30.712  1.00  0.00     0.055 A 
ATOM     61  C   UNL A   1      37.282  30.291  32.744  1.00  0.00     0.041 A 
ATOM     62  F   UNL A   1      39.388  29.269  32.827  1.00  0.00    -0.206 F 
ATOM     63  C   UNL A   1      36.319  31.019  32.051  1.00  0.00     0.022 A 
BRANCH  60  64
ATOM     64  S   UNL A   1      35.391  32.438  29.839  1.00  0.00     0.124 S 
ATOM     65  O   UNL A   1      35.065  31.640  28.658  1.00  0.00    -0.237 OA
ATOM     66  O   UNL A   1      34.317  32.606  30.811  1.00  0.00    -0.237 OA
ATOM     67  O   UNL A   1      36.183  33.637  29.573  1.00  0.00    -0.744 OA
ENDBRANCH  60  64
ENDBRANCH  43  57
BRANCH  44  68
ATOM     68  C   UNL A   1      47.029  27.098  26.102  1.00  0.00     0.023 A 
ATOM     69  C   UNL A   1      48.092  26.448  26.747  1.00  0.00     0.031 A 
ATOM     70  C   UNL A   1      47.166  27.389  24.732  1.00  0.00     0.131 A 
ATOM     71  C   UNL A   1      49.264  26.151  26.034  1.00  0.00     0.055 A 
ATOM     72  C   UNL A   1      48.312  27.044  24.015  1.00  0.00     0.041 A 
ATOM     73  F   UNL A   1      46.180  28.012  24.069  1.00  0.00    -0.206 F 
ATOM     74  C   UNL A   1      49.375  26.433  24.669  1.00  0.00     0.022 A 
BRANCH  71  75
ATOM     75  S   UNL A   1      50.683  25.474  26.938  1.00  0.00     0.124 S 
ATOM     76  O   UNL A   1      51.601  25.148  25.853  1.00  0.00    -0.237 OA
ATOM     77  O   UNL A   1      51.065  26.599  27.785  1.00  0.00    -0.237 OA
ATOM     78  O   UNL A   1      50.119  24.326  27.645  1.00  0.00    -0.744 OA
ENDBRANCH  71  75
ENDBRANCH  44  68
BRANCH  56  79
ATOM     79  C   UNL A   1      45.229  33.009  29.314  1.00  0.00     0.023 A 
ATOM     80  C   UNL A   1      45.260  34.037  28.356  1.00  0.00     0.031 A 
ATOM     81  C   UNL A   1      45.949  33.190  30.507  1.00  0.00     0.131 A 
ATOM     82  C   UNL A   1      46.041  35.179  28.584  1.00  0.00     0.055 A 
ATOM     83  C   UNL A   1      46.680  34.352  30.752  1.00  0.00     0.041 A 
ATOM     84  F   UNL A   1      45.953  32.237  31.454  1.00  0.00    -0.206 F 
ATOM     85  C   UNL A   1      46.739  35.349  29.783  1.00  0.00     0.022 A 
BRANCH  82  86
ATOM     86  S   UNL A   1      46.197  36.407  27.259  1.00  0.00     0.124 S 
ATOM     87  O   UNL A   1      47.544  36.923  27.481  1.00  0.00    -0.237 OA
ATOM     88  O   UNL A   1      46.015  35.597  26.059  1.00  0.00    -0.237 OA
ATOM     89  O   UNL A   1      45.117  37.352  27.537  1.00  0.00    -0.744 OA
ENDBRANCH  82  86
ENDBRANCH  56  79
ENDBRANCH  30  31
ENDBRANCH  23  25
ENDBRANCH  22  23
ENDBRANCH  21  22
ENDBRANCH   1  21
TORSDOF 18
ENDMDL
