MODEL 1
REMARK VINA RESULT:     -12.5      0.000      0.000
REMARK SMILES Cc1nn(C)c(=O)c(C(=O)N2CCCC[C@H]2C(=O)OCCOC(=O)c2ccc(-c3c4nc(c(-c5cc(S(=O)(=O)[O-])ccc5F)c5ccc([nH]5)c(-c5cc(S(=O)(=O)[O-])ccc5F)c5nc(c(-c6cc(S(=O)(=O)[O-])ccc6F)c6ccc3[nH]6)C=C5)C=C4)cc2)c1C
REMARK SMILES IDX 21 1 20 2 19 3 17 4 18 5 16 6 11 7 12 8 13 9 15 10 14 11
REMARK SMILES IDX 9 12 10 13 8 14 1 15 2 16 3 17 88 18 4 19 89 20 5 21 6 22
REMARK SMILES IDX 7 23 22 24 23 25 24 26 25 27 26 28 87 29 27 30 86 31 28 32
REMARK SMILES IDX 29 33 30 34 80 35 31 36 85 37 79 38 81 39 32 40 84 41 78 42
REMARK SMILES IDX 77 43 33 45 65 46 45 47 64 48 46 49 49 50 63 51 82 52 47 53
REMARK SMILES IDX 48 54 62 56 83 57 50 58 34 59 35 60 43 61 36 62 42 63 44 64
REMARK SMILES IDX 41 65 37 66 38 67 39 68 40 69 66 70 67 71 75 72 68 73 74 74
REMARK SMILES IDX 76 75 73 76 69 77 70 78 71 79 72 80 51 81 52 82 60 83 53 84
REMARK SMILES IDX 59 85 61 86 58 87 54 88 55 89 56 90 57 91
REMARK H PARENT 81 44 49 55
REMARK Flexibility Score: inf
ROOT
ATOM      1  C   UNL A   1      31.738  30.127  25.393  1.00  0.00     0.275 C 
ENDROOT
BRANCH   1   2
ATOM      2  C   UNL A   1      31.307  28.685  25.102  1.00  0.00     0.274 C 
BRANCH   2   3
ATOM      3  O   UNL A   1      31.880  27.821  26.108  1.00  0.00    -0.461 OA
BRANCH   3   4
ATOM      4  C   UNL A   1      31.470  26.530  26.191  1.00  0.00     0.328 C 
ATOM      5  O   UNL A   1      30.291  26.210  26.261  1.00  0.00    -0.250 OA
BRANCH   4   6
ATOM      6  C   UNL A   1      32.699  25.565  26.317  1.00  0.00     0.195 C 
ATOM      7  N   UNL A   1      32.410  24.227  25.749  1.00  0.00    -0.325 N 
ATOM      8  C   UNL A   1      32.073  24.258  24.318  1.00  0.00     0.121 C 
ATOM      9  C   UNL A   1      33.208  24.852  23.485  1.00  0.00     0.022 C 
ATOM     10  C   UNL A   1      33.936  26.104  25.559  1.00  0.00     0.037 C 
ATOM     11  C   UNL A   1      33.721  26.178  24.042  1.00  0.00     0.005 C 
BRANCH   7  12
ATOM     12  C   UNL A   1      32.800  22.999  26.281  1.00  0.00     0.260 C 
ATOM     13  O   UNL A   1      32.548  22.745  27.465  1.00  0.00    -0.269 OA
BRANCH  12  14
ATOM     14  C   UNL A   1      33.638  21.979  25.539  1.00  0.00     0.111 A 
ATOM     15  C   UNL A   1      37.169  20.809  24.724  1.00  0.00     0.069 C 
ATOM     16  C   UNL A   1      35.681  20.769  25.011  1.00  0.00     0.062 A 
ATOM     17  N   UNL A   1      35.112  19.618  24.884  1.00  0.00    -0.175 NA
ATOM     18  C   UNL A   1      34.986  22.011  25.471  1.00  0.00    -0.010 A 
ATOM     19  N   UNL A   1      33.761  19.563  25.047  1.00  0.00    -0.232 N 
ATOM     20  C   UNL A   1      35.897  23.090  25.934  1.00  0.00     0.047 C 
ATOM     21  C   UNL A   1      33.190  18.230  24.959  1.00  0.00     0.178 C 
ATOM     22  C   UNL A   1      32.949  20.690  25.162  1.00  0.00     0.279 A 
ATOM     23  O   UNL A   1      31.732  20.642  24.996  1.00  0.00    -0.267 OA
ENDBRANCH  12  14
ENDBRANCH   7  12
ENDBRANCH   4   6
ENDBRANCH   3   4
ENDBRANCH   2   3
ENDBRANCH   1   2
BRANCH   1  24
ATOM     24  O   UNL A   1      33.003  30.124  26.076  1.00  0.00    -0.458 OA
BRANCH  24  25
ATOM     25  C   UNL A   1      33.217  31.202  26.867  1.00  0.00     0.338 C 
ATOM     26  O   UNL A   1      32.414  32.063  27.181  1.00  0.00    -0.246 OA
BRANCH  25  27
ATOM     27  C   UNL A   1      34.506  31.013  27.546  1.00  0.00     0.060 A 
ATOM     28  C   UNL A   1      34.836  29.704  27.889  1.00  0.00     0.016 A 
ATOM     29  C   UNL A   1      35.365  32.062  27.853  1.00  0.00     0.016 A 
ATOM     30  C   UNL A   1      36.001  29.420  28.581  1.00  0.00     0.010 A 
ATOM     31  C   UNL A   1      36.558  31.778  28.527  1.00  0.00     0.010 A 
ATOM     32  C   UNL A   1      36.875  30.458  28.903  1.00  0.00    -0.014 A 
BRANCH  32  33
ATOM     33  C   UNL A   1      38.089  30.158  29.694  1.00  0.00     0.031 A 
ATOM     34  C   UNL A   1      39.166  29.313  29.087  1.00  0.00     0.074 A 
ATOM     35  C   UNL A   1      38.253  30.702  30.914  1.00  0.00     0.049 A 
ATOM     36  N   UNL A   1      40.218  28.783  29.649  1.00  0.00    -0.248 NA
ATOM     37  C   UNL A   1      39.039  29.030  27.649  1.00  0.00     0.031 C 
ATOM     38  C   UNL A   1      37.333  31.650  31.550  1.00  0.00     0.029 A 
ATOM     39  N   UNL A   1      39.260  30.550  31.832  1.00  0.00    -0.354 N 
ATOM     40  C   UNL A   1      40.863  28.071  28.645  1.00  0.00     0.074 A 
ATOM     41  C   UNL A   1      40.079  28.237  27.439  1.00  0.00     0.031 C 
ATOM     42  C   UNL A   1      37.833  32.011  32.742  1.00  0.00     0.029 A 
ATOM     43  C   UNL A   1      39.057  31.258  32.992  1.00  0.00     0.049 A 
ATOM     44  H   UNL A   1      40.053  29.988  31.674  1.00  0.00     0.167 HD
ATOM     45  C   UNL A   1      41.999  27.338  28.734  1.00  0.00     0.034 A 
ATOM     46  C   UNL A   1      39.753  31.260  34.145  1.00  0.00     0.034 A 
ATOM     47  C   UNL A   1      42.759  27.200  29.952  1.00  0.00     0.049 A 
ATOM     48  C   UNL A   1      40.949  30.355  34.262  1.00  0.00     0.074 A 
ATOM     49  C   UNL A   1      43.885  26.432  30.188  1.00  0.00     0.029 A 
ATOM     50  N   UNL A   1      42.472  27.860  31.142  1.00  0.00    -0.354 N 
ATOM     51  N   UNL A   1      41.469  29.557  33.358  1.00  0.00    -0.248 NA
ATOM     52  C   UNL A   1      41.635  30.327  35.559  1.00  0.00     0.031 C 
ATOM     53  C   UNL A   1      44.247  26.588  31.532  1.00  0.00     0.029 A 
ATOM     54  C   UNL A   1      43.389  27.505  32.119  1.00  0.00     0.049 A 
ATOM     55  H   UNL A   1      41.726  28.488  31.272  1.00  0.00     0.167 HD
ATOM     56  C   UNL A   1      42.551  28.939  33.973  1.00  0.00     0.074 A 
ATOM     57  C   UNL A   1      42.612  29.463  35.324  1.00  0.00     0.031 C 
ATOM     58  C   UNL A   1      43.416  28.025  33.466  1.00  0.00     0.034 A 
BRANCH  45  59
ATOM     59  C   UNL A   1      42.419  26.570  27.509  1.00  0.00     0.023 A 
ATOM     60  C   UNL A   1      42.058  25.226  27.311  1.00  0.00     0.031 A 
ATOM     61  C   UNL A   1      43.239  27.183  26.545  1.00  0.00     0.131 A 
ATOM     62  C   UNL A   1      42.570  24.522  26.208  1.00  0.00     0.055 A 
ATOM     63  C   UNL A   1      43.686  26.498  25.414  1.00  0.00     0.041 A 
ATOM     64  F   UNL A   1      43.638  28.456  26.698  1.00  0.00    -0.206 F 
ATOM     65  C   UNL A   1      43.362  25.155  25.247  1.00  0.00     0.022 A 
BRANCH  62  66
ATOM     66  S   UNL A   1      42.290  22.733  26.110  1.00  0.00     0.124 S 
ATOM     67  O   UNL A   1      43.044  22.254  27.266  1.00  0.00    -0.237 OA
ATOM     68  O   UNL A   1      40.839  22.633  26.208  1.00  0.00    -0.237 OA
ATOM     69  O   UNL A   1      42.854  22.368  24.812  1.00  0.00    -0.744 OA
ENDBRANCH  62  66
ENDBRANCH  45  59
BRANCH  46  70
ATOM     70  C   UNL A   1      39.287  32.088  35.291  1.00  0.00     0.023 A 
ATOM     71  C   UNL A   1      38.526  31.531  36.329  1.00  0.00     0.031 A 
ATOM     72  C   UNL A   1      39.629  33.451  35.376  1.00  0.00     0.131 A 
ATOM     73  C   UNL A   1      38.128  32.335  37.409  1.00  0.00     0.055 A 
ATOM     74  C   UNL A   1      39.262  34.236  36.469  1.00  0.00     0.041 A 
ATOM     75  F   UNL A   1      40.361  34.027  34.409  1.00  0.00    -0.206 F 
ATOM     76  C   UNL A   1      38.504  33.678  37.493  1.00  0.00     0.022 A 
BRANCH  73  77
ATOM     77  S   UNL A   1      37.105  31.602  38.716  1.00  0.00     0.124 S 
ATOM     78  O   UNL A   1      35.910  32.437  38.661  1.00  0.00    -0.237 OA
ATOM     79  O   UNL A   1      36.950  30.228  38.251  1.00  0.00    -0.237 OA
ATOM     80  O   UNL A   1      37.923  31.760  39.916  1.00  0.00    -0.744 OA
ENDBRANCH  73  77
ENDBRANCH  46  70
BRANCH  58  81
ATOM     81  C   UNL A   1      44.525  27.560  34.372  1.00  0.00     0.023 A 
ATOM     82  C   UNL A   1      44.409  26.386  35.135  1.00  0.00     0.031 A 
ATOM     83  C   UNL A   1      45.721  28.295  34.453  1.00  0.00     0.131 A 
ATOM     84  C   UNL A   1      45.461  25.998  35.976  1.00  0.00     0.055 A 
ATOM     85  C   UNL A   1      46.783  27.878  35.255  1.00  0.00     0.041 A 
ATOM     86  F   UNL A   1      45.878  29.422  33.742  1.00  0.00    -0.206 F 
ATOM     87  C   UNL A   1      46.653  26.727  36.029  1.00  0.00     0.022 A 
BRANCH  84  88
ATOM     88  S   UNL A   1      45.236  24.549  37.043  1.00  0.00     0.124 S 
ATOM     89  O   UNL A   1      44.366  25.078  38.089  1.00  0.00    -0.237 OA
ATOM     90  O   UNL A   1      44.627  23.581  36.136  1.00  0.00    -0.237 OA
ATOM     91  O   UNL A   1      46.595  24.225  37.473  1.00  0.00    -0.744 OA
ENDBRANCH  84  88
ENDBRANCH  58  81
ENDBRANCH  32  33
ENDBRANCH  25  27
ENDBRANCH  24  25
ENDBRANCH   1  24
TORSDOF 16
ENDMDL
MODEL 2
REMARK VINA RESULT:     -12.4      5.083     10.164
REMARK SMILES Cc1nn(C)c(=O)c(C(=O)N2CCCC[C@H]2C(=O)OCCOC(=O)c2ccc(-c3c4nc(c(-c5cc(S(=O)(=O)[O-])ccc5F)c5ccc([nH]5)c(-c5cc(S(=O)(=O)[O-])ccc5F)c5nc(c(-c6cc(S(=O)(=O)[O-])ccc6F)c6ccc3[nH]6)C=C5)C=C4)cc2)c1C
REMARK SMILES IDX 21 1 20 2 19 3 17 4 18 5 16 6 11 7 12 8 13 9 15 10 14 11
REMARK SMILES IDX 9 12 10 13 8 14 1 15 2 16 3 17 88 18 4 19 89 20 5 21 6 22
REMARK SMILES IDX 7 23 22 24 23 25 24 26 25 27 26 28 87 29 27 30 86 31 28 32
REMARK SMILES IDX 29 33 30 34 80 35 31 36 85 37 79 38 81 39 32 40 84 41 78 42
REMARK SMILES IDX 77 43 33 45 65 46 45 47 64 48 46 49 49 50 63 51 82 52 47 53
REMARK SMILES IDX 48 54 62 56 83 57 50 58 34 59 35 60 43 61 36 62 42 63 44 64
REMARK SMILES IDX 41 65 37 66 38 67 39 68 40 69 66 70 67 71 75 72 68 73 74 74
REMARK SMILES IDX 76 75 73 76 69 77 70 78 71 79 72 80 51 81 52 82 60 83 53 84
REMARK SMILES IDX 59 85 61 86 58 87 54 88 55 89 56 90 57 91
REMARK H PARENT 81 44 49 55
REMARK Flexibility Score: inf
ROOT
ATOM      1  C   UNL A   1      36.354  20.795  24.991  1.00  0.00     0.275 C 
ENDROOT
BRANCH   1   2
ATOM      2  C   UNL A   1      34.926  21.340  24.880  1.00  0.00     0.274 C 
BRANCH   2   3
ATOM      3  O   UNL A   1      34.967  22.776  25.029  1.00  0.00    -0.461 OA
BRANCH   3   4
ATOM      4  C   UNL A   1      34.758  23.566  23.944  1.00  0.00     0.328 C 
ATOM      5  O   UNL A   1      35.225  23.318  22.841  1.00  0.00    -0.250 OA
BRANCH   4   6
ATOM      6  C   UNL A   1      33.971  24.861  24.346  1.00  0.00     0.195 C 
ATOM      7  N   UNL A   1      33.238  25.440  23.196  1.00  0.00    -0.325 N 
ATOM      8  C   UNL A   1      32.237  24.529  22.622  1.00  0.00     0.121 C 
ATOM      9  C   UNL A   1      31.185  24.125  23.654  1.00  0.00     0.022 C 
ATOM     10  C   UNL A   1      32.916  24.579  25.442  1.00  0.00     0.037 C 
ATOM     11  C   UNL A   1      31.798  23.642  24.967  1.00  0.00     0.005 C 
BRANCH   7  12
ATOM     12  C   UNL A   1      33.111  26.794  22.890  1.00  0.00     0.260 C 
ATOM     13  O   UNL A   1      33.872  27.300  22.057  1.00  0.00    -0.269 OA
BRANCH  12  14
ATOM     14  C   UNL A   1      32.174  27.743  23.608  1.00  0.00     0.111 A 
ATOM     15  C   UNL A   1      31.811  30.243  26.458  1.00  0.00     0.069 C 
ATOM     16  C   UNL A   1      31.614  29.570  25.113  1.00  0.00     0.062 A 
ATOM     17  N   UNL A   1      30.704  30.080  24.354  1.00  0.00    -0.175 NA
ATOM     18  C   UNL A   1      32.498  28.427  24.726  1.00  0.00    -0.010 A 
ATOM     19  N   UNL A   1      30.440  29.447  23.177  1.00  0.00    -0.232 N 
ATOM     20  C   UNL A   1      33.718  28.282  25.563  1.00  0.00     0.047 C 
ATOM     21  C   UNL A   1      29.456  30.107  22.337  1.00  0.00     0.178 C 
ATOM     22  C   UNL A   1      30.959  28.199  22.836  1.00  0.00     0.279 A 
ATOM     23  O   UNL A   1      30.479  27.511  21.937  1.00  0.00    -0.267 OA
ENDBRANCH  12  14
ENDBRANCH   7  12
ENDBRANCH   4   6
ENDBRANCH   3   4
ENDBRANCH   2   3
ENDBRANCH   1   2
BRANCH   1  24
ATOM     24  O   UNL A   1      37.172  21.731  25.714  1.00  0.00    -0.458 OA
BRANCH  24  25
ATOM     25  C   UNL A   1      38.440  21.311  25.939  1.00  0.00     0.338 C 
ATOM     26  O   UNL A   1      38.960  20.281  25.551  1.00  0.00    -0.246 OA
BRANCH  25  27
ATOM     27  C   UNL A   1      39.200  22.447  26.479  1.00  0.00     0.060 A 
ATOM     28  C   UNL A   1      38.757  23.716  26.112  1.00  0.00     0.016 A 
ATOM     29  C   UNL A   1      40.309  22.296  27.303  1.00  0.00     0.016 A 
ATOM     30  C   UNL A   1      39.434  24.853  26.519  1.00  0.00     0.010 A 
ATOM     31  C   UNL A   1      40.981  23.443  27.742  1.00  0.00     0.010 A 
ATOM     32  C   UNL A   1      40.552  24.724  27.343  1.00  0.00    -0.014 A 
BRANCH  32  33
ATOM     33  C   UNL A   1      41.307  25.938  27.726  1.00  0.00     0.031 A 
ATOM     34  C   UNL A   1      40.637  26.979  28.568  1.00  0.00     0.074 A 
ATOM     35  C   UNL A   1      42.603  26.065  27.385  1.00  0.00     0.049 A 
ATOM     36  N   UNL A   1      41.038  28.185  28.870  1.00  0.00    -0.248 NA
ATOM     37  C   UNL A   1      39.337  26.609  29.150  1.00  0.00     0.031 C 
ATOM     38  C   UNL A   1      43.397  25.053  26.683  1.00  0.00     0.029 A 
ATOM     39  N   UNL A   1      43.485  27.093  27.596  1.00  0.00    -0.354 N 
ATOM     40  C   UNL A   1      40.026  28.734  29.647  1.00  0.00     0.074 A 
ATOM     41  C   UNL A   1      38.991  27.728  29.767  1.00  0.00     0.031 C 
ATOM     42  C   UNL A   1      44.655  25.502  26.546  1.00  0.00     0.029 A 
ATOM     43  C   UNL A   1      44.733  26.862  27.068  1.00  0.00     0.049 A 
ATOM     44  H   UNL A   1      43.248  27.916  28.081  1.00  0.00     0.167 HD
ATOM     45  C   UNL A   1      39.970  29.971  30.197  1.00  0.00     0.034 A 
ATOM     46  C   UNL A   1      45.802  27.676  26.971  1.00  0.00     0.034 A 
ATOM     47  C   UNL A   1      41.024  30.946  30.064  1.00  0.00     0.049 A 
ATOM     48  C   UNL A   1      45.682  29.083  27.489  1.00  0.00     0.074 A 
ATOM     49  C   UNL A   1      41.056  32.254  30.513  1.00  0.00     0.029 A 
ATOM     50  N   UNL A   1      42.244  30.711  29.438  1.00  0.00    -0.354 N 
ATOM     51  N   UNL A   1      44.663  29.655  28.086  1.00  0.00    -0.248 NA
ATOM     52  C   UNL A   1      46.842  29.961  27.295  1.00  0.00     0.031 C 
ATOM     53  C   UNL A   1      42.271  32.824  30.115  1.00  0.00     0.029 A 
ATOM     54  C   UNL A   1      43.027  31.853  29.475  1.00  0.00     0.049 A 
ATOM     55  H   UNL A   1      42.511  29.858  29.028  1.00  0.00     0.167 HD
ATOM     56  C   UNL A   1      45.061  30.960  28.350  1.00  0.00     0.074 A 
ATOM     57  C   UNL A   1      46.418  31.087  27.853  1.00  0.00     0.031 C 
ATOM     58  C   UNL A   1      44.370  31.961  28.953  1.00  0.00     0.034 A 
BRANCH  45  59
ATOM     59  C   UNL A   1      38.695  30.351  30.904  1.00  0.00     0.023 A 
ATOM     60  C   UNL A   1      37.639  31.000  30.240  1.00  0.00     0.031 A 
ATOM     61  C   UNL A   1      38.557  30.104  32.281  1.00  0.00     0.131 A 
ATOM     62  C   UNL A   1      36.520  31.435  30.970  1.00  0.00     0.055 A 
ATOM     63  C   UNL A   1      37.411  30.475  32.986  1.00  0.00     0.041 A 
ATOM     64  F   UNL A   1      39.547  29.514  32.971  1.00  0.00    -0.206 F 
ATOM     65  C   UNL A   1      36.389  31.156  32.332  1.00  0.00     0.022 A 
BRANCH  62  66
ATOM     66  S   UNL A   1      35.292  32.480  30.140  1.00  0.00     0.124 S 
ATOM     67  O   UNL A   1      34.345  32.736  31.223  1.00  0.00    -0.237 OA
ATOM     68  O   UNL A   1      36.089  33.621  29.705  1.00  0.00    -0.237 OA
ATOM     69  O   UNL A   1      34.785  31.628  29.066  1.00  0.00    -0.744 OA
ENDBRANCH  62  66
ENDBRANCH  45  59
BRANCH  46  70
ATOM     70  C   UNL A   1      47.038  27.196  26.294  1.00  0.00     0.023 A 
ATOM     71  C   UNL A   1      48.067  26.573  27.015  1.00  0.00     0.031 A 
ATOM     72  C   UNL A   1      47.188  27.327  24.900  1.00  0.00     0.131 A 
ATOM     73  C   UNL A   1      49.206  26.106  26.339  1.00  0.00     0.055 A 
ATOM     74  C   UNL A   1      48.306  26.829  24.229  1.00  0.00     0.041 A 
ATOM     75  F   UNL A   1      46.228  27.910  24.166  1.00  0.00    -0.206 F 
ATOM     76  C   UNL A   1      49.324  26.215  24.951  1.00  0.00     0.022 A 
BRANCH  73  77
ATOM     77  S   UNL A   1      50.544  25.347  27.301  1.00  0.00     0.124 S 
ATOM     78  O   UNL A   1      51.493  24.984  26.254  1.00  0.00    -0.237 OA
ATOM     79  O   UNL A   1      50.947  26.437  28.183  1.00  0.00    -0.237 OA
ATOM     80  O   UNL A   1      49.889  24.223  27.967  1.00  0.00    -0.744 OA
ENDBRANCH  73  77
ENDBRANCH  46  70
BRANCH  58  81
ATOM     81  C   UNL A   1      45.087  33.272  29.134  1.00  0.00     0.023 A 
ATOM     82  C   UNL A   1      45.096  34.252  28.129  1.00  0.00     0.031 A 
ATOM     83  C   UNL A   1      45.753  33.547  30.342  1.00  0.00     0.131 A 
ATOM     84  C   UNL A   1      45.789  35.453  28.336  1.00  0.00     0.055 A 
ATOM     85  C   UNL A   1      46.400  34.763  30.560  1.00  0.00     0.041 A 
ATOM     86  F   UNL A   1      45.771  32.641  31.333  1.00  0.00    -0.206 F 
ATOM     87  C   UNL A   1      46.427  35.721  29.551  1.00  0.00     0.022 A 
BRANCH  84  88
ATOM     88  S   UNL A   1      45.890  36.648  26.975  1.00  0.00     0.124 S 
ATOM     89  O   UNL A   1      46.206  35.787  25.841  1.00  0.00    -0.237 OA
ATOM     90  O   UNL A   1      44.555  37.239  26.975  1.00  0.00    -0.237 OA
ATOM     91  O   UNL A   1      46.965  37.548  27.388  1.00  0.00    -0.744 OA
ENDBRANCH  84  88
ENDBRANCH  58  81
ENDBRANCH  32  33
ENDBRANCH  25  27
ENDBRANCH  24  25
ENDBRANCH   1  24
TORSDOF 16
ENDMDL
MODEL 3
REMARK VINA RESULT:     -12.1      1.120      1.701
REMARK SMILES Cc1nn(C)c(=O)c(C(=O)N2CCCC[C@H]2C(=O)OCCOC(=O)c2ccc(-c3c4nc(c(-c5cc(S(=O)(=O)[O-])ccc5F)c5ccc([nH]5)c(-c5cc(S(=O)(=O)[O-])ccc5F)c5nc(c(-c6cc(S(=O)(=O)[O-])ccc6F)c6ccc3[nH]6)C=C5)C=C4)cc2)c1C
REMARK SMILES IDX 21 1 20 2 19 3 17 4 18 5 16 6 11 7 12 8 13 9 15 10 14 11
REMARK SMILES IDX 9 12 10 13 8 14 1 15 2 16 3 17 88 18 4 19 89 20 5 21 6 22
REMARK SMILES IDX 7 23 22 24 23 25 24 26 25 27 26 28 87 29 27 30 86 31 28 32
REMARK SMILES IDX 29 33 30 34 80 35 31 36 85 37 79 38 81 39 32 40 84 41 78 42
REMARK SMILES IDX 77 43 33 45 65 46 45 47 64 48 46 49 49 50 63 51 82 52 47 53
REMARK SMILES IDX 48 54 62 56 83 57 50 58 34 59 35 60 43 61 36 62 42 63 44 64
REMARK SMILES IDX 41 65 37 66 38 67 39 68 40 69 66 70 67 71 75 72 68 73 74 74
REMARK SMILES IDX 76 75 73 76 69 77 70 78 71 79 72 80 51 81 52 82 60 83 53 84
REMARK SMILES IDX 59 85 61 86 58 87 54 88 55 89 56 90 57 91
REMARK H PARENT 81 44 49 55
REMARK Flexibility Score: inf
ROOT
ATOM      1  C   UNL A   1      31.906  30.112  26.358  1.00  0.00     0.275 C 
ENDROOT
BRANCH   1   2
ATOM      2  C   UNL A   1      31.709  28.710  26.943  1.00  0.00     0.274 C 
BRANCH   2   3
ATOM      3  O   UNL A   1      32.828  27.885  26.550  1.00  0.00    -0.461 OA
BRANCH   3   4
ATOM      4  C   UNL A   1      32.601  26.627  26.091  1.00  0.00     0.328 C 
ATOM      5  O   UNL A   1      31.849  25.841  26.650  1.00  0.00    -0.250 OA
BRANCH   4   6
ATOM      6  C   UNL A   1      33.522  26.312  24.862  1.00  0.00     0.195 C 
ATOM      7  N   UNL A   1      33.061  25.115  24.120  1.00  0.00    -0.325 N 
ATOM      8  C   UNL A   1      31.702  25.252  23.574  1.00  0.00     0.121 C 
ATOM      9  C   UNL A   1      31.600  26.433  22.609  1.00  0.00     0.022 C 
ATOM     10  C   UNL A   1      33.545  27.477  23.844  1.00  0.00     0.037 C 
ATOM     11  C   UNL A   1      32.181  27.722  23.186  1.00  0.00     0.005 C 
BRANCH   7  12
ATOM     12  C   UNL A   1      33.866  24.118  23.570  1.00  0.00     0.260 C 
ATOM     13  O   UNL A   1      34.209  24.203  22.385  1.00  0.00    -0.269 OA
BRANCH  12  14
ATOM     14  C   UNL A   1      34.257  22.847  24.294  1.00  0.00     0.111 A 
ATOM     15  C   UNL A   1      33.485  19.151  24.792  1.00  0.00     0.069 C 
ATOM     16  C   UNL A   1      34.267  20.446  24.683  1.00  0.00     0.062 A 
ATOM     17  N   UNL A   1      35.523  20.374  24.970  1.00  0.00    -0.175 NA
ATOM     18  C   UNL A   1      33.578  21.684  24.204  1.00  0.00    -0.010 A 
ATOM     19  N   UNL A   1      36.236  21.534  24.968  1.00  0.00    -0.232 N 
ATOM     20  C   UNL A   1      32.264  21.443  23.550  1.00  0.00     0.047 C 
ATOM     21  C   UNL A   1      37.656  21.377  25.232  1.00  0.00     0.178 C 
ATOM     22  C   UNL A   1      35.658  22.797  24.854  1.00  0.00     0.279 A 
ATOM     23  O   UNL A   1      36.259  23.825  25.162  1.00  0.00    -0.267 OA
ENDBRANCH  12  14
ENDBRANCH   7  12
ENDBRANCH   4   6
ENDBRANCH   3   4
ENDBRANCH   2   3
ENDBRANCH   1   2
BRANCH   1  24
ATOM     24  O   UNL A   1      33.304  30.451  26.378  1.00  0.00    -0.458 OA
BRANCH  24  25
ATOM     25  C   UNL A   1      33.615  31.506  27.169  1.00  0.00     0.338 C 
ATOM     26  O   UNL A   1      32.880  32.413  27.518  1.00  0.00    -0.246 OA
BRANCH  25  27
ATOM     27  C   UNL A   1      34.912  31.227  27.800  1.00  0.00     0.060 A 
ATOM     28  C   UNL A   1      35.100  29.933  28.279  1.00  0.00     0.016 A 
ATOM     29  C   UNL A   1      35.912  32.184  27.935  1.00  0.00     0.016 A 
ATOM     30  C   UNL A   1      36.264  29.580  28.940  1.00  0.00     0.010 A 
ATOM     31  C   UNL A   1      37.103  31.824  28.577  1.00  0.00     0.010 A 
ATOM     32  C   UNL A   1      37.278  30.525  29.091  1.00  0.00    -0.014 A 
BRANCH  32  33
ATOM     33  C   UNL A   1      38.495  30.160  29.850  1.00  0.00     0.031 A 
ATOM     34  C   UNL A   1      39.513  29.266  29.211  1.00  0.00     0.074 A 
ATOM     35  C   UNL A   1      38.716  30.686  31.069  1.00  0.00     0.049 A 
ATOM     36  N   UNL A   1      40.551  28.680  29.744  1.00  0.00    -0.248 NA
ATOM     37  C   UNL A   1      39.337  28.999  27.775  1.00  0.00     0.031 C 
ATOM     38  C   UNL A   1      37.860  31.674  31.732  1.00  0.00     0.029 A 
ATOM     39  N   UNL A   1      39.737  30.479  31.960  1.00  0.00    -0.354 N 
ATOM     40  C   UNL A   1      41.134  27.944  28.721  1.00  0.00     0.074 A 
ATOM     41  C   UNL A   1      40.330  28.157  27.535  1.00  0.00     0.031 C 
ATOM     42  C   UNL A   1      38.407  32.003  32.913  1.00  0.00     0.029 A 
ATOM     43  C   UNL A   1      39.598  31.189  33.128  1.00  0.00     0.049 A 
ATOM     44  H   UNL A   1      40.496  29.879  31.779  1.00  0.00     0.167 HD
ATOM     45  C   UNL A   1      42.235  27.155  28.777  1.00  0.00     0.034 A 
ATOM     46  C   UNL A   1      40.322  31.148  34.264  1.00  0.00     0.034 A 
ATOM     47  C   UNL A   1      43.017  26.972  29.975  1.00  0.00     0.049 A 
ATOM     48  C   UNL A   1      41.474  30.184  34.345  1.00  0.00     0.074 A 
ATOM     49  C   UNL A   1      44.109  26.147  30.178  1.00  0.00     0.029 A 
ATOM     50  N   UNL A   1      42.793  27.637  31.175  1.00  0.00    -0.354 N 
ATOM     51  N   UNL A   1      41.930  29.367  33.424  1.00  0.00    -0.248 NA
ATOM     52  C   UNL A   1      42.189  30.114  35.625  1.00  0.00     0.031 C 
ATOM     53  C   UNL A   1      44.511  26.276  31.513  1.00  0.00     0.029 A 
ATOM     54  C   UNL A   1      43.714  27.230  32.127  1.00  0.00     0.049 A 
ATOM     55  H   UNL A   1      42.083  28.301  31.327  1.00  0.00     0.167 HD
ATOM     56  C   UNL A   1      42.995  28.692  34.009  1.00  0.00     0.074 A 
ATOM     57  C   UNL A   1      43.116  29.204  35.361  1.00  0.00     0.031 C 
ATOM     58  C   UNL A   1      43.802  27.740  33.476  1.00  0.00     0.034 A 
BRANCH  45  59
ATOM     59  C   UNL A   1      42.585  26.375  27.537  1.00  0.00     0.023 A 
ATOM     60  C   UNL A   1      42.184  25.040  27.358  1.00  0.00     0.031 A 
ATOM     61  C   UNL A   1      43.380  26.966  26.539  1.00  0.00     0.131 A 
ATOM     62  C   UNL A   1      42.633  24.322  26.237  1.00  0.00     0.055 A 
ATOM     63  C   UNL A   1      43.764  26.269  25.393  1.00  0.00     0.041 A 
ATOM     64  F   UNL A   1      43.816  28.230  26.673  1.00  0.00    -0.206 F 
ATOM     65  C   UNL A   1      43.400  24.935  25.243  1.00  0.00     0.022 A 
BRANCH  62  66
ATOM     66  S   UNL A   1      42.306  22.540  26.155  1.00  0.00     0.124 S 
ATOM     67  O   UNL A   1      42.937  22.069  27.384  1.00  0.00    -0.237 OA
ATOM     68  O   UNL A   1      40.849  22.487  26.123  1.00  0.00    -0.237 OA
ATOM     69  O   UNL A   1      42.971  22.125  24.921  1.00  0.00    -0.744 OA
ENDBRANCH  62  66
ENDBRANCH  45  59
BRANCH  46  70
ATOM     70  C   UNL A   1      39.926  31.991  35.425  1.00  0.00     0.023 A 
ATOM     71  C   UNL A   1      38.965  31.552  36.347  1.00  0.00     0.031 A 
ATOM     72  C   UNL A   1      40.535  33.240  35.644  1.00  0.00     0.131 A 
ATOM     73  C   UNL A   1      38.637  32.361  37.447  1.00  0.00     0.055 A 
ATOM     74  C   UNL A   1      40.232  34.024  36.758  1.00  0.00     0.041 A 
ATOM     75  F   UNL A   1      41.466  33.700  34.792  1.00  0.00    -0.206 F 
ATOM     76  C   UNL A   1      39.275  33.584  37.667  1.00  0.00     0.022 A 
BRANCH  73  77
ATOM     77  S   UNL A   1      37.356  31.793  38.601  1.00  0.00     0.124 S 
ATOM     78  O   UNL A   1      37.086  30.448  38.106  1.00  0.00    -0.237 OA
ATOM     79  O   UNL A   1      38.040  31.879  39.887  1.00  0.00    -0.237 OA
ATOM     80  O   UNL A   1      36.276  32.758  38.410  1.00  0.00    -0.744 OA
ENDBRANCH  73  77
ENDBRANCH  46  70
BRANCH  58  81
ATOM     81  C   UNL A   1      44.907  27.214  34.351  1.00  0.00     0.023 A 
ATOM     82  C   UNL A   1      44.735  26.073  35.150  1.00  0.00     0.031 A 
ATOM     83  C   UNL A   1      46.158  27.857  34.365  1.00  0.00     0.131 A 
ATOM     84  C   UNL A   1      45.788  25.627  35.961  1.00  0.00     0.055 A 
ATOM     85  C   UNL A   1      47.217  27.381  35.137  1.00  0.00     0.041 A 
ATOM     86  F   UNL A   1      46.371  28.951  33.617  1.00  0.00    -0.206 F 
ATOM     87  C   UNL A   1      47.033  26.264  35.947  1.00  0.00     0.022 A 
BRANCH  84  88
ATOM     88  S   UNL A   1      45.498  24.227  37.077  1.00  0.00     0.124 S 
ATOM     89  O   UNL A   1      46.841  23.959  37.580  1.00  0.00    -0.237 OA
ATOM     90  O   UNL A   1      44.554  24.784  38.042  1.00  0.00    -0.237 OA
ATOM     91  O   UNL A   1      44.948  23.196  36.199  1.00  0.00    -0.744 OA
ENDBRANCH  84  88
ENDBRANCH  58  81
ENDBRANCH  32  33
ENDBRANCH  25  27
ENDBRANCH  24  25
ENDBRANCH   1  24
TORSDOF 16
ENDMDL
