MODEL 1
REMARK VINA RESULT:     -12.6      0.000      0.000
REMARK SMILES O=C(OCCOC(=O)C1CC[NH+]([C@@H]2CCO[C@]3(CCOC3)C2)CC1)c1ccc(-c2c3nc(c(-c4cc(S(=O)(=O)[O-])ccc4F)c4ccc([nH]4)c(-c4cc(S(=O)(=O)[O-])ccc4F)c4nc(c(-c5cc(S(=O)(=O)[O-])ccc5F)c5ccc2[nH]5)C=C4)C=C3)cc1
REMARK SMILES IDX 4 1 3 2 2 3 1 4 25 5 26 6 87 7 27 8 86 9 28 10 29 11 30 12
REMARK SMILES IDX 80 13 31 14 85 15 79 16 81 17 32 18 84 19 78 20 77 21 33 23
REMARK SMILES IDX 65 24 45 25 64 26 46 27 49 28 63 29 82 30 47 31 48 32 62 34
REMARK SMILES IDX 83 35 50 36 34 37 35 38 43 39 36 40 42 41 44 42 41 43 37 44
REMARK SMILES IDX 38 45 39 46 40 47 66 48 67 49 75 50 68 51 74 52 76 53 73 54
REMARK SMILES IDX 69 55 70 56 71 57 72 58 51 59 52 60 60 61 53 62 59 63 61 64
REMARK SMILES IDX 58 65 54 66 55 67 56 68 57 69 5 70 6 71 7 72 8 73 9 74 10 75
REMARK SMILES IDX 24 76 11 77 23 78 12 79 13 81 14 82 22 83 15 84 17 85 16 86
REMARK SMILES IDX 18 87 21 88 19 89 20 90
REMARK H PARENT 81 22 49 33 12 80
REMARK Flexibility Score: inf
ROOT
ATOM      1  C   UNL A   1      31.437  30.269  25.582  1.00  0.00     0.275 C 
ENDROOT
BRANCH   1   2
ATOM      2  O   UNL A   1      32.447  30.161  26.603  1.00  0.00    -0.458 OA
BRANCH   2   3
ATOM      3  C   UNL A   1      33.106  31.203  27.158  1.00  0.00     0.338 C 
ATOM      4  O   UNL A   1      32.531  32.280  27.310  1.00  0.00    -0.246 OA
BRANCH   3   5
ATOM      5  C   UNL A   1      34.524  31.044  27.590  1.00  0.00     0.060 A 
ATOM      6  C   UNL A   1      35.429  32.089  27.781  1.00  0.00     0.016 A 
ATOM      7  C   UNL A   1      34.962  29.739  27.827  1.00  0.00     0.016 A 
ATOM      8  C   UNL A   1      36.677  31.847  28.369  1.00  0.00     0.010 A 
ATOM      9  C   UNL A   1      36.199  29.497  28.421  1.00  0.00     0.010 A 
ATOM     10  C   UNL A   1      37.058  30.551  28.737  1.00  0.00    -0.014 A 
BRANCH  10  11
ATOM     11  C   UNL A   1      38.358  30.300  29.405  1.00  0.00     0.031 A 
ATOM     12  C   UNL A   1      38.606  30.847  30.784  1.00  0.00     0.074 A 
ATOM     13  C   UNL A   1      39.326  29.607  28.770  1.00  0.00     0.049 A 
ATOM     14  N   UNL A   1      39.591  30.590  31.607  1.00  0.00    -0.248 NA
ATOM     15  C   UNL A   1      37.651  31.847  31.289  1.00  0.00     0.031 C 
ATOM     16  C   UNL A   1      39.282  29.162  27.372  1.00  0.00     0.029 A 
ATOM     17  N   UNL A   1      40.537  29.144  29.219  1.00  0.00    -0.354 N 
ATOM     18  C   UNL A   1      39.336  31.358  32.736  1.00  0.00     0.074 A 
ATOM     19  C   UNL A   1      38.221  32.219  32.421  1.00  0.00     0.031 C 
ATOM     20  C   UNL A   1      40.396  28.464  27.094  1.00  0.00     0.029 A 
ATOM     21  C   UNL A   1      41.220  28.383  28.295  1.00  0.00     0.049 A 
ATOM     22  H   UNL A   1      40.887  29.338  30.118  1.00  0.00     0.167 HD
ATOM     23  C   UNL A   1      39.905  31.279  33.964  1.00  0.00     0.034 A 
ATOM     24  C   UNL A   1      42.350  27.659  28.428  1.00  0.00     0.034 A 
ATOM     25  C   UNL A   1      41.012  30.414  34.260  1.00  0.00     0.049 A 
ATOM     26  C   UNL A   1      42.970  27.556  29.804  1.00  0.00     0.074 A 
ATOM     27  C   UNL A   1      41.663  30.206  35.461  1.00  0.00     0.029 A 
ATOM     28  N   UNL A   1      41.636  29.604  33.319  1.00  0.00    -0.354 N 
ATOM     29  N   UNL A   1      42.609  28.150  30.919  1.00  0.00    -0.248 NA
ATOM     30  C   UNL A   1      44.108  26.640  29.950  1.00  0.00     0.031 C 
ATOM     31  C   UNL A   1      42.701  29.291  35.239  1.00  0.00     0.029 A 
ATOM     32  C   UNL A   1      42.667  28.897  33.910  1.00  0.00     0.049 A 
ATOM     33  H   UNL A   1      41.382  29.543  32.370  1.00  0.00     0.167 HD
ATOM     34  C   UNL A   1      43.448  27.642  31.907  1.00  0.00     0.074 A 
ATOM     35  C   UNL A   1      44.317  26.681  31.257  1.00  0.00     0.031 C 
ATOM     36  C   UNL A   1      43.503  27.936  33.232  1.00  0.00     0.034 A 
BRANCH  23  37
ATOM     37  C   UNL A   1      39.273  32.119  35.046  1.00  0.00     0.023 A 
ATOM     38  C   UNL A   1      39.674  33.459  35.226  1.00  0.00     0.031 A 
ATOM     39  C   UNL A   1      38.368  31.576  35.967  1.00  0.00     0.131 A 
ATOM     40  C   UNL A   1      39.276  34.164  36.368  1.00  0.00     0.055 A 
ATOM     41  C   UNL A   1      37.896  32.320  37.054  1.00  0.00     0.041 A 
ATOM     42  F   UNL A   1      37.961  30.302  35.857  1.00  0.00    -0.206 F 
ATOM     43  C   UNL A   1      38.370  33.612  37.273  1.00  0.00     0.022 A 
BRANCH  40  44
ATOM     44  S   UNL A   1      40.112  35.731  36.738  1.00  0.00     0.124 S 
ATOM     45  O   UNL A   1      39.745  36.537  35.572  1.00  0.00    -0.237 OA
ATOM     46  O   UNL A   1      39.515  36.124  37.999  1.00  0.00    -0.237 OA
ATOM     47  O   UNL A   1      41.527  35.354  36.801  1.00  0.00    -0.744 OA
ENDBRANCH  40  44
ENDBRANCH  23  37
BRANCH  24  48
ATOM     48  C   UNL A   1      42.929  26.909  27.275  1.00  0.00     0.023 A 
ATOM     49  C   UNL A   1      42.592  25.566  27.035  1.00  0.00     0.031 A 
ATOM     50  C   UNL A   1      43.885  27.504  26.433  1.00  0.00     0.131 A 
ATOM     51  C   UNL A   1      43.253  24.842  26.029  1.00  0.00     0.055 A 
ATOM     52  C   UNL A   1      44.507  26.794  25.404  1.00  0.00     0.041 A 
ATOM     53  F   UNL A   1      44.231  28.790  26.605  1.00  0.00    -0.206 F 
ATOM     54  C   UNL A   1      44.207  25.449  25.209  1.00  0.00     0.022 A 
BRANCH  51  55
ATOM     55  S   UNL A   1      42.928  23.062  25.879  1.00  0.00     0.124 S 
ATOM     56  O   UNL A   1      43.198  22.825  24.466  1.00  0.00    -0.237 OA
ATOM     57  O   UNL A   1      43.894  22.503  26.819  1.00  0.00    -0.237 OA
ATOM     58  O   UNL A   1      41.527  22.938  26.277  1.00  0.00    -0.744 OA
ENDBRANCH  51  55
ENDBRANCH  24  48
BRANCH  36  59
ATOM     59  C   UNL A   1      44.505  27.173  34.056  1.00  0.00     0.023 A 
ATOM     60  C   UNL A   1      44.280  25.838  34.427  1.00  0.00     0.031 A 
ATOM     61  C   UNL A   1      45.693  27.793  34.481  1.00  0.00     0.131 A 
ATOM     62  C   UNL A   1      45.202  25.181  35.253  1.00  0.00     0.055 A 
ATOM     63  C   UNL A   1      46.636  27.115  35.254  1.00  0.00     0.041 A 
ATOM     64  F   UNL A   1      45.955  29.068  34.150  1.00  0.00    -0.206 F 
ATOM     65  C   UNL A   1      46.386  25.805  35.656  1.00  0.00     0.022 A 
BRANCH  62  66
ATOM     66  S   UNL A   1      44.786  23.527  35.868  1.00  0.00     0.124 S 
ATOM     67  O   UNL A   1      45.143  23.630  37.279  1.00  0.00    -0.237 OA
ATOM     68  O   UNL A   1      43.359  23.437  35.577  1.00  0.00    -0.237 OA
ATOM     69  O   UNL A   1      45.638  22.643  35.074  1.00  0.00    -0.744 OA
ENDBRANCH  62  66
ENDBRANCH  36  59
ENDBRANCH  10  11
ENDBRANCH   3   5
ENDBRANCH   2   3
ENDBRANCH   1   2
BRANCH   1  70
ATOM     70  C   UNL A   1      31.473  29.200  24.489  1.00  0.00     0.274 C 
BRANCH  70  71
ATOM     71  O   UNL A   1      30.245  28.466  24.318  1.00  0.00    -0.462 OA
BRANCH  71  72
ATOM     72  C   UNL A   1      30.275  27.629  23.236  1.00  0.00     0.309 C 
ATOM     73  O   UNL A   1      30.471  28.019  22.087  1.00  0.00    -0.252 OA
BRANCH  72  74
ATOM     74  C   UNL A   1      30.305  26.137  23.576  1.00  0.00     0.110 C 
ATOM     75  C   UNL A   1      30.197  25.747  25.051  1.00  0.00     0.077 C 
ATOM     76  C   UNL A   1      31.574  25.602  22.936  1.00  0.00     0.077 C 
ATOM     77  C   UNL A   1      31.210  24.690  25.577  1.00  0.00     0.263 C 
ATOM     78  C   UNL A   1      32.714  25.660  23.945  1.00  0.00     0.263 C 
ATOM     79  N   UNL A   1      32.497  24.573  24.875  1.00  0.00    -0.332 N 
ATOM     80  H   UNL A   1      32.441  23.774  24.245  1.00  0.00     0.348 HD
BRANCH  79  81
ATOM     81  C   UNL A   1      33.619  24.079  25.700  1.00  0.00     0.189 C 
ATOM     82  C   UNL A   1      35.039  24.448  25.266  1.00  0.00     0.093 C 
ATOM     83  C   UNL A   1      33.600  22.548  25.901  1.00  0.00     0.103 C 
ATOM     84  C   UNL A   1      35.538  23.663  24.067  1.00  0.00     0.167 C 
ATOM     85  C   UNL A   1      34.121  21.743  24.697  1.00  0.00     0.099 C 
ATOM     86  O   UNL A   1      35.339  22.260  24.154  1.00  0.00    -0.372 OA
ATOM     87  C   UNL A   1      33.021  21.445  23.683  1.00  0.00     0.066 C 
ATOM     88  C   UNL A   1      34.467  20.298  25.091  1.00  0.00     0.195 C 
ATOM     89  C   UNL A   1      32.368  20.163  24.173  1.00  0.00     0.163 C 
ATOM     90  O   UNL A   1      33.263  19.532  25.088  1.00  0.00    -0.378 OA
ENDBRANCH  79  81
ENDBRANCH  72  74
ENDBRANCH  71  72
ENDBRANCH  70  71
ENDBRANCH   1  70
TORSDOF 15
ENDMDL
MODEL 2
REMARK VINA RESULT:     -12.4      4.276     10.069
REMARK SMILES O=C(OCCOC(=O)C1CC[NH+]([C@@H]2CCO[C@]3(CCOC3)C2)CC1)c1ccc(-c2c3nc(c(-c4cc(S(=O)(=O)[O-])ccc4F)c4ccc([nH]4)c(-c4cc(S(=O)(=O)[O-])ccc4F)c4nc(c(-c5cc(S(=O)(=O)[O-])ccc5F)c5ccc2[nH]5)C=C4)C=C3)cc1
REMARK SMILES IDX 4 1 3 2 2 3 1 4 25 5 26 6 87 7 27 8 86 9 28 10 29 11 30 12
REMARK SMILES IDX 80 13 31 14 85 15 79 16 81 17 32 18 84 19 78 20 77 21 33 23
REMARK SMILES IDX 65 24 45 25 64 26 46 27 49 28 63 29 82 30 47 31 48 32 62 34
REMARK SMILES IDX 83 35 50 36 34 37 35 38 43 39 36 40 42 41 44 42 41 43 37 44
REMARK SMILES IDX 38 45 39 46 40 47 66 48 67 49 75 50 68 51 74 52 76 53 73 54
REMARK SMILES IDX 69 55 70 56 71 57 72 58 51 59 52 60 60 61 53 62 59 63 61 64
REMARK SMILES IDX 58 65 54 66 55 67 56 68 57 69 5 70 6 71 7 72 8 73 9 74 10 75
REMARK SMILES IDX 24 76 11 77 23 78 12 79 13 81 14 82 22 83 15 84 17 85 16 86
REMARK SMILES IDX 18 87 21 88 19 89 20 90
REMARK H PARENT 81 22 49 33 12 80
REMARK Flexibility Score: inf
ROOT
ATOM      1  C   UNL A   1      36.165  20.550  24.956  1.00  0.00     0.275 C 
ENDROOT
BRANCH   1   2
ATOM      2  O   UNL A   1      37.084  21.628  25.221  1.00  0.00    -0.458 OA
BRANCH   2   3
ATOM      3  C   UNL A   1      38.364  21.475  25.628  1.00  0.00     0.338 C 
ATOM      4  O   UNL A   1      38.980  20.450  25.341  1.00  0.00    -0.246 OA
BRANCH   3   5
ATOM      5  C   UNL A   1      39.028  22.551  26.418  1.00  0.00     0.060 A 
ATOM      6  C   UNL A   1      40.093  22.361  27.300  1.00  0.00     0.016 A 
ATOM      7  C   UNL A   1      38.540  23.848  26.242  1.00  0.00     0.016 A 
ATOM      8  C   UNL A   1      40.766  23.462  27.846  1.00  0.00     0.010 A 
ATOM      9  C   UNL A   1      39.213  24.944  26.776  1.00  0.00     0.010 A 
ATOM     10  C   UNL A   1      40.359  24.769  27.553  1.00  0.00    -0.014 A 
BRANCH  10  11
ATOM     11  C   UNL A   1      41.101  25.936  28.091  1.00  0.00     0.031 A 
ATOM     12  C   UNL A   1      42.540  26.146  27.707  1.00  0.00     0.074 A 
ATOM     13  C   UNL A   1      40.498  26.792  28.941  1.00  0.00     0.049 A 
ATOM     14  N   UNL A   1      43.305  27.187  27.917  1.00  0.00    -0.248 NA
ATOM     15  C   UNL A   1      43.226  25.026  27.044  1.00  0.00     0.031 C 
ATOM     16  C   UNL A   1      39.163  26.618  29.525  1.00  0.00     0.029 A 
ATOM     17  N   UNL A   1      40.924  27.989  29.459  1.00  0.00    -0.354 N 
ATOM     18  C   UNL A   1      44.536  26.857  27.364  1.00  0.00     0.074 A 
ATOM     19  C   UNL A   1      44.470  25.467  26.982  1.00  0.00     0.031 C 
ATOM     20  C   UNL A   1      38.870  27.685  30.289  1.00  0.00     0.029 A 
ATOM     21  C   UNL A   1      39.978  28.632  30.228  1.00  0.00     0.049 A 
ATOM     22  H   UNL A   1      41.823  28.356  29.297  1.00  0.00     0.167 HD
ATOM     23  C   UNL A   1      45.591  27.665  27.095  1.00  0.00     0.034 A 
ATOM     24  C   UNL A   1      39.989  29.868  30.768  1.00  0.00     0.034 A 
ATOM     25  C   UNL A   1      45.637  29.047  27.480  1.00  0.00     0.049 A 
ATOM     26  C   UNL A   1      41.157  30.773  30.448  1.00  0.00     0.074 A 
ATOM     27  C   UNL A   1      46.621  29.988  27.243  1.00  0.00     0.029 A 
ATOM     28  N   UNL A   1      44.633  29.687  28.196  1.00  0.00    -0.354 N 
ATOM     29  N   UNL A   1      42.245  30.506  29.762  1.00  0.00    -0.248 NA
ATOM     30  C   UNL A   1      41.069  32.161  30.921  1.00  0.00     0.031 C 
ATOM     31  C   UNL A   1      46.224  31.190  27.844  1.00  0.00     0.029 A 
ATOM     32  C   UNL A   1      44.973  31.009  28.415  1.00  0.00     0.049 A 
ATOM     33  H   UNL A   1      43.801  29.260  28.504  1.00  0.00     0.167 HD
ATOM     34  C   UNL A   1      42.948  31.705  29.684  1.00  0.00     0.074 A 
ATOM     35  C   UNL A   1      42.149  32.698  30.376  1.00  0.00     0.031 C 
ATOM     36  C   UNL A   1      44.144  31.972  29.097  1.00  0.00     0.034 A 
BRANCH  23  37
ATOM     37  C   UNL A   1      46.717  27.047  26.304  1.00  0.00     0.023 A 
ATOM     38  C   UNL A   1      47.755  26.363  26.970  1.00  0.00     0.031 A 
ATOM     39  C   UNL A   1      46.832  27.227  24.919  1.00  0.00     0.131 A 
ATOM     40  C   UNL A   1      48.917  26.002  26.276  1.00  0.00     0.055 A 
ATOM     41  C   UNL A   1      47.953  26.775  24.215  1.00  0.00     0.041 A 
ATOM     42  F   UNL A   1      45.884  27.883  24.233  1.00  0.00    -0.206 F 
ATOM     43  C   UNL A   1      49.014  26.182  24.896  1.00  0.00     0.022 A 
BRANCH  40  44
ATOM     44  S   UNL A   1      50.358  25.472  27.242  1.00  0.00     0.124 S 
ATOM     45  O   UNL A   1      49.855  24.245  27.862  1.00  0.00    -0.237 OA
ATOM     46  O   UNL A   1      51.380  25.302  26.228  1.00  0.00    -0.237 OA
ATOM     47  O   UNL A   1      50.571  26.585  28.172  1.00  0.00    -0.744 OA
ENDBRANCH  40  44
ENDBRANCH  23  37
BRANCH  24  48
ATOM     48  C   UNL A   1      38.844  30.364  31.587  1.00  0.00     0.023 A 
ATOM     49  C   UNL A   1      37.729  30.975  30.989  1.00  0.00     0.031 A 
ATOM     50  C   UNL A   1      38.879  30.299  32.991  1.00  0.00     0.131 A 
ATOM     51  C   UNL A   1      36.731  31.557  31.788  1.00  0.00     0.055 A 
ATOM     52  C   UNL A   1      37.862  30.839  33.782  1.00  0.00     0.041 A 
ATOM     53  F   UNL A   1      39.912  29.710  33.616  1.00  0.00    -0.206 F 
ATOM     54  C   UNL A   1      36.788  31.489  33.181  1.00  0.00     0.022 A 
BRANCH  51  55
ATOM     55  S   UNL A   1      35.409  32.502  30.979  1.00  0.00     0.124 S 
ATOM     56  O   UNL A   1      34.319  32.377  31.939  1.00  0.00    -0.237 OA
ATOM     57  O   UNL A   1      36.014  33.825  30.866  1.00  0.00    -0.237 OA
ATOM     58  O   UNL A   1      35.211  31.798  29.714  1.00  0.00    -0.744 OA
ENDBRANCH  51  55
ENDBRANCH  24  48
BRANCH  36  59
ATOM     59  C   UNL A   1      44.621  33.399  29.146  1.00  0.00     0.023 A 
ATOM     60  C   UNL A   1      44.076  34.381  28.304  1.00  0.00     0.031 A 
ATOM     61  C   UNL A   1      45.639  33.775  30.040  1.00  0.00     0.131 A 
ATOM     62  C   UNL A   1      44.593  35.683  28.329  1.00  0.00     0.055 A 
ATOM     63  C   UNL A   1      46.108  35.087  30.101  1.00  0.00     0.041 A 
ATOM     64  F   UNL A   1      46.191  32.873  30.867  1.00  0.00    -0.206 F 
ATOM     65  C   UNL A   1      45.595  36.047  29.233  1.00  0.00     0.022 A 
BRANCH  62  66
ATOM     66  S   UNL A   1      43.997  36.872  27.097  1.00  0.00     0.124 S 
ATOM     67  O   UNL A   1      45.245  37.355  26.514  1.00  0.00    -0.237 OA
ATOM     68  O   UNL A   1      43.172  36.036  26.232  1.00  0.00    -0.237 OA
ATOM     69  O   UNL A   1      43.264  37.853  27.895  1.00  0.00    -0.744 OA
ENDBRANCH  62  66
ENDBRANCH  36  59
ENDBRANCH  10  11
ENDBRANCH   3   5
ENDBRANCH   2   3
ENDBRANCH   1   2
BRANCH   1  70
ATOM     70  C   UNL A   1      34.684  20.867  25.166  1.00  0.00     0.274 C 
BRANCH  70  71
ATOM     71  O   UNL A   1      33.841  20.607  24.027  1.00  0.00    -0.462 OA
BRANCH  71  72
ATOM     72  C   UNL A   1      32.525  20.892  24.267  1.00  0.00     0.309 C 
ATOM     73  O   UNL A   1      31.858  20.322  25.128  1.00  0.00    -0.252 OA
BRANCH  72  74
ATOM     74  C   UNL A   1      31.998  22.147  23.568  1.00  0.00     0.110 C 
ATOM     75  C   UNL A   1      32.953  22.884  22.628  1.00  0.00     0.077 C 
ATOM     76  C   UNL A   1      31.486  23.045  24.680  1.00  0.00     0.077 C 
ATOM     77  C   UNL A   1      33.041  24.429  22.782  1.00  0.00     0.263 C 
ATOM     78  C   UNL A   1      32.597  23.989  25.123  1.00  0.00     0.263 C 
ATOM     79  N   UNL A   1      32.710  25.002  24.096  1.00  0.00    -0.332 N 
ATOM     80  H   UNL A   1      31.755  25.355  24.054  1.00  0.00     0.348 HD
BRANCH  79  81
ATOM     81  C   UNL A   1      33.369  26.288  24.405  1.00  0.00     0.189 C 
ATOM     82  C   UNL A   1      33.615  26.628  25.876  1.00  0.00     0.093 C 
ATOM     83  C   UNL A   1      32.653  27.506  23.782  1.00  0.00     0.103 C 
ATOM     84  C   UNL A   1      32.367  27.056  26.625  1.00  0.00     0.167 C 
ATOM     85  C   UNL A   1      31.395  27.960  24.544  1.00  0.00     0.099 C 
ATOM     86  O   UNL A   1      31.586  28.037  25.959  1.00  0.00    -0.372 OA
ATOM     87  C   UNL A   1      30.143  27.214  24.087  1.00  0.00     0.066 C 
ATOM     88  C   UNL A   1      30.974  29.383  24.141  1.00  0.00     0.195 C 
ATOM     89  C   UNL A   1      29.626  28.003  22.896  1.00  0.00     0.163 C 
ATOM     90  O   UNL A   1      30.218  29.302  22.933  1.00  0.00    -0.378 OA
ENDBRANCH  79  81
ENDBRANCH  72  74
ENDBRANCH  71  72
ENDBRANCH  70  71
ENDBRANCH   1  70
TORSDOF 15
ENDMDL
MODEL 3
REMARK VINA RESULT:     -12.4      4.268      9.963
REMARK SMILES O=C(OCCOC(=O)C1CC[NH+]([C@@H]2CCO[C@]3(CCOC3)C2)CC1)c1ccc(-c2c3nc(c(-c4cc(S(=O)(=O)[O-])ccc4F)c4ccc([nH]4)c(-c4cc(S(=O)(=O)[O-])ccc4F)c4nc(c(-c5cc(S(=O)(=O)[O-])ccc5F)c5ccc2[nH]5)C=C4)C=C3)cc1
REMARK SMILES IDX 4 1 3 2 2 3 1 4 25 5 26 6 87 7 27 8 86 9 28 10 29 11 30 12
REMARK SMILES IDX 80 13 31 14 85 15 79 16 81 17 32 18 84 19 78 20 77 21 33 23
REMARK SMILES IDX 65 24 45 25 64 26 46 27 49 28 63 29 82 30 47 31 48 32 62 34
REMARK SMILES IDX 83 35 50 36 34 37 35 38 43 39 36 40 42 41 44 42 41 43 37 44
REMARK SMILES IDX 38 45 39 46 40 47 66 48 67 49 75 50 68 51 74 52 76 53 73 54
REMARK SMILES IDX 69 55 70 56 71 57 72 58 51 59 52 60 60 61 53 62 59 63 61 64
REMARK SMILES IDX 58 65 54 66 55 67 56 68 57 69 5 70 6 71 7 72 8 73 9 74 10 75
REMARK SMILES IDX 24 76 11 77 23 78 12 79 13 81 14 82 22 83 15 84 17 85 16 86
REMARK SMILES IDX 18 87 21 88 19 89 20 90
REMARK H PARENT 81 22 49 33 12 80
REMARK Flexibility Score: inf
ROOT
ATOM      1  C   UNL A   1      36.261  20.500  25.052  1.00  0.00     0.275 C 
ENDROOT
BRANCH   1   2
ATOM      2  O   UNL A   1      37.330  21.467  25.060  1.00  0.00    -0.458 OA
BRANCH   2   3
ATOM      3  C   UNL A   1      38.542  21.280  25.628  1.00  0.00     0.338 C 
ATOM      4  O   UNL A   1      39.115  20.198  25.507  1.00  0.00    -0.246 OA
BRANCH   3   5
ATOM      5  C   UNL A   1      39.185  22.386  26.393  1.00  0.00     0.060 A 
ATOM      6  C   UNL A   1      40.240  22.234  27.294  1.00  0.00     0.016 A 
ATOM      7  C   UNL A   1      38.686  23.672  26.171  1.00  0.00     0.016 A 
ATOM      8  C   UNL A   1      40.895  23.358  27.815  1.00  0.00     0.010 A 
ATOM      9  C   UNL A   1      39.342  24.791  26.680  1.00  0.00     0.010 A 
ATOM     10  C   UNL A   1      40.478  24.651  27.477  1.00  0.00    -0.014 A 
BRANCH  10  11
ATOM     11  C   UNL A   1      41.202  25.842  27.988  1.00  0.00     0.031 A 
ATOM     12  C   UNL A   1      42.642  26.059  27.610  1.00  0.00     0.074 A 
ATOM     13  C   UNL A   1      40.581  26.713  28.810  1.00  0.00     0.049 A 
ATOM     14  N   UNL A   1      43.392  27.115  27.797  1.00  0.00    -0.248 NA
ATOM     15  C   UNL A   1      43.346  24.929  26.983  1.00  0.00     0.031 C 
ATOM     16  C   UNL A   1      39.243  26.539  29.387  1.00  0.00     0.029 A 
ATOM     17  N   UNL A   1      40.988  27.929  29.298  1.00  0.00    -0.354 N 
ATOM     18  C   UNL A   1      44.631  26.785  27.264  1.00  0.00     0.074 A 
ATOM     19  C   UNL A   1      44.586  25.384  26.919  1.00  0.00     0.031 C 
ATOM     20  C   UNL A   1      38.932  27.622  30.119  1.00  0.00     0.029 A 
ATOM     21  C   UNL A   1      40.029  28.582  30.041  1.00  0.00     0.049 A 
ATOM     22  H   UNL A   1      41.884  28.302  29.133  1.00  0.00     0.167 HD
ATOM     23  C   UNL A   1      45.679  27.598  26.981  1.00  0.00     0.034 A 
ATOM     24  C   UNL A   1      40.020  29.832  30.547  1.00  0.00     0.034 A 
ATOM     25  C   UNL A   1      45.704  28.991  27.328  1.00  0.00     0.049 A 
ATOM     26  C   UNL A   1      41.179  30.742  30.211  1.00  0.00     0.074 A 
ATOM     27  C   UNL A   1      46.679  29.937  27.074  1.00  0.00     0.029 A 
ATOM     28  N   UNL A   1      44.687  29.637  28.018  1.00  0.00    -0.354 N 
ATOM     29  N   UNL A   1      42.277  30.469  29.541  1.00  0.00    -0.248 NA
ATOM     30  C   UNL A   1      41.071  32.141  30.646  1.00  0.00     0.031 C 
ATOM     31  C   UNL A   1      46.262  31.150  27.638  1.00  0.00     0.029 A 
ATOM     32  C   UNL A   1      45.009  30.969  28.203  1.00  0.00     0.049 A 
ATOM     33  H   UNL A   1      43.858  29.209  28.331  1.00  0.00     0.167 HD
ATOM     34  C   UNL A   1      42.966  31.675  29.437  1.00  0.00     0.074 A 
ATOM     35  C   UNL A   1      42.148  32.676  30.094  1.00  0.00     0.031 C 
ATOM     36  C   UNL A   1      44.163  31.940  28.852  1.00  0.00     0.034 A 
BRANCH  23  37
ATOM     37  C   UNL A   1      46.819  26.972  26.216  1.00  0.00     0.023 A 
ATOM     38  C   UNL A   1      47.830  26.271  26.905  1.00  0.00     0.031 A 
ATOM     39  C   UNL A   1      46.974  27.162  24.837  1.00  0.00     0.131 A 
ATOM     40  C   UNL A   1      49.006  25.901  26.240  1.00  0.00     0.055 A 
ATOM     41  C   UNL A   1      48.109  26.703  24.160  1.00  0.00     0.041 A 
ATOM     42  F   UNL A   1      46.054  27.836  24.130  1.00  0.00    -0.206 F 
ATOM     43  C   UNL A   1      49.144  26.090  24.866  1.00  0.00     0.022 A 
BRANCH  40  44
ATOM     44  S   UNL A   1      50.413  25.346  27.241  1.00  0.00     0.124 S 
ATOM     45  O   UNL A   1      49.811  24.251  28.004  1.00  0.00    -0.237 OA
ATOM     46  O   UNL A   1      51.390  24.964  26.240  1.00  0.00    -0.237 OA
ATOM     47  O   UNL A   1      50.753  26.530  28.035  1.00  0.00    -0.744 OA
ENDBRANCH  40  44
ENDBRANCH  23  37
BRANCH  24  48
ATOM     48  C   UNL A   1      38.862  30.336  31.343  1.00  0.00     0.023 A 
ATOM     49  C   UNL A   1      37.749  30.924  30.720  1.00  0.00     0.031 A 
ATOM     50  C   UNL A   1      38.883  30.301  32.748  1.00  0.00     0.131 A 
ATOM     51  C   UNL A   1      36.737  31.515  31.495  1.00  0.00     0.055 A 
ATOM     52  C   UNL A   1      37.853  30.849  33.516  1.00  0.00     0.041 A 
ATOM     53  F   UNL A   1      39.913  29.735  33.397  1.00  0.00    -0.206 F 
ATOM     54  C   UNL A   1      36.780  31.478  32.891  1.00  0.00     0.022 A 
BRANCH  51  55
ATOM     55  S   UNL A   1      35.416  32.431  30.652  1.00  0.00     0.124 S 
ATOM     56  O   UNL A   1      34.339  32.376  31.633  1.00  0.00    -0.237 OA
ATOM     57  O   UNL A   1      36.038  33.737  30.456  1.00  0.00    -0.237 OA
ATOM     58  O   UNL A   1      35.191  31.659  29.432  1.00  0.00    -0.744 OA
ENDBRANCH  51  55
ENDBRANCH  24  48
BRANCH  36  59
ATOM     59  C   UNL A   1      44.622  33.374  28.866  1.00  0.00     0.023 A 
ATOM     60  C   UNL A   1      45.359  33.895  29.941  1.00  0.00     0.031 A 
ATOM     61  C   UNL A   1      44.311  34.228  27.794  1.00  0.00     0.131 A 
ATOM     62  C   UNL A   1      45.710  35.251  29.951  1.00  0.00     0.055 A 
ATOM     63  C   UNL A   1      44.714  35.563  27.782  1.00  0.00     0.041 A 
ATOM     64  F   UNL A   1      43.609  33.776  26.741  1.00  0.00    -0.206 F 
ATOM     65  C   UNL A   1      45.406  36.085  28.871  1.00  0.00     0.022 A 
BRANCH  62  66
ATOM     66  S   UNL A   1      46.491  35.930  31.439  1.00  0.00     0.124 S 
ATOM     67  O   UNL A   1      45.690  35.331  32.502  1.00  0.00    -0.237 OA
ATOM     68  O   UNL A   1      47.861  35.441  31.322  1.00  0.00    -0.237 OA
ATOM     69  O   UNL A   1      46.332  37.374  31.280  1.00  0.00    -0.744 OA
ENDBRANCH  62  66
ENDBRANCH  36  59
ENDBRANCH  10  11
ENDBRANCH   3   5
ENDBRANCH   2   3
ENDBRANCH   1   2
BRANCH   1  70
ATOM     70  C   UNL A   1      34.844  21.068  25.135  1.00  0.00     0.274 C 
BRANCH  70  71
ATOM     71  O   UNL A   1      33.965  20.663  24.068  1.00  0.00    -0.462 OA
BRANCH  71  72
ATOM     72  C   UNL A   1      32.647  20.900  24.349  1.00  0.00     0.309 C 
ATOM     73  O   UNL A   1      32.027  20.303  25.227  1.00  0.00    -0.252 OA
BRANCH  72  74
ATOM     74  C   UNL A   1      32.056  22.140  23.674  1.00  0.00     0.110 C 
ATOM     75  C   UNL A   1      32.936  22.881  22.666  1.00  0.00     0.077 C 
ATOM     76  C   UNL A   1      31.605  23.043  24.809  1.00  0.00     0.077 C 
ATOM     77  C   UNL A   1      33.010  24.429  22.798  1.00  0.00     0.263 C 
ATOM     78  C   UNL A   1      32.729  24.007  25.167  1.00  0.00     0.263 C 
ATOM     79  N   UNL A   1      32.758  25.011  24.125  1.00  0.00    -0.332 N 
ATOM     80  H   UNL A   1      31.796  25.350  24.143  1.00  0.00     0.348 HD
BRANCH  79  81
ATOM     81  C   UNL A   1      33.416  26.310  24.376  1.00  0.00     0.189 C 
ATOM     82  C   UNL A   1      33.706  26.693  25.829  1.00  0.00     0.093 C 
ATOM     83  C   UNL A   1      32.671  27.505  23.742  1.00  0.00     0.103 C 
ATOM     84  C   UNL A   1      32.478  27.133  26.605  1.00  0.00     0.167 C 
ATOM     85  C   UNL A   1      31.434  27.971  24.531  1.00  0.00     0.099 C 
ATOM     86  O   UNL A   1      31.669  28.090  25.937  1.00  0.00    -0.372 OA
ATOM     87  C   UNL A   1      30.175  27.204  24.135  1.00  0.00     0.066 C 
ATOM     88  C   UNL A   1      30.989  29.379  24.102  1.00  0.00     0.195 C 
ATOM     89  C   UNL A   1      29.614  27.955  22.940  1.00  0.00     0.163 C 
ATOM     90  O   UNL A   1      30.196  29.258  22.921  1.00  0.00    -0.378 OA
ENDBRANCH  79  81
ENDBRANCH  72  74
ENDBRANCH  71  72
ENDBRANCH  70  71
ENDBRANCH   1  70
TORSDOF 15
ENDMDL
