MODEL 1
REMARK VINA RESULT:     -12.8      0.000      0.000
REMARK SMILES Cc1ccc(C(=O)N2C[C@@H](C(=O)OCCOC(=O)c3ccc(-c4c5nc(c(-c6cc(S(=O)(=O)[O-])ccc6F)c6ccc([nH]6)c(-c6cc(S(=O)(=O)[O-])ccc6F)c6nc(c(-c7cc(S(=O)(=O)[O-])ccc7F)c7ccc4[nH]7)C=C6)C=C5)cc3)C[C@H](C(=O)N3CCOCC3)C2)cc1F
REMARK SMILES IDX 15 1 14 2 13 3 11 4 12 5 10 6 8 7 9 8 92 9 83 10 82 11 6 12
REMARK SMILES IDX 7 13 5 14 1 15 2 16 3 17 94 18 4 19 93 20 95 21 84 22 85 23
REMARK SMILES IDX 86 24 87 25 91 26 88 27 90 28 89 29 16 30 17 31 18 32 19 33
REMARK SMILES IDX 20 34 81 35 21 36 80 37 22 38 23 39 24 40 74 41 25 42 79 43
REMARK SMILES IDX 73 44 75 45 26 46 78 47 72 48 71 49 27 51 59 52 39 53 58 54
REMARK SMILES IDX 40 55 43 56 57 57 76 58 41 59 42 60 56 62 77 63 44 64 28 65
REMARK SMILES IDX 29 66 37 67 30 68 36 69 38 70 35 71 31 72 32 73 33 74 34 75
REMARK SMILES IDX 60 76 61 77 69 78 62 79 68 80 70 81 67 82 63 83 64 84 65 85
REMARK SMILES IDX 66 86 45 87 46 88 54 89 47 90 53 91 55 92 52 93 48 94 49 95
REMARK SMILES IDX 50 96 51 97
REMARK H PARENT 75 50 43 61
REMARK Flexibility Score: inf
ROOT
ATOM      1  C   UNL A   1      38.695  22.136  25.404  1.00  0.00     0.275 C 
ENDROOT
BRANCH   1   2
ATOM      2  C   UNL A   1      37.190  21.853  25.489  1.00  0.00     0.274 C 
BRANCH   2   3
ATOM      3  O   UNL A   1      36.357  23.026  25.363  1.00  0.00    -0.462 OA
BRANCH   3   4
ATOM      4  C   UNL A   1      35.833  23.247  24.123  1.00  0.00     0.310 C 
ATOM      5  O   UNL A   1      36.490  23.231  23.087  1.00  0.00    -0.252 OA
BRANCH   4   6
ATOM      6  C   UNL A   1      34.368  23.631  24.149  1.00  0.00     0.119 C 
ATOM      7  N   UNL A   1      32.321  23.212  25.404  1.00  0.00    -0.337 N 
ATOM      8  C   UNL A   1      33.726  22.880  25.295  1.00  0.00     0.135 C 
ATOM      9  C   UNL A   1      31.513  22.899  24.224  1.00  0.00     0.133 C 
ATOM     10  C   UNL A   1      32.056  23.602  22.961  1.00  0.00     0.099 C 
ATOM     11  C   UNL A   1      33.584  23.444  22.836  1.00  0.00     0.032 C 
BRANCH   7  12
ATOM     12  C   UNL A   1      31.905  24.027  26.449  1.00  0.00     0.254 C 
ATOM     13  O   UNL A   1      31.290  23.604  27.426  1.00  0.00    -0.269 OA
BRANCH  12  14
ATOM     14  C   UNL A   1      32.027  25.496  26.303  1.00  0.00     0.042 A 
ATOM     15  C   UNL A   1      32.469  29.719  26.940  1.00  0.00     0.047 C 
ATOM     16  C   UNL A   1      32.294  28.263  26.634  1.00  0.00    -0.015 A 
ATOM     17  C   UNL A   1      31.023  27.680  26.627  1.00  0.00     0.007 A 
ATOM     18  C   UNL A   1      33.415  27.454  26.420  1.00  0.00     0.126 A 
ATOM     19  C   UNL A   1      30.891  26.301  26.470  1.00  0.00     0.014 A 
ATOM     20  C   UNL A   1      33.295  26.078  26.262  1.00  0.00     0.053 A 
ATOM     21  F   UNL A   1      34.639  28.003  26.430  1.00  0.00    -0.207 F 
ENDBRANCH  12  14
ENDBRANCH   7  12
BRANCH  10  22
ATOM     22  C   UNL A   1      31.244  24.908  22.832  1.00  0.00     0.227 C 
ATOM     23  O   UNL A   1      30.125  24.872  23.379  1.00  0.00    -0.275 OA
ATOM     24  N   UNL A   1      31.757  26.108  22.410  1.00  0.00    -0.338 N 
ATOM     25  C   UNL A   1      32.843  26.371  21.471  1.00  0.00     0.148 C 
ATOM     26  C   UNL A   1      31.017  27.338  22.685  1.00  0.00     0.148 C 
ATOM     27  C   UNL A   1      33.803  27.398  22.068  1.00  0.00     0.181 C 
ATOM     28  C   UNL A   1      31.992  28.372  23.262  1.00  0.00     0.181 C 
ATOM     29  O   UNL A   1      33.114  28.621  22.395  1.00  0.00    -0.378 OA
ENDBRANCH  10  22
ENDBRANCH   4   6
ENDBRANCH   3   4
ENDBRANCH   2   3
ENDBRANCH   1   2
BRANCH   1  30
ATOM     30  O   UNL A   1      39.379  21.887  26.636  1.00  0.00    -0.458 OA
BRANCH  30  31
ATOM     31  C   UNL A   1      40.366  22.780  26.856  1.00  0.00     0.338 C 
ATOM     32  O   UNL A   1      41.547  22.520  27.076  1.00  0.00    -0.246 OA
BRANCH  31  33
ATOM     33  C   UNL A   1      39.867  24.143  26.957  1.00  0.00     0.060 A 
ATOM     34  C   UNL A   1      40.555  25.142  26.256  1.00  0.00     0.016 A 
ATOM     35  C   UNL A   1      39.110  24.420  28.089  1.00  0.00     0.016 A 
ATOM     36  C   UNL A   1      40.670  26.407  26.811  1.00  0.00     0.010 A 
ATOM     37  C   UNL A   1      39.230  25.676  28.639  1.00  0.00     0.010 A 
ATOM     38  C   UNL A   1      40.087  26.626  28.052  1.00  0.00    -0.014 A 
BRANCH  38  39
ATOM     39  C   UNL A   1      40.341  27.804  28.859  1.00  0.00     0.031 A 
ATOM     40  C   UNL A   1      39.471  28.986  28.757  1.00  0.00     0.074 A 
ATOM     41  C   UNL A   1      41.209  27.685  29.888  1.00  0.00     0.049 A 
ATOM     42  N   UNL A   1      39.701  30.087  29.385  1.00  0.00    -0.248 NA
ATOM     43  C   UNL A   1      38.285  29.033  27.910  1.00  0.00     0.031 C 
ATOM     44  C   UNL A   1      41.143  28.390  31.159  1.00  0.00     0.029 A 
ATOM     45  N   UNL A   1      42.425  26.993  29.938  1.00  0.00    -0.354 N 
ATOM     46  C   UNL A   1      38.582  30.871  29.263  1.00  0.00     0.074 A 
ATOM     47  C   UNL A   1      37.767  30.216  28.261  1.00  0.00     0.031 C 
ATOM     48  C   UNL A   1      42.325  28.283  31.781  1.00  0.00     0.029 A 
ATOM     49  C   UNL A   1      43.258  27.685  30.844  1.00  0.00     0.049 A 
ATOM     50  H   UNL A   1      42.654  26.178  29.438  1.00  0.00     0.167 HD
ATOM     51  C   UNL A   1      38.408  31.909  30.129  1.00  0.00     0.034 A 
ATOM     52  C   UNL A   1      44.503  28.172  30.563  1.00  0.00     0.034 A 
ATOM     53  C   UNL A   1      39.549  32.057  31.035  1.00  0.00     0.049 A 
ATOM     54  C   UNL A   1      44.634  29.677  30.771  1.00  0.00     0.074 A 
ATOM     55  C   UNL A   1      39.799  31.660  32.339  1.00  0.00     0.029 A 
ATOM     56  N   UNL A   1      40.771  32.447  30.517  1.00  0.00    -0.354 N 
ATOM     57  N   UNL A   1      43.699  30.449  31.244  1.00  0.00    -0.248 NA
ATOM     58  C   UNL A   1      45.788  30.439  30.280  1.00  0.00     0.031 C 
ATOM     59  C   UNL A   1      41.180  31.864  32.613  1.00  0.00     0.029 A 
ATOM     60  C   UNL A   1      41.768  32.385  31.477  1.00  0.00     0.049 A 
ATOM     61  H   UNL A   1      40.915  32.733  29.586  1.00  0.00     0.167 HD
ATOM     62  C   UNL A   1      44.012  31.754  30.959  1.00  0.00     0.074 A 
ATOM     63  C   UNL A   1      45.347  31.701  30.396  1.00  0.00     0.031 C 
ATOM     64  C   UNL A   1      43.121  32.776  31.113  1.00  0.00     0.034 A 
BRANCH  51  65
ATOM     65  C   UNL A   1      37.097  32.642  30.309  1.00  0.00     0.023 A 
ATOM     66  C   UNL A   1      36.371  32.670  31.516  1.00  0.00     0.031 A 
ATOM     67  C   UNL A   1      36.548  33.402  29.253  1.00  0.00     0.131 A 
ATOM     68  C   UNL A   1      35.255  33.510  31.683  1.00  0.00     0.055 A 
ATOM     69  C   UNL A   1      35.398  34.186  29.398  1.00  0.00     0.041 A 
ATOM     70  F   UNL A   1      37.124  33.456  28.044  1.00  0.00    -0.206 F 
ATOM     71  C   UNL A   1      34.760  34.267  30.624  1.00  0.00     0.022 A 
BRANCH  68  72
ATOM     72  S   UNL A   1      34.481  33.735  33.311  1.00  0.00     0.124 S 
ATOM     73  O   UNL A   1      33.203  33.042  33.144  1.00  0.00    -0.237 OA
ATOM     74  O   UNL A   1      35.428  33.080  34.207  1.00  0.00    -0.237 OA
ATOM     75  O   UNL A   1      34.373  35.185  33.451  1.00  0.00    -0.744 OA
ENDBRANCH  68  72
ENDBRANCH  51  65
BRANCH  52  76
ATOM     76  C   UNL A   1      45.166  27.495  29.424  1.00  0.00     0.023 A 
ATOM     77  C   UNL A   1      44.918  28.014  28.150  1.00  0.00     0.031 A 
ATOM     78  C   UNL A   1      45.627  26.171  29.547  1.00  0.00     0.131 A 
ATOM     79  C   UNL A   1      44.962  27.161  27.055  1.00  0.00     0.055 A 
ATOM     80  C   UNL A   1      45.722  25.334  28.436  1.00  0.00     0.041 A 
ATOM     81  F   UNL A   1      45.858  25.641  30.760  1.00  0.00    -0.206 F 
ATOM     82  C   UNL A   1      45.348  25.821  27.187  1.00  0.00     0.022 A 
BRANCH  79  83
ATOM     83  S   UNL A   1      44.137  27.681  25.538  1.00  0.00     0.124 S 
ATOM     84  O   UNL A   1      45.242  28.176  24.743  1.00  0.00    -0.237 OA
ATOM     85  O   UNL A   1      43.533  26.415  25.126  1.00  0.00    -0.237 OA
ATOM     86  O   UNL A   1      43.170  28.678  25.989  1.00  0.00    -0.744 OA
ENDBRANCH  79  83
ENDBRANCH  52  76
BRANCH  64  87
ATOM     87  C   UNL A   1      43.436  34.235  30.890  1.00  0.00     0.023 A 
ATOM     88  C   UNL A   1      43.227  34.818  29.620  1.00  0.00     0.031 A 
ATOM     89  C   UNL A   1      43.786  35.119  31.926  1.00  0.00     0.131 A 
ATOM     90  C   UNL A   1      43.387  36.193  29.409  1.00  0.00     0.055 A 
ATOM     91  C   UNL A   1      43.994  36.486  31.705  1.00  0.00     0.041 A 
ATOM     92  F   UNL A   1      43.874  34.702  33.199  1.00  0.00    -0.206 F 
ATOM     93  C   UNL A   1      43.793  37.031  30.443  1.00  0.00     0.022 A 
BRANCH  90  94
ATOM     94  S   UNL A   1      42.981  36.948  27.810  1.00  0.00     0.124 S 
ATOM     95  O   UNL A   1      44.301  37.342  27.323  1.00  0.00    -0.237 OA
ATOM     96  O   UNL A   1      42.361  35.831  27.102  1.00  0.00    -0.237 OA
ATOM     97  O   UNL A   1      42.088  38.046  28.159  1.00  0.00    -0.744 OA
ENDBRANCH  90  94
ENDBRANCH  64  87
ENDBRANCH  38  39
ENDBRANCH  31  33
ENDBRANCH  30  31
ENDBRANCH   1  30
TORSDOF 17
ENDMDL
MODEL 2
REMARK VINA RESULT:     -12.8      3.302      9.094
REMARK SMILES Cc1ccc(C(=O)N2C[C@@H](C(=O)OCCOC(=O)c3ccc(-c4c5nc(c(-c6cc(S(=O)(=O)[O-])ccc6F)c6ccc([nH]6)c(-c6cc(S(=O)(=O)[O-])ccc6F)c6nc(c(-c7cc(S(=O)(=O)[O-])ccc7F)c7ccc4[nH]7)C=C6)C=C5)cc3)C[C@H](C(=O)N3CCOCC3)C2)cc1F
REMARK SMILES IDX 15 1 14 2 13 3 11 4 12 5 10 6 8 7 9 8 92 9 83 10 82 11 6 12
REMARK SMILES IDX 7 13 5 14 1 15 2 16 3 17 94 18 4 19 93 20 95 21 84 22 85 23
REMARK SMILES IDX 86 24 87 25 91 26 88 27 90 28 89 29 16 30 17 31 18 32 19 33
REMARK SMILES IDX 20 34 81 35 21 36 80 37 22 38 23 39 24 40 74 41 25 42 79 43
REMARK SMILES IDX 73 44 75 45 26 46 78 47 72 48 71 49 27 51 59 52 39 53 58 54
REMARK SMILES IDX 40 55 43 56 57 57 76 58 41 59 42 60 56 62 77 63 44 64 28 65
REMARK SMILES IDX 29 66 37 67 30 68 36 69 38 70 35 71 31 72 32 73 33 74 34 75
REMARK SMILES IDX 60 76 61 77 69 78 62 79 68 80 70 81 67 82 63 83 64 84 65 85
REMARK SMILES IDX 66 86 45 87 46 88 54 89 47 90 53 91 55 92 52 93 48 94 49 95
REMARK SMILES IDX 50 96 51 97
REMARK H PARENT 75 50 43 61
REMARK Flexibility Score: inf
ROOT
ATOM      1  C   UNL A   1      33.570  30.818  26.939  1.00  0.00     0.275 C 
ENDROOT
BRANCH   1   2
ATOM      2  C   UNL A   1      32.570  29.718  27.310  1.00  0.00     0.274 C 
BRANCH   2   3
ATOM      3  O   UNL A   1      32.766  28.473  26.605  1.00  0.00    -0.462 OA
BRANCH   3   4
ATOM      4  C   UNL A   1      31.804  27.525  26.802  1.00  0.00     0.310 C 
ATOM      5  O   UNL A   1      31.037  27.513  27.758  1.00  0.00    -0.252 OA
BRANCH   4   6
ATOM      6  C   UNL A   1      31.841  26.410  25.776  1.00  0.00     0.119 C 
ATOM      7  N   UNL A   1      32.181  26.039  23.391  1.00  0.00    -0.337 N 
ATOM      8  C   UNL A   1      32.106  27.046  24.429  1.00  0.00     0.135 C 
ATOM      9  C   UNL A   1      30.972  25.232  23.217  1.00  0.00     0.133 C 
ATOM     10  C   UNL A   1      30.573  24.516  24.527  1.00  0.00     0.099 C 
ATOM     11  C   UNL A   1      30.619  25.474  25.733  1.00  0.00     0.032 C 
BRANCH   7  12
ATOM     12  C   UNL A   1      33.422  25.723  22.854  1.00  0.00     0.254 C 
ATOM     13  O   UNL A   1      33.806  26.140  21.763  1.00  0.00    -0.269 OA
BRANCH  12  14
ATOM     14  C   UNL A   1      34.247  24.686  23.517  1.00  0.00     0.042 A 
ATOM     15  C   UNL A   1      37.435  22.198  24.959  1.00  0.00     0.047 C 
ATOM     16  C   UNL A   1      36.266  23.007  24.488  1.00  0.00    -0.015 A 
ATOM     17  C   UNL A   1      35.617  22.699  23.289  1.00  0.00     0.007 A 
ATOM     18  C   UNL A   1      35.853  24.130  25.214  1.00  0.00     0.126 A 
ATOM     19  C   UNL A   1      34.617  23.539  22.801  1.00  0.00     0.014 A 
ATOM     20  C   UNL A   1      34.858  24.975  24.739  1.00  0.00     0.053 A 
ATOM     21  F   UNL A   1      36.473  24.438  26.364  1.00  0.00    -0.207 F 
ENDBRANCH  12  14
ENDBRANCH   7  12
BRANCH  10  22
ATOM     22  C   UNL A   1      31.196  23.107  24.435  1.00  0.00     0.227 C 
ATOM     23  O   UNL A   1      31.428  22.724  23.272  1.00  0.00    -0.275 OA
ATOM     24  N   UNL A   1      31.717  22.413  25.497  1.00  0.00    -0.338 N 
ATOM     25  C   UNL A   1      31.329  22.447  26.904  1.00  0.00     0.148 C 
ATOM     26  C   UNL A   1      32.607  21.282  25.244  1.00  0.00     0.148 C 
ATOM     27  C   UNL A   1      32.572  22.595  27.778  1.00  0.00     0.181 C 
ATOM     28  C   UNL A   1      33.841  21.426  26.144  1.00  0.00     0.181 C 
ATOM     29  O   UNL A   1      33.504  21.522  27.539  1.00  0.00    -0.378 OA
ENDBRANCH  10  22
ENDBRANCH   4   6
ENDBRANCH   3   4
ENDBRANCH   2   3
ENDBRANCH   1   2
BRANCH   1  30
ATOM     30  O   UNL A   1      34.080  31.516  28.080  1.00  0.00    -0.458 OA
BRANCH  30  31
ATOM     31  C   UNL A   1      35.420  31.661  28.026  1.00  0.00     0.338 C 
ATOM     32  O   UNL A   1      36.031  32.710  27.832  1.00  0.00    -0.246 OA
BRANCH  31  33
ATOM     33  C   UNL A   1      36.118  30.386  28.079  1.00  0.00     0.060 A 
ATOM     34  C   UNL A   1      36.284  29.786  29.334  1.00  0.00     0.016 A 
ATOM     35  C   UNL A   1      36.977  30.129  27.017  1.00  0.00     0.016 A 
ATOM     36  C   UNL A   1      37.448  29.084  29.605  1.00  0.00     0.010 A 
ATOM     37  C   UNL A   1      38.133  29.435  27.291  1.00  0.00     0.010 A 
ATOM     38  C   UNL A   1      38.406  29.006  28.604  1.00  0.00    -0.014 A 
BRANCH  38  39
ATOM     39  C   UNL A   1      39.759  28.532  28.825  1.00  0.00     0.031 A 
ATOM     40  C   UNL A   1      40.088  27.105  28.680  1.00  0.00     0.074 A 
ATOM     41  C   UNL A   1      40.745  29.455  28.890  1.00  0.00     0.049 A 
ATOM     42  N   UNL A   1      41.251  26.620  28.948  1.00  0.00    -0.248 NA
ATOM     43  C   UNL A   1      39.120  26.103  28.251  1.00  0.00     0.031 C 
ATOM     44  C   UNL A   1      42.118  29.284  28.441  1.00  0.00     0.029 A 
ATOM     45  N   UNL A   1      40.737  30.708  29.513  1.00  0.00    -0.354 N 
ATOM     46  C   UNL A   1      41.278  25.333  28.472  1.00  0.00     0.074 A 
ATOM     47  C   UNL A   1      39.905  25.025  28.133  1.00  0.00     0.031 C 
ATOM     48  C   UNL A   1      42.874  30.259  28.962  1.00  0.00     0.029 A 
ATOM     49  C   UNL A   1      42.060  30.971  29.930  1.00  0.00     0.049 A 
ATOM     50  H   UNL A   1      39.957  31.295  29.635  1.00  0.00     0.167 HD
ATOM     51  C   UNL A   1      42.484  24.727  28.284  1.00  0.00     0.034 A 
ATOM     52  C   UNL A   1      42.445  31.265  31.208  1.00  0.00     0.034 A 
ATOM     53  C   UNL A   1      43.593  25.576  28.725  1.00  0.00     0.049 A 
ATOM     54  C   UNL A   1      43.468  30.292  31.780  1.00  0.00     0.074 A 
ATOM     55  C   UNL A   1      44.476  26.421  28.070  1.00  0.00     0.029 A 
ATOM     56  N   UNL A   1      43.731  25.856  30.072  1.00  0.00    -0.354 N 
ATOM     57  N   UNL A   1      44.010  29.308  31.124  1.00  0.00    -0.248 NA
ATOM     58  C   UNL A   1      43.813  30.263  33.207  1.00  0.00     0.031 C 
ATOM     59  C   UNL A   1      45.180  27.177  29.046  1.00  0.00     0.029 A 
ATOM     60  C   UNL A   1      44.728  26.793  30.293  1.00  0.00     0.049 A 
ATOM     61  H   UNL A   1      43.190  25.443  30.784  1.00  0.00     0.167 HD
ATOM     62  C   UNL A   1      44.586  28.439  32.017  1.00  0.00     0.074 A 
ATOM     63  C   UNL A   1      44.475  29.101  33.301  1.00  0.00     0.031 C 
ATOM     64  C   UNL A   1      45.024  27.197  31.658  1.00  0.00     0.034 A 
BRANCH  51  65
ATOM     65  C   UNL A   1      42.670  23.457  27.484  1.00  0.00     0.023 A 
ATOM     66  C   UNL A   1      43.507  23.354  26.355  1.00  0.00     0.031 A 
ATOM     67  C   UNL A   1      42.031  22.260  27.876  1.00  0.00     0.131 A 
ATOM     68  C   UNL A   1      43.784  22.112  25.756  1.00  0.00     0.055 A 
ATOM     69  C   UNL A   1      42.253  21.035  27.238  1.00  0.00     0.041 A 
ATOM     70  F   UNL A   1      41.196  22.212  28.924  1.00  0.00    -0.206 F 
ATOM     71  C   UNL A   1      43.155  20.948  26.190  1.00  0.00     0.022 A 
BRANCH  68  72
ATOM     72  S   UNL A   1      45.057  21.950  24.470  1.00  0.00     0.124 S 
ATOM     73  O   UNL A   1      46.292  21.960  25.255  1.00  0.00    -0.237 OA
ATOM     74  O   UNL A   1      44.726  20.669  23.854  1.00  0.00    -0.237 OA
ATOM     75  O   UNL A   1      44.859  23.128  23.630  1.00  0.00    -0.744 OA
ENDBRANCH  68  72
ENDBRANCH  51  65
BRANCH  52  76
ATOM     76  C   UNL A   1      41.353  31.813  32.049  1.00  0.00     0.023 A 
ATOM     77  C   UNL A   1      40.593  30.891  32.774  1.00  0.00     0.031 A 
ATOM     78  C   UNL A   1      40.820  33.089  31.789  1.00  0.00     0.131 A 
ATOM     79  C   UNL A   1      39.269  31.191  33.066  1.00  0.00     0.055 A 
ATOM     80  C   UNL A   1      39.507  33.404  32.134  1.00  0.00     0.041 A 
ATOM     81  F   UNL A   1      41.523  33.988  31.081  1.00  0.00    -0.206 F 
ATOM     82  C   UNL A   1      38.713  32.436  32.740  1.00  0.00     0.022 A 
BRANCH  79  83
ATOM     83  S   UNL A   1      38.164  29.834  33.501  1.00  0.00     0.124 S 
ATOM     84  O   UNL A   1      36.929  30.225  32.854  1.00  0.00    -0.237 OA
ATOM     85  O   UNL A   1      38.895  28.710  32.919  1.00  0.00    -0.237 OA
ATOM     86  O   UNL A   1      38.157  29.843  34.962  1.00  0.00    -0.744 OA
ENDBRANCH  79  83
ENDBRANCH  52  76
BRANCH  64  87
ATOM     87  C   UNL A   1      45.733  26.235  32.580  1.00  0.00     0.023 A 
ATOM     88  C   UNL A   1      44.986  25.410  33.452  1.00  0.00     0.031 A 
ATOM     89  C   UNL A   1      47.114  25.980  32.520  1.00  0.00     0.131 A 
ATOM     90  C   UNL A   1      45.600  24.419  34.228  1.00  0.00     0.055 A 
ATOM     91  C   UNL A   1      47.735  25.023  33.332  1.00  0.00     0.041 A 
ATOM     92  F   UNL A   1      47.900  26.604  31.628  1.00  0.00    -0.206 F 
ATOM     93  C   UNL A   1      46.978  24.235  34.189  1.00  0.00     0.022 A 
BRANCH  90  94
ATOM     94  S   UNL A   1      44.614  23.278  35.236  1.00  0.00     0.124 S 
ATOM     95  O   UNL A   1      44.424  22.156  34.318  1.00  0.00    -0.237 OA
ATOM     96  O   UNL A   1      45.512  23.020  36.359  1.00  0.00    -0.237 OA
ATOM     97  O   UNL A   1      43.412  24.040  35.553  1.00  0.00    -0.744 OA
ENDBRANCH  90  94
ENDBRANCH  64  87
ENDBRANCH  38  39
ENDBRANCH  31  33
ENDBRANCH  30  31
ENDBRANCH   1  30
TORSDOF 17
ENDMDL
MODEL 3
REMARK VINA RESULT:     -12.5      1.884      2.663
REMARK SMILES Cc1ccc(C(=O)N2C[C@@H](C(=O)OCCOC(=O)c3ccc(-c4c5nc(c(-c6cc(S(=O)(=O)[O-])ccc6F)c6ccc([nH]6)c(-c6cc(S(=O)(=O)[O-])ccc6F)c6nc(c(-c7cc(S(=O)(=O)[O-])ccc7F)c7ccc4[nH]7)C=C6)C=C5)cc3)C[C@H](C(=O)N3CCOCC3)C2)cc1F
REMARK SMILES IDX 15 1 14 2 13 3 11 4 12 5 10 6 8 7 9 8 92 9 83 10 82 11 6 12
REMARK SMILES IDX 7 13 5 14 1 15 2 16 3 17 94 18 4 19 93 20 95 21 84 22 85 23
REMARK SMILES IDX 86 24 87 25 91 26 88 27 90 28 89 29 16 30 17 31 18 32 19 33
REMARK SMILES IDX 20 34 81 35 21 36 80 37 22 38 23 39 24 40 74 41 25 42 79 43
REMARK SMILES IDX 73 44 75 45 26 46 78 47 72 48 71 49 27 51 59 52 39 53 58 54
REMARK SMILES IDX 40 55 43 56 57 57 76 58 41 59 42 60 56 62 77 63 44 64 28 65
REMARK SMILES IDX 29 66 37 67 30 68 36 69 38 70 35 71 31 72 32 73 33 74 34 75
REMARK SMILES IDX 60 76 61 77 69 78 62 79 68 80 70 81 67 82 63 83 64 84 65 85
REMARK SMILES IDX 66 86 45 87 46 88 54 89 47 90 53 91 55 92 52 93 48 94 49 95
REMARK SMILES IDX 50 96 51 97
REMARK H PARENT 75 50 43 61
REMARK Flexibility Score: inf
ROOT
ATOM      1  C   UNL A   1      38.355  22.113  25.572  1.00  0.00     0.275 C 
ENDROOT
BRANCH   1   2
ATOM      2  C   UNL A   1      37.405  20.943  25.291  1.00  0.00     0.274 C 
BRANCH   2   3
ATOM      3  O   UNL A   1      36.136  21.030  25.977  1.00  0.00    -0.462 OA
BRANCH   3   4
ATOM      4  C   UNL A   1      35.031  21.002  25.178  1.00  0.00     0.310 C 
ATOM      5  O   UNL A   1      34.606  19.992  24.628  1.00  0.00    -0.252 OA
BRANCH   4   6
ATOM      6  C   UNL A   1      34.429  22.372  24.938  1.00  0.00     0.119 C 
ATOM      7  N   UNL A   1      34.351  24.142  23.264  1.00  0.00    -0.337 N 
ATOM      8  C   UNL A   1      34.906  22.842  23.581  1.00  0.00     0.135 C 
ATOM      9  C   UNL A   1      34.701  25.213  24.199  1.00  0.00     0.133 C 
ATOM     10  C   UNL A   1      34.272  24.869  25.642  1.00  0.00     0.099 C 
ATOM     11  C   UNL A   1      34.677  23.433  26.028  1.00  0.00     0.032 C 
BRANCH   7  12
ATOM     12  C   UNL A   1      33.344  24.225  22.311  1.00  0.00     0.254 C 
ATOM     13  O   UNL A   1      33.279  23.477  21.338  1.00  0.00    -0.269 OA
BRANCH  12  14
ATOM     14  C   UNL A   1      32.418  25.380  22.349  1.00  0.00     0.042 A 
ATOM     15  C   UNL A   1      30.052  28.783  23.471  1.00  0.00     0.047 C 
ATOM     16  C   UNL A   1      30.833  27.593  23.004  1.00  0.00    -0.015 A 
ATOM     17  C   UNL A   1      30.317  26.300  23.136  1.00  0.00     0.007 A 
ATOM     18  C   UNL A   1      32.124  27.760  22.491  1.00  0.00     0.126 A 
ATOM     19  C   UNL A   1      31.109  25.198  22.817  1.00  0.00     0.014 A 
ATOM     20  C   UNL A   1      32.922  26.669  22.170  1.00  0.00     0.053 A 
ATOM     21  F   UNL A   1      32.630  28.996  22.364  1.00  0.00    -0.207 F 
ENDBRANCH  12  14
ENDBRANCH   7  12
BRANCH  10  22
ATOM     22  C   UNL A   1      32.889  25.527  25.832  1.00  0.00     0.227 C 
ATOM     23  O   UNL A   1      31.952  24.718  25.969  1.00  0.00    -0.275 OA
ATOM     24  N   UNL A   1      32.688  26.856  26.106  1.00  0.00    -0.338 N 
ATOM     25  C   UNL A   1      33.487  28.013  25.714  1.00  0.00     0.148 C 
ATOM     26  C   UNL A   1      31.396  27.288  26.635  1.00  0.00     0.148 C 
ATOM     27  C   UNL A   1      33.728  28.908  26.928  1.00  0.00     0.181 C 
ATOM     28  C   UNL A   1      31.647  28.206  27.839  1.00  0.00     0.181 C 
ATOM     29  O   UNL A   1      32.482  29.333  27.513  1.00  0.00    -0.378 OA
ENDBRANCH  10  22
ENDBRANCH   4   6
ENDBRANCH   3   4
ENDBRANCH   2   3
ENDBRANCH   1   2
BRANCH   1  30
ATOM     30  O   UNL A   1      39.279  21.839  26.630  1.00  0.00    -0.458 OA
BRANCH  30  31
ATOM     31  C   UNL A   1      40.260  22.762  26.697  1.00  0.00     0.338 C 
ATOM     32  O   UNL A   1      41.466  22.538  26.777  1.00  0.00    -0.246 OA
BRANCH  31  33
ATOM     33  C   UNL A   1      39.739  24.115  26.816  1.00  0.00     0.060 A 
ATOM     34  C   UNL A   1      40.332  25.113  26.032  1.00  0.00     0.016 A 
ATOM     35  C   UNL A   1      39.085  24.403  28.008  1.00  0.00     0.016 A 
ATOM     36  C   UNL A   1      40.469  26.393  26.547  1.00  0.00     0.010 A 
ATOM     37  C   UNL A   1      39.226  25.674  28.518  1.00  0.00     0.010 A 
ATOM     38  C   UNL A   1      40.000  26.628  27.832  1.00  0.00    -0.014 A 
BRANCH  38  39
ATOM     39  C   UNL A   1      40.299  27.830  28.586  1.00  0.00     0.031 A 
ATOM     40  C   UNL A   1      39.397  28.992  28.538  1.00  0.00     0.074 A 
ATOM     41  C   UNL A   1      41.261  27.755  29.533  1.00  0.00     0.049 A 
ATOM     42  N   UNL A   1      39.659  30.112  29.118  1.00  0.00    -0.248 NA
ATOM     43  C   UNL A   1      38.138  28.993  27.803  1.00  0.00     0.031 C 
ATOM     44  C   UNL A   1      41.295  28.488  30.789  1.00  0.00     0.029 A 
ATOM     45  N   UNL A   1      42.491  27.089  29.487  1.00  0.00    -0.354 N 
ATOM     46  C   UNL A   1      38.515  30.869  29.083  1.00  0.00     0.074 A 
ATOM     47  C   UNL A   1      37.627  30.173  28.174  1.00  0.00     0.031 C 
ATOM     48  C   UNL A   1      42.531  28.420  31.302  1.00  0.00     0.029 A 
ATOM     49  C   UNL A   1      43.387  27.819  30.296  1.00  0.00     0.049 A 
ATOM     50  H   UNL A   1      42.693  26.267  28.985  1.00  0.00     0.167 HD
ATOM     51  C   UNL A   1      38.397  31.924  29.938  1.00  0.00     0.034 A 
ATOM     52  C   UNL A   1      44.591  28.326  29.892  1.00  0.00     0.034 A 
ATOM     53  C   UNL A   1      39.613  32.118  30.731  1.00  0.00     0.049 A 
ATOM     54  C   UNL A   1      44.705  29.837  30.053  1.00  0.00     0.074 A 
ATOM     55  C   UNL A   1      39.991  31.757  32.016  1.00  0.00     0.029 A 
ATOM     56  N   UNL A   1      40.774  32.520  30.095  1.00  0.00    -0.354 N 
ATOM     57  N   UNL A   1      43.801  30.601  30.593  1.00  0.00    -0.248 NA
ATOM     58  C   UNL A   1      45.792  30.611  29.441  1.00  0.00     0.031 C 
ATOM     59  C   UNL A   1      41.385  31.996  32.156  1.00  0.00     0.029 A 
ATOM     60  C   UNL A   1      41.856  32.501  30.960  1.00  0.00     0.049 A 
ATOM     61  H   UNL A   1      40.825  32.786  29.148  1.00  0.00     0.167 HD
ATOM     62  C   UNL A   1      44.057  31.905  30.252  1.00  0.00     0.074 A 
ATOM     63  C   UNL A   1      45.335  31.866  29.570  1.00  0.00     0.031 C 
ATOM     64  C   UNL A   1      43.160  32.912  30.465  1.00  0.00     0.034 A 
BRANCH  51  65
ATOM     65  C   UNL A   1      37.093  32.634  30.221  1.00  0.00     0.023 A 
ATOM     66  C   UNL A   1      36.461  32.646  31.481  1.00  0.00     0.031 A 
ATOM     67  C   UNL A   1      36.450  33.386  29.214  1.00  0.00     0.131 A 
ATOM     68  C   UNL A   1      35.347  33.467  31.736  1.00  0.00     0.055 A 
ATOM     69  C   UNL A   1      35.302  34.150  29.450  1.00  0.00     0.041 A 
ATOM     70  F   UNL A   1      36.930  33.453  27.963  1.00  0.00    -0.206 F 
ATOM     71  C   UNL A   1      34.759  34.217  30.722  1.00  0.00     0.022 A 
BRANCH  68  72
ATOM     72  S   UNL A   1      34.698  33.675  33.421  1.00  0.00     0.124 S 
ATOM     73  O   UNL A   1      33.284  33.342  33.249  1.00  0.00    -0.237 OA
ATOM     74  O   UNL A   1      35.475  32.702  34.183  1.00  0.00    -0.237 OA
ATOM     75  O   UNL A   1      34.961  35.078  33.727  1.00  0.00    -0.744 OA
ENDBRANCH  68  72
ENDBRANCH  51  65
BRANCH  52  76
ATOM     76  C   UNL A   1      45.162  27.635  28.711  1.00  0.00     0.023 A 
ATOM     77  C   UNL A   1      46.215  26.747  28.949  1.00  0.00     0.031 A 
ATOM     78  C   UNL A   1      44.987  28.161  27.418  1.00  0.00     0.131 A 
ATOM     79  C   UNL A   1      47.163  26.545  27.955  1.00  0.00     0.055 A 
ATOM     80  C   UNL A   1      45.914  27.911  26.407  1.00  0.00     0.041 A 
ATOM     81  F   UNL A   1      43.993  29.029  27.166  1.00  0.00    -0.206 F 
ATOM     82  C   UNL A   1      47.030  27.130  26.689  1.00  0.00     0.022 A 
BRANCH  79  83
ATOM     83  S   UNL A   1      48.761  25.855  28.429  1.00  0.00     0.124 S 
ATOM     84  O   UNL A   1      49.675  26.913  28.050  1.00  0.00    -0.237 OA
ATOM     85  O   UNL A   1      48.537  25.648  29.859  1.00  0.00    -0.237 OA
ATOM     86  O   UNL A   1      48.851  24.618  27.658  1.00  0.00    -0.744 OA
ENDBRANCH  79  83
ENDBRANCH  52  76
BRANCH  64  87
ATOM     87  C   UNL A   1      43.420  34.371  30.181  1.00  0.00     0.023 A 
ATOM     88  C   UNL A   1      43.308  34.867  28.863  1.00  0.00     0.031 A 
ATOM     89  C   UNL A   1      43.619  35.332  31.188  1.00  0.00     0.131 A 
ATOM     90  C   UNL A   1      43.418  36.234  28.582  1.00  0.00     0.055 A 
ATOM     91  C   UNL A   1      43.777  36.694  30.903  1.00  0.00     0.041 A 
ATOM     92  F   UNL A   1      43.601  34.995  32.487  1.00  0.00    -0.206 F 
ATOM     93  C   UNL A   1      43.675  37.152  29.596  1.00  0.00     0.022 A 
BRANCH  90  94
ATOM     94  S   UNL A   1      43.135  36.871  26.907  1.00  0.00     0.124 S 
ATOM     95  O   UNL A   1      44.348  37.653  26.676  1.00  0.00    -0.237 OA
ATOM     96  O   UNL A   1      43.030  35.637  26.132  1.00  0.00    -0.237 OA
ATOM     97  O   UNL A   1      41.905  37.644  27.030  1.00  0.00    -0.744 OA
ENDBRANCH  90  94
ENDBRANCH  64  87
ENDBRANCH  38  39
ENDBRANCH  31  33
ENDBRANCH  30  31
ENDBRANCH   1  30
TORSDOF 17
ENDMDL
