MODEL 1
REMARK VINA RESULT:     -11.6      0.000      0.000
REMARK SMILES COc1ccc(C[NH2+]Cc2cccn2-c2sc(C)c(C)c2C(=O)OCCOC(=O)c2ccc(-c3c4nc(c(-c5cc(S(=O)(=O)[O-])ccc5F)c5ccc([nH]5)c(-c5cc(S(=O)(=O)[O-])ccc5F)c5nc(c(-c6cc(S(=O)(=O)[O-])ccc6F)c6ccc3[nH]6)C=C5)C=C4)cc2)cc1
REMARK SMILES IDX 24 1 22 2 23 3 21 4 15 5 16 6 17 7 19 8 18 9 20 10 14 11
REMARK SMILES IDX 10 12 11 13 12 14 13 15 9 16 8 17 7 20 6 21 3 22 4 23 94 24
REMARK SMILES IDX 5 25 93 26 2 27 1 28 25 29 26 30 27 31 28 32 29 33 30 34
REMARK SMILES IDX 31 35 92 36 32 37 91 38 33 39 34 40 35 41 85 42 36 43 90 44
REMARK SMILES IDX 84 45 86 46 37 47 89 48 83 49 82 50 38 52 70 53 50 54 69 55
REMARK SMILES IDX 51 56 54 57 68 58 87 59 52 60 53 61 67 63 88 64 55 65 39 66
REMARK SMILES IDX 40 67 48 68 41 69 47 70 49 71 46 72 42 73 43 74 44 75 45 76
REMARK SMILES IDX 71 77 72 78 80 79 73 80 79 81 81 82 78 83 74 84 75 85 76 86
REMARK SMILES IDX 77 87 56 88 57 89 65 90 58 91 64 92 66 93 63 94 59 95 60 96
REMARK SMILES IDX 61 97 62 98
REMARK H PARENT 8 18 8 19 86 51 54 62
REMARK Flexibility Score: inf
ROOT
ATOM      1  O   UNL A   1      35.902  24.267  24.879  1.00  0.00    -0.458 OA
ENDROOT
BRANCH   1   2
ATOM      2  C   UNL A   1      34.694  24.779  25.253  1.00  0.00     0.341 C 
ATOM      3  O   UNL A   1      34.276  24.719  26.406  1.00  0.00    -0.246 OA
BRANCH   2   4
ATOM      4  C   UNL A   1      33.954  25.447  24.160  1.00  0.00     0.098 A 
ATOM      5  C   UNL A   1      33.247  26.639  24.272  1.00  0.00     0.115 A 
ATOM      6  S   UNL A   1      32.534  27.155  22.826  1.00  0.00    -0.122 S 
ATOM      7  C   UNL A   1      33.001  25.737  22.009  1.00  0.00     0.007 A 
ATOM      8  C   UNL A   1      33.750  24.889  22.817  1.00  0.00    -0.021 A 
ATOM      9  C   UNL A   1      32.572  25.525  20.590  1.00  0.00     0.057 C 
ATOM     10  C   UNL A   1      34.211  23.541  22.340  1.00  0.00     0.046 C 
BRANCH   5  11
ATOM     11  N   UNL A   1      33.174  27.508  25.372  1.00  0.00    -0.306 N 
ATOM     12  C   UNL A   1      32.216  27.589  26.389  1.00  0.00     0.078 A 
ATOM     13  C   UNL A   1      32.693  28.486  27.338  1.00  0.00     0.029 A 
ATOM     14  C   UNL A   1      33.882  29.059  26.858  1.00  0.00     0.020 A 
ATOM     15  C   UNL A   1      34.136  28.473  25.646  1.00  0.00     0.092 A 
BRANCH  12  16
ATOM     16  C   UNL A   1      30.981  26.736  26.478  1.00  0.00     0.316 C 
BRANCH  16  17
ATOM     17  N   UNL A   1      31.296  25.321  26.708  1.00  0.00    -0.338 N 
ATOM     18  H   UNL A   1      32.292  25.178  26.545  1.00  0.00     0.346 HD
ATOM     19  H   UNL A   1      31.035  25.100  27.669  1.00  0.00     0.346 HD
BRANCH  17  20
ATOM     20  C   UNL A   1      30.547  24.426  25.832  1.00  0.00     0.297 C 
BRANCH  20  21
ATOM     21  C   UNL A   1      31.324  23.160  25.551  1.00  0.00     0.006 A 
ATOM     22  C   UNL A   1      32.805  20.826  25.022  1.00  0.00     0.118 A 
ATOM     23  C   UNL A   1      32.788  21.377  26.304  1.00  0.00     0.047 A 
ATOM     24  C   UNL A   1      32.047  21.418  24.011  1.00  0.00     0.047 A 
ATOM     25  C   UNL A   1      32.059  22.538  26.567  1.00  0.00     0.013 A 
ATOM     26  C   UNL A   1      31.310  22.578  24.275  1.00  0.00     0.013 A 
BRANCH  22  27
ATOM     27  O   UNL A   1      33.546  19.685  24.878  1.00  0.00    -0.497 OA
ATOM     28  C   UNL A   1      32.933  18.501  25.375  1.00  0.00     0.278 C 
ENDBRANCH  22  27
ENDBRANCH  20  21
ENDBRANCH  17  20
ENDBRANCH  16  17
ENDBRANCH  12  16
ENDBRANCH   5  11
ENDBRANCH   2   4
ENDBRANCH   1   2
BRANCH   1  29
ATOM     29  C   UNL A   1      36.390  23.105  25.568  1.00  0.00     0.275 C 
BRANCH  29  30
ATOM     30  C   UNL A   1      37.860  23.248  25.964  1.00  0.00     0.275 C 
BRANCH  30  31
ATOM     31  O   UNL A   1      38.128  24.383  26.797  1.00  0.00    -0.458 OA
BRANCH  31  32
ATOM     32  C   UNL A   1      39.348  24.320  27.371  1.00  0.00     0.338 C 
ATOM     33  O   UNL A   1      39.961  23.318  27.704  1.00  0.00    -0.246 OA
BRANCH  32  34
ATOM     34  C   UNL A   1      39.846  25.624  27.777  1.00  0.00     0.060 A 
ATOM     35  C   UNL A   1      39.591  25.984  29.104  1.00  0.00     0.016 A 
ATOM     36  C   UNL A   1      40.197  26.561  26.799  1.00  0.00     0.016 A 
ATOM     37  C   UNL A   1      39.587  27.317  29.441  1.00  0.00     0.010 A 
ATOM     38  C   UNL A   1      40.183  27.904  27.135  1.00  0.00     0.010 A 
ATOM     39  C   UNL A   1      39.860  28.271  28.451  1.00  0.00    -0.014 A 
BRANCH  39  40
ATOM     40  C   UNL A   1      40.125  29.636  28.928  1.00  0.00     0.031 A 
ATOM     41  C   UNL A   1      38.748  30.339  29.157  1.00  0.00     0.074 A 
ATOM     42  C   UNL A   1      41.446  30.010  29.010  1.00  0.00     0.049 A 
ATOM     43  N   UNL A   1      38.428  31.595  29.157  1.00  0.00    -0.248 NA
ATOM     44  C   UNL A   1      37.506  29.506  29.314  1.00  0.00     0.031 C 
ATOM     45  C   UNL A   1      42.618  29.134  28.732  1.00  0.00     0.029 A 
ATOM     46  N   UNL A   1      42.091  31.186  29.335  1.00  0.00    -0.354 N 
ATOM     47  C   UNL A   1      37.096  31.691  29.636  1.00  0.00     0.074 A 
ATOM     48  C   UNL A   1      36.531  30.390  29.520  1.00  0.00     0.031 C 
ATOM     49  C   UNL A   1      43.788  29.821  28.812  1.00  0.00     0.029 A 
ATOM     50  C   UNL A   1      43.521  31.196  29.195  1.00  0.00     0.049 A 
ATOM     51  H   UNL A   1      41.597  31.977  29.649  1.00  0.00     0.167 HD
ATOM     52  C   UNL A   1      36.627  32.788  30.302  1.00  0.00     0.034 A 
ATOM     53  C   UNL A   1      44.393  32.252  29.365  1.00  0.00     0.034 A 
ATOM     54  C   UNL A   1      37.636  33.792  30.298  1.00  0.00     0.049 A 
ATOM     55  C   UNL A   1      43.538  33.256  30.013  1.00  0.00     0.074 A 
ATOM     56  C   UNL A   1      38.185  34.530  29.284  1.00  0.00     0.029 A 
ATOM     57  N   UNL A   1      38.473  33.823  31.393  1.00  0.00    -0.354 N 
ATOM     58  N   UNL A   1      43.133  33.186  31.243  1.00  0.00    -0.248 NA
ATOM     59  C   UNL A   1      43.036  34.384  29.218  1.00  0.00     0.031 C 
ATOM     60  C   UNL A   1      39.555  34.486  29.599  1.00  0.00     0.029 A 
ATOM     61  C   UNL A   1      39.737  34.029  30.914  1.00  0.00     0.049 A 
ATOM     62  H   UNL A   1      38.211  33.718  32.337  1.00  0.00     0.167 HD
ATOM     63  C   UNL A   1      42.072  34.050  31.251  1.00  0.00     0.074 A 
ATOM     64  C   UNL A   1      42.289  34.970  30.151  1.00  0.00     0.031 C 
ATOM     65  C   UNL A   1      40.869  33.619  31.715  1.00  0.00     0.034 A 
BRANCH  52  66
ATOM     66  C   UNL A   1      35.469  33.003  31.249  1.00  0.00     0.023 A 
ATOM     67  C   UNL A   1      34.626  34.095  30.925  1.00  0.00     0.031 A 
ATOM     68  C   UNL A   1      35.358  32.502  32.551  1.00  0.00     0.131 A 
ATOM     69  C   UNL A   1      33.908  34.781  31.909  1.00  0.00     0.055 A 
ATOM     70  C   UNL A   1      34.552  33.131  33.515  1.00  0.00     0.041 A 
ATOM     71  F   UNL A   1      36.075  31.453  32.972  1.00  0.00    -0.206 F 
ATOM     72  C   UNL A   1      33.867  34.306  33.212  1.00  0.00     0.022 A 
BRANCH  69  73
ATOM     73  S   UNL A   1      33.251  36.418  31.479  1.00  0.00     0.124 S 
ATOM     74  O   UNL A   1      34.165  37.304  32.191  1.00  0.00    -0.237 OA
ATOM     75  O   UNL A   1      33.363  36.419  30.024  1.00  0.00    -0.237 OA
ATOM     76  O   UNL A   1      31.886  36.379  31.998  1.00  0.00    -0.744 OA
ENDBRANCH  69  73
ENDBRANCH  52  66
BRANCH  53  77
ATOM     77  C   UNL A   1      45.840  32.733  29.137  1.00  0.00     0.023 A 
ATOM     78  C   UNL A   1      46.499  32.986  27.920  1.00  0.00     0.031 A 
ATOM     79  C   UNL A   1      46.623  33.082  30.296  1.00  0.00     0.131 A 
ATOM     80  C   UNL A   1      47.785  33.630  27.916  1.00  0.00     0.055 A 
ATOM     81  C   UNL A   1      47.813  33.805  30.282  1.00  0.00     0.041 A 
ATOM     82  F   UNL A   1      46.266  32.732  31.538  1.00  0.00    -0.206 F 
ATOM     83  C   UNL A   1      48.397  34.101  29.080  1.00  0.00     0.022 A 
BRANCH  80  84
ATOM     84  S   UNL A   1      48.740  33.898  26.385  1.00  0.00     0.124 S 
ATOM     85  O   UNL A   1      49.332  32.582  26.164  1.00  0.00    -0.237 OA
ATOM     86  O   UNL A   1      47.720  34.315  25.431  1.00  0.00    -0.237 OA
ATOM     87  O   UNL A   1      49.692  34.944  26.759  1.00  0.00    -0.744 OA
ENDBRANCH  80  84
ENDBRANCH  53  77
BRANCH  65  88
ATOM     88  C   UNL A   1      40.929  32.464  32.723  1.00  0.00     0.023 A 
ATOM     89  C   UNL A   1      40.624  31.148  32.315  1.00  0.00     0.031 A 
ATOM     90  C   UNL A   1      41.176  32.624  34.099  1.00  0.00     0.131 A 
ATOM     91  C   UNL A   1      40.534  30.091  33.245  1.00  0.00     0.055 A 
ATOM     92  C   UNL A   1      41.079  31.579  35.032  1.00  0.00     0.041 A 
ATOM     93  F   UNL A   1      41.527  33.807  34.600  1.00  0.00    -0.206 F 
ATOM     94  C   UNL A   1      40.750  30.302  34.606  1.00  0.00     0.022 A 
BRANCH  91  95
ATOM     95  S   UNL A   1      40.157  28.416  32.656  1.00  0.00     0.124 S 
ATOM     96  O   UNL A   1      41.193  28.182  31.658  1.00  0.00    -0.237 OA
ATOM     97  O   UNL A   1      40.252  27.624  33.878  1.00  0.00    -0.237 OA
ATOM     98  O   UNL A   1      38.801  28.539  32.117  1.00  0.00    -0.744 OA
ENDBRANCH  91  95
ENDBRANCH  65  88
ENDBRANCH  39  40
ENDBRANCH  32  34
ENDBRANCH  31  32
ENDBRANCH  30  31
ENDBRANCH  29  30
ENDBRANCH   1  29
TORSDOF 20
ENDMDL
MODEL 2
REMARK VINA RESULT:     -11.6      4.573      9.438
REMARK SMILES COc1ccc(C[NH2+]Cc2cccn2-c2sc(C)c(C)c2C(=O)OCCOC(=O)c2ccc(-c3c4nc(c(-c5cc(S(=O)(=O)[O-])ccc5F)c5ccc([nH]5)c(-c5cc(S(=O)(=O)[O-])ccc5F)c5nc(c(-c6cc(S(=O)(=O)[O-])ccc6F)c6ccc3[nH]6)C=C5)C=C4)cc2)cc1
REMARK SMILES IDX 24 1 22 2 23 3 21 4 15 5 16 6 17 7 19 8 18 9 20 10 14 11
REMARK SMILES IDX 10 12 11 13 12 14 13 15 9 16 8 17 7 20 6 21 3 22 4 23 94 24
REMARK SMILES IDX 5 25 93 26 2 27 1 28 25 29 26 30 27 31 28 32 29 33 30 34
REMARK SMILES IDX 31 35 92 36 32 37 91 38 33 39 34 40 35 41 85 42 36 43 90 44
REMARK SMILES IDX 84 45 86 46 37 47 89 48 83 49 82 50 38 52 70 53 50 54 69 55
REMARK SMILES IDX 51 56 54 57 68 58 87 59 52 60 53 61 67 63 88 64 55 65 39 66
REMARK SMILES IDX 40 67 48 68 41 69 47 70 49 71 46 72 42 73 43 74 44 75 45 76
REMARK SMILES IDX 71 77 72 78 80 79 73 80 79 81 81 82 78 83 74 84 75 85 76 86
REMARK SMILES IDX 77 87 56 88 57 89 65 90 58 91 64 92 66 93 63 94 59 95 60 96
REMARK SMILES IDX 61 97 62 98
REMARK H PARENT 8 18 8 19 86 51 54 62
REMARK Flexibility Score: inf
ROOT
ATOM      1  O   UNL A   1      33.890  28.262  25.916  1.00  0.00    -0.458 OA
ENDROOT
BRANCH   1   2
ATOM      2  C   UNL A   1      33.252  27.061  26.025  1.00  0.00     0.341 C 
ATOM      3  O   UNL A   1      32.561  26.762  26.995  1.00  0.00    -0.246 OA
BRANCH   2   4
ATOM      4  C   UNL A   1      33.433  26.169  24.859  1.00  0.00     0.098 A 
ATOM      5  C   UNL A   1      32.617  26.132  23.733  1.00  0.00     0.115 A 
ATOM      6  S   UNL A   1      33.114  25.019  22.559  1.00  0.00    -0.122 S 
ATOM      7  C   UNL A   1      34.356  24.418  23.554  1.00  0.00     0.007 A 
ATOM      8  C   UNL A   1      34.435  25.098  24.764  1.00  0.00    -0.021 A 
ATOM      9  C   UNL A   1      35.188  23.264  23.085  1.00  0.00     0.057 C 
ATOM     10  C   UNL A   1      35.404  24.697  25.839  1.00  0.00     0.046 C 
BRANCH   5  11
ATOM     11  N   UNL A   1      31.547  26.980  23.407  1.00  0.00    -0.306 N 
ATOM     12  C   UNL A   1      30.288  27.105  24.005  1.00  0.00     0.078 A 
ATOM     13  C   UNL A   1      29.664  28.208  23.432  1.00  0.00     0.029 A 
ATOM     14  C   UNL A   1      30.475  28.694  22.394  1.00  0.00     0.020 A 
ATOM     15  C   UNL A   1      31.599  27.910  22.375  1.00  0.00     0.092 A 
BRANCH  12  16
ATOM     16  C   UNL A   1      29.795  26.273  25.156  1.00  0.00     0.316 C 
BRANCH  16  17
ATOM     17  N   UNL A   1      29.994  24.836  24.930  1.00  0.00    -0.338 N 
ATOM     18  H   UNL A   1      29.148  24.452  24.512  1.00  0.00     0.346 HD
ATOM     19  H   UNL A   1      30.801  24.730  24.316  1.00  0.00     0.346 HD
BRANCH  17  20
ATOM     20  C   UNL A   1      30.279  24.106  26.162  1.00  0.00     0.297 C 
BRANCH  20  21
ATOM     21  C   UNL A   1      31.378  23.090  25.952  1.00  0.00     0.006 A 
ATOM     22  C   UNL A   1      33.400  21.169  25.575  1.00  0.00     0.118 A 
ATOM     23  C   UNL A   1      32.455  21.405  24.577  1.00  0.00     0.047 A 
ATOM     24  C   UNL A   1      33.361  21.923  26.748  1.00  0.00     0.047 A 
ATOM     25  C   UNL A   1      31.447  22.353  24.764  1.00  0.00     0.013 A 
ATOM     26  C   UNL A   1      32.357  22.879  26.934  1.00  0.00     0.013 A 
BRANCH  22  27
ATOM     27  O   UNL A   1      34.345  20.223  25.284  1.00  0.00    -0.497 OA
ATOM     28  C   UNL A   1      33.853  19.062  24.626  1.00  0.00     0.278 C 
ENDBRANCH  22  27
ENDBRANCH  20  21
ENDBRANCH  17  20
ENDBRANCH  16  17
ENDBRANCH  12  16
ENDBRANCH   5  11
ENDBRANCH   2   4
ENDBRANCH   1   2
BRANCH   1  29
ATOM     29  C   UNL A   1      33.341  29.388  26.618  1.00  0.00     0.275 C 
BRANCH  29  30
ATOM     30  C   UNL A   1      34.432  30.264  27.236  1.00  0.00     0.275 C 
BRANCH  30  31
ATOM     31  O   UNL A   1      35.763  29.838  26.924  1.00  0.00    -0.458 OA
BRANCH  31  32
ATOM     32  C   UNL A   1      36.667  30.283  27.823  1.00  0.00     0.338 C 
ATOM     33  O   UNL A   1      36.744  31.401  28.306  1.00  0.00    -0.246 OA
BRANCH  32  34
ATOM     34  C   UNL A   1      37.745  29.334  28.053  1.00  0.00     0.060 A 
ATOM     35  C   UNL A   1      37.673  28.614  29.250  1.00  0.00     0.016 A 
ATOM     36  C   UNL A   1      38.926  29.443  27.311  1.00  0.00     0.016 A 
ATOM     37  C   UNL A   1      38.826  28.075  29.770  1.00  0.00     0.010 A 
ATOM     38  C   UNL A   1      40.089  28.909  27.839  1.00  0.00     0.010 A 
ATOM     39  C   UNL A   1      40.031  28.244  29.074  1.00  0.00    -0.014 A 
BRANCH  39  40
ATOM     40  C   UNL A   1      41.156  27.410  29.522  1.00  0.00     0.031 A 
ATOM     41  C   UNL A   1      41.304  26.225  28.514  1.00  0.00     0.074 A 
ATOM     42  C   UNL A   1      41.766  27.786  30.696  1.00  0.00     0.049 A 
ATOM     43  N   UNL A   1      41.818  25.045  28.664  1.00  0.00    -0.248 NA
ATOM     44  C   UNL A   1      40.694  26.336  27.144  1.00  0.00     0.031 C 
ATOM     45  C   UNL A   1      41.437  28.995  31.502  1.00  0.00     0.029 A 
ATOM     46  N   UNL A   1      42.778  27.247  31.464  1.00  0.00    -0.354 N 
ATOM     47  C   UNL A   1      41.896  24.452  27.377  1.00  0.00     0.074 A 
ATOM     48  C   UNL A   1      41.021  25.196  26.536  1.00  0.00     0.031 C 
ATOM     49  C   UNL A   1      42.156  29.040  32.655  1.00  0.00     0.029 A 
ATOM     50  C   UNL A   1      43.060  27.905  32.710  1.00  0.00     0.049 A 
ATOM     51  H   UNL A   1      43.283  26.454  31.173  1.00  0.00     0.167 HD
ATOM     52  C   UNL A   1      42.848  23.530  27.044  1.00  0.00     0.034 A 
ATOM     53  C   UNL A   1      43.948  27.530  33.698  1.00  0.00     0.034 A 
ATOM     54  C   UNL A   1      43.603  23.212  28.209  1.00  0.00     0.049 A 
ATOM     55  C   UNL A   1      44.734  26.486  33.026  1.00  0.00     0.074 A 
ATOM     56  C   UNL A   1      43.263  22.575  29.371  1.00  0.00     0.029 A 
ATOM     57  N   UNL A   1      44.762  23.934  28.403  1.00  0.00    -0.354 N 
ATOM     58  N   UNL A   1      45.614  26.717  32.101  1.00  0.00    -0.248 NA
ATOM     59  C   UNL A   1      44.474  25.078  33.351  1.00  0.00     0.031 C 
ATOM     60  C   UNL A   1      43.882  23.386  30.340  1.00  0.00     0.029 A 
ATOM     61  C   UNL A   1      44.809  24.248  29.733  1.00  0.00     0.049 A 
ATOM     62  H   UNL A   1      45.426  24.177  27.717  1.00  0.00     0.167 HD
ATOM     63  C   UNL A   1      45.743  25.490  31.508  1.00  0.00     0.074 A 
ATOM     64  C   UNL A   1      45.327  24.514  32.497  1.00  0.00     0.031 C 
ATOM     65  C   UNL A   1      45.592  25.386  30.160  1.00  0.00     0.034 A 
BRANCH  52  66
ATOM     66  C   UNL A   1      43.421  23.069  25.724  1.00  0.00     0.023 A 
ATOM     67  C   UNL A   1      43.487  21.663  25.559  1.00  0.00     0.031 A 
ATOM     68  C   UNL A   1      44.202  23.831  24.848  1.00  0.00     0.131 A 
ATOM     69  C   UNL A   1      44.448  21.069  24.737  1.00  0.00     0.055 A 
ATOM     70  C   UNL A   1      45.094  23.230  23.945  1.00  0.00     0.041 A 
ATOM     71  F   UNL A   1      44.203  25.170  24.879  1.00  0.00    -0.206 F 
ATOM     72  C   UNL A   1      45.262  21.847  23.925  1.00  0.00     0.022 A 
BRANCH  69  73
ATOM     73  S   UNL A   1      44.755  19.292  24.956  1.00  0.00     0.124 S 
ATOM     74  O   UNL A   1      44.881  18.837  23.576  1.00  0.00    -0.237 OA
ATOM     75  O   UNL A   1      45.983  19.291  25.745  1.00  0.00    -0.237 OA
ATOM     76  O   UNL A   1      43.562  18.829  25.660  1.00  0.00    -0.744 OA
ENDBRANCH  69  73
ENDBRANCH  52  66
BRANCH  53  77
ATOM     77  C   UNL A   1      44.387  27.787  35.153  1.00  0.00     0.023 A 
ATOM     78  C   UNL A   1      44.443  26.877  36.227  1.00  0.00     0.031 A 
ATOM     79  C   UNL A   1      44.917  29.087  35.477  1.00  0.00     0.131 A 
ATOM     80  C   UNL A   1      45.079  27.255  37.460  1.00  0.00     0.055 A 
ATOM     81  C   UNL A   1      45.629  29.409  36.630  1.00  0.00     0.041 A 
ATOM     82  F   UNL A   1      44.770  30.146  34.670  1.00  0.00    -0.206 F 
ATOM     83  C   UNL A   1      45.730  28.480  37.630  1.00  0.00     0.022 A 
BRANCH  80  84
ATOM     84  S   UNL A   1      45.098  26.166  38.924  1.00  0.00     0.124 S 
ATOM     85  O   UNL A   1      44.153  26.837  39.812  1.00  0.00    -0.237 OA
ATOM     86  O   UNL A   1      44.673  24.881  38.381  1.00  0.00    -0.237 OA
ATOM     87  O   UNL A   1      46.494  26.214  39.362  1.00  0.00    -0.744 OA
ENDBRANCH  80  84
ENDBRANCH  53  77
BRANCH  65  88
ATOM     88  C   UNL A   1      45.895  26.662  29.364  1.00  0.00     0.023 A 
ATOM     89  C   UNL A   1      44.852  27.362  28.721  1.00  0.00     0.031 A 
ATOM     90  C   UNL A   1      47.190  27.161  29.129  1.00  0.00     0.131 A 
ATOM     91  C   UNL A   1      45.117  28.455  27.868  1.00  0.00     0.055 A 
ATOM     92  C   UNL A   1      47.460  28.242  28.275  1.00  0.00     0.041 A 
ATOM     93  F   UNL A   1      48.252  26.621  29.723  1.00  0.00    -0.206 F 
ATOM     94  C   UNL A   1      46.419  28.893  27.633  1.00  0.00     0.022 A 
BRANCH  91  95
ATOM     95  S   UNL A   1      43.732  29.327  27.083  1.00  0.00     0.124 S 
ATOM     96  O   UNL A   1      44.403  30.327  26.260  1.00  0.00    -0.237 OA
ATOM     97  O   UNL A   1      43.052  28.256  26.364  1.00  0.00    -0.237 OA
ATOM     98  O   UNL A   1      42.981  29.869  28.217  1.00  0.00    -0.744 OA
ENDBRANCH  91  95
ENDBRANCH  65  88
ENDBRANCH  39  40
ENDBRANCH  32  34
ENDBRANCH  31  32
ENDBRANCH  30  31
ENDBRANCH  29  30
ENDBRANCH   1  29
TORSDOF 20
ENDMDL
MODEL 3
REMARK VINA RESULT:     -11.2      4.127      8.284
REMARK SMILES COc1ccc(C[NH2+]Cc2cccn2-c2sc(C)c(C)c2C(=O)OCCOC(=O)c2ccc(-c3c4nc(c(-c5cc(S(=O)(=O)[O-])ccc5F)c5ccc([nH]5)c(-c5cc(S(=O)(=O)[O-])ccc5F)c5nc(c(-c6cc(S(=O)(=O)[O-])ccc6F)c6ccc3[nH]6)C=C5)C=C4)cc2)cc1
REMARK SMILES IDX 24 1 22 2 23 3 21 4 15 5 16 6 17 7 19 8 18 9 20 10 14 11
REMARK SMILES IDX 10 12 11 13 12 14 13 15 9 16 8 17 7 20 6 21 3 22 4 23 94 24
REMARK SMILES IDX 5 25 93 26 2 27 1 28 25 29 26 30 27 31 28 32 29 33 30 34
REMARK SMILES IDX 31 35 92 36 32 37 91 38 33 39 34 40 35 41 85 42 36 43 90 44
REMARK SMILES IDX 84 45 86 46 37 47 89 48 83 49 82 50 38 52 70 53 50 54 69 55
REMARK SMILES IDX 51 56 54 57 68 58 87 59 52 60 53 61 67 63 88 64 55 65 39 66
REMARK SMILES IDX 40 67 48 68 41 69 47 70 49 71 46 72 42 73 43 74 44 75 45 76
REMARK SMILES IDX 71 77 72 78 80 79 73 80 79 81 81 82 78 83 74 84 75 85 76 86
REMARK SMILES IDX 77 87 56 88 57 89 65 90 58 91 64 92 66 93 63 94 59 95 60 96
REMARK SMILES IDX 61 97 62 98
REMARK H PARENT 8 18 8 19 86 51 54 62
REMARK Flexibility Score: inf
ROOT
ATOM      1  O   UNL A   1      33.383  28.131  26.769  1.00  0.00    -0.458 OA
ENDROOT
BRANCH   1   2
ATOM      2  C   UNL A   1      32.053  27.869  26.923  1.00  0.00     0.341 C 
ATOM      3  O   UNL A   1      31.493  27.892  28.016  1.00  0.00    -0.246 OA
BRANCH   2   4
ATOM      4  C   UNL A   1      31.338  27.596  25.657  1.00  0.00     0.098 A 
ATOM      5  C   UNL A   1      31.074  26.335  25.132  1.00  0.00     0.115 A 
ATOM      6  S   UNL A   1      30.206  26.363  23.679  1.00  0.00    -0.122 S 
ATOM      7  C   UNL A   1      30.271  28.061  23.592  1.00  0.00     0.007 A 
ATOM      8  C   UNL A   1      30.904  28.620  24.697  1.00  0.00    -0.021 A 
ATOM      9  C   UNL A   1      29.702  28.763  22.398  1.00  0.00     0.057 C 
ATOM     10  C   UNL A   1      31.149  30.097  24.808  1.00  0.00     0.046 C 
BRANCH   5  11
ATOM     11  N   UNL A   1      31.310  25.083  25.718  1.00  0.00    -0.306 N 
ATOM     12  C   UNL A   1      32.510  24.379  25.879  1.00  0.00     0.078 A 
ATOM     13  C   UNL A   1      32.242  23.276  26.681  1.00  0.00     0.029 A 
ATOM     14  C   UNL A   1      30.859  23.219  26.918  1.00  0.00     0.020 A 
ATOM     15  C   UNL A   1      30.309  24.309  26.293  1.00  0.00     0.092 A 
BRANCH  12  16
ATOM     16  C   UNL A   1      33.852  24.844  25.383  1.00  0.00     0.316 C 
BRANCH  16  17
ATOM     17  N   UNL A   1      34.012  24.645  23.938  1.00  0.00    -0.338 N 
ATOM     18  H   UNL A   1      33.093  24.483  23.527  1.00  0.00     0.346 HD
ATOM     19  H   UNL A   1      34.453  25.484  23.559  1.00  0.00     0.346 HD
BRANCH  17  20
ATOM     20  C   UNL A   1      34.874  23.512  23.616  1.00  0.00     0.297 C 
BRANCH  20  21
ATOM     21  C   UNL A   1      34.179  22.200  23.902  1.00  0.00     0.006 A 
ATOM     22  C   UNL A   1      32.863  19.776  24.462  1.00  0.00     0.118 A 
ATOM     23  C   UNL A   1      32.299  20.699  23.580  1.00  0.00     0.047 A 
ATOM     24  C   UNL A   1      34.106  20.046  25.034  1.00  0.00     0.047 A 
ATOM     25  C   UNL A   1      32.947  21.905  23.305  1.00  0.00     0.013 A 
ATOM     26  C   UNL A   1      34.761  21.250  24.754  1.00  0.00     0.013 A 
BRANCH  22  27
ATOM     27  O   UNL A   1      32.146  18.627  24.653  1.00  0.00    -0.497 OA
ATOM     28  C   UNL A   1      32.721  17.703  25.570  1.00  0.00     0.278 C 
ENDBRANCH  22  27
ENDBRANCH  20  21
ENDBRANCH  17  20
ENDBRANCH  16  17
ENDBRANCH  12  16
ENDBRANCH   5  11
ENDBRANCH   2   4
ENDBRANCH   1   2
BRANCH   1  29
ATOM     29  C   UNL A   1      34.045  28.899  27.786  1.00  0.00     0.275 C 
BRANCH  29  30
ATOM     30  C   UNL A   1      34.155  30.377  27.407  1.00  0.00     0.275 C 
BRANCH  30  31
ATOM     31  O   UNL A   1      35.457  30.935  27.618  1.00  0.00    -0.458 OA
BRANCH  31  32
ATOM     32  C   UNL A   1      35.974  30.591  28.817  1.00  0.00     0.338 C 
ATOM     33  O   UNL A   1      35.640  31.007  29.915  1.00  0.00    -0.246 OA
BRANCH  32  34
ATOM     34  C   UNL A   1      37.174  29.779  28.700  1.00  0.00     0.060 A 
ATOM     35  C   UNL A   1      37.716  29.322  29.905  1.00  0.00     0.016 A 
ATOM     36  C   UNL A   1      37.905  29.801  27.507  1.00  0.00     0.016 A 
ATOM     37  C   UNL A   1      39.046  28.974  29.944  1.00  0.00     0.010 A 
ATOM     38  C   UNL A   1      39.247  29.462  27.548  1.00  0.00     0.010 A 
ATOM     39  C   UNL A   1      39.810  29.068  28.772  1.00  0.00    -0.014 A 
BRANCH  39  40
ATOM     40  C   UNL A   1      41.127  28.416  28.809  1.00  0.00     0.031 A 
ATOM     41  C   UNL A   1      42.200  29.519  29.081  1.00  0.00     0.074 A 
ATOM     42  C   UNL A   1      41.148  27.066  28.549  1.00  0.00     0.049 A 
ATOM     43  N   UNL A   1      43.464  29.558  28.800  1.00  0.00    -0.248 NA
ATOM     44  C   UNL A   1      41.777  30.834  29.676  1.00  0.00     0.031 C 
ATOM     45  C   UNL A   1      39.956  26.204  28.313  1.00  0.00     0.029 A 
ATOM     46  N   UNL A   1      42.154  26.129  28.426  1.00  0.00    -0.354 N 
ATOM     47  C   UNL A   1      44.009  30.687  29.465  1.00  0.00     0.074 A 
ATOM     48  C   UNL A   1      42.910  31.524  29.807  1.00  0.00     0.031 C 
ATOM     49  C   UNL A   1      40.311  24.932  27.995  1.00  0.00     0.029 A 
ATOM     50  C   UNL A   1      41.757  24.805  28.035  1.00  0.00     0.049 A 
ATOM     51  H   UNL A   1      43.096  26.357  28.597  1.00  0.00     0.167 HD
ATOM     52  C   UNL A   1      45.309  30.743  29.883  1.00  0.00     0.034 A 
ATOM     53  C   UNL A   1      42.557  23.715  27.756  1.00  0.00     0.034 A 
ATOM     54  C   UNL A   1      45.986  29.576  29.428  1.00  0.00     0.049 A 
ATOM     55  C   UNL A   1      43.867  24.160  28.251  1.00  0.00     0.074 A 
ATOM     56  C   UNL A   1      46.314  29.142  28.172  1.00  0.00     0.029 A 
ATOM     57  N   UNL A   1      46.034  28.514  30.307  1.00  0.00    -0.354 N 
ATOM     58  N   UNL A   1      44.175  24.266  29.506  1.00  0.00    -0.248 NA
ATOM     59  C   UNL A   1      44.886  24.588  27.284  1.00  0.00     0.031 C 
ATOM     60  C   UNL A   1      45.981  27.776  28.238  1.00  0.00     0.029 A 
ATOM     61  C   UNL A   1      45.790  27.387  29.573  1.00  0.00     0.049 A 
ATOM     62  H   UNL A   1      46.210  28.560  31.275  1.00  0.00     0.167 HD
ATOM     63  C   UNL A   1      45.269  25.088  29.470  1.00  0.00     0.074 A 
ATOM     64  C   UNL A   1      45.837  24.951  28.143  1.00  0.00     0.031 C 
ATOM     65  C   UNL A   1      45.282  26.209  30.240  1.00  0.00     0.034 A 
BRANCH  52  66
ATOM     66  C   UNL A   1      46.022  31.569  30.928  1.00  0.00     0.023 A 
ATOM     67  C   UNL A   1      45.438  31.535  32.219  1.00  0.00     0.031 A 
ATOM     68  C   UNL A   1      46.928  32.608  30.687  1.00  0.00     0.131 A 
ATOM     69  C   UNL A   1      45.573  32.604  33.109  1.00  0.00     0.055 A 
ATOM     70  C   UNL A   1      47.144  33.629  31.627  1.00  0.00     0.041 A 
ATOM     71  F   UNL A   1      47.572  32.732  29.520  1.00  0.00    -0.206 F 
ATOM     72  C   UNL A   1      46.425  33.661  32.820  1.00  0.00     0.022 A 
BRANCH  69  73
ATOM     73  S   UNL A   1      44.423  32.675  34.513  1.00  0.00     0.124 S 
ATOM     74  O   UNL A   1      44.595  31.355  35.109  1.00  0.00    -0.237 OA
ATOM     75  O   UNL A   1      44.952  33.798  35.282  1.00  0.00    -0.237 OA
ATOM     76  O   UNL A   1      43.129  32.911  33.877  1.00  0.00    -0.744 OA
ENDBRANCH  69  73
ENDBRANCH  52  66
BRANCH  53  77
ATOM     77  C   UNL A   1      42.578  22.297  27.153  1.00  0.00     0.023 A 
ATOM     78  C   UNL A   1      43.579  21.691  26.369  1.00  0.00     0.031 A 
ATOM     79  C   UNL A   1      41.503  21.403  27.499  1.00  0.00     0.131 A 
ATOM     80  C   UNL A   1      43.512  20.286  26.074  1.00  0.00     0.055 A 
ATOM     81  C   UNL A   1      41.501  20.023  27.306  1.00  0.00     0.041 A 
ATOM     82  F   UNL A   1      40.363  21.829  28.058  1.00  0.00    -0.206 F 
ATOM     83  C   UNL A   1      42.523  19.449  26.600  1.00  0.00     0.022 A 
BRANCH  80  84
ATOM     84  S   UNL A   1      44.716  19.457  24.982  1.00  0.00     0.124 S 
ATOM     85  O   UNL A   1      45.941  20.198  25.265  1.00  0.00    -0.237 OA
ATOM     86  O   UNL A   1      44.677  18.074  25.442  1.00  0.00    -0.237 OA
ATOM     87  O   UNL A   1      44.162  19.672  23.644  1.00  0.00    -0.744 OA
ENDBRANCH  80  84
ENDBRANCH  53  77
BRANCH  65  88
ATOM     88  C   UNL A   1      44.400  26.155  31.494  1.00  0.00     0.023 A 
ATOM     89  C   UNL A   1      43.466  27.180  31.751  1.00  0.00     0.031 A 
ATOM     90  C   UNL A   1      44.516  25.180  32.504  1.00  0.00     0.131 A 
ATOM     91  C   UNL A   1      42.743  27.231  32.962  1.00  0.00     0.055 A 
ATOM     92  C   UNL A   1      43.807  25.230  33.714  1.00  0.00     0.041 A 
ATOM     93  F   UNL A   1      45.324  24.132  32.357  1.00  0.00    -0.206 F 
ATOM     94  C   UNL A   1      42.917  26.265  33.951  1.00  0.00     0.022 A 
BRANCH  91  95
ATOM     95  S   UNL A   1      41.541  28.565  33.226  1.00  0.00     0.124 S 
ATOM     96  O   UNL A   1      42.323  29.765  32.956  1.00  0.00    -0.237 OA
ATOM     97  O   UNL A   1      40.499  28.246  32.256  1.00  0.00    -0.237 OA
ATOM     98  O   UNL A   1      41.141  28.394  34.625  1.00  0.00    -0.744 OA
ENDBRANCH  91  95
ENDBRANCH  65  88
ENDBRANCH  39  40
ENDBRANCH  32  34
ENDBRANCH  31  32
ENDBRANCH  30  31
ENDBRANCH  29  30
ENDBRANCH   1  29
TORSDOF 20
ENDMDL
