MODEL 1
REMARK VINA RESULT:     -11.9      0.000      0.000
REMARK SMILES CC[C@@H](C)[C@@H](NC(=O)Cn1ncc2ccccc2c1=O)C(=O)OCCOC(=O)c1ccc(-c2c3nc(c(-c4cc(S(=O)(=O)[O-])ccc4F)c4ccc([nH]4)c(-c4cc(S(=O)(=O)[O-])ccc4F)c4nc(c(-c5cc(S(=O)(=O)[O-])ccc5F)c5ccc2[nH]5)C=C4)C=C3)cc1
REMARK SMILES IDX 24 1 23 2 21 3 22 4 5 5 3 6 4 7 2 8 1 9 6 10 7 11 8 13 9 14
REMARK SMILES IDX 10 15 11 16 19 17 12 18 18 19 20 20 13 21 17 22 14 23 16 24
REMARK SMILES IDX 15 25 25 26 26 27 27 28 28 29 29 30 30 31 91 32 31 33 90 34
REMARK SMILES IDX 32 35 33 36 34 37 84 38 35 39 89 40 83 41 85 42 36 43 88 44
REMARK SMILES IDX 82 45 81 46 37 48 69 49 49 50 68 51 50 52 53 53 67 54 86 55
REMARK SMILES IDX 51 56 52 57 66 59 87 60 54 61 38 62 39 63 47 64 40 65 46 66
REMARK SMILES IDX 48 67 45 68 41 69 42 70 43 71 44 72 70 73 71 74 79 75 72 76
REMARK SMILES IDX 78 77 80 78 77 79 73 80 74 81 75 82 76 83 55 84 56 85 64 86
REMARK SMILES IDX 57 87 63 88 65 89 62 90 58 91 59 92 60 93 61 94
REMARK H PARENT 6 12 85 47 53 58
REMARK Flexibility Score: inf
ROOT
ATOM      1  C   UNL A   1      31.812  29.169  24.794  1.00  0.00     0.274 C 
ENDROOT
BRANCH   1   2
ATOM      2  O   UNL A   1      30.542  29.219  24.096  1.00  0.00    -0.461 OA
BRANCH   2   3
ATOM      3  C   UNL A   1      30.434  28.382  23.034  1.00  0.00     0.329 C 
ATOM      4  O   UNL A   1      29.895  28.694  21.974  1.00  0.00    -0.250 OA
BRANCH   3   5
ATOM      5  C   UNL A   1      30.940  26.944  23.269  1.00  0.00     0.195 C 
BRANCH   5   6
ATOM      6  C   UNL A   1      30.158  25.827  24.016  1.00  0.00     0.019 C 
ATOM      7  C   UNL A   1      30.407  25.798  25.522  1.00  0.00     0.010 C 
BRANCH   6   8
ATOM      8  C   UNL A   1      30.490  24.435  23.400  1.00  0.00     0.002 C 
ATOM      9  C   UNL A   1      30.804  23.340  24.415  1.00  0.00     0.004 C 
ENDBRANCH   6   8
ENDBRANCH   5   6
BRANCH   5  10
ATOM     10  N   UNL A   1      31.610  26.467  22.045  1.00  0.00    -0.341 N 
ATOM     11  C   UNL A   1      32.899  26.209  21.701  1.00  0.00     0.242 C 
ATOM     12  H   UNL A   1      30.979  26.297  21.309  1.00  0.00     0.164 HD
ATOM     13  O   UNL A   1      33.069  25.843  20.529  1.00  0.00    -0.273 OA
BRANCH  11  14
ATOM     14  C   UNL A   1      34.072  26.089  22.689  1.00  0.00     0.248 C 
BRANCH  14  15
ATOM     15  N   UNL A   1      34.214  24.911  23.535  1.00  0.00    -0.220 N 
ATOM     16  N   UNL A   1      34.816  23.810  22.935  1.00  0.00    -0.177 NA
ATOM     17  C   UNL A   1      34.141  25.032  24.919  1.00  0.00     0.275 A 
ATOM     18  C   UNL A   1      34.944  22.728  23.637  1.00  0.00     0.142 A 
ATOM     19  C   UNL A   1      34.074  23.752  25.652  1.00  0.00     0.050 A 
ATOM     20  O   UNL A   1      34.021  26.090  25.527  1.00  0.00    -0.267 OA
ATOM     21  C   UNL A   1      34.452  22.591  24.998  1.00  0.00     0.007 A 
ATOM     22  C   UNL A   1      33.526  23.679  26.934  1.00  0.00     0.014 A 
ATOM     23  C   UNL A   1      34.312  21.341  25.601  1.00  0.00     0.010 A 
ATOM     24  C   UNL A   1      33.349  22.432  27.537  1.00  0.00     0.001 A 
ATOM     25  C   UNL A   1      33.745  21.267  26.874  1.00  0.00     0.001 A 
ENDBRANCH  14  15
ENDBRANCH  11  14
ENDBRANCH   5  10
ENDBRANCH   3   5
ENDBRANCH   2   3
ENDBRANCH   1   2
BRANCH   1  26
ATOM     26  C   UNL A   1      31.849  30.172  25.941  1.00  0.00     0.275 C 
BRANCH  26  27
ATOM     27  O   UNL A   1      33.170  30.178  26.489  1.00  0.00    -0.458 OA
BRANCH  27  28
ATOM     28  C   UNL A   1      33.520  31.327  27.114  1.00  0.00     0.338 C 
ATOM     29  O   UNL A   1      32.859  32.331  27.248  1.00  0.00    -0.246 OA
BRANCH  28  30
ATOM     30  C   UNL A   1      34.791  31.048  27.790  1.00  0.00     0.060 A 
ATOM     31  C   UNL A   1      35.029  29.781  28.307  1.00  0.00     0.016 A 
ATOM     32  C   UNL A   1      35.717  32.085  27.947  1.00  0.00     0.016 A 
ATOM     33  C   UNL A   1      36.211  29.556  28.998  1.00  0.00     0.010 A 
ATOM     34  C   UNL A   1      36.907  31.858  28.622  1.00  0.00     0.010 A 
ATOM     35  C   UNL A   1      37.155  30.591  29.153  1.00  0.00    -0.014 A 
BRANCH  35  36
ATOM     36  C   UNL A   1      38.452  30.281  29.777  1.00  0.00     0.031 A 
ATOM     37  C   UNL A   1      38.790  30.797  31.135  1.00  0.00     0.074 A 
ATOM     38  C   UNL A   1      39.279  29.469  29.092  1.00  0.00     0.049 A 
ATOM     39  N   UNL A   1      39.760  30.424  31.923  1.00  0.00    -0.248 NA
ATOM     40  C   UNL A   1      37.941  31.868  31.686  1.00  0.00     0.031 C 
ATOM     41  C   UNL A   1      39.026  28.991  27.731  1.00  0.00     0.029 A 
ATOM     42  N   UNL A   1      40.457  28.873  29.446  1.00  0.00    -0.354 N 
ATOM     43  C   UNL A   1      39.628  31.190  33.074  1.00  0.00     0.074 A 
ATOM     44  C   UNL A   1      38.518  32.091  32.861  1.00  0.00     0.031 C 
ATOM     45  C   UNL A   1      39.984  28.118  27.391  1.00  0.00     0.029 A 
ATOM     46  C   UNL A   1      40.928  27.995  28.497  1.00  0.00     0.049 A 
ATOM     47  H   UNL A   1      40.922  29.053  30.295  1.00  0.00     0.167 HD
ATOM     48  C   UNL A   1      40.364  31.111  34.205  1.00  0.00     0.034 A 
ATOM     49  C   UNL A   1      41.984  27.159  28.535  1.00  0.00     0.034 A 
ATOM     50  C   UNL A   1      41.464  30.191  34.363  1.00  0.00     0.049 A 
ATOM     51  C   UNL A   1      42.774  27.087  29.817  1.00  0.00     0.074 A 
ATOM     52  C   UNL A   1      42.248  29.984  35.482  1.00  0.00     0.029 A 
ATOM     53  N   UNL A   1      41.936  29.336  33.376  1.00  0.00    -0.354 N 
ATOM     54  N   UNL A   1      42.561  27.717  30.950  1.00  0.00    -0.248 NA
ATOM     55  C   UNL A   1      43.931  26.185  29.840  1.00  0.00     0.031 C 
ATOM     56  C   UNL A   1      43.239  29.063  35.150  1.00  0.00     0.029 A 
ATOM     57  C   UNL A   1      43.026  28.626  33.851  1.00  0.00     0.049 A 
ATOM     58  H   UNL A   1      41.554  29.247  32.473  1.00  0.00     0.167 HD
ATOM     59  C   UNL A   1      43.541  27.268  31.828  1.00  0.00     0.074 A 
ATOM     60  C   UNL A   1      44.325  26.290  31.102  1.00  0.00     0.031 C 
ATOM     61  C   UNL A   1      43.778  27.638  33.112  1.00  0.00     0.034 A 
BRANCH  48  62
ATOM     62  C   UNL A   1      40.017  31.990  35.380  1.00  0.00     0.023 A 
ATOM     63  C   UNL A   1      39.140  31.516  36.375  1.00  0.00     0.031 A 
ATOM     64  C   UNL A   1      40.395  33.343  35.416  1.00  0.00     0.131 A 
ATOM     65  C   UNL A   1      38.620  32.405  37.324  1.00  0.00     0.055 A 
ATOM     66  C   UNL A   1      39.910  34.214  36.394  1.00  0.00     0.041 A 
ATOM     67  F   UNL A   1      41.227  33.844  34.488  1.00  0.00    -0.206 F 
ATOM     68  C   UNL A   1      39.003  33.750  37.342  1.00  0.00     0.022 A 
BRANCH  65  69
ATOM     69  S   UNL A   1      37.360  31.871  38.515  1.00  0.00     0.124 S 
ATOM     70  O   UNL A   1      37.088  30.504  38.075  1.00  0.00    -0.237 OA
ATOM     71  O   UNL A   1      38.073  31.989  39.783  1.00  0.00    -0.237 OA
ATOM     72  O   UNL A   1      36.265  32.815  38.314  1.00  0.00    -0.744 OA
ENDBRANCH  65  69
ENDBRANCH  48  62
BRANCH  49  73
ATOM     73  C   UNL A   1      42.265  26.276  27.365  1.00  0.00     0.023 A 
ATOM     74  C   UNL A   1      41.784  24.954  27.326  1.00  0.00     0.031 A 
ATOM     75  C   UNL A   1      43.105  26.701  26.322  1.00  0.00     0.131 A 
ATOM     76  C   UNL A   1      42.196  24.089  26.303  1.00  0.00     0.055 A 
ATOM     77  C   UNL A   1      43.452  25.858  25.264  1.00  0.00     0.041 A 
ATOM     78  F   UNL A   1      43.613  27.942  26.324  1.00  0.00    -0.206 F 
ATOM     79  C   UNL A   1      43.010  24.538  25.261  1.00  0.00     0.022 A 
BRANCH  76  80
ATOM     80  S   UNL A   1      41.810  22.317  26.377  1.00  0.00     0.124 S 
ATOM     81  O   UNL A   1      42.598  21.789  25.268  1.00  0.00    -0.237 OA
ATOM     82  O   UNL A   1      42.283  21.960  27.713  1.00  0.00    -0.237 OA
ATOM     83  O   UNL A   1      40.362  22.272  26.203  1.00  0.00    -0.744 OA
ENDBRANCH  76  80
ENDBRANCH  49  73
BRANCH  61  84
ATOM     84  C   UNL A   1      44.931  26.994  33.841  1.00  0.00     0.023 A 
ATOM     85  C   UNL A   1      44.730  25.787  34.540  1.00  0.00     0.031 A 
ATOM     86  C   UNL A   1      46.162  27.655  33.991  1.00  0.00     0.131 A 
ATOM     87  C   UNL A   1      45.725  25.309  35.400  1.00  0.00     0.055 A 
ATOM     88  C   UNL A   1      47.173  27.141  34.803  1.00  0.00     0.041 A 
ATOM     89  F   UNL A   1      46.395  28.815  33.356  1.00  0.00    -0.206 F 
ATOM     90  C   UNL A   1      46.949  25.973  35.526  1.00  0.00     0.022 A 
BRANCH  87  91
ATOM     91  S   UNL A   1      45.424  23.873  36.467  1.00  0.00     0.124 S 
ATOM     92  O   UNL A   1      44.282  23.242  35.808  1.00  0.00    -0.237 OA
ATOM     93  O   UNL A   1      46.685  23.143  36.361  1.00  0.00    -0.237 OA
ATOM     94  O   UNL A   1      45.142  24.455  37.774  1.00  0.00    -0.744 OA
ENDBRANCH  87  91
ENDBRANCH  61  84
ENDBRANCH  35  36
ENDBRANCH  28  30
ENDBRANCH  27  28
ENDBRANCH  26  27
ENDBRANCH   1  26
TORSDOF 19
ENDMDL
MODEL 2
REMARK VINA RESULT:     -11.4      4.936     10.011
REMARK SMILES CC[C@@H](C)[C@@H](NC(=O)Cn1ncc2ccccc2c1=O)C(=O)OCCOC(=O)c1ccc(-c2c3nc(c(-c4cc(S(=O)(=O)[O-])ccc4F)c4ccc([nH]4)c(-c4cc(S(=O)(=O)[O-])ccc4F)c4nc(c(-c5cc(S(=O)(=O)[O-])ccc5F)c5ccc2[nH]5)C=C4)C=C3)cc1
REMARK SMILES IDX 24 1 23 2 21 3 22 4 5 5 3 6 4 7 2 8 1 9 6 10 7 11 8 13 9 14
REMARK SMILES IDX 10 15 11 16 19 17 12 18 18 19 20 20 13 21 17 22 14 23 16 24
REMARK SMILES IDX 15 25 25 26 26 27 27 28 28 29 29 30 30 31 91 32 31 33 90 34
REMARK SMILES IDX 32 35 33 36 34 37 84 38 35 39 89 40 83 41 85 42 36 43 88 44
REMARK SMILES IDX 82 45 81 46 37 48 69 49 49 50 68 51 50 52 53 53 67 54 86 55
REMARK SMILES IDX 51 56 52 57 66 59 87 60 54 61 38 62 39 63 47 64 40 65 46 66
REMARK SMILES IDX 48 67 45 68 41 69 42 70 43 71 44 72 70 73 71 74 79 75 72 76
REMARK SMILES IDX 78 77 80 78 77 79 73 80 74 81 75 82 76 83 55 84 56 85 64 86
REMARK SMILES IDX 57 87 63 88 65 89 62 90 58 91 59 92 60 93 61 94
REMARK H PARENT 6 12 85 47 53 58
REMARK Flexibility Score: inf
ROOT
ATOM      1  C   UNL A   1      36.098  21.771  24.398  1.00  0.00     0.274 C 
ENDROOT
BRANCH   1   2
ATOM      2  O   UNL A   1      35.341  22.457  25.426  1.00  0.00    -0.461 OA
BRANCH   2   3
ATOM      3  C   UNL A   1      34.390  21.708  26.039  1.00  0.00     0.329 C 
ATOM      4  O   UNL A   1      34.499  21.273  27.184  1.00  0.00    -0.250 OA
BRANCH   3   5
ATOM      5  C   UNL A   1      33.178  21.329  25.163  1.00  0.00     0.195 C 
BRANCH   5   6
ATOM      6  C   UNL A   1      33.070  20.052  24.283  1.00  0.00     0.019 C 
ATOM      7  C   UNL A   1      32.120  20.197  23.096  1.00  0.00     0.010 C 
BRANCH   6   8
ATOM      8  C   UNL A   1      32.642  18.834  25.154  1.00  0.00     0.002 C 
ATOM      9  C   UNL A   1      32.222  17.596  24.368  1.00  0.00     0.004 C 
ENDBRANCH   6   8
ENDBRANCH   5   6
BRANCH   5  10
ATOM     10  N   UNL A   1      31.940  21.634  25.903  1.00  0.00    -0.341 N 
ATOM     11  C   UNL A   1      31.039  22.651  25.879  1.00  0.00     0.242 C 
ATOM     12  H   UNL A   1      31.713  20.942  26.565  1.00  0.00     0.164 HD
ATOM     13  O   UNL A   1      30.118  22.560  26.704  1.00  0.00    -0.273 OA
BRANCH  11  14
ATOM     14  C   UNL A   1      30.939  23.720  24.777  1.00  0.00     0.248 C 
BRANCH  14  15
ATOM     15  N   UNL A   1      31.551  25.029  24.953  1.00  0.00    -0.220 N 
ATOM     16  N   UNL A   1      32.616  25.313  24.105  1.00  0.00    -0.177 NA
ATOM     17  C   UNL A   1      30.860  26.042  25.612  1.00  0.00     0.275 A 
ATOM     18  C   UNL A   1      33.213  26.456  24.238  1.00  0.00     0.142 A 
ATOM     19  C   UNL A   1      31.663  27.240  25.925  1.00  0.00     0.050 A 
ATOM     20  O   UNL A   1      29.709  25.953  26.026  1.00  0.00    -0.267 OA
ATOM     21  C   UNL A   1      32.859  27.434  25.254  1.00  0.00     0.007 A 
ATOM     22  C   UNL A   1      31.302  28.104  26.961  1.00  0.00     0.014 A 
ATOM     23  C   UNL A   1      33.711  28.489  25.579  1.00  0.00     0.010 A 
ATOM     24  C   UNL A   1      32.159  29.145  27.320  1.00  0.00     0.001 A 
ATOM     25  C   UNL A   1      33.358  29.340  26.628  1.00  0.00     0.001 A 
ENDBRANCH  14  15
ENDBRANCH  11  14
ENDBRANCH   5  10
ENDBRANCH   3   5
ENDBRANCH   2   3
ENDBRANCH   1   2
BRANCH   1  26
ATOM     26  C   UNL A   1      37.344  21.113  24.978  1.00  0.00     0.275 C 
BRANCH  26  27
ATOM     27  O   UNL A   1      37.941  22.023  25.906  1.00  0.00    -0.458 OA
BRANCH  27  28
ATOM     28  C   UNL A   1      39.217  21.727  26.248  1.00  0.00     0.338 C 
ATOM     29  O   UNL A   1      39.833  20.713  26.018  1.00  0.00    -0.246 OA
BRANCH  28  30
ATOM     30  C   UNL A   1      39.790  22.969  26.779  1.00  0.00     0.060 A 
ATOM     31  C   UNL A   1      40.768  22.906  27.765  1.00  0.00     0.016 A 
ATOM     32  C   UNL A   1      39.300  24.194  26.317  1.00  0.00     0.016 A 
ATOM     33  C   UNL A   1      41.250  24.093  28.299  1.00  0.00     0.010 A 
ATOM     34  C   UNL A   1      39.793  25.381  26.836  1.00  0.00     0.010 A 
ATOM     35  C   UNL A   1      40.770  25.332  27.832  1.00  0.00    -0.014 A 
BRANCH  35  36
ATOM     36  C   UNL A   1      41.398  26.568  28.327  1.00  0.00     0.031 A 
ATOM     37  C   UNL A   1      42.816  26.893  27.993  1.00  0.00     0.074 A 
ATOM     38  C   UNL A   1      40.619  27.406  29.035  1.00  0.00     0.049 A 
ATOM     39  N   UNL A   1      43.438  28.031  28.131  1.00  0.00    -0.248 NA
ATOM     40  C   UNL A   1      43.648  25.812  27.438  1.00  0.00     0.031 C 
ATOM     41  C   UNL A   1      39.245  27.106  29.448  1.00  0.00     0.029 A 
ATOM     42  N   UNL A   1      40.838  28.675  29.493  1.00  0.00    -0.354 N 
ATOM     43  C   UNL A   1      44.725  27.817  27.656  1.00  0.00     0.074 A 
ATOM     44  C   UNL A   1      44.815  26.425  27.279  1.00  0.00     0.031 C 
ATOM     45  C   UNL A   1      38.721  28.189  30.036  1.00  0.00     0.029 A 
ATOM     46  C   UNL A   1      39.725  29.248  30.063  1.00  0.00     0.049 A 
ATOM     47  H   UNL A   1      41.707  29.135  29.421  1.00  0.00     0.167 HD
ATOM     48  C   UNL A   1      45.719  28.726  27.531  1.00  0.00     0.034 A 
ATOM     49  C   UNL A   1      39.531  30.500  30.523  1.00  0.00     0.034 A 
ATOM     50  C   UNL A   1      45.574  30.106  27.925  1.00  0.00     0.049 A 
ATOM     51  C   UNL A   1      40.655  31.489  30.356  1.00  0.00     0.074 A 
ATOM     52  C   UNL A   1      46.493  31.129  27.797  1.00  0.00     0.029 A 
ATOM     53  N   UNL A   1      44.446  30.650  28.527  1.00  0.00    -0.354 N 
ATOM     54  N   UNL A   1      41.824  31.316  29.782  1.00  0.00    -0.248 NA
ATOM     55  C   UNL A   1      40.437  32.844  30.874  1.00  0.00     0.031 C 
ATOM     56  C   UNL A   1      45.954  32.270  28.388  1.00  0.00     0.029 A 
ATOM     57  C   UNL A   1      44.663  31.987  28.809  1.00  0.00     0.049 A 
ATOM     58  H   UNL A   1      43.617  30.157  28.724  1.00  0.00     0.167 HD
ATOM     59  C   UNL A   1      42.470  32.545  29.848  1.00  0.00     0.074 A 
ATOM     60  C   UNL A   1      41.546  33.460  30.488  1.00  0.00     0.031 C 
ATOM     61  C   UNL A   1      43.715  32.885  29.429  1.00  0.00     0.034 A 
BRANCH  48  62
ATOM     62  C   UNL A   1      47.034  28.309  26.925  1.00  0.00     0.023 A 
ATOM     63  C   UNL A   1      47.169  28.235  25.525  1.00  0.00     0.031 A 
ATOM     64  C   UNL A   1      48.079  27.807  27.720  1.00  0.00     0.131 A 
ATOM     65  C   UNL A   1      48.293  27.614  24.966  1.00  0.00     0.055 A 
ATOM     66  C   UNL A   1      49.219  27.231  27.156  1.00  0.00     0.041 A 
ATOM     67  F   UNL A   1      47.997  27.851  29.060  1.00  0.00    -0.206 F 
ATOM     68  C   UNL A   1      49.320  27.116  25.773  1.00  0.00     0.022 A 
BRANCH  65  69
ATOM     69  S   UNL A   1      48.423  27.351  23.175  1.00  0.00     0.124 S 
ATOM     70  O   UNL A   1      48.362  25.894  23.079  1.00  0.00    -0.237 OA
ATOM     71  O   UNL A   1      47.248  28.059  22.678  1.00  0.00    -0.237 OA
ATOM     72  O   UNL A   1      49.712  27.940  22.828  1.00  0.00    -0.744 OA
ENDBRANCH  65  69
ENDBRANCH  48  62
BRANCH  49  73
ATOM     73  C   UNL A   1      38.198  30.880  31.077  1.00  0.00     0.023 A 
ATOM     74  C   UNL A   1      37.212  31.457  30.254  1.00  0.00     0.031 A 
ATOM     75  C   UNL A   1      37.927  30.775  32.451  1.00  0.00     0.131 A 
ATOM     76  C   UNL A   1      36.034  31.961  30.821  1.00  0.00     0.055 A 
ATOM     77  C   UNL A   1      36.719  31.209  33.002  1.00  0.00     0.041 A 
ATOM     78  F   UNL A   1      38.842  30.257  33.285  1.00  0.00    -0.206 F 
ATOM     79  C   UNL A   1      35.772  31.823  32.187  1.00  0.00     0.022 A 
BRANCH  76  80
ATOM     80  S   UNL A   1      34.875  32.945  29.830  1.00  0.00     0.124 S 
ATOM     81  O   UNL A   1      35.766  33.906  29.189  1.00  0.00    -0.237 OA
ATOM     82  O   UNL A   1      34.298  31.933  28.947  1.00  0.00    -0.237 OA
ATOM     83  O   UNL A   1      33.955  33.496  30.820  1.00  0.00    -0.744 OA
ENDBRANCH  76  80
ENDBRANCH  49  73
BRANCH  61  84
ATOM     84  C   UNL A   1      44.178  34.305  29.638  1.00  0.00     0.023 A 
ATOM     85  C   UNL A   1      43.842  35.296  28.694  1.00  0.00     0.031 A 
ATOM     86  C   UNL A   1      45.085  34.636  30.658  1.00  0.00     0.131 A 
ATOM     87  C   UNL A   1      44.454  36.553  28.759  1.00  0.00     0.055 A 
ATOM     88  C   UNL A   1      45.646  35.910  30.754  1.00  0.00     0.041 A 
ATOM     89  F   UNL A   1      45.447  33.721  31.573  1.00  0.00    -0.206 F 
ATOM     90  C   UNL A   1      45.345  36.868  29.790  1.00  0.00     0.022 A 
BRANCH  87  91
ATOM     91  S   UNL A   1      44.201  37.782  27.449  1.00  0.00     0.124 S 
ATOM     92  O   UNL A   1      45.552  37.933  26.914  1.00  0.00    -0.237 OA
ATOM     93  O   UNL A   1      43.254  37.102  26.569  1.00  0.00    -0.237 OA
ATOM     94  O   UNL A   1      43.679  38.947  28.154  1.00  0.00    -0.744 OA
ENDBRANCH  87  91
ENDBRANCH  61  84
ENDBRANCH  35  36
ENDBRANCH  28  30
ENDBRANCH  27  28
ENDBRANCH  26  27
ENDBRANCH   1  26
TORSDOF 19
ENDMDL
MODEL 3
REMARK VINA RESULT:     -11.3      1.939      2.747
REMARK SMILES CC[C@@H](C)[C@@H](NC(=O)Cn1ncc2ccccc2c1=O)C(=O)OCCOC(=O)c1ccc(-c2c3nc(c(-c4cc(S(=O)(=O)[O-])ccc4F)c4ccc([nH]4)c(-c4cc(S(=O)(=O)[O-])ccc4F)c4nc(c(-c5cc(S(=O)(=O)[O-])ccc5F)c5ccc2[nH]5)C=C4)C=C3)cc1
REMARK SMILES IDX 24 1 23 2 21 3 22 4 5 5 3 6 4 7 2 8 1 9 6 10 7 11 8 13 9 14
REMARK SMILES IDX 10 15 11 16 19 17 12 18 18 19 20 20 13 21 17 22 14 23 16 24
REMARK SMILES IDX 15 25 25 26 26 27 27 28 28 29 29 30 30 31 91 32 31 33 90 34
REMARK SMILES IDX 32 35 33 36 34 37 84 38 35 39 89 40 83 41 85 42 36 43 88 44
REMARK SMILES IDX 82 45 81 46 37 48 69 49 49 50 68 51 50 52 53 53 67 54 86 55
REMARK SMILES IDX 51 56 52 57 66 59 87 60 54 61 38 62 39 63 47 64 40 65 46 66
REMARK SMILES IDX 48 67 45 68 41 69 42 70 43 71 44 72 70 73 71 74 79 75 72 76
REMARK SMILES IDX 78 77 80 78 77 79 73 80 74 81 75 82 76 83 55 84 56 85 64 86
REMARK SMILES IDX 57 87 63 88 65 89 62 90 58 91 59 92 60 93 61 94
REMARK H PARENT 6 12 85 47 53 58
REMARK Flexibility Score: inf
ROOT
ATOM      1  C   UNL A   1      31.676  28.235  25.470  1.00  0.00     0.274 C 
ENDROOT
BRANCH   1   2
ATOM      2  O   UNL A   1      32.568  27.234  26.022  1.00  0.00    -0.461 OA
BRANCH   2   3
ATOM      3  C   UNL A   1      32.069  25.974  26.061  1.00  0.00     0.329 C 
ATOM      4  O   UNL A   1      31.404  25.533  26.997  1.00  0.00    -0.250 OA
BRANCH   3   5
ATOM      5  C   UNL A   1      32.478  25.062  24.887  1.00  0.00     0.195 C 
BRANCH   5   6
ATOM      6  C   UNL A   1      31.909  25.146  23.442  1.00  0.00     0.019 C 
ATOM      7  C   UNL A   1      31.097  23.922  23.024  1.00  0.00     0.010 C 
BRANCH   6   8
ATOM      8  C   UNL A   1      33.063  25.387  22.423  1.00  0.00     0.002 C 
ATOM      9  C   UNL A   1      33.451  26.850  22.225  1.00  0.00     0.004 C 
ENDBRANCH   6   8
ENDBRANCH   5   6
BRANCH   5  10
ATOM     10  N   UNL A   1      33.938  24.857  24.926  1.00  0.00    -0.341 N 
ATOM     11  C   UNL A   1      34.763  23.987  25.567  1.00  0.00     0.242 C 
ATOM     12  H   UNL A   1      34.426  25.495  24.358  1.00  0.00     0.164 HD
ATOM     13  O   UNL A   1      35.973  24.161  25.364  1.00  0.00    -0.273 OA
BRANCH  11  14
ATOM     14  C   UNL A   1      34.312  22.701  26.280  1.00  0.00     0.248 C 
BRANCH  14  15
ATOM     15  N   UNL A   1      33.938  21.518  25.516  1.00  0.00    -0.220 N 
ATOM     16  N   UNL A   1      32.700  21.578  24.886  1.00  0.00    -0.177 NA
ATOM     17  C   UNL A   1      34.911  20.607  25.117  1.00  0.00     0.275 A 
ATOM     18  C   UNL A   1      32.308  20.541  24.213  1.00  0.00     0.142 A 
ATOM     19  C   UNL A   1      34.388  19.348  24.551  1.00  0.00     0.050 A 
ATOM     20  O   UNL A   1      36.116  20.738  25.304  1.00  0.00    -0.267 OA
ATOM     21  C   UNL A   1      33.072  19.308  24.122  1.00  0.00     0.007 A 
ATOM     22  C   UNL A   1      35.152  18.179  24.556  1.00  0.00     0.014 A 
ATOM     23  C   UNL A   1      32.490  18.121  23.676  1.00  0.00     0.010 A 
ATOM     24  C   UNL A   1      34.574  16.977  24.143  1.00  0.00     0.001 A 
ATOM     25  C   UNL A   1      33.248  16.949  23.700  1.00  0.00     0.001 A 
ENDBRANCH  14  15
ENDBRANCH  11  14
ENDBRANCH   5  10
ENDBRANCH   3   5
ENDBRANCH   2   3
ENDBRANCH   1   2
BRANCH   1  26
ATOM     26  C   UNL A   1      31.715  29.519  26.289  1.00  0.00     0.275 C 
BRANCH  26  27
ATOM     27  O   UNL A   1      32.998  30.125  26.110  1.00  0.00    -0.458 OA
BRANCH  27  28
ATOM     28  C   UNL A   1      33.200  31.251  26.835  1.00  0.00     0.338 C 
ATOM     29  O   UNL A   1      32.438  32.176  26.999  1.00  0.00    -0.246 OA
BRANCH  28  30
ATOM     30  C   UNL A   1      34.454  31.042  27.566  1.00  0.00     0.060 A 
ATOM     31  C   UNL A   1      34.761  29.776  28.051  1.00  0.00     0.016 A 
ATOM     32  C   UNL A   1      35.290  32.137  27.806  1.00  0.00     0.016 A 
ATOM     33  C   UNL A   1      35.922  29.614  28.795  1.00  0.00     0.010 A 
ATOM     34  C   UNL A   1      36.458  31.973  28.535  1.00  0.00     0.010 A 
ATOM     35  C   UNL A   1      36.775  30.708  29.033  1.00  0.00    -0.014 A 
BRANCH  35  36
ATOM     36  C   UNL A   1      38.060  30.471  29.713  1.00  0.00     0.031 A 
ATOM     37  C   UNL A   1      38.301  30.985  31.093  1.00  0.00     0.074 A 
ATOM     38  C   UNL A   1      38.968  29.727  29.056  1.00  0.00     0.049 A 
ATOM     39  N   UNL A   1      39.256  30.660  31.920  1.00  0.00    -0.248 NA
ATOM     40  C   UNL A   1      37.360  31.988  31.619  1.00  0.00     0.031 C 
ATOM     41  C   UNL A   1      38.810  29.257  27.677  1.00  0.00     0.029 A 
ATOM     42  N   UNL A   1      40.165  29.201  29.456  1.00  0.00    -0.354 N 
ATOM     43  C   UNL A   1      39.022  31.396  33.074  1.00  0.00     0.074 A 
ATOM     44  C   UNL A   1      37.866  32.228  32.823  1.00  0.00     0.031 C 
ATOM     45  C   UNL A   1      39.837  28.454  27.371  1.00  0.00     0.029 A 
ATOM     46  C   UNL A   1      40.735  28.372  28.518  1.00  0.00     0.049 A 
ATOM     47  H   UNL A   1      40.578  29.396  30.329  1.00  0.00     0.167 HD
ATOM     48  C   UNL A   1      39.708  31.345  34.238  1.00  0.00     0.034 A 
ATOM     49  C   UNL A   1      41.841  27.605  28.593  1.00  0.00     0.034 A 
ATOM     50  C   UNL A   1      40.857  30.495  34.434  1.00  0.00     0.049 A 
ATOM     51  C   UNL A   1      42.574  27.562  29.909  1.00  0.00     0.074 A 
ATOM     52  C   UNL A   1      41.601  30.319  35.585  1.00  0.00     0.029 A 
ATOM     53  N   UNL A   1      41.430  29.689  33.457  1.00  0.00    -0.354 N 
ATOM     54  N   UNL A   1      42.269  28.156  31.040  1.00  0.00    -0.248 NA
ATOM     55  C   UNL A   1      43.784  26.736  29.974  1.00  0.00     0.031 C 
ATOM     56  C   UNL A   1      42.664  29.470  35.286  1.00  0.00     0.029 A 
ATOM     57  C   UNL A   1      42.540  29.043  33.973  1.00  0.00     0.049 A 
ATOM     58  H   UNL A   1      41.095  29.592  32.536  1.00  0.00     0.167 HD
ATOM     59  C   UNL A   1      43.234  27.756  31.957  1.00  0.00     0.074 A 
ATOM     60  C   UNL A   1      44.113  26.843  31.254  1.00  0.00     0.031 C 
ATOM     61  C   UNL A   1      43.388  28.118  33.256  1.00  0.00     0.034 A 
BRANCH  48  62
ATOM     62  C   UNL A   1      39.252  32.179  35.407  1.00  0.00     0.023 A 
ATOM     63  C   UNL A   1      39.731  33.494  35.561  1.00  0.00     0.031 A 
ATOM     64  C   UNL A   1      38.506  31.617  36.458  1.00  0.00     0.131 A 
ATOM     65  C   UNL A   1      39.513  34.178  36.763  1.00  0.00     0.055 A 
ATOM     66  C   UNL A   1      38.251  32.321  37.636  1.00  0.00     0.041 A 
ATOM     67  F   UNL A   1      38.029  30.365  36.362  1.00  0.00    -0.206 F 
ATOM     68  C   UNL A   1      38.772  33.602  37.800  1.00  0.00     0.022 A 
BRANCH  65  69
ATOM     69  S   UNL A   1      40.256  35.806  37.062  1.00  0.00     0.124 S 
ATOM     70  O   UNL A   1      41.677  35.531  36.862  1.00  0.00    -0.237 OA
ATOM     71  O   UNL A   1      39.627  36.621  36.028  1.00  0.00    -0.237 OA
ATOM     72  O   UNL A   1      39.874  36.119  38.435  1.00  0.00    -0.744 OA
ENDBRANCH  65  69
ENDBRANCH  48  62
BRANCH  49  73
ATOM     73  C   UNL A   1      42.231  26.763  27.425  1.00  0.00     0.023 A 
ATOM     74  C   UNL A   1      41.823  25.419  27.335  1.00  0.00     0.031 A 
ATOM     75  C   UNL A   1      43.104  27.252  26.439  1.00  0.00     0.131 A 
ATOM     76  C   UNL A   1      42.336  24.597  26.321  1.00  0.00     0.055 A 
ATOM     77  C   UNL A   1      43.553  26.451  25.386  1.00  0.00     0.041 A 
ATOM     78  F   UNL A   1      43.545  28.518  26.491  1.00  0.00    -0.206 F 
ATOM     79  C   UNL A   1      43.182  25.110  25.335  1.00  0.00     0.022 A 
BRANCH  76  80
ATOM     80  S   UNL A   1      42.040  22.807  26.341  1.00  0.00     0.124 S 
ATOM     81  O   UNL A   1      42.583  22.396  25.050  1.00  0.00    -0.237 OA
ATOM     82  O   UNL A   1      42.808  22.387  27.511  1.00  0.00    -0.237 OA
ATOM     83  O   UNL A   1      40.592  22.699  26.483  1.00  0.00    -0.744 OA
ENDBRANCH  76  80
ENDBRANCH  49  73
BRANCH  61  84
ATOM     84  C   UNL A   1      44.545  27.537  34.029  1.00  0.00     0.023 A 
ATOM     85  C   UNL A   1      44.363  26.361  34.784  1.00  0.00     0.031 A 
ATOM     86  C   UNL A   1      45.759  28.231  34.160  1.00  0.00     0.131 A 
ATOM     87  C   UNL A   1      45.356  25.948  35.678  1.00  0.00     0.055 A 
ATOM     88  C   UNL A   1      46.772  27.781  35.007  1.00  0.00     0.041 A 
ATOM     89  F   UNL A   1      45.975  29.364  33.471  1.00  0.00    -0.206 F 
ATOM     90  C   UNL A   1      46.564  26.646  35.785  1.00  0.00     0.022 A 
BRANCH  87  91
ATOM     91  S   UNL A   1      45.074  24.560  36.810  1.00  0.00     0.124 S 
ATOM     92  O   UNL A   1      44.251  23.669  35.995  1.00  0.00    -0.237 OA
ATOM     93  O   UNL A   1      46.434  24.092  37.066  1.00  0.00    -0.237 OA
ATOM     94  O   UNL A   1      44.393  25.165  37.949  1.00  0.00    -0.744 OA
ENDBRANCH  87  91
ENDBRANCH  61  84
ENDBRANCH  35  36
ENDBRANCH  28  30
ENDBRANCH  27  28
ENDBRANCH  26  27
ENDBRANCH   1  26
TORSDOF 19
ENDMDL
