MODEL 1
REMARK VINA RESULT:     -10.4      0.000      0.000
REMARK SMILES O=C(CSCc1ccc(Cl)s1)Nc1ccsc1C(=O)OCCOC(=O)c1ccc(-c2c3nc(c(-c4cc(S(=O)(=O)[O-])ccc4F)c4ccc([nH]4)c(-c4cc(S(=O)(=O)[O-])ccc4F)c4nc(c(-c5cc(S(=O)(=O)[O-])ccc5F)c5ccc2[nH]5)C=C4)C=C3)cc1
REMARK SMILES IDX 21 1 20 2 18 3 19 4 17 5 13 6 14 7 15 8 16 9 12 10 1 11 2 12
REMARK SMILES IDX 3 14 4 15 5 16 6 17 7 18 11 19 8 20 9 21 10 22 22 23 23 24
REMARK SMILES IDX 24 25 25 26 26 27 27 28 88 29 28 30 87 31 29 32 30 33 31 34
REMARK SMILES IDX 81 35 32 36 86 37 80 38 82 39 33 40 85 41 79 42 78 43 34 45
REMARK SMILES IDX 66 46 46 47 65 48 47 49 50 50 64 51 83 52 48 53 49 54 63 56
REMARK SMILES IDX 84 57 51 58 35 59 36 60 44 61 37 62 43 63 45 64 42 65 38 66
REMARK SMILES IDX 39 67 40 68 41 69 67 70 68 71 76 72 69 73 75 74 77 75 74 76
REMARK SMILES IDX 70 77 71 78 72 79 73 80 52 81 53 82 61 83 54 84 60 85 62 86
REMARK SMILES IDX 59 87 55 88 56 89 57 90 58 91
REMARK H PARENT 12 13 82 44 50 55
REMARK Flexibility Score: inf
ROOT
ATOM      1  C   UNL A   1      36.692  19.858  24.985  1.00  0.00     0.275 C 
ENDROOT
BRANCH   1   2
ATOM      2  O   UNL A   1      36.191  21.020  25.677  1.00  0.00    -0.458 OA
BRANCH   2   3
ATOM      3  C   UNL A   1      35.339  21.830  24.966  1.00  0.00     0.350 C 
ATOM      4  O   UNL A   1      35.523  22.136  23.798  1.00  0.00    -0.245 OA
BRANCH   3   5
ATOM      5  C   UNL A   1      34.197  22.210  25.788  1.00  0.00     0.136 A 
ATOM      6  C   UNL A   1      33.061  22.958  25.500  1.00  0.00     0.066 A 
ATOM      7  C   UNL A   1      32.294  23.213  26.681  1.00  0.00     0.039 A 
ATOM      8  C   UNL A   1      32.810  22.598  27.798  1.00  0.00     0.068 A 
ATOM      9  S   UNL A   1      34.181  21.662  27.423  1.00  0.00    -0.135 S 
BRANCH   6  10
ATOM     10  N   UNL A   1      32.756  23.379  24.209  1.00  0.00    -0.324 N 
ATOM     11  O   UNL A   1      33.790  25.466  24.145  1.00  0.00    -0.274 OA
ATOM     12  C   UNL A   1      33.094  24.589  23.637  1.00  0.00     0.234 C 
ATOM     13  H   UNL A   1      32.248  22.751  23.646  1.00  0.00     0.170 HD
BRANCH  12  14
ATOM     14  C   UNL A   1      32.421  24.829  22.294  1.00  0.00     0.170 C 
BRANCH  14  15
ATOM     15  S   UNL A   1      31.813  26.534  22.072  1.00  0.00    -0.146 SA
BRANCH  15  16
ATOM     16  C   UNL A   1      30.493  26.588  23.337  1.00  0.00     0.116 C 
BRANCH  16  17
ATOM     17  C   UNL A   1      30.924  27.282  24.591  1.00  0.00     0.016 A 
ATOM     18  C   UNL A   1      30.838  26.833  25.899  1.00  0.00     0.018 A 
ATOM     19  S   UNL A   1      31.695  28.817  24.514  1.00  0.00    -0.128 S 
ATOM     20  C   UNL A   1      31.403  27.753  26.831  1.00  0.00     0.033 A 
ATOM     21  C   UNL A   1      31.909  28.853  26.191  1.00  0.00     0.093 A 
ATOM     22  Cl  UNL A   1      32.705  30.188  26.923  1.00  0.00    -0.072 Cl
ENDBRANCH  16  17
ENDBRANCH  15  16
ENDBRANCH  14  15
ENDBRANCH  12  14
ENDBRANCH   6  10
ENDBRANCH   3   5
ENDBRANCH   2   3
ENDBRANCH   1   2
BRANCH   1  23
ATOM     23  C   UNL A   1      38.223  19.876  24.884  1.00  0.00     0.275 C 
BRANCH  23  24
ATOM     24  O   UNL A   1      38.784  21.092  25.414  1.00  0.00    -0.458 OA
BRANCH  24  25
ATOM     25  C   UNL A   1      39.742  20.918  26.358  1.00  0.00     0.338 C 
ATOM     26  O   UNL A   1      40.253  19.856  26.677  1.00  0.00    -0.246 OA
BRANCH  25  27
ATOM     27  C   UNL A   1      40.209  22.229  26.848  1.00  0.00     0.060 A 
ATOM     28  C   UNL A   1      39.673  23.367  26.243  1.00  0.00     0.016 A 
ATOM     29  C   UNL A   1      41.190  22.358  27.834  1.00  0.00     0.016 A 
ATOM     30  C   UNL A   1      40.103  24.637  26.619  1.00  0.00     0.010 A 
ATOM     31  C   UNL A   1      41.631  23.638  28.206  1.00  0.00     0.010 A 
ATOM     32  C   UNL A   1      41.096  24.787  27.594  1.00  0.00    -0.014 A 
BRANCH  32  33
ATOM     33  C   UNL A   1      41.612  26.149  27.896  1.00  0.00     0.031 A 
ATOM     34  C   UNL A   1      42.974  26.557  27.407  1.00  0.00     0.074 A 
ATOM     35  C   UNL A   1      40.837  27.041  28.543  1.00  0.00     0.049 A 
ATOM     36  N   UNL A   1      43.616  27.685  27.576  1.00  0.00    -0.248 NA
ATOM     37  C   UNL A   1      43.712  25.556  26.622  1.00  0.00     0.031 C 
ATOM     38  C   UNL A   1      39.476  26.785  29.017  1.00  0.00     0.029 A 
ATOM     39  N   UNL A   1      41.074  28.345  28.899  1.00  0.00    -0.354 N 
ATOM     40  C   UNL A   1      44.838  27.530  26.928  1.00  0.00     0.074 A 
ATOM     41  C   UNL A   1      44.855  26.185  26.392  1.00  0.00     0.031 C 
ATOM     42  C   UNL A   1      38.995  27.902  29.588  1.00  0.00     0.029 A 
ATOM     43  C   UNL A   1      40.025  28.937  29.565  1.00  0.00     0.049 A 
ATOM     44  H   UNL A   1      41.916  28.814  28.698  1.00  0.00     0.167 HD
ATOM     45  C   UNL A   1      45.845  28.429  26.787  1.00  0.00     0.034 A 
ATOM     46  C   UNL A   1      39.914  30.165  30.112  1.00  0.00     0.034 A 
ATOM     47  C   UNL A   1      45.814  29.768  27.327  1.00  0.00     0.049 A 
ATOM     48  C   UNL A   1      41.076  31.122  30.004  1.00  0.00     0.074 A 
ATOM     49  C   UNL A   1      46.786  30.751  27.253  1.00  0.00     0.029 A 
ATOM     50  N   UNL A   1      44.756  30.314  28.043  1.00  0.00    -0.354 N 
ATOM     51  N   UNL A   1      42.238  30.949  29.417  1.00  0.00    -0.248 NA
ATOM     52  C   UNL A   1      40.908  32.439  30.631  1.00  0.00     0.031 C 
ATOM     53  C   UNL A   1      46.342  31.868  27.973  1.00  0.00     0.029 A 
ATOM     54  C   UNL A   1      45.062  31.608  28.437  1.00  0.00     0.049 A 
ATOM     55  H   UNL A   1      43.912  29.849  28.243  1.00  0.00     0.167 HD
ATOM     56  C   UNL A   1      42.929  32.147  29.585  1.00  0.00     0.074 A 
ATOM     57  C   UNL A   1      42.047  33.037  30.312  1.00  0.00     0.031 C 
ATOM     58  C   UNL A   1      44.178  32.482  29.174  1.00  0.00     0.034 A 
BRANCH  45  59
ATOM     59  C   UNL A   1      47.088  27.962  26.068  1.00  0.00     0.023 A 
ATOM     60  C   UNL A   1      47.250  28.130  24.680  1.00  0.00     0.031 A 
ATOM     61  C   UNL A   1      48.110  27.304  26.774  1.00  0.00     0.131 A 
ATOM     62  C   UNL A   1      48.369  27.582  24.036  1.00  0.00     0.055 A 
ATOM     63  C   UNL A   1      49.259  26.831  26.138  1.00  0.00     0.041 A 
ATOM     64  F   UNL A   1      48.001  27.096  28.096  1.00  0.00    -0.206 F 
ATOM     65  C   UNL A   1      49.387  26.955  24.758  1.00  0.00     0.022 A 
BRANCH  62  66
ATOM     66  S   UNL A   1      48.410  27.574  22.222  1.00  0.00     0.124 S 
ATOM     67  O   UNL A   1      49.641  28.312  21.951  1.00  0.00    -0.237 OA
ATOM     68  O   UNL A   1      48.437  26.150  21.913  1.00  0.00    -0.237 OA
ATOM     69  O   UNL A   1      47.180  28.271  21.849  1.00  0.00    -0.744 OA
ENDBRANCH  62  66
ENDBRANCH  45  59
BRANCH  46  70
ATOM     70  C   UNL A   1      38.679  30.555  30.853  1.00  0.00     0.023 A 
ATOM     71  C   UNL A   1      37.604  31.180  30.202  1.00  0.00     0.031 A 
ATOM     72  C   UNL A   1      38.585  30.357  32.242  1.00  0.00     0.131 A 
ATOM     73  C   UNL A   1      36.499  31.624  30.947  1.00  0.00     0.055 A 
ATOM     74  C   UNL A   1      37.461  30.753  32.970  1.00  0.00     0.041 A 
ATOM     75  F   UNL A   1      39.588  29.769  32.914  1.00  0.00    -0.206 F 
ATOM     76  C   UNL A   1      36.415  31.402  32.323  1.00  0.00     0.022 A 
BRANCH  73  77
ATOM     77  S   UNL A   1      35.205  32.576  30.103  1.00  0.00     0.124 S 
ATOM     78  O   UNL A   1      34.194  32.694  31.147  1.00  0.00    -0.237 OA
ATOM     79  O   UNL A   1      35.911  33.802  29.752  1.00  0.00    -0.237 OA
ATOM     80  O   UNL A   1      34.838  31.724  28.973  1.00  0.00    -0.744 OA
ENDBRANCH  73  77
ENDBRANCH  46  70
BRANCH  58  81
ATOM     81  C   UNL A   1      44.640  33.889  29.469  1.00  0.00     0.023 A 
ATOM     82  C   UNL A   1      44.468  34.935  28.545  1.00  0.00     0.031 A 
ATOM     83  C   UNL A   1      45.288  34.178  30.683  1.00  0.00     0.131 A 
ATOM     84  C   UNL A   1      44.987  36.207  28.825  1.00  0.00     0.055 A 
ATOM     85  C   UNL A   1      45.754  35.460  30.979  1.00  0.00     0.041 A 
ATOM     86  F   UNL A   1      45.481  33.218  31.600  1.00  0.00    -0.206 F 
ATOM     87  C   UNL A   1      45.618  36.480  30.042  1.00  0.00     0.022 A 
BRANCH  84  88
ATOM     88  S   UNL A   1      44.913  37.483  27.536  1.00  0.00     0.124 S 
ATOM     89  O   UNL A   1      46.130  37.218  26.775  1.00  0.00    -0.237 OA
ATOM     90  O   UNL A   1      43.658  37.171  26.860  1.00  0.00    -0.237 OA
ATOM     91  O   UNL A   1      44.914  38.734  28.291  1.00  0.00    -0.744 OA
ENDBRANCH  84  88
ENDBRANCH  58  81
ENDBRANCH  32  33
ENDBRANCH  25  27
ENDBRANCH  24  25
ENDBRANCH  23  24
ENDBRANCH   1  23
TORSDOF 19
ENDMDL
MODEL 2
REMARK VINA RESULT:     -10.4      1.651      7.770
REMARK SMILES O=C(CSCc1ccc(Cl)s1)Nc1ccsc1C(=O)OCCOC(=O)c1ccc(-c2c3nc(c(-c4cc(S(=O)(=O)[O-])ccc4F)c4ccc([nH]4)c(-c4cc(S(=O)(=O)[O-])ccc4F)c4nc(c(-c5cc(S(=O)(=O)[O-])ccc5F)c5ccc2[nH]5)C=C4)C=C3)cc1
REMARK SMILES IDX 21 1 20 2 18 3 19 4 17 5 13 6 14 7 15 8 16 9 12 10 1 11 2 12
REMARK SMILES IDX 3 14 4 15 5 16 6 17 7 18 11 19 8 20 9 21 10 22 22 23 23 24
REMARK SMILES IDX 24 25 25 26 26 27 27 28 88 29 28 30 87 31 29 32 30 33 31 34
REMARK SMILES IDX 81 35 32 36 86 37 80 38 82 39 33 40 85 41 79 42 78 43 34 45
REMARK SMILES IDX 66 46 46 47 65 48 47 49 50 50 64 51 83 52 48 53 49 54 63 56
REMARK SMILES IDX 84 57 51 58 35 59 36 60 44 61 37 62 43 63 45 64 42 65 38 66
REMARK SMILES IDX 39 67 40 68 41 69 67 70 68 71 76 72 69 73 75 74 77 75 74 76
REMARK SMILES IDX 70 77 71 78 72 79 73 80 52 81 53 82 61 83 54 84 60 85 62 86
REMARK SMILES IDX 59 87 55 88 56 89 57 90 58 91
REMARK H PARENT 12 13 82 44 50 55
REMARK Flexibility Score: inf
ROOT
ATOM      1  C   UNL A   1      34.991  21.900  25.934  1.00  0.00     0.275 C 
ENDROOT
BRANCH   1   2
ATOM      2  O   UNL A   1      33.833  21.194  26.423  1.00  0.00    -0.458 OA
BRANCH   2   3
ATOM      3  C   UNL A   1      32.647  21.456  25.782  1.00  0.00     0.350 C 
ATOM      4  O   UNL A   1      31.816  22.246  26.204  1.00  0.00    -0.245 OA
BRANCH   3   5
ATOM      5  C   UNL A   1      32.566  20.703  24.538  1.00  0.00     0.136 A 
ATOM      6  C   UNL A   1      32.289  21.100  23.234  1.00  0.00     0.066 A 
ATOM      7  C   UNL A   1      32.151  19.972  22.365  1.00  0.00     0.039 A 
ATOM      8  C   UNL A   1      32.400  18.776  22.997  1.00  0.00     0.068 A 
ATOM      9  S   UNL A   1      32.863  19.006  24.618  1.00  0.00    -0.135 S 
BRANCH   6  10
ATOM     10  N   UNL A   1      32.173  22.439  22.875  1.00  0.00    -0.324 N 
ATOM     11  O   UNL A   1      34.391  22.993  22.421  1.00  0.00    -0.274 OA
ATOM     12  C   UNL A   1      33.205  23.294  22.537  1.00  0.00     0.234 C 
ATOM     13  H   UNL A   1      31.264  22.817  22.858  1.00  0.00     0.170 HD
BRANCH  12  14
ATOM     14  C   UNL A   1      32.769  24.746  22.414  1.00  0.00     0.170 C 
BRANCH  14  15
ATOM     15  S   UNL A   1      32.460  25.558  24.017  1.00  0.00    -0.146 SA
BRANCH  15  16
ATOM     16  C   UNL A   1      32.847  27.295  23.594  1.00  0.00     0.116 C 
BRANCH  16  17
ATOM     17  C   UNL A   1      31.628  28.163  23.546  1.00  0.00     0.016 A 
ATOM     18  C   UNL A   1      31.394  29.359  24.204  1.00  0.00     0.018 A 
ATOM     19  S   UNL A   1      30.306  27.749  22.527  1.00  0.00    -0.128 S 
ATOM     20  C   UNL A   1      30.129  29.928  23.870  1.00  0.00     0.033 A 
ATOM     21  C   UNL A   1      29.464  29.150  22.960  1.00  0.00     0.093 A 
ATOM     22  Cl  UNL A   1      27.929  29.475  22.262  1.00  0.00    -0.072 Cl
ENDBRANCH  16  17
ENDBRANCH  15  16
ENDBRANCH  14  15
ENDBRANCH  12  14
ENDBRANCH   6  10
ENDBRANCH   3   5
ENDBRANCH   2   3
ENDBRANCH   1   2
BRANCH   1  23
ATOM     23  C   UNL A   1      36.088  20.933  25.469  1.00  0.00     0.275 C 
BRANCH  23  24
ATOM     24  O   UNL A   1      37.276  21.627  25.044  1.00  0.00    -0.458 OA
BRANCH  24  25
ATOM     25  C   UNL A   1      38.416  21.252  25.674  1.00  0.00     0.338 C 
ATOM     26  O   UNL A   1      38.874  20.121  25.720  1.00  0.00    -0.246 OA
BRANCH  25  27
ATOM     27  C   UNL A   1      39.131  22.443  26.172  1.00  0.00     0.060 A 
ATOM     28  C   UNL A   1      38.609  23.692  25.832  1.00  0.00     0.016 A 
ATOM     29  C   UNL A   1      40.317  22.357  26.906  1.00  0.00     0.016 A 
ATOM     30  C   UNL A   1      39.258  24.860  26.224  1.00  0.00     0.010 A 
ATOM     31  C   UNL A   1      40.976  23.534  27.293  1.00  0.00     0.010 A 
ATOM     32  C   UNL A   1      40.455  24.795  26.947  1.00  0.00    -0.014 A 
BRANCH  32  33
ATOM     33  C   UNL A   1      41.181  26.055  27.258  1.00  0.00     0.031 A 
ATOM     34  C   UNL A   1      40.532  27.096  28.128  1.00  0.00     0.074 A 
ATOM     35  C   UNL A   1      42.444  26.237  26.825  1.00  0.00     0.049 A 
ATOM     36  N   UNL A   1      40.983  28.266  28.504  1.00  0.00    -0.248 NA
ATOM     37  C   UNL A   1      39.193  26.773  28.642  1.00  0.00     0.031 C 
ATOM     38  C   UNL A   1      43.204  25.276  26.022  1.00  0.00     0.029 A 
ATOM     39  N   UNL A   1      43.315  27.281  27.009  1.00  0.00    -0.354 N 
ATOM     40  C   UNL A   1      39.982  28.827  29.291  1.00  0.00     0.074 A 
ATOM     41  C   UNL A   1      38.888  27.877  29.309  1.00  0.00     0.031 C 
ATOM     42  C   UNL A   1      44.433  25.771  25.797  1.00  0.00     0.029 A 
ATOM     43  C   UNL A   1      44.534  27.100  26.395  1.00  0.00     0.049 A 
ATOM     44  H   UNL A   1      43.091  28.085  27.530  1.00  0.00     0.167 HD
ATOM     45  C   UNL A   1      39.980  30.016  29.943  1.00  0.00     0.034 A 
ATOM     46  C   UNL A   1      45.603  27.918  26.307  1.00  0.00     0.034 A 
ATOM     47  C   UNL A   1      41.078  30.954  29.918  1.00  0.00     0.049 A 
ATOM     48  C   UNL A   1      45.549  29.267  26.982  1.00  0.00     0.074 A 
ATOM     49  C   UNL A   1      41.171  32.191  30.531  1.00  0.00     0.029 A 
ATOM     50  N   UNL A   1      42.275  30.760  29.240  1.00  0.00    -0.354 N 
ATOM     51  N   UNL A   1      44.581  29.797  27.694  1.00  0.00    -0.248 NA
ATOM     52  C   UNL A   1      46.732  30.125  26.840  1.00  0.00     0.031 C 
ATOM     53  C   UNL A   1      42.397  32.769  30.178  1.00  0.00     0.029 A 
ATOM     54  C   UNL A   1      43.101  31.863  29.400  1.00  0.00     0.049 A 
ATOM     55  H   UNL A   1      42.504  29.955  28.720  1.00  0.00     0.167 HD
ATOM     56  C   UNL A   1      45.052  31.042  28.106  1.00  0.00     0.074 A 
ATOM     57  C   UNL A   1      46.393  31.174  27.576  1.00  0.00     0.031 C 
ATOM     58  C   UNL A   1      44.432  31.988  28.855  1.00  0.00     0.034 A 
BRANCH  45  59
ATOM     59  C   UNL A   1      38.721  30.389  30.690  1.00  0.00     0.023 A 
ATOM     60  C   UNL A   1      37.633  31.010  30.049  1.00  0.00     0.031 A 
ATOM     61  C   UNL A   1      38.623  30.156  32.073  1.00  0.00     0.131 A 
ATOM     62  C   UNL A   1      36.530  31.440  30.801  1.00  0.00     0.055 A 
ATOM     63  C   UNL A   1      37.489  30.516  32.803  1.00  0.00     0.041 A 
ATOM     64  F   UNL A   1      39.638  29.587  32.743  1.00  0.00    -0.206 F 
ATOM     65  C   UNL A   1      36.439  31.176  32.170  1.00  0.00     0.022 A 
BRANCH  62  66
ATOM     66  S   UNL A   1      35.279  32.476  29.994  1.00  0.00     0.124 S 
ATOM     67  O   UNL A   1      34.372  32.763  31.104  1.00  0.00    -0.237 OA
ATOM     68  O   UNL A   1      36.067  33.601  29.507  1.00  0.00    -0.237 OA
ATOM     69  O   UNL A   1      34.727  31.604  28.959  1.00  0.00    -0.744 OA
ENDBRANCH  62  66
ENDBRANCH  45  59
BRANCH  46  70
ATOM     70  C   UNL A   1      46.802  27.516  25.516  1.00  0.00     0.023 A 
ATOM     71  C   UNL A   1      46.959  27.913  24.178  1.00  0.00     0.031 A 
ATOM     72  C   UNL A   1      47.782  26.678  26.076  1.00  0.00     0.131 A 
ATOM     73  C   UNL A   1      48.049  27.435  23.432  1.00  0.00     0.055 A 
ATOM     74  C   UNL A   1      48.892  26.249  25.345  1.00  0.00     0.041 A 
ATOM     75  F   UNL A   1      47.677  26.266  27.349  1.00  0.00    -0.206 F 
ATOM     76  C   UNL A   1      49.022  26.617  24.010  1.00  0.00     0.022 A 
BRANCH  73  77
ATOM     77  S   UNL A   1      48.132  27.828  21.662  1.00  0.00     0.124 S 
ATOM     78  O   UNL A   1      48.435  26.525  21.082  1.00  0.00    -0.237 OA
ATOM     79  O   UNL A   1      46.796  28.351  21.404  1.00  0.00    -0.237 OA
ATOM     80  O   UNL A   1      49.211  28.811  21.583  1.00  0.00    -0.744 OA
ENDBRANCH  73  77
ENDBRANCH  46  70
BRANCH  58  81
ATOM     81  C   UNL A   1      45.227  33.232  29.178  1.00  0.00     0.023 A 
ATOM     82  C   UNL A   1      45.141  34.392  28.387  1.00  0.00     0.031 A 
ATOM     83  C   UNL A   1      46.103  33.243  30.277  1.00  0.00     0.131 A 
ATOM     84  C   UNL A   1      45.959  35.494  28.674  1.00  0.00     0.055 A 
ATOM     85  C   UNL A   1      46.875  34.363  30.590  1.00  0.00     0.041 A 
ATOM     86  F   UNL A   1      46.225  32.163  31.064  1.00  0.00    -0.206 F 
ATOM     87  C   UNL A   1      46.816  35.492  29.778  1.00  0.00     0.022 A 
BRANCH  84  88
ATOM     88  S   UNL A   1      45.961  36.901  27.527  1.00  0.00     0.124 S 
ATOM     89  O   UNL A   1      44.639  36.800  26.919  1.00  0.00    -0.237 OA
ATOM     90  O   UNL A   1      46.165  38.034  28.424  1.00  0.00    -0.237 OA
ATOM     91  O   UNL A   1      47.080  36.613  26.631  1.00  0.00    -0.744 OA
ENDBRANCH  84  88
ENDBRANCH  58  81
ENDBRANCH  32  33
ENDBRANCH  25  27
ENDBRANCH  24  25
ENDBRANCH  23  24
ENDBRANCH   1  23
TORSDOF 19
ENDMDL
MODEL 3
REMARK VINA RESULT:     -10.2      5.193      7.601
REMARK SMILES O=C(CSCc1ccc(Cl)s1)Nc1ccsc1C(=O)OCCOC(=O)c1ccc(-c2c3nc(c(-c4cc(S(=O)(=O)[O-])ccc4F)c4ccc([nH]4)c(-c4cc(S(=O)(=O)[O-])ccc4F)c4nc(c(-c5cc(S(=O)(=O)[O-])ccc5F)c5ccc2[nH]5)C=C4)C=C3)cc1
REMARK SMILES IDX 21 1 20 2 18 3 19 4 17 5 13 6 14 7 15 8 16 9 12 10 1 11 2 12
REMARK SMILES IDX 3 14 4 15 5 16 6 17 7 18 11 19 8 20 9 21 10 22 22 23 23 24
REMARK SMILES IDX 24 25 25 26 26 27 27 28 88 29 28 30 87 31 29 32 30 33 31 34
REMARK SMILES IDX 81 35 32 36 86 37 80 38 82 39 33 40 85 41 79 42 78 43 34 45
REMARK SMILES IDX 66 46 46 47 65 48 47 49 50 50 64 51 83 52 48 53 49 54 63 56
REMARK SMILES IDX 84 57 51 58 35 59 36 60 44 61 37 62 43 63 45 64 42 65 38 66
REMARK SMILES IDX 39 67 40 68 41 69 67 70 68 71 76 72 69 73 75 74 77 75 74 76
REMARK SMILES IDX 70 77 71 78 72 79 73 80 52 81 53 82 61 83 54 84 60 85 62 86
REMARK SMILES IDX 59 87 55 88 56 89 57 90 58 91
REMARK H PARENT 12 13 82 44 50 55
REMARK Flexibility Score: inf
ROOT
ATOM      1  C   UNL A   1      31.734  28.059  27.068  1.00  0.00     0.275 C 
ENDROOT
BRANCH   1   2
ATOM      2  O   UNL A   1      32.361  27.276  26.032  1.00  0.00    -0.458 OA
BRANCH   2   3
ATOM      3  C   UNL A   1      32.266  25.912  26.160  1.00  0.00     0.350 C 
ATOM      4  O   UNL A   1      31.484  25.362  26.920  1.00  0.00    -0.245 OA
BRANCH   3   5
ATOM      5  C   UNL A   1      33.180  25.251  25.238  1.00  0.00     0.136 A 
ATOM      6  C   UNL A   1      33.408  25.428  23.877  1.00  0.00     0.066 A 
ATOM      7  C   UNL A   1      34.287  24.423  23.363  1.00  0.00     0.039 A 
ATOM      8  C   UNL A   1      34.761  23.576  24.338  1.00  0.00     0.068 A 
ATOM      9  S   UNL A   1      34.202  24.020  25.882  1.00  0.00    -0.135 S 
BRANCH   6  10
ATOM     10  N   UNL A   1      32.829  26.468  23.156  1.00  0.00    -0.324 N 
ATOM     11  O   UNL A   1      34.355  28.191  23.518  1.00  0.00    -0.274 OA
ATOM     12  C   UNL A   1      33.301  27.761  23.054  1.00  0.00     0.234 C 
ATOM     13  H   UNL A   1      31.999  26.261  22.668  1.00  0.00     0.170 HD
BRANCH  12  14
ATOM     14  C   UNL A   1      32.321  28.708  22.377  1.00  0.00     0.170 C 
BRANCH  14  15
ATOM     15  S   UNL A   1      30.603  28.098  22.360  1.00  0.00    -0.146 SA
BRANCH  15  16
ATOM     16  C   UNL A   1      29.875  29.101  23.705  1.00  0.00     0.116 C 
BRANCH  16  17
ATOM     17  C   UNL A   1      29.279  30.382  23.213  1.00  0.00     0.016 A 
ATOM     18  C   UNL A   1      29.146  31.587  23.884  1.00  0.00     0.018 A 
ATOM     19  S   UNL A   1      28.707  30.510  21.596  1.00  0.00    -0.128 S 
ATOM     20  C   UNL A   1      28.573  32.607  23.069  1.00  0.00     0.033 A 
ATOM     21  C   UNL A   1      28.311  32.140  21.808  1.00  0.00     0.093 A 
ATOM     22  Cl  UNL A   1      27.652  33.037  20.500  1.00  0.00    -0.072 Cl
ENDBRANCH  16  17
ENDBRANCH  15  16
ENDBRANCH  14  15
ENDBRANCH  12  14
ENDBRANCH   6  10
ENDBRANCH   3   5
ENDBRANCH   2   3
ENDBRANCH   1   2
BRANCH   1  23
ATOM     23  C   UNL A   1      31.639  29.540  26.679  1.00  0.00     0.275 C 
BRANCH  23  24
ATOM     24  O   UNL A   1      32.920  30.084  26.308  1.00  0.00    -0.458 OA
BRANCH  24  25
ATOM     25  C   UNL A   1      33.296  31.188  27.001  1.00  0.00     0.338 C 
ATOM     26  O   UNL A   1      32.627  32.195  27.168  1.00  0.00    -0.246 OA
BRANCH  25  27
ATOM     27  C   UNL A   1      34.585  30.942  27.676  1.00  0.00     0.060 A 
ATOM     28  C   UNL A   1      34.876  29.627  28.042  1.00  0.00     0.016 A 
ATOM     29  C   UNL A   1      35.472  31.971  28.003  1.00  0.00     0.016 A 
ATOM     30  C   UNL A   1      36.051  29.326  28.727  1.00  0.00     0.010 A 
ATOM     31  C   UNL A   1      36.651  31.670  28.702  1.00  0.00     0.010 A 
ATOM     32  C   UNL A   1      36.945  30.345  29.076  1.00  0.00    -0.014 A 
BRANCH  32  33
ATOM     33  C   UNL A   1      38.136  30.010  29.901  1.00  0.00     0.031 A 
ATOM     34  C   UNL A   1      39.195  29.097  29.346  1.00  0.00     0.074 A 
ATOM     35  C   UNL A   1      38.306  30.576  31.112  1.00  0.00     0.049 A 
ATOM     36  N   UNL A   1      40.298  28.666  29.905  1.00  0.00    -0.248 NA
ATOM     37  C   UNL A   1      38.981  28.605  27.978  1.00  0.00     0.031 C 
ATOM     38  C   UNL A   1      37.378  31.522  31.735  1.00  0.00     0.029 A 
ATOM     39  N   UNL A   1      39.321  30.452  32.027  1.00  0.00    -0.354 N 
ATOM     40  C   UNL A   1      40.907  27.844  28.962  1.00  0.00     0.074 A 
ATOM     41  C   UNL A   1      40.030  27.814  27.810  1.00  0.00     0.031 C 
ATOM     42  C   UNL A   1      37.876  31.903  32.923  1.00  0.00     0.029 A 
ATOM     43  C   UNL A   1      39.130  31.196  33.169  1.00  0.00     0.049 A 
ATOM     44  H   UNL A   1      40.112  29.884  31.881  1.00  0.00     0.167 HD
ATOM     45  C   UNL A   1      42.089  27.183  29.048  1.00  0.00     0.034 A 
ATOM     46  C   UNL A   1      39.871  31.283  34.294  1.00  0.00     0.034 A 
ATOM     47  C   UNL A   1      42.955  27.222  30.204  1.00  0.00     0.049 A 
ATOM     48  C   UNL A   1      41.146  30.482  34.394  1.00  0.00     0.074 A 
ATOM     49  C   UNL A   1      44.166  26.579  30.398  1.00  0.00     0.029 A 
ATOM     50  N   UNL A   1      42.702  27.943  31.364  1.00  0.00    -0.354 N 
ATOM     51  N   UNL A   1      41.692  29.681  33.507  1.00  0.00    -0.248 NA
ATOM     52  C   UNL A   1      41.904  30.599  35.645  1.00  0.00     0.031 C 
ATOM     53  C   UNL A   1      44.614  26.863  31.694  1.00  0.00     0.029 A 
ATOM     54  C   UNL A   1      43.719  27.741  32.285  1.00  0.00     0.049 A 
ATOM     55  H   UNL A   1      41.914  28.515  31.512  1.00  0.00     0.167 HD
ATOM     56  C   UNL A   1      42.871  29.220  34.088  1.00  0.00     0.074 A 
ATOM     57  C   UNL A   1      42.964  29.845  35.391  1.00  0.00     0.031 C 
ATOM     58  C   UNL A   1      43.794  28.360  33.588  1.00  0.00     0.034 A 
BRANCH  45  59
ATOM     59  C   UNL A   1      42.479  26.315  27.876  1.00  0.00     0.023 A 
ATOM     60  C   UNL A   1      42.152  24.948  27.822  1.00  0.00     0.031 A 
ATOM     61  C   UNL A   1      43.224  26.855  26.812  1.00  0.00     0.131 A 
ATOM     62  C   UNL A   1      42.630  24.155  26.768  1.00  0.00     0.055 A 
ATOM     63  C   UNL A   1      43.629  26.077  25.726  1.00  0.00     0.041 A 
ATOM     64  F   UNL A   1      43.584  28.148  26.817  1.00  0.00    -0.206 F 
ATOM     65  C   UNL A   1      43.346  24.714  25.707  1.00  0.00     0.022 A 
BRANCH  62  66
ATOM     66  S   UNL A   1      42.427  22.355  26.873  1.00  0.00     0.124 S 
ATOM     67  O   UNL A   1      42.073  22.180  28.280  1.00  0.00    -0.237 OA
ATOM     68  O   UNL A   1      41.362  22.101  25.910  1.00  0.00    -0.237 OA
ATOM     69  O   UNL A   1      43.743  21.839  26.501  1.00  0.00    -0.744 OA
ENDBRANCH  62  66
ENDBRANCH  45  59
BRANCH  46  70
ATOM     70  C   UNL A   1      39.412  32.120  35.440  1.00  0.00     0.023 A 
ATOM     71  C   UNL A   1      39.847  33.445  35.596  1.00  0.00     0.031 A 
ATOM     72  C   UNL A   1      38.571  31.580  36.430  1.00  0.00     0.131 A 
ATOM     73  C   UNL A   1      39.475  34.172  36.739  1.00  0.00     0.055 A 
ATOM     74  C   UNL A   1      38.161  32.324  37.537  1.00  0.00     0.041 A 
ATOM     75  F   UNL A   1      38.130  30.315  36.331  1.00  0.00    -0.206 F 
ATOM     76  C   UNL A   1      38.625  33.625  37.703  1.00  0.00     0.022 A 
BRANCH  73  77
ATOM     77  S   UNL A   1      40.190  35.821  36.993  1.00  0.00     0.124 S 
ATOM     78  O   UNL A   1      41.620  35.534  36.957  1.00  0.00    -0.237 OA
ATOM     79  O   UNL A   1      39.655  36.562  35.857  1.00  0.00    -0.237 OA
ATOM     80  O   UNL A   1      39.667  36.221  38.298  1.00  0.00    -0.744 OA
ENDBRANCH  73  77
ENDBRANCH  46  70
BRANCH  58  81
ATOM     81  C   UNL A   1      45.005  28.084  34.446  1.00  0.00     0.023 A 
ATOM     82  C   UNL A   1      45.037  27.017  35.362  1.00  0.00     0.031 A 
ATOM     83  C   UNL A   1      46.132  28.921  34.365  1.00  0.00     0.131 A 
ATOM     84  C   UNL A   1      46.149  26.848  36.199  1.00  0.00     0.055 A 
ATOM     85  C   UNL A   1      47.259  28.714  35.163  1.00  0.00     0.041 A 
ATOM     86  F   UNL A   1      46.155  29.955  33.510  1.00  0.00    -0.206 F 
ATOM     87  C   UNL A   1      47.266  27.682  36.096  1.00  0.00     0.022 A 
BRANCH  84  88
ATOM     88  S   UNL A   1      46.082  25.579  37.495  1.00  0.00     0.124 S 
ATOM     89  O   UNL A   1      47.290  24.806  37.227  1.00  0.00    -0.237 OA
ATOM     90  O   UNL A   1      46.096  26.379  38.716  1.00  0.00    -0.237 OA
ATOM     91  O   UNL A   1      44.826  24.881  37.227  1.00  0.00    -0.744 OA
ENDBRANCH  84  88
ENDBRANCH  58  81
ENDBRANCH  32  33
ENDBRANCH  25  27
ENDBRANCH  24  25
ENDBRANCH  23  24
ENDBRANCH   1  23
TORSDOF 19
ENDMDL
