MODEL 1
REMARK VINA RESULT:     -10.2      0.000      0.000
REMARK SMILES O=C(OCCOC(=O)c1c(C2CC2)nn(-c2ccc(Cl)c(F)c2)c1Cl)c1ccc(-c2c3nc(c(-c4cc(S(=O)(=O)[O-])ccc4F)c4ccc([nH]4)c(-c4cc(S(=O)(=O)[O-])ccc4F)c4nc(c(-c5cc(S(=O)(=O)[O-])ccc5F)c5ccc2[nH]5)C=C4)C=C3)cc1
REMARK SMILES IDX 4 1 3 2 2 3 1 4 26 5 27 6 88 7 28 8 87 9 29 10 30 11 31 12
REMARK SMILES IDX 81 13 32 14 86 15 80 16 82 17 33 18 85 19 79 20 78 21 34 23
REMARK SMILES IDX 66 24 46 25 65 26 47 27 50 28 64 29 83 30 48 31 49 32 63 34
REMARK SMILES IDX 84 35 51 36 35 37 36 38 44 39 37 40 43 41 45 42 42 43 38 44
REMARK SMILES IDX 39 45 40 46 41 47 67 48 68 49 76 50 69 51 75 52 77 53 74 54
REMARK SMILES IDX 70 55 71 56 72 57 73 58 52 59 53 60 61 61 54 62 60 63 62 64
REMARK SMILES IDX 59 65 55 66 56 67 57 68 58 69 5 70 6 71 7 72 8 73 9 74 10 75
REMARK SMILES IDX 24 76 14 77 15 78 25 79 11 80 12 81 13 82 16 83 17 84 23 85
REMARK SMILES IDX 18 86 21 87 19 88 22 89 20 90
REMARK H PARENT 82 22 50 33
REMARK Flexibility Score: inf
ROOT
ATOM      1  C   UNL A   1      34.087  33.848  29.136  1.00  0.00     0.275 C 
ENDROOT
BRANCH   1   2
ATOM      2  O   UNL A   1      35.053  33.212  28.294  1.00  0.00    -0.458 OA
BRANCH   2   3
ATOM      3  C   UNL A   1      34.787  31.933  27.936  1.00  0.00     0.338 C 
ATOM      4  O   UNL A   1      33.683  31.463  27.708  1.00  0.00    -0.246 OA
BRANCH   3   5
ATOM      5  C   UNL A   1      36.017  31.156  28.199  1.00  0.00     0.060 A 
ATOM      6  C   UNL A   1      37.251  31.789  28.393  1.00  0.00     0.016 A 
ATOM      7  C   UNL A   1      35.895  29.780  28.394  1.00  0.00     0.016 A 
ATOM      8  C   UNL A   1      38.356  31.051  28.810  1.00  0.00     0.010 A 
ATOM      9  C   UNL A   1      37.005  29.048  28.811  1.00  0.00     0.010 A 
ATOM     10  C   UNL A   1      38.242  29.674  29.027  1.00  0.00    -0.014 A 
BRANCH  10  11
ATOM     11  C   UNL A   1      39.442  28.934  29.439  1.00  0.00     0.031 A 
ATOM     12  C   UNL A   1      39.793  28.800  30.887  1.00  0.00     0.074 A 
ATOM     13  C   UNL A   1      40.232  28.249  28.588  1.00  0.00     0.049 A 
ATOM     14  N   UNL A   1      40.848  29.250  31.489  1.00  0.00    -0.248 NA
ATOM     15  C   UNL A   1      38.906  28.021  31.762  1.00  0.00     0.031 C 
ATOM     16  C   UNL A   1      39.989  27.949  27.177  1.00  0.00     0.029 A 
ATOM     17  N   UNL A   1      41.402  27.593  28.859  1.00  0.00    -0.354 N 
ATOM     18  C   UNL A   1      40.873  28.669  32.757  1.00  0.00     0.074 A 
ATOM     19  C   UNL A   1      39.610  27.984  32.897  1.00  0.00     0.031 C 
ATOM     20  C   UNL A   1      40.846  26.989  26.777  1.00  0.00     0.029 A 
ATOM     21  C   UNL A   1      41.803  26.748  27.844  1.00  0.00     0.049 A 
ATOM     22  H   UNL A   1      41.908  27.711  29.696  1.00  0.00     0.167 HD
ATOM     23  C   UNL A   1      41.992  28.675  33.540  1.00  0.00     0.034 A 
ATOM     24  C   UNL A   1      42.852  25.899  27.832  1.00  0.00     0.034 A 
ATOM     25  C   UNL A   1      42.985  29.600  33.055  1.00  0.00     0.049 A 
ATOM     26  C   UNL A   1      43.896  26.424  28.734  1.00  0.00     0.074 A 
ATOM     27  C   UNL A   1      43.054  30.962  32.843  1.00  0.00     0.029 A 
ATOM     28  N   UNL A   1      44.107  29.074  32.462  1.00  0.00    -0.354 N 
ATOM     29  N   UNL A   1      44.507  27.561  28.540  1.00  0.00    -0.248 NA
ATOM     30  C   UNL A   1      44.125  25.821  30.040  1.00  0.00     0.031 C 
ATOM     31  C   UNL A   1      43.982  31.137  31.773  1.00  0.00     0.029 A 
ATOM     32  C   UNL A   1      44.411  29.867  31.384  1.00  0.00     0.049 A 
ATOM     33  H   UNL A   1      44.600  28.274  32.756  1.00  0.00     0.167 HD
ATOM     34  C   UNL A   1      44.835  28.010  29.802  1.00  0.00     0.074 A 
ATOM     35  C   UNL A   1      44.759  26.829  30.649  1.00  0.00     0.031 C 
ATOM     36  C   UNL A   1      44.823  29.342  30.096  1.00  0.00     0.034 A 
BRANCH  23  37
ATOM     37  C   UNL A   1      42.350  27.685  34.632  1.00  0.00     0.023 A 
ATOM     38  C   UNL A   1      43.141  26.564  34.287  1.00  0.00     0.031 A 
ATOM     39  C   UNL A   1      41.744  27.637  35.903  1.00  0.00     0.131 A 
ATOM     40  C   UNL A   1      43.269  25.462  35.152  1.00  0.00     0.055 A 
ATOM     41  C   UNL A   1      41.928  26.568  36.790  1.00  0.00     0.041 A 
ATOM     42  F   UNL A   1      40.875  28.573  36.309  1.00  0.00    -0.206 F 
ATOM     43  C   UNL A   1      42.677  25.463  36.411  1.00  0.00     0.022 A 
BRANCH  40  44
ATOM     44  S   UNL A   1      44.067  23.950  34.536  1.00  0.00     0.124 S 
ATOM     45  O   UNL A   1      45.243  23.854  35.392  1.00  0.00    -0.237 OA
ATOM     46  O   UNL A   1      43.026  22.951  34.756  1.00  0.00    -0.237 OA
ATOM     47  O   UNL A   1      44.344  24.260  33.135  1.00  0.00    -0.744 OA
ENDBRANCH  40  44
ENDBRANCH  23  37
BRANCH  24  48
ATOM     48  C   UNL A   1      42.907  24.611  27.114  1.00  0.00     0.023 A 
ATOM     49  C   UNL A   1      43.891  24.321  26.160  1.00  0.00     0.031 A 
ATOM     50  C   UNL A   1      42.051  23.556  27.507  1.00  0.00     0.131 A 
ATOM     51  C   UNL A   1      43.972  23.025  25.611  1.00  0.00     0.055 A 
ATOM     52  C   UNL A   1      42.121  22.282  26.947  1.00  0.00     0.041 A 
ATOM     53  F   UNL A   1      41.160  23.718  28.499  1.00  0.00    -0.206 F 
ATOM     54  C   UNL A   1      43.088  22.011  25.994  1.00  0.00     0.022 A 
BRANCH  51  55
ATOM     55  S   UNL A   1      45.322  22.612  24.468  1.00  0.00     0.124 S 
ATOM     56  O   UNL A   1      45.825  23.931  24.100  1.00  0.00    -0.237 OA
ATOM     57  O   UNL A   1      46.199  21.791  25.295  1.00  0.00    -0.237 OA
ATOM     58  O   UNL A   1      44.641  21.887  23.395  1.00  0.00    -0.744 OA
ENDBRANCH  51  55
ENDBRANCH  24  48
BRANCH  36  59
ATOM     59  C   UNL A   1      44.905  30.324  28.951  1.00  0.00     0.023 A 
ATOM     60  C   UNL A   1      46.104  30.947  28.544  1.00  0.00     0.031 A 
ATOM     61  C   UNL A   1      43.756  30.537  28.171  1.00  0.00     0.131 A 
ATOM     62  C   UNL A   1      46.120  31.765  27.403  1.00  0.00     0.055 A 
ATOM     63  C   UNL A   1      43.779  31.339  27.030  1.00  0.00     0.041 A 
ATOM     64  F   UNL A   1      42.598  29.934  28.485  1.00  0.00    -0.206 F 
ATOM     65  C   UNL A   1      44.963  31.962  26.644  1.00  0.00     0.022 A 
BRANCH  62  66
ATOM     66  S   UNL A   1      47.668  32.573  26.887  1.00  0.00     0.124 S 
ATOM     67  O   UNL A   1      48.086  33.301  28.080  1.00  0.00    -0.237 OA
ATOM     68  O   UNL A   1      48.505  31.440  26.501  1.00  0.00    -0.237 OA
ATOM     69  O   UNL A   1      47.250  33.424  25.772  1.00  0.00    -0.744 OA
ENDBRANCH  62  66
ENDBRANCH  36  59
ENDBRANCH  10  11
ENDBRANCH   3   5
ENDBRANCH   2   3
ENDBRANCH   1   2
BRANCH   1  70
ATOM     70  C   UNL A   1      34.678  34.280  30.484  1.00  0.00     0.275 C 
BRANCH  70  71
ATOM     71  O   UNL A   1      35.430  33.198  31.068  1.00  0.00    -0.458 OA
BRANCH  71  72
ATOM     72  C   UNL A   1      36.194  33.511  32.159  1.00  0.00     0.343 C 
ATOM     73  O   UNL A   1      35.804  34.213  33.082  1.00  0.00    -0.246 OA
BRANCH  72  74
ATOM     74  C   UNL A   1      37.568  33.067  32.028  1.00  0.00     0.121 A 
ATOM     75  C   UNL A   1      38.368  32.168  32.791  1.00  0.00     0.082 A 
ATOM     76  C   UNL A   1      38.490  33.640  31.175  1.00  0.00     0.147 A 
ATOM     77  N   UNL A   1      39.660  32.195  32.435  1.00  0.00    -0.170 NA
ATOM     78  N   UNL A   1      39.723  33.111  31.451  1.00  0.00    -0.221 N 
ATOM     79  Cl  UNL A   1      38.343  34.873  29.994  1.00  0.00    -0.061 Cl
BRANCH  75  80
ATOM     80  C   UNL A   1      38.007  31.225  33.937  1.00  0.00     0.041 C 
ATOM     81  C   UNL A   1      38.904  30.859  35.087  1.00  0.00     0.011 C 
ATOM     82  C   UNL A   1      37.781  31.823  35.302  1.00  0.00     0.011 C 
ENDBRANCH  75  80
BRANCH  78  83
ATOM     83  C   UNL A   1      40.982  33.640  31.107  1.00  0.00     0.069 A 
ATOM     84  C   UNL A   1      41.595  33.244  29.916  1.00  0.00     0.030 A 
ATOM     85  C   UNL A   1      41.604  34.529  31.991  1.00  0.00     0.069 A 
ATOM     86  C   UNL A   1      42.839  33.786  29.584  1.00  0.00     0.026 A 
ATOM     87  C   UNL A   1      42.853  35.035  31.659  1.00  0.00     0.143 A 
ATOM     88  C   UNL A   1      43.469  34.678  30.458  1.00  0.00     0.076 A 
ATOM     89  F   UNL A   1      43.455  35.870  32.519  1.00  0.00    -0.205 F 
ATOM     90  Cl  UNL A   1      45.008  35.331  30.044  1.00  0.00    -0.081 Cl
ENDBRANCH  78  83
ENDBRANCH  72  74
ENDBRANCH  71  72
ENDBRANCH  70  71
ENDBRANCH   1  70
TORSDOF 16
ENDMDL
MODEL 2
REMARK VINA RESULT:     -10.1      5.037     10.256
REMARK SMILES O=C(OCCOC(=O)c1c(C2CC2)nn(-c2ccc(Cl)c(F)c2)c1Cl)c1ccc(-c2c3nc(c(-c4cc(S(=O)(=O)[O-])ccc4F)c4ccc([nH]4)c(-c4cc(S(=O)(=O)[O-])ccc4F)c4nc(c(-c5cc(S(=O)(=O)[O-])ccc5F)c5ccc2[nH]5)C=C4)C=C3)cc1
REMARK SMILES IDX 4 1 3 2 2 3 1 4 26 5 27 6 88 7 28 8 87 9 29 10 30 11 31 12
REMARK SMILES IDX 81 13 32 14 86 15 80 16 82 17 33 18 85 19 79 20 78 21 34 23
REMARK SMILES IDX 66 24 46 25 65 26 47 27 50 28 64 29 83 30 48 31 49 32 63 34
REMARK SMILES IDX 84 35 51 36 35 37 36 38 44 39 37 40 43 41 45 42 42 43 38 44
REMARK SMILES IDX 39 45 40 46 41 47 67 48 68 49 76 50 69 51 75 52 77 53 74 54
REMARK SMILES IDX 70 55 71 56 72 57 73 58 52 59 53 60 61 61 54 62 60 63 62 64
REMARK SMILES IDX 59 65 55 66 56 67 57 68 58 69 5 70 6 71 7 72 8 73 9 74 10 75
REMARK SMILES IDX 24 76 14 77 15 78 25 79 11 80 12 81 13 82 16 83 17 84 23 85
REMARK SMILES IDX 18 86 21 87 19 88 22 89 20 90
REMARK H PARENT 82 22 50 33
REMARK Flexibility Score: inf
ROOT
ATOM      1  C   UNL A   1      34.193  28.932  27.271  1.00  0.00     0.275 C 
ENDROOT
BRANCH   1   2
ATOM      2  O   UNL A   1      35.577  29.293  27.271  1.00  0.00    -0.458 OA
BRANCH   2   3
ATOM      3  C   UNL A   1      36.098  29.670  28.463  1.00  0.00     0.338 C 
ATOM      4  O   UNL A   1      35.561  30.394  29.288  1.00  0.00    -0.246 OA
BRANCH   3   5
ATOM      5  C   UNL A   1      37.535  29.326  28.425  1.00  0.00     0.060 A 
ATOM      6  C   UNL A   1      38.123  28.543  29.426  1.00  0.00     0.016 A 
ATOM      7  C   UNL A   1      38.265  29.679  27.290  1.00  0.00     0.016 A 
ATOM      8  C   UNL A   1      39.431  28.089  29.278  1.00  0.00     0.010 A 
ATOM      9  C   UNL A   1      39.573  29.221  27.149  1.00  0.00     0.010 A 
ATOM     10  C   UNL A   1      40.167  28.420  28.136  1.00  0.00    -0.014 A 
BRANCH  10  11
ATOM     11  C   UNL A   1      41.552  27.940  28.038  1.00  0.00     0.031 A 
ATOM     12  C   UNL A   1      41.868  26.672  27.311  1.00  0.00     0.074 A 
ATOM     13  C   UNL A   1      42.620  28.633  28.483  1.00  0.00     0.049 A 
ATOM     14  N   UNL A   1      42.380  25.588  27.800  1.00  0.00    -0.248 NA
ATOM     15  C   UNL A   1      41.655  26.617  25.858  1.00  0.00     0.031 C 
ATOM     16  C   UNL A   1      42.662  30.013  28.965  1.00  0.00     0.029 A 
ATOM     17  N   UNL A   1      43.933  28.245  28.504  1.00  0.00    -0.354 N 
ATOM     18  C   UNL A   1      42.734  24.780  26.719  1.00  0.00     0.074 A 
ATOM     19  C   UNL A   1      42.191  25.432  25.551  1.00  0.00     0.031 C 
ATOM     20  C   UNL A   1      43.945  30.425  29.010  1.00  0.00     0.029 A 
ATOM     21  C   UNL A   1      44.807  29.287  28.739  1.00  0.00     0.049 A 
ATOM     22  H   UNL A   1      44.225  27.315  28.365  1.00  0.00     0.167 HD
ATOM     23  C   UNL A   1      43.572  23.710  26.852  1.00  0.00     0.034 A 
ATOM     24  C   UNL A   1      46.156  29.260  28.735  1.00  0.00     0.034 A 
ATOM     25  C   UNL A   1      43.764  23.343  28.232  1.00  0.00     0.049 A 
ATOM     26  C   UNL A   1      46.604  27.900  29.096  1.00  0.00     0.074 A 
ATOM     27  C   UNL A   1      42.957  22.914  29.267  1.00  0.00     0.029 A 
ATOM     28  N   UNL A   1      44.980  23.629  28.802  1.00  0.00    -0.354 N 
ATOM     29  N   UNL A   1      46.358  27.348  30.254  1.00  0.00    -0.248 NA
ATOM     30  C   UNL A   1      47.128  26.994  28.084  1.00  0.00     0.031 C 
ATOM     31  C   UNL A   1      43.592  23.371  30.461  1.00  0.00     0.029 A 
ATOM     32  C   UNL A   1      44.741  24.066  30.081  1.00  0.00     0.049 A 
ATOM     33  H   UNL A   1      45.861  23.540  28.372  1.00  0.00     0.167 HD
ATOM     34  C   UNL A   1      46.291  25.995  29.995  1.00  0.00     0.074 A 
ATOM     35  C   UNL A   1      46.959  25.826  28.714  1.00  0.00     0.031 C 
ATOM     36  C   UNL A   1      45.427  25.194  30.683  1.00  0.00     0.034 A 
BRANCH  23  37
ATOM     37  C   UNL A   1      44.447  23.095  25.777  1.00  0.00     0.023 A 
ATOM     38  C   UNL A   1      44.383  21.695  25.582  1.00  0.00     0.031 A 
ATOM     39  C   UNL A   1      45.514  23.753  25.134  1.00  0.00     0.131 A 
ATOM     40  C   UNL A   1      45.356  21.014  24.827  1.00  0.00     0.055 A 
ATOM     41  C   UNL A   1      46.444  23.081  24.327  1.00  0.00     0.041 A 
ATOM     42  F   UNL A   1      45.764  25.054  25.329  1.00  0.00    -0.206 F 
ATOM     43  C   UNL A   1      46.381  21.702  24.185  1.00  0.00     0.022 A 
BRANCH  40  44
ATOM     44  S   UNL A   1      45.371  19.196  24.848  1.00  0.00     0.124 S 
ATOM     45  O   UNL A   1      45.808  18.879  23.494  1.00  0.00    -0.237 OA
ATOM     46  O   UNL A   1      46.326  18.917  25.915  1.00  0.00    -0.237 OA
ATOM     47  O   UNL A   1      43.983  18.850  25.148  1.00  0.00    -0.744 OA
ENDBRANCH  40  44
ENDBRANCH  23  37
BRANCH  24  48
ATOM     48  C   UNL A   1      47.037  30.376  28.338  1.00  0.00     0.023 A 
ATOM     49  C   UNL A   1      46.625  31.387  27.461  1.00  0.00     0.031 A 
ATOM     50  C   UNL A   1      48.284  30.544  28.986  1.00  0.00     0.131 A 
ATOM     51  C   UNL A   1      47.463  32.497  27.231  1.00  0.00     0.055 A 
ATOM     52  C   UNL A   1      49.118  31.632  28.740  1.00  0.00     0.041 A 
ATOM     53  F   UNL A   1      48.698  29.681  29.929  1.00  0.00    -0.206 F 
ATOM     54  C   UNL A   1      48.707  32.619  27.859  1.00  0.00     0.022 A 
BRANCH  51  55
ATOM     55  S   UNL A   1      46.879  33.867  26.191  1.00  0.00     0.124 S 
ATOM     56  O   UNL A   1      45.731  33.271  25.517  1.00  0.00    -0.237 OA
ATOM     57  O   UNL A   1      46.587  34.908  27.171  1.00  0.00    -0.237 OA
ATOM     58  O   UNL A   1      48.029  34.146  25.330  1.00  0.00    -0.744 OA
ENDBRANCH  51  55
ENDBRANCH  24  48
BRANCH  36  59
ATOM     59  C   UNL A   1      44.898  25.689  32.008  1.00  0.00     0.023 A 
ATOM     60  C   UNL A   1      43.833  26.607  32.127  1.00  0.00     0.031 A 
ATOM     61  C   UNL A   1      45.407  25.118  33.186  1.00  0.00     0.131 A 
ATOM     62  C   UNL A   1      43.327  26.939  33.394  1.00  0.00     0.055 A 
ATOM     63  C   UNL A   1      44.892  25.437  34.443  1.00  0.00     0.041 A 
ATOM     64  F   UNL A   1      46.390  24.204  33.130  1.00  0.00    -0.206 F 
ATOM     65  C   UNL A   1      43.851  26.355  34.551  1.00  0.00     0.022 A 
BRANCH  62  66
ATOM     66  S   UNL A   1      41.959  28.130  33.543  1.00  0.00     0.124 S 
ATOM     67  O   UNL A   1      41.362  28.130  32.212  1.00  0.00    -0.237 OA
ATOM     68  O   UNL A   1      41.147  27.551  34.611  1.00  0.00    -0.237 OA
ATOM     69  O   UNL A   1      42.633  29.378  33.905  1.00  0.00    -0.744 OA
ENDBRANCH  62  66
ENDBRANCH  36  59
ENDBRANCH  10  11
ENDBRANCH   3   5
ENDBRANCH   2   3
ENDBRANCH   1   2
BRANCH   1  70
ATOM     70  C   UNL A   1      33.820  28.037  26.082  1.00  0.00     0.275 C 
BRANCH  70  71
ATOM     71  O   UNL A   1      33.013  26.929  26.526  1.00  0.00    -0.458 OA
BRANCH  71  72
ATOM     72  C   UNL A   1      32.259  26.308  25.568  1.00  0.00     0.343 C 
ATOM     73  O   UNL A   1      31.062  26.509  25.410  1.00  0.00    -0.246 OA
BRANCH  72  74
ATOM     74  C   UNL A   1      32.984  25.263  24.873  1.00  0.00     0.121 A 
ATOM     75  C   UNL A   1      33.316  25.068  23.501  1.00  0.00     0.082 A 
ATOM     76  C   UNL A   1      33.349  24.060  25.444  1.00  0.00     0.147 A 
ATOM     77  N   UNL A   1      33.833  23.854  23.261  1.00  0.00    -0.170 NA
ATOM     78  N   UNL A   1      33.836  23.242  24.459  1.00  0.00    -0.221 N 
ATOM     79  Cl  UNL A   1      33.205  23.464  27.044  1.00  0.00    -0.061 Cl
BRANCH  75  80
ATOM     80  C   UNL A   1      33.156  25.981  22.288  1.00  0.00     0.041 C 
ATOM     81  C   UNL A   1      32.655  25.562  20.934  1.00  0.00     0.011 C 
ATOM     82  C   UNL A   1      31.759  26.337  21.847  1.00  0.00     0.011 C 
ENDBRANCH  75  80
BRANCH  78  83
ATOM     83  C   UNL A   1      33.977  21.842  24.496  1.00  0.00     0.069 A 
ATOM     84  C   UNL A   1      35.196  21.280  24.883  1.00  0.00     0.030 A 
ATOM     85  C   UNL A   1      32.894  21.045  24.109  1.00  0.00     0.069 A 
ATOM     86  C   UNL A   1      35.317  19.889  24.924  1.00  0.00     0.026 A 
ATOM     87  C   UNL A   1      33.041  19.664  24.129  1.00  0.00     0.143 A 
ATOM     88  C   UNL A   1      34.239  19.082  24.543  1.00  0.00     0.076 A 
ATOM     89  F   UNL A   1      32.007  18.906  23.736  1.00  0.00    -0.205 F 
ATOM     90  Cl  UNL A   1      34.403  17.368  24.587  1.00  0.00    -0.081 Cl
ENDBRANCH  78  83
ENDBRANCH  72  74
ENDBRANCH  71  72
ENDBRANCH  70  71
ENDBRANCH   1  70
TORSDOF 16
ENDMDL
MODEL 3
REMARK VINA RESULT:      -9.8      2.052      3.109
REMARK SMILES O=C(OCCOC(=O)c1c(C2CC2)nn(-c2ccc(Cl)c(F)c2)c1Cl)c1ccc(-c2c3nc(c(-c4cc(S(=O)(=O)[O-])ccc4F)c4ccc([nH]4)c(-c4cc(S(=O)(=O)[O-])ccc4F)c4nc(c(-c5cc(S(=O)(=O)[O-])ccc5F)c5ccc2[nH]5)C=C4)C=C3)cc1
REMARK SMILES IDX 4 1 3 2 2 3 1 4 26 5 27 6 88 7 28 8 87 9 29 10 30 11 31 12
REMARK SMILES IDX 81 13 32 14 86 15 80 16 82 17 33 18 85 19 79 20 78 21 34 23
REMARK SMILES IDX 66 24 46 25 65 26 47 27 50 28 64 29 83 30 48 31 49 32 63 34
REMARK SMILES IDX 84 35 51 36 35 37 36 38 44 39 37 40 43 41 45 42 42 43 38 44
REMARK SMILES IDX 39 45 40 46 41 47 67 48 68 49 76 50 69 51 75 52 77 53 74 54
REMARK SMILES IDX 70 55 71 56 72 57 73 58 52 59 53 60 61 61 54 62 60 63 62 64
REMARK SMILES IDX 59 65 55 66 56 67 57 68 58 69 5 70 6 71 7 72 8 73 9 74 10 75
REMARK SMILES IDX 24 76 14 77 15 78 25 79 11 80 12 81 13 82 16 83 17 84 23 85
REMARK SMILES IDX 18 86 21 87 19 88 22 89 20 90
REMARK H PARENT 82 22 50 33
REMARK Flexibility Score: inf
ROOT
ATOM      1  C   UNL A   1      33.969  33.864  27.702  1.00  0.00     0.275 C 
ENDROOT
BRANCH   1   2
ATOM      2  O   UNL A   1      35.032  32.941  27.447  1.00  0.00    -0.458 OA
BRANCH   2   3
ATOM      3  C   UNL A   1      34.775  31.640  27.722  1.00  0.00     0.338 C 
ATOM      4  O   UNL A   1      33.680  31.159  27.971  1.00  0.00    -0.246 OA
BRANCH   3   5
ATOM      5  C   UNL A   1      36.079  30.998  27.989  1.00  0.00     0.060 A 
ATOM      6  C   UNL A   1      37.157  31.727  28.509  1.00  0.00     0.016 A 
ATOM      7  C   UNL A   1      36.171  29.613  27.848  1.00  0.00     0.016 A 
ATOM      8  C   UNL A   1      38.314  31.067  28.913  1.00  0.00     0.010 A 
ATOM      9  C   UNL A   1      37.332  28.961  28.255  1.00  0.00     0.010 A 
ATOM     10  C   UNL A   1      38.411  29.677  28.794  1.00  0.00    -0.014 A 
BRANCH  10  11
ATOM     11  C   UNL A   1      39.663  29.030  29.209  1.00  0.00     0.031 A 
ATOM     12  C   UNL A   1      39.975  28.837  30.659  1.00  0.00     0.074 A 
ATOM     13  C   UNL A   1      40.544  28.480  28.350  1.00  0.00     0.049 A 
ATOM     14  N   UNL A   1      40.960  29.346  31.329  1.00  0.00    -0.248 NA
ATOM     15  C   UNL A   1      39.139  27.923  31.449  1.00  0.00     0.031 C 
ATOM     16  C   UNL A   1      40.380  28.249  26.916  1.00  0.00     0.029 A 
ATOM     17  N   UNL A   1      41.763  27.921  28.629  1.00  0.00    -0.354 N 
ATOM     18  C   UNL A   1      40.999  28.691  32.560  1.00  0.00     0.074 A 
ATOM     19  C   UNL A   1      39.805  27.881  32.607  1.00  0.00     0.031 C 
ATOM     20  C   UNL A   1      41.340  27.402  26.493  1.00  0.00     0.029 A 
ATOM     21  C   UNL A   1      42.279  27.185  27.581  1.00  0.00     0.049 A 
ATOM     22  H   UNL A   1      42.226  28.034  29.491  1.00  0.00     0.167 HD
ATOM     23  C   UNL A   1      42.085  28.753  33.386  1.00  0.00     0.034 A 
ATOM     24  C   UNL A   1      43.406  26.442  27.560  1.00  0.00     0.034 A 
ATOM     25  C   UNL A   1      42.999  29.797  32.998  1.00  0.00     0.049 A 
ATOM     26  C   UNL A   1      44.362  27.006  28.534  1.00  0.00     0.074 A 
ATOM     27  C   UNL A   1      42.941  31.171  32.872  1.00  0.00     0.029 A 
ATOM     28  N   UNL A   1      44.186  29.419  32.420  1.00  0.00    -0.354 N 
ATOM     29  N   UNL A   1      44.866  28.206  28.433  1.00  0.00    -0.248 NA
ATOM     30  C   UNL A   1      44.604  26.345  29.809  1.00  0.00     0.031 C 
ATOM     31  C   UNL A   1      43.884  31.501  31.852  1.00  0.00     0.029 A 
ATOM     32  C   UNL A   1      44.448  30.305  31.405  1.00  0.00     0.049 A 
ATOM     33  H   UNL A   1      44.745  28.654  32.684  1.00  0.00     0.167 HD
ATOM     34  C   UNL A   1      45.104  28.602  29.733  1.00  0.00     0.074 A 
ATOM     35  C   UNL A   1      45.115  27.368  30.502  1.00  0.00     0.031 C 
ATOM     36  C   UNL A   1      44.953  29.906  30.105  1.00  0.00     0.034 A 
BRANCH  23  37
ATOM     37  C   UNL A   1      42.499  27.734  34.430  1.00  0.00     0.023 A 
ATOM     38  C   UNL A   1      43.253  26.613  34.009  1.00  0.00     0.031 A 
ATOM     39  C   UNL A   1      41.977  27.662  35.736  1.00  0.00     0.131 A 
ATOM     40  C   UNL A   1      43.423  25.489  34.838  1.00  0.00     0.055 A 
ATOM     41  C   UNL A   1      42.204  26.571  36.585  1.00  0.00     0.041 A 
ATOM     42  F   UNL A   1      41.147  28.598  36.219  1.00  0.00    -0.206 F 
ATOM     43  C   UNL A   1      42.913  25.467  36.133  1.00  0.00     0.022 A 
BRANCH  40  44
ATOM     44  S   UNL A   1      44.160  23.983  34.137  1.00  0.00     0.124 S 
ATOM     45  O   UNL A   1      43.229  22.952  34.582  1.00  0.00    -0.237 OA
ATOM     46  O   UNL A   1      44.154  24.283  32.709  1.00  0.00    -0.237 OA
ATOM     47  O   UNL A   1      45.481  23.933  34.758  1.00  0.00    -0.744 OA
ENDBRANCH  40  44
ENDBRANCH  23  37
BRANCH  24  48
ATOM     48  C   UNL A   1      43.611  25.214  26.768  1.00  0.00     0.023 A 
ATOM     49  C   UNL A   1      42.892  24.035  27.005  1.00  0.00     0.031 A 
ATOM     50  C   UNL A   1      44.432  25.256  25.617  1.00  0.00     0.131 A 
ATOM     51  C   UNL A   1      43.035  22.942  26.127  1.00  0.00     0.055 A 
ATOM     52  C   UNL A   1      44.586  24.166  24.763  1.00  0.00     0.041 A 
ATOM     53  F   UNL A   1      45.062  26.386  25.254  1.00  0.00    -0.206 F 
ATOM     54  C   UNL A   1      43.882  23.000  25.015  1.00  0.00     0.022 A 
BRANCH  51  55
ATOM     55  S   UNL A   1      42.013  21.458  26.361  1.00  0.00     0.124 S 
ATOM     56  O   UNL A   1      40.686  21.941  25.996  1.00  0.00    -0.237 OA
ATOM     57  O   UNL A   1      42.628  20.501  25.447  1.00  0.00    -0.237 OA
ATOM     58  O   UNL A   1      42.193  21.149  27.779  1.00  0.00    -0.744 OA
ENDBRANCH  51  55
ENDBRANCH  24  48
BRANCH  36  59
ATOM     59  C   UNL A   1      44.978  30.962  29.026  1.00  0.00     0.023 A 
ATOM     60  C   UNL A   1      46.165  31.539  28.529  1.00  0.00     0.031 A 
ATOM     61  C   UNL A   1      43.769  31.301  28.396  1.00  0.00     0.131 A 
ATOM     62  C   UNL A   1      46.115  32.437  27.450  1.00  0.00     0.055 A 
ATOM     63  C   UNL A   1      43.723  32.182  27.315  1.00  0.00     0.041 A 
ATOM     64  F   UNL A   1      42.613  30.748  28.797  1.00  0.00    -0.206 F 
ATOM     65  C   UNL A   1      44.898  32.758  26.841  1.00  0.00     0.022 A 
BRANCH  62  66
ATOM     66  S   UNL A   1      47.649  33.185  26.818  1.00  0.00     0.124 S 
ATOM     67  O   UNL A   1      47.199  33.965  25.670  1.00  0.00    -0.237 OA
ATOM     68  O   UNL A   1      48.126  33.951  27.967  1.00  0.00    -0.237 OA
ATOM     69  O   UNL A   1      48.476  32.026  26.479  1.00  0.00    -0.744 OA
ENDBRANCH  62  66
ENDBRANCH  36  59
ENDBRANCH  10  11
ENDBRANCH   3   5
ENDBRANCH   2   3
ENDBRANCH   1   2
BRANCH   1  70
ATOM     70  C   UNL A   1      34.450  35.124  28.433  1.00  0.00     0.275 C 
BRANCH  70  71
ATOM     71  O   UNL A   1      35.017  34.773  29.710  1.00  0.00    -0.458 OA
BRANCH  71  72
ATOM     72  C   UNL A   1      34.132  34.589  30.736  1.00  0.00     0.343 C 
ATOM     73  O   UNL A   1      32.916  34.633  30.600  1.00  0.00    -0.246 OA
BRANCH  72  74
ATOM     74  C   UNL A   1      34.780  34.506  32.030  1.00  0.00     0.121 A 
ATOM     75  C   UNL A   1      34.873  35.416  33.122  1.00  0.00     0.082 A 
ATOM     76  C   UNL A   1      35.670  33.513  32.390  1.00  0.00     0.147 A 
ATOM     77  N   UNL A   1      35.744  35.013  34.059  1.00  0.00    -0.170 NA
ATOM     78  N   UNL A   1      36.234  33.850  33.591  1.00  0.00    -0.221 N 
ATOM     79  Cl  UNL A   1      36.191  32.097  31.578  1.00  0.00    -0.061 Cl
BRANCH  75  80
ATOM     80  C   UNL A   1      34.184  36.755  33.378  1.00  0.00     0.041 C 
ATOM     81  C   UNL A   1      33.714  37.716  32.322  1.00  0.00     0.011 C 
ATOM     82  C   UNL A   1      32.717  36.871  33.050  1.00  0.00     0.011 C 
ENDBRANCH  75  80
BRANCH  78  83
ATOM     83  C   UNL A   1      37.424  33.351  34.152  1.00  0.00     0.069 A 
ATOM     84  C   UNL A   1      38.640  33.975  33.861  1.00  0.00     0.030 A 
ATOM     85  C   UNL A   1      37.361  32.215  34.967  1.00  0.00     0.069 A 
ATOM     86  C   UNL A   1      39.811  33.474  34.435  1.00  0.00     0.026 A 
ATOM     87  C   UNL A   1      38.538  31.714  35.505  1.00  0.00     0.143 A 
ATOM     88  C   UNL A   1      39.759  32.341  35.254  1.00  0.00     0.076 A 
ATOM     89  F   UNL A   1      38.475  30.612  36.268  1.00  0.00    -0.205 F 
ATOM     90  Cl  UNL A   1      41.211  31.726  35.947  1.00  0.00    -0.081 Cl
ENDBRANCH  78  83
ENDBRANCH  72  74
ENDBRANCH  71  72
ENDBRANCH  70  71
ENDBRANCH   1  70
TORSDOF 16
ENDMDL
