MODEL 1
REMARK VINA RESULT:     -12.2      0.000      0.000
REMARK SMILES O=C(OCCOC(=O)[C@H]1CCCN(C(=O)c2cc(Br)ccc2Cl)C1)c1ccc(-c2c3nc(c(-c4cc(S(=O)(=O)[O-])ccc4F)c4ccc([nH]4)c(-c4cc(S(=O)(=O)[O-])ccc4F)c4nc(c(-c5cc(S(=O)(=O)[O-])ccc5F)c5ccc2[nH]5)C=C4)C=C3)cc1
REMARK SMILES IDX 4 1 3 2 2 3 1 4 25 5 26 6 87 7 27 8 86 9 28 10 29 11 30 12
REMARK SMILES IDX 80 13 31 14 85 15 79 16 81 17 32 18 84 19 78 20 77 21 33 23
REMARK SMILES IDX 65 24 45 25 64 26 46 27 49 28 63 29 82 30 47 31 48 32 62 34
REMARK SMILES IDX 83 35 50 36 34 37 35 38 43 39 36 40 42 41 44 42 41 43 37 44
REMARK SMILES IDX 38 45 39 46 40 47 66 48 67 49 75 50 68 51 74 52 76 53 73 54
REMARK SMILES IDX 69 55 70 56 71 57 72 58 51 59 52 60 60 61 53 62 59 63 61 64
REMARK SMILES IDX 58 65 54 66 55 67 56 68 57 69 5 70 6 71 7 72 8 73 9 74 10 75
REMARK SMILES IDX 24 76 11 77 13 78 12 79 14 80 15 81 16 82 17 83 22 84 18 85
REMARK SMILES IDX 21 86 23 87 19 88 20 89
REMARK H PARENT 81 22 49 33
REMARK Flexibility Score: inf
ROOT
ATOM      1  C   UNL A   1      34.387  34.248  31.199  1.00  0.00     0.275 C 
ENDROOT
BRANCH   1   2
ATOM      2  O   UNL A   1      34.495  32.938  31.776  1.00  0.00    -0.458 OA
BRANCH   2   3
ATOM      3  C   UNL A   1      35.434  32.438  32.613  1.00  0.00     0.338 C 
ATOM      4  O   UNL A   1      35.274  32.615  33.822  1.00  0.00    -0.246 OA
BRANCH   3   5
ATOM      5  C   UNL A   1      36.726  31.814  32.163  1.00  0.00     0.060 A 
ATOM      6  C   UNL A   1      37.676  31.158  32.957  1.00  0.00     0.016 A 
ATOM      7  C   UNL A   1      36.969  31.871  30.781  1.00  0.00     0.016 A 
ATOM      8  C   UNL A   1      38.767  30.474  32.388  1.00  0.00     0.010 A 
ATOM      9  C   UNL A   1      38.035  31.171  30.209  1.00  0.00     0.010 A 
ATOM     10  C   UNL A   1      38.937  30.444  31.006  1.00  0.00    -0.014 A 
BRANCH  10  11
ATOM     11  C   UNL A   1      40.121  29.827  30.350  1.00  0.00     0.031 A 
ATOM     12  C   UNL A   1      41.264  30.746  30.030  1.00  0.00     0.074 A 
ATOM     13  C   UNL A   1      40.154  28.542  29.941  1.00  0.00     0.049 A 
ATOM     14  N   UNL A   1      42.285  30.570  29.237  1.00  0.00    -0.248 NA
ATOM     15  C   UNL A   1      41.201  32.074  30.661  1.00  0.00     0.031 C 
ATOM     16  C   UNL A   1      39.138  27.525  30.210  1.00  0.00     0.029 A 
ATOM     17  N   UNL A   1      41.062  27.887  29.141  1.00  0.00    -0.354 N 
ATOM     18  C   UNL A   1      42.993  31.763  29.293  1.00  0.00     0.074 A 
ATOM     19  C   UNL A   1      42.191  32.697  30.051  1.00  0.00     0.031 C 
ATOM     20  C   UNL A   1      39.424  26.414  29.504  1.00  0.00     0.029 A 
ATOM     21  C   UNL A   1      40.640  26.639  28.733  1.00  0.00     0.049 A 
ATOM     22  H   UNL A   1      41.930  28.273  28.882  1.00  0.00     0.167 HD
ATOM     23  C   UNL A   1      44.240  32.035  28.835  1.00  0.00     0.034 A 
ATOM     24  C   UNL A   1      41.156  25.801  27.810  1.00  0.00     0.034 A 
ATOM     25  C   UNL A   1      45.013  31.102  28.067  1.00  0.00     0.049 A 
ATOM     26  C   UNL A   1      42.441  26.184  27.118  1.00  0.00     0.074 A 
ATOM     27  C   UNL A   1      46.299  31.227  27.578  1.00  0.00     0.029 A 
ATOM     28  N   UNL A   1      44.546  29.857  27.658  1.00  0.00    -0.354 N 
ATOM     29  N   UNL A   1      43.138  27.292  27.227  1.00  0.00    -0.248 NA
ATOM     30  C   UNL A   1      43.023  25.193  26.202  1.00  0.00     0.031 C 
ATOM     31  C   UNL A   1      46.588  30.082  26.825  1.00  0.00     0.029 A 
ATOM     32  C   UNL A   1      45.507  29.215  26.900  1.00  0.00     0.049 A 
ATOM     33  H   UNL A   1      43.661  29.488  27.877  1.00  0.00     0.167 HD
ATOM     34  C   UNL A   1      44.283  27.095  26.460  1.00  0.00     0.074 A 
ATOM     35  C   UNL A   1      44.153  25.789  25.844  1.00  0.00     0.031 C 
ATOM     36  C   UNL A   1      45.364  27.902  26.318  1.00  0.00     0.034 A 
BRANCH  23  37
ATOM     37  C   UNL A   1      44.786  33.397  29.190  1.00  0.00     0.023 A 
ATOM     38  C   UNL A   1      44.723  34.451  28.258  1.00  0.00     0.031 A 
ATOM     39  C   UNL A   1      45.522  33.601  30.367  1.00  0.00     0.131 A 
ATOM     40  C   UNL A   1      45.527  35.585  28.430  1.00  0.00     0.055 A 
ATOM     41  C   UNL A   1      46.224  34.789  30.590  1.00  0.00     0.041 A 
ATOM     42  F   UNL A   1      45.626  32.630  31.288  1.00  0.00    -0.206 F 
ATOM     43  C   UNL A   1      46.260  35.774  29.603  1.00  0.00     0.022 A 
BRANCH  40  44
ATOM     44  S   UNL A   1      45.805  36.657  26.992  1.00  0.00     0.124 S 
ATOM     45  O   UNL A   1      46.055  35.676  25.938  1.00  0.00    -0.237 OA
ATOM     46  O   UNL A   1      44.548  37.389  26.894  1.00  0.00    -0.237 OA
ATOM     47  O   UNL A   1      46.967  37.454  27.378  1.00  0.00    -0.744 OA
ENDBRANCH  40  44
ENDBRANCH  23  37
BRANCH  24  48
ATOM     48  C   UNL A   1      40.442  24.556  27.403  1.00  0.00     0.023 A 
ATOM     49  C   UNL A   1      41.044  23.288  27.482  1.00  0.00     0.031 A 
ATOM     50  C   UNL A   1      39.169  24.647  26.815  1.00  0.00     0.131 A 
ATOM     51  C   UNL A   1      40.387  22.168  26.941  1.00  0.00     0.055 A 
ATOM     52  C   UNL A   1      38.518  23.527  26.295  1.00  0.00     0.041 A 
ATOM     53  F   UNL A   1      38.554  25.836  26.715  1.00  0.00    -0.206 F 
ATOM     54  C   UNL A   1      39.127  22.280  26.353  1.00  0.00     0.022 A 
BRANCH  51  55
ATOM     55  S   UNL A   1      41.220  20.555  26.958  1.00  0.00     0.124 S 
ATOM     56  O   UNL A   1      40.569  19.878  25.843  1.00  0.00    -0.237 OA
ATOM     57  O   UNL A   1      42.615  20.932  26.758  1.00  0.00    -0.237 OA
ATOM     58  O   UNL A   1      40.906  20.024  28.283  1.00  0.00    -0.744 OA
ENDBRANCH  51  55
ENDBRANCH  24  48
BRANCH  36  59
ATOM     59  C   UNL A   1      46.551  27.342  25.584  1.00  0.00     0.023 A 
ATOM     60  C   UNL A   1      46.876  27.718  24.273  1.00  0.00     0.031 A 
ATOM     61  C   UNL A   1      47.400  26.441  26.254  1.00  0.00     0.131 A 
ATOM     62  C   UNL A   1      48.019  27.179  23.663  1.00  0.00     0.055 A 
ATOM     63  C   UNL A   1      48.560  25.947  25.660  1.00  0.00     0.041 A 
ATOM     64  F   UNL A   1      47.124  26.049  27.508  1.00  0.00    -0.206 F 
ATOM     65  C   UNL A   1      48.873  26.314  24.356  1.00  0.00     0.022 A 
BRANCH  62  66
ATOM     66  S   UNL A   1      48.368  27.597  21.934  1.00  0.00     0.124 S 
ATOM     67  O   UNL A   1      49.508  28.498  22.067  1.00  0.00    -0.237 OA
ATOM     68  O   UNL A   1      48.653  26.292  21.345  1.00  0.00    -0.237 OA
ATOM     69  O   UNL A   1      47.130  28.225  21.477  1.00  0.00    -0.744 OA
ENDBRANCH  62  66
ENDBRANCH  36  59
ENDBRANCH  10  11
ENDBRANCH   3   5
ENDBRANCH   2   3
ENDBRANCH   1   2
BRANCH   1  70
ATOM     70  C   UNL A   1      34.065  34.249  29.703  1.00  0.00     0.274 C 
BRANCH  70  71
ATOM     71  O   UNL A   1      33.881  32.924  29.183  1.00  0.00    -0.462 OA
BRANCH  71  72
ATOM     72  C   UNL A   1      33.205  32.811  28.002  1.00  0.00     0.310 C 
ATOM     73  O   UNL A   1      32.376  33.622  27.609  1.00  0.00    -0.252 OA
BRANCH  72  74
ATOM     74  C   UNL A   1      33.609  31.572  27.204  1.00  0.00     0.119 C 
ATOM     75  C   UNL A   1      34.581  30.673  27.973  1.00  0.00     0.019 C 
ATOM     76  C   UNL A   1      32.358  30.796  26.785  1.00  0.00     0.135 C 
ATOM     77  C   UNL A   1      34.797  29.285  27.379  1.00  0.00     0.022 C 
ATOM     78  N   UNL A   1      32.711  29.490  26.223  1.00  0.00    -0.338 N 
ATOM     79  C   UNL A   1      33.457  28.622  27.130  1.00  0.00     0.120 C 
BRANCH  78  80
ATOM     80  C   UNL A   1      32.573  29.239  24.863  1.00  0.00     0.255 C 
ATOM     81  O   UNL A   1      33.479  29.340  24.040  1.00  0.00    -0.269 OA
BRANCH  80  82
ATOM     82  C   UNL A   1      31.250  28.783  24.395  1.00  0.00     0.059 A 
ATOM     83  C   UNL A   1      30.357  29.738  23.894  1.00  0.00     0.031 A 
ATOM     84  C   UNL A   1      30.931  27.421  24.370  1.00  0.00     0.053 A 
ATOM     85  C   UNL A   1      29.159  29.313  23.326  1.00  0.00     0.018 A 
ATOM     86  C   UNL A   1      29.730  27.011  23.788  1.00  0.00     0.022 A 
ATOM     87  Cl  UNL A   1      31.985  26.222  25.026  1.00  0.00    -0.083 Cl
ATOM     88  Br  UNL A   1      27.946  30.585  22.629  1.00  0.00    -0.051 Br
ATOM     89  C   UNL A   1      28.848  27.954  23.254  1.00  0.00     0.017 A 
ENDBRANCH  80  82
ENDBRANCH  78  80
ENDBRANCH  72  74
ENDBRANCH  71  72
ENDBRANCH  70  71
ENDBRANCH   1  70
TORSDOF 16
ENDMDL
MODEL 2
REMARK VINA RESULT:     -12.0      5.025      9.304
REMARK SMILES O=C(OCCOC(=O)[C@H]1CCCN(C(=O)c2cc(Br)ccc2Cl)C1)c1ccc(-c2c3nc(c(-c4cc(S(=O)(=O)[O-])ccc4F)c4ccc([nH]4)c(-c4cc(S(=O)(=O)[O-])ccc4F)c4nc(c(-c5cc(S(=O)(=O)[O-])ccc5F)c5ccc2[nH]5)C=C4)C=C3)cc1
REMARK SMILES IDX 4 1 3 2 2 3 1 4 25 5 26 6 87 7 27 8 86 9 28 10 29 11 30 12
REMARK SMILES IDX 80 13 31 14 85 15 79 16 81 17 32 18 84 19 78 20 77 21 33 23
REMARK SMILES IDX 65 24 45 25 64 26 46 27 49 28 63 29 82 30 47 31 48 32 62 34
REMARK SMILES IDX 83 35 50 36 34 37 35 38 43 39 36 40 42 41 44 42 41 43 37 44
REMARK SMILES IDX 38 45 39 46 40 47 66 48 67 49 75 50 68 51 74 52 76 53 73 54
REMARK SMILES IDX 69 55 70 56 71 57 72 58 51 59 52 60 60 61 53 62 59 63 61 64
REMARK SMILES IDX 58 65 54 66 55 67 56 68 57 69 5 70 6 71 7 72 8 73 9 74 10 75
REMARK SMILES IDX 24 76 11 77 13 78 12 79 14 80 15 81 16 82 17 83 22 84 18 85
REMARK SMILES IDX 21 86 23 87 19 88 20 89
REMARK H PARENT 81 22 49 33
REMARK Flexibility Score: inf
ROOT
ATOM      1  C   UNL A   1      31.678  32.367  27.167  1.00  0.00     0.275 C 
ENDROOT
BRANCH   1   2
ATOM      2  O   UNL A   1      32.630  33.441  27.164  1.00  0.00    -0.458 OA
BRANCH   2   3
ATOM      3  C   UNL A   1      33.237  34.060  28.205  1.00  0.00     0.338 C 
ATOM      4  O   UNL A   1      32.921  35.227  28.439  1.00  0.00    -0.246 OA
BRANCH   3   5
ATOM      5  C   UNL A   1      34.372  33.470  28.996  1.00  0.00     0.060 A 
ATOM      6  C   UNL A   1      34.327  32.359  29.848  1.00  0.00     0.016 A 
ATOM      7  C   UNL A   1      35.617  34.095  28.815  1.00  0.00     0.016 A 
ATOM      8  C   UNL A   1      35.497  31.809  30.405  1.00  0.00     0.010 A 
ATOM      9  C   UNL A   1      36.784  33.537  29.342  1.00  0.00     0.010 A 
ATOM     10  C   UNL A   1      36.741  32.372  30.128  1.00  0.00    -0.014 A 
BRANCH  10  11
ATOM     11  C   UNL A   1      38.001  31.901  30.765  1.00  0.00     0.031 A 
ATOM     12  C   UNL A   1      38.715  30.771  30.082  1.00  0.00     0.074 A 
ATOM     13  C   UNL A   1      38.445  32.359  31.954  1.00  0.00     0.049 A 
ATOM     14  N   UNL A   1      39.656  29.982  30.525  1.00  0.00    -0.248 NA
ATOM     15  C   UNL A   1      38.249  30.462  28.721  1.00  0.00     0.031 C 
ATOM     16  C   UNL A   1      37.879  33.472  32.715  1.00  0.00     0.029 A 
ATOM     17  N   UNL A   1      39.447  31.886  32.770  1.00  0.00    -0.354 N 
ATOM     18  C   UNL A   1      39.902  29.098  29.484  1.00  0.00     0.074 A 
ATOM     19  C   UNL A   1      38.897  29.340  28.474  1.00  0.00     0.031 C 
ATOM     20  C   UNL A   1      38.470  33.529  33.924  1.00  0.00     0.029 A 
ATOM     21  C   UNL A   1      39.454  32.458  34.025  1.00  0.00     0.049 A 
ATOM     22  H   UNL A   1      40.097  31.203  32.485  1.00  0.00     0.167 HD
ATOM     23  C   UNL A   1      40.926  28.222  29.337  1.00  0.00     0.034 A 
ATOM     24  C   UNL A   1      40.144  32.122  35.134  1.00  0.00     0.034 A 
ATOM     25  C   UNL A   1      41.904  27.981  30.359  1.00  0.00     0.049 A 
ATOM     26  C   UNL A   1      41.143  30.994  35.054  1.00  0.00     0.074 A 
ATOM     27  C   UNL A   1      43.014  27.158  30.331  1.00  0.00     0.029 A 
ATOM     28  N   UNL A   1      41.868  28.563  31.622  1.00  0.00    -0.354 N 
ATOM     29  N   UNL A   1      41.415  30.202  34.043  1.00  0.00    -0.248 NA
ATOM     30  C   UNL A   1      41.949  30.734  36.256  1.00  0.00     0.031 C 
ATOM     31  C   UNL A   1      43.615  27.200  31.595  1.00  0.00     0.029 A 
ATOM     32  C   UNL A   1      42.918  28.099  32.390  1.00  0.00     0.049 A 
ATOM     33  H   UNL A   1      41.192  29.211  31.924  1.00  0.00     0.167 HD
ATOM     34  C   UNL A   1      42.480  29.409  34.458  1.00  0.00     0.074 A 
ATOM     35  C   UNL A   1      42.760  29.774  35.833  1.00  0.00     0.031 C 
ATOM     36  C   UNL A   1      43.192  28.497  33.750  1.00  0.00     0.034 A 
BRANCH  23  37
ATOM     37  C   UNL A   1      40.991  27.506  28.010  1.00  0.00     0.023 A 
ATOM     38  C   UNL A   1      40.639  26.144  27.921  1.00  0.00     0.031 A 
ATOM     39  C   UNL A   1      41.565  28.112  26.883  1.00  0.00     0.131 A 
ATOM     40  C   UNL A   1      41.029  25.393  26.805  1.00  0.00     0.055 A 
ATOM     41  C   UNL A   1      41.839  27.383  25.723  1.00  0.00     0.041 A 
ATOM     42  F   UNL A   1      41.930  29.403  26.911  1.00  0.00    -0.206 F 
ATOM     43  C   UNL A   1      41.605  26.007  25.693  1.00  0.00     0.022 A 
BRANCH  40  44
ATOM     44  S   UNL A   1      41.019  23.584  26.952  1.00  0.00     0.124 S 
ATOM     45  O   UNL A   1      39.602  23.281  26.757  1.00  0.00    -0.237 OA
ATOM     46  O   UNL A   1      41.911  23.173  25.875  1.00  0.00    -0.237 OA
ATOM     47  O   UNL A   1      41.518  23.347  28.305  1.00  0.00    -0.744 OA
ENDBRANCH  40  44
ENDBRANCH  23  37
BRANCH  24  48
ATOM     48  C   UNL A   1      39.878  32.780  36.446  1.00  0.00     0.023 A 
ATOM     49  C   UNL A   1      38.864  32.337  37.314  1.00  0.00     0.031 A 
ATOM     50  C   UNL A   1      40.577  33.949  36.790  1.00  0.00     0.131 A 
ATOM     51  C   UNL A   1      38.552  33.085  38.463  1.00  0.00     0.055 A 
ATOM     52  C   UNL A   1      40.270  34.676  37.942  1.00  0.00     0.041 A 
ATOM     53  F   UNL A   1      41.552  34.413  35.993  1.00  0.00    -0.206 F 
ATOM     54  C   UNL A   1      39.251  34.249  38.784  1.00  0.00     0.022 A 
BRANCH  51  55
ATOM     55  S   UNL A   1      37.173  32.558  39.519  1.00  0.00     0.124 S 
ATOM     56  O   UNL A   1      37.545  31.181  39.821  1.00  0.00    -0.237 OA
ATOM     57  O   UNL A   1      37.258  33.505  40.625  1.00  0.00    -0.237 OA
ATOM     58  O   UNL A   1      36.003  32.716  38.657  1.00  0.00    -0.744 OA
ENDBRANCH  51  55
ENDBRANCH  24  48
BRANCH  36  59
ATOM     59  C   UNL A   1      44.428  27.933  34.397  1.00  0.00     0.023 A 
ATOM     60  C   UNL A   1      44.425  26.722  35.104  1.00  0.00     0.031 A 
ATOM     61  C   UNL A   1      45.646  28.620  34.247  1.00  0.00     0.131 A 
ATOM     62  C   UNL A   1      45.625  26.241  35.652  1.00  0.00     0.055 A 
ATOM     63  C   UNL A   1      46.842  28.113  34.751  1.00  0.00     0.041 A 
ATOM     64  F   UNL A   1      45.693  29.787  33.582  1.00  0.00    -0.206 F 
ATOM     65  C   UNL A   1      46.834  26.918  35.461  1.00  0.00     0.022 A 
BRANCH  62  66
ATOM     66  S   UNL A   1      45.585  24.727  36.649  1.00  0.00     0.124 S 
ATOM     67  O   UNL A   1      46.978  24.607  37.067  1.00  0.00    -0.237 OA
ATOM     68  O   UNL A   1      44.631  25.066  37.700  1.00  0.00    -0.237 OA
ATOM     69  O   UNL A   1      45.130  23.708  35.705  1.00  0.00    -0.744 OA
ENDBRANCH  62  66
ENDBRANCH  36  59
ENDBRANCH  10  11
ENDBRANCH   3   5
ENDBRANCH   2   3
ENDBRANCH   1   2
BRANCH   1  70
ATOM     70  C   UNL A   1      32.186  31.079  26.513  1.00  0.00     0.274 C 
BRANCH  70  71
ATOM     71  O   UNL A   1      32.467  30.053  27.476  1.00  0.00    -0.462 OA
BRANCH  71  72
ATOM     72  C   UNL A   1      32.008  28.797  27.195  1.00  0.00     0.310 C 
ATOM     73  O   UNL A   1      31.444  28.077  28.010  1.00  0.00    -0.252 OA
BRANCH  72  74
ATOM     74  C   UNL A   1      32.248  28.391  25.742  1.00  0.00     0.119 C 
ATOM     75  C   UNL A   1      33.568  27.637  25.556  1.00  0.00     0.019 C 
ATOM     76  C   UNL A   1      31.066  27.561  25.234  1.00  0.00     0.135 C 
ATOM     77  C   UNL A   1      33.741  26.942  24.210  1.00  0.00     0.022 C 
ATOM     78  N   UNL A   1      31.363  26.962  23.931  1.00  0.00    -0.338 N 
ATOM     79  C   UNL A   1      32.527  26.081  23.921  1.00  0.00     0.120 C 
BRANCH  78  80
ATOM     80  C   UNL A   1      30.742  27.424  22.777  1.00  0.00     0.255 C 
ATOM     81  O   UNL A   1      31.078  27.122  21.635  1.00  0.00    -0.269 OA
BRANCH  80  82
ATOM     82  C   UNL A   1      29.574  28.308  22.951  1.00  0.00     0.059 A 
ATOM     83  C   UNL A   1      29.706  29.659  22.608  1.00  0.00     0.031 A 
ATOM     84  C   UNL A   1      28.341  27.791  23.364  1.00  0.00     0.053 A 
ATOM     85  C   UNL A   1      28.581  30.480  22.639  1.00  0.00     0.018 A 
ATOM     86  C   UNL A   1      27.221  28.625  23.380  1.00  0.00     0.022 A 
ATOM     87  Cl  UNL A   1      28.153  26.144  23.844  1.00  0.00    -0.083 Cl
ATOM     88  Br  UNL A   1      28.735  32.303  22.164  1.00  0.00    -0.051 Br
ATOM     89  C   UNL A   1      27.336  29.967  23.006  1.00  0.00     0.017 A 
ENDBRANCH  80  82
ENDBRANCH  78  80
ENDBRANCH  72  74
ENDBRANCH  71  72
ENDBRANCH  70  71
ENDBRANCH   1  70
TORSDOF 16
ENDMDL
MODEL 3
REMARK VINA RESULT:     -11.9      5.102      6.873
REMARK SMILES O=C(OCCOC(=O)[C@H]1CCCN(C(=O)c2cc(Br)ccc2Cl)C1)c1ccc(-c2c3nc(c(-c4cc(S(=O)(=O)[O-])ccc4F)c4ccc([nH]4)c(-c4cc(S(=O)(=O)[O-])ccc4F)c4nc(c(-c5cc(S(=O)(=O)[O-])ccc5F)c5ccc2[nH]5)C=C4)C=C3)cc1
REMARK SMILES IDX 4 1 3 2 2 3 1 4 25 5 26 6 87 7 27 8 86 9 28 10 29 11 30 12
REMARK SMILES IDX 80 13 31 14 85 15 79 16 81 17 32 18 84 19 78 20 77 21 33 23
REMARK SMILES IDX 65 24 45 25 64 26 46 27 49 28 63 29 82 30 47 31 48 32 62 34
REMARK SMILES IDX 83 35 50 36 34 37 35 38 43 39 36 40 42 41 44 42 41 43 37 44
REMARK SMILES IDX 38 45 39 46 40 47 66 48 67 49 75 50 68 51 74 52 76 53 73 54
REMARK SMILES IDX 69 55 70 56 71 57 72 58 51 59 52 60 60 61 53 62 59 63 61 64
REMARK SMILES IDX 58 65 54 66 55 67 56 68 57 69 5 70 6 71 7 72 8 73 9 74 10 75
REMARK SMILES IDX 24 76 11 77 13 78 12 79 14 80 15 81 16 82 17 83 22 84 18 85
REMARK SMILES IDX 21 86 23 87 19 88 20 89
REMARK H PARENT 81 22 49 33
REMARK Flexibility Score: inf
ROOT
ATOM      1  C   UNL A   1      32.226  30.149  27.072  1.00  0.00     0.275 C 
ENDROOT
BRANCH   1   2
ATOM      2  O   UNL A   1      33.494  30.718  26.711  1.00  0.00    -0.458 OA
BRANCH   2   3
ATOM      3  C   UNL A   1      34.476  31.211  27.504  1.00  0.00     0.338 C 
ATOM      4  O   UNL A   1      34.418  32.402  27.811  1.00  0.00    -0.246 OA
BRANCH   3   5
ATOM      5  C   UNL A   1      35.703  30.443  27.909  1.00  0.00     0.060 A 
ATOM      6  C   UNL A   1      36.944  30.415  27.257  1.00  0.00     0.016 A 
ATOM      7  C   UNL A   1      35.585  29.711  29.102  1.00  0.00     0.016 A 
ATOM      8  C   UNL A   1      38.064  29.784  27.830  1.00  0.00     0.010 A 
ATOM      9  C   UNL A   1      36.700  29.107  29.688  1.00  0.00     0.010 A 
ATOM     10  C   UNL A   1      37.962  29.154  29.069  1.00  0.00    -0.014 A 
BRANCH  10  11
ATOM     11  C   UNL A   1      39.079  28.385  29.679  1.00  0.00     0.031 A 
ATOM     12  C   UNL A   1      39.730  28.993  30.887  1.00  0.00     0.074 A 
ATOM     13  C   UNL A   1      39.586  27.259  29.134  1.00  0.00     0.049 A 
ATOM     14  N   UNL A   1      40.869  28.711  31.458  1.00  0.00    -0.248 NA
ATOM     15  C   UNL A   1      39.003  30.119  31.495  1.00  0.00     0.031 C 
ATOM     16  C   UNL A   1      39.041  26.535  27.987  1.00  0.00     0.029 A 
ATOM     17  N   UNL A   1      40.733  26.563  29.440  1.00  0.00    -0.354 N 
ATOM     18  C   UNL A   1      40.980  29.617  32.504  1.00  0.00     0.074 A 
ATOM     19  C   UNL A   1      39.887  30.554  32.371  1.00  0.00     0.031 C 
ATOM     20  C   UNL A   1      39.903  25.566  27.623  1.00  0.00     0.029 A 
ATOM     21  C   UNL A   1      41.060  25.600  28.508  1.00  0.00     0.049 A 
ATOM     22  H   UNL A   1      41.270  26.736  30.247  1.00  0.00     0.167 HD
ATOM     23  C   UNL A   1      41.857  29.620  33.538  1.00  0.00     0.034 A 
ATOM     24  C   UNL A   1      42.184  24.867  28.367  1.00  0.00     0.034 A 
ATOM     25  C   UNL A   1      42.948  28.693  33.642  1.00  0.00     0.049 A 
ATOM     26  C   UNL A   1      43.280  25.013  29.393  1.00  0.00     0.074 A 
ATOM     27  C   UNL A   1      43.883  28.554  34.649  1.00  0.00     0.029 A 
ATOM     28  N   UNL A   1      43.258  27.746  32.672  1.00  0.00    -0.354 N 
ATOM     29  N   UNL A   1      43.348  25.832  30.418  1.00  0.00    -0.248 NA
ATOM     30  C   UNL A   1      44.439  24.118  29.260  1.00  0.00     0.031 C 
ATOM     31  C   UNL A   1      44.791  27.562  34.261  1.00  0.00     0.029 A 
ATOM     32  C   UNL A   1      44.385  27.038  33.042  1.00  0.00     0.049 A 
ATOM     33  H   UNL A   1      42.749  27.602  31.842  1.00  0.00     0.167 HD
ATOM     34  C   UNL A   1      44.513  25.490  31.099  1.00  0.00     0.074 A 
ATOM     35  C   UNL A   1      45.148  24.436  30.335  1.00  0.00     0.031 C 
ATOM     36  C   UNL A   1      44.986  25.973  32.276  1.00  0.00     0.034 A 
BRANCH  23  37
ATOM     37  C   UNL A   1      41.616  30.666  34.599  1.00  0.00     0.023 A 
ATOM     38  C   UNL A   1      40.519  30.547  35.475  1.00  0.00     0.031 A 
ATOM     39  C   UNL A   1      42.356  31.857  34.628  1.00  0.00     0.131 A 
ATOM     40  C   UNL A   1      40.085  31.660  36.206  1.00  0.00     0.055 A 
ATOM     41  C   UNL A   1      41.989  32.923  35.454  1.00  0.00     0.041 A 
ATOM     42  F   UNL A   1      43.405  32.032  33.810  1.00  0.00    -0.206 F 
ATOM     43  C   UNL A   1      40.827  32.842  36.222  1.00  0.00     0.022 A 
BRANCH  40  44
ATOM     44  S   UNL A   1      38.410  31.618  36.904  1.00  0.00     0.124 S 
ATOM     45  O   UNL A   1      38.149  30.182  36.958  1.00  0.00    -0.237 OA
ATOM     46  O   UNL A   1      38.586  32.282  38.190  1.00  0.00    -0.237 OA
ATOM     47  O   UNL A   1      37.612  32.352  35.923  1.00  0.00    -0.744 OA
ENDBRANCH  40  44
ENDBRANCH  23  37
BRANCH  24  48
ATOM     48  C   UNL A   1      42.397  23.989  27.180  1.00  0.00     0.023 A 
ATOM     49  C   UNL A   1      41.997  22.642  27.165  1.00  0.00     0.031 A 
ATOM     50  C   UNL A   1      43.120  24.476  26.078  1.00  0.00     0.131 A 
ATOM     51  C   UNL A   1      42.360  21.817  26.085  1.00  0.00     0.055 A 
ATOM     52  C   UNL A   1      43.461  23.654  25.003  1.00  0.00     0.041 A 
ATOM     53  F   UNL A   1      43.525  25.755  26.047  1.00  0.00    -0.206 F 
ATOM     54  C   UNL A   1      43.086  22.316  25.002  1.00  0.00     0.022 A 
BRANCH  51  55
ATOM     55  S   UNL A   1      41.926  20.055  26.126  1.00  0.00     0.124 S 
ATOM     56  O   UNL A   1      42.302  19.692  27.487  1.00  0.00    -0.237 OA
ATOM     57  O   UNL A   1      40.496  20.088  25.840  1.00  0.00    -0.237 OA
ATOM     58  O   UNL A   1      42.755  19.475  25.071  1.00  0.00    -0.744 OA
ENDBRANCH  51  55
ENDBRANCH  24  48
BRANCH  36  59
ATOM     59  C   UNL A   1      46.171  25.272  32.881  1.00  0.00     0.023 A 
ATOM     60  C   UNL A   1      47.493  25.582  32.531  1.00  0.00     0.031 A 
ATOM     61  C   UNL A   1      45.950  24.301  33.876  1.00  0.00     0.131 A 
ATOM     62  C   UNL A   1      48.550  24.910  33.164  1.00  0.00     0.055 A 
ATOM     63  C   UNL A   1      47.005  23.673  34.534  1.00  0.00     0.041 A 
ATOM     64  F   UNL A   1      44.700  23.969  34.238  1.00  0.00    -0.206 F 
ATOM     65  C   UNL A   1      48.314  23.974  34.177  1.00  0.00     0.022 A 
BRANCH  62  66
ATOM     66  S   UNL A   1      50.248  25.250  32.627  1.00  0.00     0.124 S 
ATOM     67  O   UNL A   1      50.960  25.303  33.900  1.00  0.00    -0.237 OA
ATOM     68  O   UNL A   1      50.547  24.100  31.779  1.00  0.00    -0.237 OA
ATOM     69  O   UNL A   1      50.136  26.526  31.924  1.00  0.00    -0.744 OA
ENDBRANCH  62  66
ENDBRANCH  36  59
ENDBRANCH  10  11
ENDBRANCH   3   5
ENDBRANCH   2   3
ENDBRANCH   1   2
BRANCH   1  70
ATOM     70  C   UNL A   1      32.227  28.621  27.155  1.00  0.00     0.274 C 
BRANCH  70  71
ATOM     71  O   UNL A   1      32.099  28.004  25.865  1.00  0.00    -0.462 OA
BRANCH  71  72
ATOM     72  C   UNL A   1      31.451  26.803  25.815  1.00  0.00     0.310 C 
ATOM     73  O   UNL A   1      30.753  26.364  26.721  1.00  0.00    -0.252 OA
BRANCH  72  74
ATOM     74  C   UNL A   1      31.666  26.069  24.493  1.00  0.00     0.119 C 
ATOM     75  C   UNL A   1      31.126  26.853  23.293  1.00  0.00     0.019 C 
ATOM     76  C   UNL A   1      33.152  25.748  24.315  1.00  0.00     0.135 C 
ATOM     77  C   UNL A   1      31.562  26.339  21.925  1.00  0.00     0.022 C 
ATOM     78  N   UNL A   1      33.427  25.255  22.963  1.00  0.00    -0.338 N 
ATOM     79  C   UNL A   1      33.070  26.184  21.895  1.00  0.00     0.120 C 
BRANCH  78  80
ATOM     80  C   UNL A   1      33.743  23.919  22.743  1.00  0.00     0.255 C 
ATOM     81  O   UNL A   1      33.660  23.353  21.657  1.00  0.00    -0.269 OA
BRANCH  80  82
ATOM     82  C   UNL A   1      34.251  23.151  23.896  1.00  0.00     0.059 A 
ATOM     83  C   UNL A   1      35.620  23.208  24.182  1.00  0.00     0.031 A 
ATOM     84  C   UNL A   1      33.373  22.453  24.733  1.00  0.00     0.053 A 
ATOM     85  C   UNL A   1      36.097  22.600  25.340  1.00  0.00     0.018 A 
ATOM     86  C   UNL A   1      33.866  21.857  25.895  1.00  0.00     0.022 A 
ATOM     87  Cl  UNL A   1      31.689  22.317  24.382  1.00  0.00    -0.083 Cl
ATOM     88  Br  UNL A   1      37.939  22.681  25.754  1.00  0.00    -0.051 Br
ATOM     89  C   UNL A   1      35.225  21.940  26.208  1.00  0.00     0.017 A 
ENDBRANCH  80  82
ENDBRANCH  78  80
ENDBRANCH  72  74
ENDBRANCH  71  72
ENDBRANCH  70  71
ENDBRANCH   1  70
TORSDOF 16
ENDMDL
