MODEL 1
REMARK VINA RESULT:     -12.0      0.000      0.000
REMARK SMILES Cc1n[nH]c(C(=O)N[C@H]2CC[C@@H](C(=O)OCCOC(=O)c3ccc(-c4c5nc(c(-c6cc(S(=O)(=O)[O-])ccc6F)c6ccc([nH]6)c(-c6cc(S(=O)(=O)[O-])ccc6F)c6nc(c(-c7cc(S(=O)(=O)[O-])ccc7F)c7ccc4[nH]7)C=C6)C=C5)cc3)C2)n1
REMARK SMILES IDX 17 1 16 2 15 3 13 4 14 5 12 6 9 7 10 8 84 9 11 10 8 11 6 12
REMARK SMILES IDX 7 13 5 15 1 16 2 17 3 18 85 19 4 20 18 22 19 23 20 24 21 25
REMARK SMILES IDX 22 26 83 27 23 28 82 29 24 30 25 31 26 32 76 33 27 34 81 35
REMARK SMILES IDX 75 36 77 37 28 38 80 39 74 40 73 41 29 43 61 44 41 45 60 46
REMARK SMILES IDX 42 47 45 48 59 49 78 50 43 51 44 52 58 54 79 55 46 56 30 57
REMARK SMILES IDX 31 58 39 59 32 60 38 61 40 62 37 63 33 64 34 65 35 66 36 67
REMARK SMILES IDX 62 68 63 69 71 70 64 71 70 72 72 73 69 74 65 75 66 76 67 77
REMARK SMILES IDX 68 78 47 79 48 80 56 81 49 82 55 83 57 84 54 85 50 86 51 87
REMARK SMILES IDX 52 88 53 89
REMARK H PARENT 8 14 4 21 77 42 45 53
REMARK Flexibility Score: inf
ROOT
ATOM      1  C   UNL A   1      34.312  33.519  27.981  1.00  0.00     0.275 C 
ENDROOT
BRANCH   1   2
ATOM      2  C   UNL A   1      34.466  34.177  29.356  1.00  0.00     0.274 C 
BRANCH   2   3
ATOM      3  O   UNL A   1      33.172  34.409  29.955  1.00  0.00    -0.462 OA
BRANCH   3   4
ATOM      4  C   UNL A   1      32.715  35.689  30.050  1.00  0.00     0.309 C 
ATOM      5  O   UNL A   1      32.374  36.381  29.096  1.00  0.00    -0.252 OA
BRANCH   4   6
ATOM      6  C   UNL A   1      32.694  36.199  31.495  1.00  0.00     0.101 C 
ATOM      7  C   UNL A   1      34.373  35.746  33.257  1.00  0.00     0.083 C 
ATOM      8  C   UNL A   1      34.056  37.232  33.210  1.00  0.00     0.026 C 
ATOM      9  C   UNL A   1      33.113  35.158  32.570  1.00  0.00     0.040 C 
ATOM     10  C   UNL A   1      33.568  37.431  31.782  1.00  0.00     0.017 C 
BRANCH   7  11
ATOM     11  N   UNL A   1      35.544  35.381  32.475  1.00  0.00    -0.347 N 
ATOM     12  C   UNL A   1      36.719  34.713  32.697  1.00  0.00     0.288 C 
ATOM     13  O   UNL A   1      37.564  34.863  31.813  1.00  0.00    -0.266 OA
ATOM     14  H   UNL A   1      35.475  35.698  31.546  1.00  0.00     0.164 HD
BRANCH  12  15
ATOM     15  C   UNL A   1      36.990  33.984  33.905  1.00  0.00     0.214 A 
ATOM     16  C   UNL A   1      38.376  33.800  37.146  1.00  0.00     0.092 C 
ATOM     17  C   UNL A   1      37.709  33.557  35.851  1.00  0.00     0.148 A 
ATOM     18  N   UNL A   1      37.132  32.398  35.488  1.00  0.00    -0.159 NA
ATOM     19  N   UNL A   1      37.571  34.557  34.939  1.00  0.00    -0.207 NA
ATOM     20  N   UNL A   1      36.767  32.678  34.220  1.00  0.00    -0.255 N 
ATOM     21  H   UNL A   1      36.385  32.018  33.597  1.00  0.00     0.192 HD
ENDBRANCH  12  15
ENDBRANCH   7  11
ENDBRANCH   4   6
ENDBRANCH   3   4
ENDBRANCH   2   3
ENDBRANCH   1   2
BRANCH   1  22
ATOM     22  O   UNL A   1      35.403  32.654  27.617  1.00  0.00    -0.458 OA
BRANCH  22  23
ATOM     23  C   UNL A   1      35.198  31.352  27.881  1.00  0.00     0.338 C 
ATOM     24  O   UNL A   1      34.141  30.739  27.759  1.00  0.00    -0.246 OA
BRANCH  23  25
ATOM     25  C   UNL A   1      36.269  30.753  28.671  1.00  0.00     0.060 A 
ATOM     26  C   UNL A   1      37.214  31.661  29.166  1.00  0.00     0.016 A 
ATOM     27  C   UNL A   1      36.543  29.391  28.567  1.00  0.00     0.016 A 
ATOM     28  C   UNL A   1      38.525  31.265  29.215  1.00  0.00     0.010 A 
ATOM     29  C   UNL A   1      37.839  28.971  28.769  1.00  0.00     0.010 A 
ATOM     30  C   UNL A   1      38.842  29.925  28.962  1.00  0.00    -0.014 A 
BRANCH  30  31
ATOM     31  C   UNL A   1      40.234  29.518  29.145  1.00  0.00     0.031 A 
ATOM     32  C   UNL A   1      40.605  29.493  30.592  1.00  0.00     0.074 A 
ATOM     33  C   UNL A   1      40.980  29.052  28.119  1.00  0.00     0.049 A 
ATOM     34  N   UNL A   1      41.583  30.097  31.186  1.00  0.00    -0.248 NA
ATOM     35  C   UNL A   1      39.605  28.937  31.538  1.00  0.00     0.031 C 
ATOM     36  C   UNL A   1      40.595  28.927  26.709  1.00  0.00     0.029 A 
ATOM     37  N   UNL A   1      42.188  28.426  28.142  1.00  0.00    -0.354 N 
ATOM     38  C   UNL A   1      41.456  29.761  32.530  1.00  0.00     0.074 A 
ATOM     39  C   UNL A   1      40.113  29.298  32.714  1.00  0.00     0.031 C 
ATOM     40  C   UNL A   1      41.392  28.018  26.104  1.00  0.00     0.029 A 
ATOM     41  C   UNL A   1      42.418  27.597  27.039  1.00  0.00     0.049 A 
ATOM     42  H   UNL A   1      42.840  28.544  28.870  1.00  0.00     0.167 HD
ATOM     43  C   UNL A   1      42.551  29.569  33.312  1.00  0.00     0.034 A 
ATOM     44  C   UNL A   1      43.303  26.559  26.978  1.00  0.00     0.034 A 
ATOM     45  C   UNL A   1      43.694  30.270  32.783  1.00  0.00     0.049 A 
ATOM     46  C   UNL A   1      44.285  26.791  28.073  1.00  0.00     0.074 A 
ATOM     47  C   UNL A   1      43.954  31.598  32.496  1.00  0.00     0.029 A 
ATOM     48  N   UNL A   1      44.633  29.550  32.079  1.00  0.00    -0.354 N 
ATOM     49  N   UNL A   1      45.103  27.811  28.084  1.00  0.00    -0.248 NA
ATOM     50  C   UNL A   1      43.975  26.231  29.383  1.00  0.00     0.031 C 
ATOM     51  C   UNL A   1      44.668  31.572  31.263  1.00  0.00     0.029 A 
ATOM     52  C   UNL A   1      44.897  30.239  30.917  1.00  0.00     0.049 A 
ATOM     53  H   UNL A   1      45.041  28.697  32.355  1.00  0.00     0.167 HD
ATOM     54  C   UNL A   1      45.063  28.288  29.387  1.00  0.00     0.074 A 
ATOM     55  C   UNL A   1      44.391  27.238  30.156  1.00  0.00     0.031 C 
ATOM     56  C   UNL A   1      45.289  29.605  29.672  1.00  0.00     0.034 A 
BRANCH  43  57
ATOM     57  C   UNL A   1      42.664  28.413  34.283  1.00  0.00     0.023 A 
ATOM     58  C   UNL A   1      43.485  27.338  33.908  1.00  0.00     0.031 A 
ATOM     59  C   UNL A   1      41.800  28.174  35.382  1.00  0.00     0.131 A 
ATOM     60  C   UNL A   1      43.355  26.086  34.533  1.00  0.00     0.055 A 
ATOM     61  C   UNL A   1      41.725  26.948  36.043  1.00  0.00     0.041 A 
ATOM     62  F   UNL A   1      40.910  29.069  35.826  1.00  0.00    -0.206 F 
ATOM     63  C   UNL A   1      42.481  25.883  35.597  1.00  0.00     0.022 A 
BRANCH  60  64
ATOM     64  S   UNL A   1      44.222  24.675  33.806  1.00  0.00     0.124 S 
ATOM     65  O   UNL A   1      44.578  25.196  32.490  1.00  0.00    -0.237 OA
ATOM     66  O   UNL A   1      45.323  24.487  34.744  1.00  0.00    -0.237 OA
ATOM     67  O   UNL A   1      43.212  23.621  33.810  1.00  0.00    -0.744 OA
ENDBRANCH  60  64
ENDBRANCH  43  57
BRANCH  44  68
ATOM     68  C   UNL A   1      43.070  25.220  26.344  1.00  0.00     0.023 A 
ATOM     69  C   UNL A   1      43.971  24.613  25.434  1.00  0.00     0.031 A 
ATOM     70  C   UNL A   1      42.022  24.396  26.820  1.00  0.00     0.131 A 
ATOM     71  C   UNL A   1      43.790  23.261  25.036  1.00  0.00     0.055 A 
ATOM     72  C   UNL A   1      41.849  23.067  26.424  1.00  0.00     0.041 A 
ATOM     73  F   UNL A   1      41.168  24.830  27.759  1.00  0.00    -0.206 F 
ATOM     74  C   UNL A   1      42.738  22.490  25.536  1.00  0.00     0.022 A 
BRANCH  71  75
ATOM     75  S   UNL A   1      44.968  22.440  23.905  1.00  0.00     0.124 S 
ATOM     76  O   UNL A   1      44.163  22.247  22.703  1.00  0.00    -0.237 OA
ATOM     77  O   UNL A   1      46.050  23.412  23.813  1.00  0.00    -0.237 OA
ATOM     78  O   UNL A   1      45.317  21.204  24.609  1.00  0.00    -0.744 OA
ENDBRANCH  71  75
ENDBRANCH  44  68
BRANCH  56  79
ATOM     79  C   UNL A   1      45.820  30.512  28.574  1.00  0.00     0.023 A 
ATOM     80  C   UNL A   1      45.054  31.435  27.819  1.00  0.00     0.031 A 
ATOM     81  C   UNL A   1      47.212  30.515  28.382  1.00  0.00     0.131 A 
ATOM     82  C   UNL A   1      45.695  32.307  26.911  1.00  0.00     0.055 A 
ATOM     83  C   UNL A   1      47.842  31.393  27.503  1.00  0.00     0.041 A 
ATOM     84  F   UNL A   1      47.997  29.679  29.082  1.00  0.00    -0.206 F 
ATOM     85  C   UNL A   1      47.085  32.289  26.760  1.00  0.00     0.022 A 
BRANCH  82  86
ATOM     86  S   UNL A   1      44.744  33.462  25.864  1.00  0.00     0.124 S 
ATOM     87  O   UNL A   1      43.935  34.206  26.822  1.00  0.00    -0.237 OA
ATOM     88  O   UNL A   1      45.796  34.215  25.186  1.00  0.00    -0.237 OA
ATOM     89  O   UNL A   1      43.980  32.573  24.985  1.00  0.00    -0.744 OA
ENDBRANCH  82  86
ENDBRANCH  56  79
ENDBRANCH  30  31
ENDBRANCH  23  25
ENDBRANCH  22  23
ENDBRANCH   1  22
TORSDOF 16
ENDMDL
MODEL 2
REMARK VINA RESULT:     -11.7      4.344      9.220
REMARK SMILES Cc1n[nH]c(C(=O)N[C@H]2CC[C@@H](C(=O)OCCOC(=O)c3ccc(-c4c5nc(c(-c6cc(S(=O)(=O)[O-])ccc6F)c6ccc([nH]6)c(-c6cc(S(=O)(=O)[O-])ccc6F)c6nc(c(-c7cc(S(=O)(=O)[O-])ccc7F)c7ccc4[nH]7)C=C6)C=C5)cc3)C2)n1
REMARK SMILES IDX 17 1 16 2 15 3 13 4 14 5 12 6 9 7 10 8 84 9 11 10 8 11 6 12
REMARK SMILES IDX 7 13 5 15 1 16 2 17 3 18 85 19 4 20 18 22 19 23 20 24 21 25
REMARK SMILES IDX 22 26 83 27 23 28 82 29 24 30 25 31 26 32 76 33 27 34 81 35
REMARK SMILES IDX 75 36 77 37 28 38 80 39 74 40 73 41 29 43 61 44 41 45 60 46
REMARK SMILES IDX 42 47 45 48 59 49 78 50 43 51 44 52 58 54 79 55 46 56 30 57
REMARK SMILES IDX 31 58 39 59 32 60 38 61 40 62 37 63 33 64 34 65 35 66 36 67
REMARK SMILES IDX 62 68 63 69 71 70 64 71 70 72 72 73 69 74 65 75 66 76 67 77
REMARK SMILES IDX 68 78 47 79 48 80 56 81 49 82 55 83 57 84 54 85 50 86 51 87
REMARK SMILES IDX 52 88 53 89
REMARK H PARENT 8 14 4 21 77 42 45 53
REMARK Flexibility Score: inf
ROOT
ATOM      1  C   UNL A   1      34.720  31.267  28.080  1.00  0.00     0.275 C 
ENDROOT
BRANCH   1   2
ATOM      2  C   UNL A   1      33.790  30.418  27.208  1.00  0.00     0.274 C 
BRANCH   2   3
ATOM      3  O   UNL A   1      34.525  29.345  26.579  1.00  0.00    -0.462 OA
BRANCH   3   4
ATOM      4  C   UNL A   1      33.885  28.563  25.665  1.00  0.00     0.309 C 
ATOM      5  O   UNL A   1      34.065  28.616  24.452  1.00  0.00    -0.252 OA
BRANCH   4   6
ATOM      6  C   UNL A   1      32.877  27.607  26.313  1.00  0.00     0.101 C 
ATOM      7  C   UNL A   1      30.762  26.783  25.326  1.00  0.00     0.083 C 
ATOM      8  C   UNL A   1      31.549  25.623  25.915  1.00  0.00     0.026 C 
ATOM      9  C   UNL A   1      31.383  27.977  26.097  1.00  0.00     0.040 C 
ATOM     10  C   UNL A   1      32.982  26.135  25.887  1.00  0.00     0.017 C 
BRANCH   7  11
ATOM     11  N   UNL A   1      30.995  26.975  23.903  1.00  0.00    -0.347 N 
ATOM     12  C   UNL A   1      30.323  27.542  22.853  1.00  0.00     0.288 C 
ATOM     13  O   UNL A   1      30.771  27.246  21.744  1.00  0.00    -0.266 OA
ATOM     14  H   UNL A   1      31.860  26.598  23.622  1.00  0.00     0.164 HD
BRANCH  12  15
ATOM     15  C   UNL A   1      29.133  28.330  23.018  1.00  0.00     0.214 A 
ATOM     16  C   UNL A   1      27.544  31.443  23.507  1.00  0.00     0.092 C 
ATOM     17  C   UNL A   1      27.893  30.023  23.307  1.00  0.00     0.148 A 
ATOM     18  N   UNL A   1      27.006  29.015  23.235  1.00  0.00    -0.159 NA
ATOM     19  N   UNL A   1      29.184  29.643  23.104  1.00  0.00    -0.207 NA
ATOM     20  N   UNL A   1      27.831  27.952  23.141  1.00  0.00    -0.255 N 
ATOM     21  H   UNL A   1      27.528  27.015  23.158  1.00  0.00     0.192 HD
ENDBRANCH  12  15
ENDBRANCH   7  11
ENDBRANCH   4   6
ENDBRANCH   3   4
ENDBRANCH   2   3
ENDBRANCH   1   2
BRANCH   1  22
ATOM     22  O   UNL A   1      36.109  30.896  27.994  1.00  0.00    -0.458 OA
BRANCH  22  23
ATOM     23  C   UNL A   1      36.560  30.172  29.033  1.00  0.00     0.338 C 
ATOM     24  O   UNL A   1      36.363  30.399  30.224  1.00  0.00    -0.246 OA
BRANCH  23  25
ATOM     25  C   UNL A   1      37.622  29.242  28.663  1.00  0.00     0.060 A 
ATOM     26  C   UNL A   1      38.005  28.354  29.676  1.00  0.00     0.016 A 
ATOM     27  C   UNL A   1      38.445  29.511  27.572  1.00  0.00     0.016 A 
ATOM     28  C   UNL A   1      39.332  28.022  29.776  1.00  0.00     0.010 A 
ATOM     29  C   UNL A   1      39.740  29.043  27.602  1.00  0.00     0.010 A 
ATOM     30  C   UNL A   1      40.211  28.416  28.760  1.00  0.00    -0.014 A 
BRANCH  30  31
ATOM     31  C   UNL A   1      41.589  27.939  28.841  1.00  0.00     0.031 A 
ATOM     32  C   UNL A   1      41.735  26.593  28.207  1.00  0.00     0.074 A 
ATOM     33  C   UNL A   1      42.593  28.733  29.273  1.00  0.00     0.049 A 
ATOM     34  N   UNL A   1      42.215  25.506  28.719  1.00  0.00    -0.248 NA
ATOM     35  C   UNL A   1      41.012  26.365  26.931  1.00  0.00     0.031 C 
ATOM     36  C   UNL A   1      42.504  30.112  29.766  1.00  0.00     0.029 A 
ATOM     37  N   UNL A   1      43.939  28.543  29.201  1.00  0.00    -0.354 N 
ATOM     38  C   UNL A   1      42.092  24.547  27.718  1.00  0.00     0.074 A 
ATOM     39  C   UNL A   1      41.125  25.047  26.786  1.00  0.00     0.031 C 
ATOM     40  C   UNL A   1      43.710  30.710  29.653  1.00  0.00     0.029 A 
ATOM     41  C   UNL A   1      44.681  29.729  29.205  1.00  0.00     0.049 A 
ATOM     42  H   UNL A   1      44.353  27.651  29.149  1.00  0.00     0.167 HD
ATOM     43  C   UNL A   1      43.032  23.580  27.553  1.00  0.00     0.034 A 
ATOM     44  C   UNL A   1      45.956  29.887  28.741  1.00  0.00     0.034 A 
ATOM     45  C   UNL A   1      43.755  23.347  28.778  1.00  0.00     0.049 A 
ATOM     46  C   UNL A   1      46.553  28.524  28.705  1.00  0.00     0.074 A 
ATOM     47  C   UNL A   1      43.379  22.966  30.053  1.00  0.00     0.029 A 
ATOM     48  N   UNL A   1      45.007  23.904  28.912  1.00  0.00    -0.354 N 
ATOM     49  N   UNL A   1      46.770  27.819  29.785  1.00  0.00    -0.248 NA
ATOM     50  C   UNL A   1      46.382  27.749  27.482  1.00  0.00     0.031 C 
ATOM     51  C   UNL A   1      44.171  23.771  30.923  1.00  0.00     0.029 A 
ATOM     52  C   UNL A   1      45.056  24.518  30.143  1.00  0.00     0.049 A 
ATOM     53  H   UNL A   1      45.734  23.870  28.250  1.00  0.00     0.167 HD
ATOM     54  C   UNL A   1      46.336  26.540  29.470  1.00  0.00     0.074 A 
ATOM     55  C   UNL A   1      46.159  26.544  28.017  1.00  0.00     0.031 C 
ATOM     56  C   UNL A   1      45.862  25.690  30.431  1.00  0.00     0.034 A 
BRANCH  43  57
ATOM     57  C   UNL A   1      43.558  23.183  26.191  1.00  0.00     0.023 A 
ATOM     58  C   UNL A   1      43.476  21.826  25.842  1.00  0.00     0.031 A 
ATOM     59  C   UNL A   1      44.390  23.981  25.364  1.00  0.00     0.131 A 
ATOM     60  C   UNL A   1      44.264  21.304  24.802  1.00  0.00     0.055 A 
ATOM     61  C   UNL A   1      45.119  23.469  24.291  1.00  0.00     0.041 A 
ATOM     62  F   UNL A   1      44.630  25.277  25.595  1.00  0.00    -0.206 F 
ATOM     63  C   UNL A   1      45.085  22.115  24.025  1.00  0.00     0.022 A 
BRANCH  60  64
ATOM     64  S   UNL A   1      44.335  19.507  24.604  1.00  0.00     0.124 S 
ATOM     65  O   UNL A   1      44.643  19.380  23.184  1.00  0.00    -0.237 OA
ATOM     66  O   UNL A   1      45.403  19.148  25.530  1.00  0.00    -0.237 OA
ATOM     67  O   UNL A   1      42.997  19.072  24.997  1.00  0.00    -0.744 OA
ENDBRANCH  60  64
ENDBRANCH  43  57
BRANCH  44  68
ATOM     68  C   UNL A   1      46.479  31.043  27.942  1.00  0.00     0.023 A 
ATOM     69  C   UNL A   1      45.687  31.804  27.048  1.00  0.00     0.031 A 
ATOM     70  C   UNL A   1      47.763  31.565  28.231  1.00  0.00     0.131 A 
ATOM     71  C   UNL A   1      46.191  33.008  26.485  1.00  0.00     0.055 A 
ATOM     72  C   UNL A   1      48.253  32.749  27.673  1.00  0.00     0.041 A 
ATOM     73  F   UNL A   1      48.563  30.985  29.137  1.00  0.00    -0.206 F 
ATOM     74  C   UNL A   1      47.466  33.481  26.802  1.00  0.00     0.022 A 
BRANCH  71  75
ATOM     75  S   UNL A   1      45.169  34.035  25.371  1.00  0.00     0.124 S 
ATOM     76  O   UNL A   1      44.401  34.845  26.311  1.00  0.00    -0.237 OA
ATOM     77  O   UNL A   1      46.170  34.736  24.577  1.00  0.00    -0.237 OA
ATOM     78  O   UNL A   1      44.378  33.053  24.625  1.00  0.00    -0.744 OA
ENDBRANCH  71  75
ENDBRANCH  44  68
BRANCH  56  79
ATOM     79  C   UNL A   1      46.030  26.070  31.892  1.00  0.00     0.023 A 
ATOM     80  C   UNL A   1      45.015  26.587  32.736  1.00  0.00     0.031 A 
ATOM     81  C   UNL A   1      47.269  25.766  32.481  1.00  0.00     0.131 A 
ATOM     82  C   UNL A   1      45.273  26.783  34.111  1.00  0.00     0.055 A 
ATOM     83  C   UNL A   1      47.512  25.939  33.842  1.00  0.00     0.041 A 
ATOM     84  F   UNL A   1      48.267  25.253  31.741  1.00  0.00    -0.206 F 
ATOM     85  C   UNL A   1      46.515  26.453  34.661  1.00  0.00     0.022 A 
BRANCH  82  86
ATOM     86  S   UNL A   1      44.021  27.513  35.222  1.00  0.00     0.124 S 
ATOM     87  O   UNL A   1      44.748  27.724  36.467  1.00  0.00    -0.237 OA
ATOM     88  O   UNL A   1      43.618  28.716  34.498  1.00  0.00    -0.237 OA
ATOM     89  O   UNL A   1      42.985  26.479  35.290  1.00  0.00    -0.744 OA
ENDBRANCH  82  86
ENDBRANCH  56  79
ENDBRANCH  30  31
ENDBRANCH  23  25
ENDBRANCH  22  23
ENDBRANCH   1  22
TORSDOF 16
ENDMDL
MODEL 3
REMARK VINA RESULT:     -11.5      1.333      1.625
REMARK SMILES Cc1n[nH]c(C(=O)N[C@H]2CC[C@@H](C(=O)OCCOC(=O)c3ccc(-c4c5nc(c(-c6cc(S(=O)(=O)[O-])ccc6F)c6ccc([nH]6)c(-c6cc(S(=O)(=O)[O-])ccc6F)c6nc(c(-c7cc(S(=O)(=O)[O-])ccc7F)c7ccc4[nH]7)C=C6)C=C5)cc3)C2)n1
REMARK SMILES IDX 17 1 16 2 15 3 13 4 14 5 12 6 9 7 10 8 84 9 11 10 8 11 6 12
REMARK SMILES IDX 7 13 5 15 1 16 2 17 3 18 85 19 4 20 18 22 19 23 20 24 21 25
REMARK SMILES IDX 22 26 83 27 23 28 82 29 24 30 25 31 26 32 76 33 27 34 81 35
REMARK SMILES IDX 75 36 77 37 28 38 80 39 74 40 73 41 29 43 61 44 41 45 60 46
REMARK SMILES IDX 42 47 45 48 59 49 78 50 43 51 44 52 58 54 79 55 46 56 30 57
REMARK SMILES IDX 31 58 39 59 32 60 38 61 40 62 37 63 33 64 34 65 35 66 36 67
REMARK SMILES IDX 62 68 63 69 71 70 64 71 70 72 72 73 69 74 65 75 66 76 67 77
REMARK SMILES IDX 68 78 47 79 48 80 56 81 49 82 55 83 57 84 54 85 50 86 51 87
REMARK SMILES IDX 52 88 53 89
REMARK H PARENT 8 14 4 21 77 42 45 53
REMARK Flexibility Score: inf
ROOT
ATOM      1  C   UNL A   1      34.304  33.435  27.760  1.00  0.00     0.275 C 
ENDROOT
BRANCH   1   2
ATOM      2  C   UNL A   1      34.494  34.812  28.403  1.00  0.00     0.274 C 
BRANCH   2   3
ATOM      3  O   UNL A   1      33.832  34.868  29.686  1.00  0.00    -0.462 OA
BRANCH   3   4
ATOM      4  C   UNL A   1      32.910  35.848  29.903  1.00  0.00     0.309 C 
ATOM      5  O   UNL A   1      32.228  36.371  29.028  1.00  0.00    -0.252 OA
BRANCH   4   6
ATOM      6  C   UNL A   1      32.827  36.258  31.378  1.00  0.00     0.101 C 
ATOM      7  C   UNL A   1      34.405  35.646  33.184  1.00  0.00     0.083 C 
ATOM      8  C   UNL A   1      34.121  37.140  33.225  1.00  0.00     0.026 C 
ATOM      9  C   UNL A   1      33.170  35.137  32.397  1.00  0.00     0.040 C 
ATOM     10  C   UNL A   1      33.710  37.446  31.792  1.00  0.00     0.017 C 
BRANCH   7  11
ATOM     11  N   UNL A   1      35.606  35.308  32.437  1.00  0.00    -0.347 N 
ATOM     12  C   UNL A   1      36.801  34.692  32.701  1.00  0.00     0.288 C 
ATOM     13  O   UNL A   1      37.659  34.854  31.831  1.00  0.00    -0.266 OA
ATOM     14  H   UNL A   1      35.546  35.599  31.498  1.00  0.00     0.164 HD
BRANCH  12  15
ATOM     15  C   UNL A   1      37.073  34.004  33.932  1.00  0.00     0.214 A 
ATOM     16  C   UNL A   1      38.599  33.870  37.113  1.00  0.00     0.092 C 
ATOM     17  C   UNL A   1      37.852  33.617  35.864  1.00  0.00     0.148 A 
ATOM     18  N   UNL A   1      37.168  32.493  35.590  1.00  0.00    -0.159 NA
ATOM     19  N   UNL A   1      37.748  34.579  34.906  1.00  0.00    -0.207 NA
ATOM     20  N   UNL A   1      36.763  32.738  34.327  1.00  0.00    -0.255 N 
ATOM     21  H   UNL A   1      36.299  32.082  33.758  1.00  0.00     0.192 HD
ENDBRANCH  12  15
ENDBRANCH   7  11
ENDBRANCH   4   6
ENDBRANCH   3   4
ENDBRANCH   2   3
ENDBRANCH   1   2
BRANCH   1  22
ATOM     22  O   UNL A   1      35.515  32.663  27.650  1.00  0.00    -0.458 OA
BRANCH  22  23
ATOM     23  C   UNL A   1      35.348  31.337  27.784  1.00  0.00     0.338 C 
ATOM     24  O   UNL A   1      34.330  30.698  27.529  1.00  0.00    -0.246 OA
BRANCH  23  25
ATOM     25  C   UNL A   1      36.383  30.709  28.599  1.00  0.00     0.060 A 
ATOM     26  C   UNL A   1      37.281  31.601  29.198  1.00  0.00     0.016 A 
ATOM     27  C   UNL A   1      36.686  29.360  28.434  1.00  0.00     0.016 A 
ATOM     28  C   UNL A   1      38.595  31.222  29.299  1.00  0.00     0.010 A 
ATOM     29  C   UNL A   1      37.976  28.947  28.686  1.00  0.00     0.010 A 
ATOM     30  C   UNL A   1      38.950  29.904  28.990  1.00  0.00    -0.014 A 
BRANCH  30  31
ATOM     31  C   UNL A   1      40.336  29.507  29.229  1.00  0.00     0.031 A 
ATOM     32  C   UNL A   1      40.664  29.536  30.687  1.00  0.00     0.074 A 
ATOM     33  C   UNL A   1      41.113  29.006  28.244  1.00  0.00     0.049 A 
ATOM     34  N   UNL A   1      41.624  30.165  31.286  1.00  0.00    -0.248 NA
ATOM     35  C   UNL A   1      39.638  29.013  31.622  1.00  0.00     0.031 C 
ATOM     36  C   UNL A   1      40.771  28.828  26.828  1.00  0.00     0.029 A 
ATOM     37  N   UNL A   1      42.321  28.384  28.325  1.00  0.00    -0.354 N 
ATOM     38  C   UNL A   1      41.457  29.878  32.638  1.00  0.00     0.074 A 
ATOM     39  C   UNL A   1      40.109  29.418  32.798  1.00  0.00     0.031 C 
ATOM     40  C   UNL A   1      41.586  27.900  26.280  1.00  0.00     0.029 A 
ATOM     41  C   UNL A   1      42.585  27.516  27.261  1.00  0.00     0.049 A 
ATOM     42  H   UNL A   1      42.951  28.531  29.067  1.00  0.00     0.167 HD
ATOM     43  C   UNL A   1      42.528  29.717  33.458  1.00  0.00     0.034 A 
ATOM     44  C   UNL A   1      43.474  26.479  27.264  1.00  0.00     0.034 A 
ATOM     45  C   UNL A   1      43.686  30.402  32.938  1.00  0.00     0.049 A 
ATOM     46  C   UNL A   1      44.422  26.753  28.379  1.00  0.00     0.074 A 
ATOM     47  C   UNL A   1      43.951  31.718  32.610  1.00  0.00     0.029 A 
ATOM     48  N   UNL A   1      44.646  29.658  32.289  1.00  0.00    -0.354 N 
ATOM     49  N   UNL A   1      45.237  27.775  28.377  1.00  0.00    -0.248 NA
ATOM     50  C   UNL A   1      44.073  26.241  29.699  1.00  0.00     0.031 C 
ATOM     51  C   UNL A   1      44.702  31.650  31.400  1.00  0.00     0.029 A 
ATOM     52  C   UNL A   1      44.943  30.305  31.111  1.00  0.00     0.049 A 
ATOM     53  H   UNL A   1      45.047  28.818  32.608  1.00  0.00     0.167 HD
ATOM     54  C   UNL A   1      45.158  28.300  29.659  1.00  0.00     0.074 A 
ATOM     55  C   UNL A   1      44.465  27.277  30.446  1.00  0.00     0.031 C 
ATOM     56  C   UNL A   1      45.373  29.627  29.902  1.00  0.00     0.034 A 
BRANCH  43  57
ATOM     57  C   UNL A   1      42.614  28.598  34.474  1.00  0.00     0.023 A 
ATOM     58  C   UNL A   1      43.371  27.470  34.123  1.00  0.00     0.031 A 
ATOM     59  C   UNL A   1      41.772  28.447  35.605  1.00  0.00     0.131 A 
ATOM     60  C   UNL A   1      43.200  26.252  34.804  1.00  0.00     0.055 A 
ATOM     61  C   UNL A   1      41.658  27.254  36.319  1.00  0.00     0.041 A 
ATOM     62  F   UNL A   1      40.939  29.402  36.035  1.00  0.00    -0.206 F 
ATOM     63  C   UNL A   1      42.349  26.136  35.899  1.00  0.00     0.022 A 
BRANCH  60  64
ATOM     64  S   UNL A   1      43.977  24.772  34.113  1.00  0.00     0.124 S 
ATOM     65  O   UNL A   1      43.038  23.731  34.519  1.00  0.00    -0.237 OA
ATOM     66  O   UNL A   1      44.011  25.091  32.691  1.00  0.00    -0.237 OA
ATOM     67  O   UNL A   1      45.278  24.734  34.776  1.00  0.00    -0.744 OA
ENDBRANCH  60  64
ENDBRANCH  43  57
BRANCH  44  68
ATOM     68  C   UNL A   1      43.262  25.117  26.674  1.00  0.00     0.023 A 
ATOM     69  C   UNL A   1      42.239  24.229  27.091  1.00  0.00     0.031 A 
ATOM     70  C   UNL A   1      43.954  24.753  25.494  1.00  0.00     0.131 A 
ATOM     71  C   UNL A   1      41.966  23.047  26.351  1.00  0.00     0.055 A 
ATOM     72  C   UNL A   1      43.681  23.589  24.770  1.00  0.00     0.041 A 
ATOM     73  F   UNL A   1      44.873  25.564  24.948  1.00  0.00    -0.206 F 
ATOM     74  C   UNL A   1      42.679  22.734  25.192  1.00  0.00     0.022 A 
BRANCH  71  75
ATOM     75  S   UNL A   1      40.618  21.913  26.839  1.00  0.00     0.124 S 
ATOM     76  O   UNL A   1      39.425  22.677  26.488  1.00  0.00    -0.237 OA
ATOM     77  O   UNL A   1      40.892  20.730  26.033  1.00  0.00    -0.237 OA
ATOM     78  O   UNL A   1      40.824  21.732  28.277  1.00  0.00    -0.744 OA
ENDBRANCH  71  75
ENDBRANCH  44  68
BRANCH  56  79
ATOM     79  C   UNL A   1      45.935  30.495  28.788  1.00  0.00     0.023 A 
ATOM     80  C   UNL A   1      45.205  31.441  28.027  1.00  0.00     0.031 A 
ATOM     81  C   UNL A   1      47.324  30.432  28.585  1.00  0.00     0.131 A 
ATOM     82  C   UNL A   1      45.878  32.271  27.102  1.00  0.00     0.055 A 
ATOM     83  C   UNL A   1      47.986  31.269  27.689  1.00  0.00     0.041 A 
ATOM     84  F   UNL A   1      48.077  29.571  29.290  1.00  0.00    -0.206 F 
ATOM     85  C   UNL A   1      47.264  32.189  26.940  1.00  0.00     0.022 A 
BRANCH  82  86
ATOM     86  S   UNL A   1      44.970  33.454  26.048  1.00  0.00     0.124 S 
ATOM     87  O   UNL A   1      45.946  34.507  25.795  1.00  0.00    -0.237 OA
ATOM     88  O   UNL A   1      44.595  32.634  24.900  1.00  0.00    -0.237 OA
ATOM     89  O   UNL A   1      43.842  33.862  26.888  1.00  0.00    -0.744 OA
ENDBRANCH  82  86
ENDBRANCH  56  79
ENDBRANCH  30  31
ENDBRANCH  23  25
ENDBRANCH  22  23
ENDBRANCH   1  22
TORSDOF 16
ENDMDL
