MODEL 1
REMARK VINA RESULT:     -12.2      0.000      0.000
REMARK SMILES Cc1c(C(=O)Nc2ccc(C(=O)Nc3ccccc3C(=O)OCCOC(=O)c3ccc(-c4c5nc(c(-c6cc(S(=O)(=O)[O-])ccc6F)c6ccc([nH]6)c(-c6cc(S(=O)(=O)[O-])ccc6F)c6nc(c(-c7cc(S(=O)(=O)[O-])ccc7F)c7ccc4[nH]7)C=C6)C=C5)cc3)cc2)cccc1[N+](=O)[O-]
REMARK SMILES IDX 23 1 22 2 20 3 21 4 19 5 14 6 15 7 16 8 18 9 17 10 13 11
REMARK SMILES IDX 11 12 12 13 10 15 7 16 8 17 92 18 9 19 91 20 6 21 4 22 5 23
REMARK SMILES IDX 3 25 1 26 2 27 96 28 93 29 95 30 94 31 97 32 98 33 99 34
REMARK SMILES IDX 24 35 25 36 26 37 27 38 28 39 29 40 90 41 30 42 89 43 31 44
REMARK SMILES IDX 32 45 33 46 83 47 34 48 88 49 82 50 84 51 35 52 87 53 81 54
REMARK SMILES IDX 80 55 36 57 68 58 48 59 67 60 49 61 52 62 66 63 85 64 50 65
REMARK SMILES IDX 51 66 65 68 86 69 53 70 37 71 38 72 46 73 39 74 45 75 47 76
REMARK SMILES IDX 44 77 40 78 41 79 42 80 43 81 69 82 70 83 78 84 71 85 77 86
REMARK SMILES IDX 79 87 76 88 72 89 73 90 74 91 75 92 54 93 55 94 63 95 56 96
REMARK SMILES IDX 62 97 64 98 61 99 57 100 58 101 59 102 60 103
REMARK H PARENT 13 14 6 24 84 56 52 67
REMARK Flexibility Score: inf
ROOT
ATOM      1  C   UNL A   1      41.782  19.604  26.012  1.00  0.00     0.275 C 
ENDROOT
BRANCH   1   2
ATOM      2  O   UNL A   1      40.960  20.767  25.776  1.00  0.00    -0.458 OA
BRANCH   2   3
ATOM      3  C   UNL A   1      40.600  21.380  26.938  1.00  0.00     0.340 C 
ATOM      4  O   UNL A   1      40.790  20.830  28.024  1.00  0.00    -0.246 OA
BRANCH   3   5
ATOM      5  C   UNL A   1      39.810  22.679  26.917  1.00  0.00     0.083 A 
ATOM      6  C   UNL A   1      38.883  23.248  26.008  1.00  0.00     0.056 A 
ATOM      7  C   UNL A   1      38.399  24.561  26.270  1.00  0.00     0.027 A 
ATOM      8  C   UNL A   1      38.703  25.265  27.432  1.00  0.00     0.002 A 
ATOM      9  C   UNL A   1      40.095  23.439  28.091  1.00  0.00     0.018 A 
ATOM     10  C   UNL A   1      39.543  24.692  28.359  1.00  0.00     0.001 A 
BRANCH   6  11
ATOM     11  N   UNL A   1      38.240  22.737  24.859  1.00  0.00    -0.321 N 
ATOM     12  C   UNL A   1      36.924  22.580  24.478  1.00  0.00     0.255 C 
ATOM     13  O   UNL A   1      36.701  22.448  23.274  1.00  0.00    -0.269 OA
ATOM     14  H   UNL A   1      38.874  22.422  24.176  1.00  0.00     0.170 HD
BRANCH  12  15
ATOM     15  C   UNL A   1      35.789  22.611  25.406  1.00  0.00     0.040 A 
ATOM     16  C   UNL A   1      33.651  22.702  27.167  1.00  0.00     0.041 A 
ATOM     17  C   UNL A   1      34.078  23.854  26.533  1.00  0.00     0.027 A 
ATOM     18  C   UNL A   1      34.399  21.528  27.075  1.00  0.00     0.027 A 
ATOM     19  C   UNL A   1      35.020  23.752  25.535  1.00  0.00     0.016 A 
ATOM     20  C   UNL A   1      35.476  21.485  26.178  1.00  0.00     0.016 A 
BRANCH  16  21
ATOM     21  N   UNL A   1      32.354  22.667  27.688  1.00  0.00    -0.322 N 
ATOM     22  C   UNL A   1      31.195  23.073  27.032  1.00  0.00     0.256 C 
ATOM     23  O   UNL A   1      30.139  23.164  27.657  1.00  0.00    -0.269 OA
ATOM     24  H   UNL A   1      32.250  22.323  28.605  1.00  0.00     0.170 HD
BRANCH  22  25
ATOM     25  C   UNL A   1      31.195  23.443  25.559  1.00  0.00     0.049 A 
ATOM     26  C   UNL A   1      31.820  21.132  24.673  1.00  0.00     0.053 C 
ATOM     27  C   UNL A   1      31.665  22.620  24.493  1.00  0.00     0.039 A 
ATOM     28  C   UNL A   1      31.970  23.259  23.261  1.00  0.00     0.273 A 
ATOM     29  C   UNL A   1      30.786  24.761  25.288  1.00  0.00     0.014 A 
ATOM     30  C   UNL A   1      31.559  24.581  23.015  1.00  0.00     0.086 A 
ATOM     31  C   UNL A   1      30.917  25.307  24.012  1.00  0.00     0.008 A 
BRANCH  28  32
ATOM     32  N   UNL A   1      32.827  22.637  22.224  1.00  0.00     0.063 N 
ATOM     33  O   UNL A   1      32.381  21.639  21.638  1.00  0.00    -0.258 OA
ATOM     34  O   UNL A   1      33.904  23.176  21.945  1.00  0.00    -0.258 OA
ENDBRANCH  28  32
ENDBRANCH  22  25
ENDBRANCH  16  21
ENDBRANCH  12  15
ENDBRANCH   6  11
ENDBRANCH   3   5
ENDBRANCH   2   3
ENDBRANCH   1   2
BRANCH   1  35
ATOM     35  C   UNL A   1      43.277  19.634  25.613  1.00  0.00     0.275 C 
BRANCH  35  36
ATOM     36  O   UNL A   1      44.098  20.816  25.718  1.00  0.00    -0.458 OA
BRANCH  36  37
ATOM     37  C   UNL A   1      44.298  21.843  24.839  1.00  0.00     0.338 C 
ATOM     38  O   UNL A   1      44.311  21.688  23.660  1.00  0.00    -0.246 OA
BRANCH  37  39
ATOM     39  C   UNL A   1      44.359  23.154  25.482  1.00  0.00     0.060 A 
ATOM     40  C   UNL A   1      44.029  23.252  26.841  1.00  0.00     0.016 A 
ATOM     41  C   UNL A   1      44.947  24.189  24.766  1.00  0.00     0.016 A 
ATOM     42  C   UNL A   1      44.402  24.377  27.549  1.00  0.00     0.010 A 
ATOM     43  C   UNL A   1      45.410  25.264  25.469  1.00  0.00     0.010 A 
ATOM     44  C   UNL A   1      45.052  25.375  26.831  1.00  0.00    -0.014 A 
BRANCH  44  45
ATOM     45  C   UNL A   1      44.850  26.765  27.184  1.00  0.00     0.031 A 
ATOM     46  C   UNL A   1      43.528  27.358  26.973  1.00  0.00     0.074 A 
ATOM     47  C   UNL A   1      45.860  27.062  28.037  1.00  0.00     0.049 A 
ATOM     48  N   UNL A   1      43.237  28.603  27.085  1.00  0.00    -0.248 NA
ATOM     49  C   UNL A   1      42.379  26.581  26.493  1.00  0.00     0.031 C 
ATOM     50  C   UNL A   1      45.960  27.868  29.235  1.00  0.00     0.029 A 
ATOM     51  N   UNL A   1      47.168  26.578  27.886  1.00  0.00    -0.354 N 
ATOM     52  C   UNL A   1      41.866  28.635  27.265  1.00  0.00     0.074 A 
ATOM     53  C   UNL A   1      41.377  27.459  26.603  1.00  0.00     0.031 C 
ATOM     54  C   UNL A   1      47.270  28.074  29.502  1.00  0.00     0.029 A 
ATOM     55  C   UNL A   1      48.047  27.512  28.397  1.00  0.00     0.049 A 
ATOM     56  H   UNL A   1      47.417  25.714  27.484  1.00  0.00     0.167 HD
ATOM     57  C   UNL A   1      41.361  29.430  28.255  1.00  0.00     0.034 A 
ATOM     58  C   UNL A   1      48.726  28.228  27.449  1.00  0.00     0.034 A 
ATOM     59  C   UNL A   1      42.471  30.129  28.913  1.00  0.00     0.049 A 
ATOM     60  C   UNL A   1      48.127  29.616  27.374  1.00  0.00     0.074 A 
ATOM     61  C   UNL A   1      43.118  29.929  30.122  1.00  0.00     0.029 A 
ATOM     62  N   UNL A   1      43.314  30.922  28.145  1.00  0.00    -0.354 N 
ATOM     63  N   UNL A   1      46.859  29.903  27.535  1.00  0.00    -0.248 NA
ATOM     64  C   UNL A   1      48.980  30.791  27.314  1.00  0.00     0.031 C 
ATOM     65  C   UNL A   1      44.396  30.556  30.034  1.00  0.00     0.029 A 
ATOM     66  C   UNL A   1      44.537  31.089  28.762  1.00  0.00     0.049 A 
ATOM     67  H   UNL A   1      43.072  31.312  27.275  1.00  0.00     0.167 HD
ATOM     68  C   UNL A   1      46.733  31.254  27.746  1.00  0.00     0.074 A 
ATOM     69  C   UNL A   1      48.089  31.760  27.570  1.00  0.00     0.031 C 
ATOM     70  C   UNL A   1      45.566  31.878  28.106  1.00  0.00     0.034 A 
BRANCH  57  71
ATOM     71  C   UNL A   1      39.981  29.330  28.875  1.00  0.00     0.023 A 
ATOM     72  C   UNL A   1      39.889  29.214  30.281  1.00  0.00     0.031 A 
ATOM     73  C   UNL A   1      38.744  29.345  28.200  1.00  0.00     0.131 A 
ATOM     74  C   UNL A   1      38.656  29.061  30.940  1.00  0.00     0.055 A 
ATOM     75  C   UNL A   1      37.512  29.169  28.854  1.00  0.00     0.041 A 
ATOM     76  F   UNL A   1      38.653  29.579  26.886  1.00  0.00    -0.206 F 
ATOM     77  C   UNL A   1      37.462  29.022  30.232  1.00  0.00     0.022 A 
BRANCH  74  78
ATOM     78  S   UNL A   1      38.646  28.936  32.749  1.00  0.00     0.124 S 
ATOM     79  O   UNL A   1      39.913  28.264  33.015  1.00  0.00    -0.237 OA
ATOM     80  O   UNL A   1      38.557  30.334  33.157  1.00  0.00    -0.237 OA
ATOM     81  O   UNL A   1      37.452  28.138  33.025  1.00  0.00    -0.744 OA
ENDBRANCH  74  78
ENDBRANCH  57  71
BRANCH  58  82
ATOM     82  C   UNL A   1      49.208  27.385  26.291  1.00  0.00     0.023 A 
ATOM     83  C   UNL A   1      48.605  27.599  25.026  1.00  0.00     0.031 A 
ATOM     84  C   UNL A   1      50.398  26.643  26.300  1.00  0.00     0.131 A 
ATOM     85  C   UNL A   1      49.230  27.184  23.835  1.00  0.00     0.055 A 
ATOM     86  C   UNL A   1      51.006  26.200  25.108  1.00  0.00     0.041 A 
ATOM     87  F   UNL A   1      51.054  26.414  27.446  1.00  0.00    -0.206 F 
ATOM     88  C   UNL A   1      50.441  26.497  23.865  1.00  0.00     0.022 A 
BRANCH  85  89
ATOM     89  S   UNL A   1      48.510  27.731  22.254  1.00  0.00     0.124 S 
ATOM     90  O   UNL A   1      48.496  26.487  21.487  1.00  0.00    -0.237 OA
ATOM     91  O   UNL A   1      47.201  28.223  22.674  1.00  0.00    -0.237 OA
ATOM     92  O   UNL A   1      49.447  28.740  21.773  1.00  0.00    -0.744 OA
ENDBRANCH  85  89
ENDBRANCH  58  82
BRANCH  70  93
ATOM     93  C   UNL A   1      45.301  33.355  27.924  1.00  0.00     0.023 A 
ATOM     94  C   UNL A   1      45.602  34.289  28.915  1.00  0.00     0.031 A 
ATOM     95  C   UNL A   1      44.844  33.899  26.696  1.00  0.00     0.131 A 
ATOM     96  C   UNL A   1      45.323  35.647  28.744  1.00  0.00     0.055 A 
ATOM     97  C   UNL A   1      44.701  35.270  26.478  1.00  0.00     0.041 A 
ATOM     98  F   UNL A   1      44.532  33.134  25.640  1.00  0.00    -0.206 F 
ATOM     99  C   UNL A   1      44.911  36.156  27.519  1.00  0.00     0.022 A 
BRANCH  96 100
ATOM    100  S   UNL A   1      45.403  36.689  30.216  1.00  0.00     0.124 S 
ATOM    101  O   UNL A   1      45.421  35.689  31.283  1.00  0.00    -0.237 OA
ATOM    102  O   UNL A   1      46.649  37.421  30.016  1.00  0.00    -0.237 OA
ATOM    103  O   UNL A   1      44.184  37.489  30.134  1.00  0.00    -0.744 OA
ENDBRANCH  96 100
ENDBRANCH  70  93
ENDBRANCH  44  45
ENDBRANCH  37  39
ENDBRANCH  36  37
ENDBRANCH  35  36
ENDBRANCH   1  35
TORSDOF 19
ENDMDL
MODEL 2
REMARK VINA RESULT:     -11.9      1.703      2.002
REMARK SMILES Cc1c(C(=O)Nc2ccc(C(=O)Nc3ccccc3C(=O)OCCOC(=O)c3ccc(-c4c5nc(c(-c6cc(S(=O)(=O)[O-])ccc6F)c6ccc([nH]6)c(-c6cc(S(=O)(=O)[O-])ccc6F)c6nc(c(-c7cc(S(=O)(=O)[O-])ccc7F)c7ccc4[nH]7)C=C6)C=C5)cc3)cc2)cccc1[N+](=O)[O-]
REMARK SMILES IDX 23 1 22 2 20 3 21 4 19 5 14 6 15 7 16 8 18 9 17 10 13 11
REMARK SMILES IDX 11 12 12 13 10 15 7 16 8 17 92 18 9 19 91 20 6 21 4 22 5 23
REMARK SMILES IDX 3 25 1 26 2 27 96 28 93 29 95 30 94 31 97 32 98 33 99 34
REMARK SMILES IDX 24 35 25 36 26 37 27 38 28 39 29 40 90 41 30 42 89 43 31 44
REMARK SMILES IDX 32 45 33 46 83 47 34 48 88 49 82 50 84 51 35 52 87 53 81 54
REMARK SMILES IDX 80 55 36 57 68 58 48 59 67 60 49 61 52 62 66 63 85 64 50 65
REMARK SMILES IDX 51 66 65 68 86 69 53 70 37 71 38 72 46 73 39 74 45 75 47 76
REMARK SMILES IDX 44 77 40 78 41 79 42 80 43 81 69 82 70 83 78 84 71 85 77 86
REMARK SMILES IDX 79 87 76 88 72 89 73 90 74 91 75 92 54 93 55 94 63 95 56 96
REMARK SMILES IDX 62 97 64 98 61 99 57 100 58 101 59 102 60 103
REMARK H PARENT 13 14 6 24 84 56 52 67
REMARK Flexibility Score: inf
ROOT
ATOM      1  C   UNL A   1      42.010  19.677  25.871  1.00  0.00     0.275 C 
ENDROOT
BRANCH   1   2
ATOM      2  O   UNL A   1      40.662  19.802  26.376  1.00  0.00    -0.458 OA
BRANCH   2   3
ATOM      3  C   UNL A   1      40.444  21.020  26.946  1.00  0.00     0.340 C 
ATOM      4  O   UNL A   1      41.054  21.358  27.962  1.00  0.00    -0.246 OA
BRANCH   3   5
ATOM      5  C   UNL A   1      39.329  21.923  26.441  1.00  0.00     0.083 A 
ATOM      6  C   UNL A   1      38.116  21.688  25.746  1.00  0.00     0.056 A 
ATOM      7  C   UNL A   1      37.341  22.811  25.341  1.00  0.00     0.027 A 
ATOM      8  C   UNL A   1      37.658  24.120  25.693  1.00  0.00     0.002 A 
ATOM      9  C   UNL A   1      39.615  23.280  26.776  1.00  0.00     0.018 A 
ATOM     10  C   UNL A   1      38.795  24.355  26.433  1.00  0.00     0.001 A 
BRANCH   6  11
ATOM     11  N   UNL A   1      37.429  20.502  25.404  1.00  0.00    -0.321 N 
ATOM     12  C   UNL A   1      36.121  20.200  25.091  1.00  0.00     0.255 C 
ATOM     13  O   UNL A   1      35.918  19.148  24.484  1.00  0.00    -0.269 OA
ATOM     14  H   UNL A   1      38.017  19.713  25.385  1.00  0.00     0.170 HD
BRANCH  12  15
ATOM     15  C   UNL A   1      34.981  21.071  25.391  1.00  0.00     0.040 A 
ATOM     16  C   UNL A   1      32.826  22.730  25.929  1.00  0.00     0.041 A 
ATOM     17  C   UNL A   1      33.070  22.305  24.635  1.00  0.00     0.027 A 
ATOM     18  C   UNL A   1      33.758  22.487  26.938  1.00  0.00     0.027 A 
ATOM     19  C   UNL A   1      34.033  21.345  24.423  1.00  0.00     0.016 A 
ATOM     20  C   UNL A   1      34.842  21.642  26.663  1.00  0.00     0.016 A 
BRANCH  16  21
ATOM     21  N   UNL A   1      31.543  23.183  26.253  1.00  0.00    -0.322 N 
ATOM     22  C   UNL A   1      31.084  24.493  26.145  1.00  0.00     0.256 C 
ATOM     23  O   UNL A   1      29.996  24.801  26.630  1.00  0.00    -0.269 OA
ATOM     24  H   UNL A   1      30.905  22.512  26.589  1.00  0.00     0.170 HD
BRANCH  22  25
ATOM     25  C   UNL A   1      31.905  25.577  25.468  1.00  0.00     0.049 A 
ATOM     26  C   UNL A   1      31.041  25.168  23.101  1.00  0.00     0.053 C 
ATOM     27  C   UNL A   1      32.037  25.765  24.061  1.00  0.00     0.039 A 
ATOM     28  C   UNL A   1      33.138  26.541  23.607  1.00  0.00     0.273 A 
ATOM     29  C   UNL A   1      32.664  26.370  26.348  1.00  0.00     0.014 A 
ATOM     30  C   UNL A   1      33.889  27.319  24.506  1.00  0.00     0.086 A 
ATOM     31  C   UNL A   1      33.610  27.273  25.867  1.00  0.00     0.008 A 
BRANCH  28  32
ATOM     32  N   UNL A   1      33.637  26.489  22.212  1.00  0.00     0.063 N 
ATOM     33  O   UNL A   1      33.638  25.384  21.647  1.00  0.00    -0.258 OA
ATOM     34  O   UNL A   1      33.958  27.546  21.658  1.00  0.00    -0.258 OA
ENDBRANCH  28  32
ENDBRANCH  22  25
ENDBRANCH  16  21
ENDBRANCH  12  15
ENDBRANCH   6  11
ENDBRANCH   3   5
ENDBRANCH   2   3
ENDBRANCH   1   2
BRANCH   1  35
ATOM     35  C   UNL A   1      42.942  20.912  25.871  1.00  0.00     0.275 C 
BRANCH  35  36
ATOM     36  O   UNL A   1      44.125  21.008  25.051  1.00  0.00    -0.458 OA
BRANCH  36  37
ATOM     37  C   UNL A   1      45.361  21.521  25.326  1.00  0.00     0.338 C 
ATOM     38  O   UNL A   1      46.369  20.946  25.067  1.00  0.00    -0.246 OA
BRANCH  37  39
ATOM     39  C   UNL A   1      45.321  22.888  25.843  1.00  0.00     0.060 A 
ATOM     40  C   UNL A   1      45.251  23.078  27.229  1.00  0.00     0.016 A 
ATOM     41  C   UNL A   1      45.570  23.917  24.945  1.00  0.00     0.016 A 
ATOM     42  C   UNL A   1      45.557  24.317  27.759  1.00  0.00     0.010 A 
ATOM     43  C   UNL A   1      45.970  25.119  25.454  1.00  0.00     0.010 A 
ATOM     44  C   UNL A   1      45.872  25.320  26.848  1.00  0.00    -0.014 A 
BRANCH  44  45
ATOM     45  C   UNL A   1      45.507  26.692  27.133  1.00  0.00     0.031 A 
ATOM     46  C   UNL A   1      44.120  27.110  26.915  1.00  0.00     0.074 A 
ATOM     47  C   UNL A   1      46.483  27.154  27.953  1.00  0.00     0.049 A 
ATOM     48  N   UNL A   1      43.682  28.315  26.968  1.00  0.00    -0.248 NA
ATOM     49  C   UNL A   1      43.069  26.176  26.494  1.00  0.00     0.031 C 
ATOM     50  C   UNL A   1      46.497  28.028  29.105  1.00  0.00     0.029 A 
ATOM     51  N   UNL A   1      47.838  26.823  27.804  1.00  0.00    -0.354 N 
ATOM     52  C   UNL A   1      42.319  28.191  27.168  1.00  0.00     0.074 A 
ATOM     53  C   UNL A   1      41.970  26.931  26.577  1.00  0.00     0.031 C 
ATOM     54  C   UNL A   1      47.775  28.404  29.340  1.00  0.00     0.029 A 
ATOM     55  C   UNL A   1      48.603  27.881  28.252  1.00  0.00     0.049 A 
ATOM     56  H   UNL A   1      48.185  25.975  27.443  1.00  0.00     0.167 HD
ATOM     57  C   UNL A   1      41.733  28.971  28.124  1.00  0.00     0.034 A 
ATOM     58  C   UNL A   1      49.180  28.623  27.257  1.00  0.00     0.034 A 
ATOM     59  C   UNL A   1      42.756  29.832  28.728  1.00  0.00     0.049 A 
ATOM     60  C   UNL A   1      48.417  29.923  27.121  1.00  0.00     0.074 A 
ATOM     61  C   UNL A   1      43.436  29.776  29.933  1.00  0.00     0.029 A 
ATOM     62  N   UNL A   1      43.489  30.679  27.905  1.00  0.00    -0.354 N 
ATOM     63  N   UNL A   1      47.124  30.064  27.289  1.00  0.00    -0.248 NA
ATOM     64  C   UNL A   1      49.120  31.187  26.986  1.00  0.00     0.031 C 
ATOM     65  C   UNL A   1      44.628  30.547  29.792  1.00  0.00     0.029 A 
ATOM     66  C   UNL A   1      44.689  31.025  28.492  1.00  0.00     0.049 A 
ATOM     67  H   UNL A   1      43.192  30.991  27.021  1.00  0.00     0.167 HD
ATOM     68  C   UNL A   1      46.838  31.398  27.432  1.00  0.00     0.074 A 
ATOM     69  C   UNL A   1      48.121  32.054  27.208  1.00  0.00     0.031 C 
ATOM     70  C   UNL A   1      45.608  31.896  27.779  1.00  0.00     0.034 A 
BRANCH  57  71
ATOM     71  C   UNL A   1      40.381  28.738  28.773  1.00  0.00     0.023 A 
ATOM     72  C   UNL A   1      39.400  29.748  28.648  1.00  0.00     0.031 A 
ATOM     73  C   UNL A   1      39.973  27.602  29.499  1.00  0.00     0.131 A 
ATOM     74  C   UNL A   1      38.139  29.645  29.261  1.00  0.00     0.055 A 
ATOM     75  C   UNL A   1      38.722  27.506  30.132  1.00  0.00     0.041 A 
ATOM     76  F   UNL A   1      40.736  26.507  29.596  1.00  0.00    -0.206 F 
ATOM     77  C   UNL A   1      37.796  28.532  30.019  1.00  0.00     0.022 A 
BRANCH  74  78
ATOM     78  S   UNL A   1      36.945  30.990  29.028  1.00  0.00     0.124 S 
ATOM     79  O   UNL A   1      36.114  30.871  30.222  1.00  0.00    -0.237 OA
ATOM     80  O   UNL A   1      37.809  32.163  28.954  1.00  0.00    -0.237 OA
ATOM     81  O   UNL A   1      36.279  30.636  27.774  1.00  0.00    -0.744 OA
ENDBRANCH  74  78
ENDBRANCH  57  71
BRANCH  58  82
ATOM     82  C   UNL A   1      49.748  27.784  26.136  1.00  0.00     0.023 A 
ATOM     83  C   UNL A   1      49.028  27.742  24.916  1.00  0.00     0.031 A 
ATOM     84  C   UNL A   1      51.065  27.305  26.101  1.00  0.00     0.131 A 
ATOM     85  C   UNL A   1      49.642  27.346  23.713  1.00  0.00     0.055 A 
ATOM     86  C   UNL A   1      51.669  26.878  24.901  1.00  0.00     0.041 A 
ATOM     87  F   UNL A   1      51.833  27.331  27.200  1.00  0.00    -0.206 F 
ATOM     88  C   UNL A   1      50.970  26.926  23.694  1.00  0.00     0.022 A 
BRANCH  85  89
ATOM     89  S   UNL A   1      48.715  27.572  22.161  1.00  0.00     0.124 S 
ATOM     90  O   UNL A   1      48.743  26.224  21.599  1.00  0.00    -0.237 OA
ATOM     91  O   UNL A   1      47.415  28.020  22.651  1.00  0.00    -0.237 OA
ATOM     92  O   UNL A   1      49.497  28.562  21.429  1.00  0.00    -0.744 OA
ENDBRANCH  85  89
ENDBRANCH  58  82
BRANCH  70  93
ATOM     93  C   UNL A   1      45.165  33.319  27.526  1.00  0.00     0.023 A 
ATOM     94  C   UNL A   1      45.279  34.313  28.497  1.00  0.00     0.031 A 
ATOM     95  C   UNL A   1      44.718  33.760  26.254  1.00  0.00     0.131 A 
ATOM     96  C   UNL A   1      44.836  35.617  28.258  1.00  0.00     0.055 A 
ATOM     97  C   UNL A   1      44.411  35.093  25.976  1.00  0.00     0.041 A 
ATOM     98  F   UNL A   1      44.575  32.929  25.212  1.00  0.00    -0.206 F 
ATOM     99  C   UNL A   1      44.438  36.030  26.994  1.00  0.00     0.022 A 
BRANCH  96 100
ATOM    100  S   UNL A   1      44.687  36.704  29.692  1.00  0.00     0.124 S 
ATOM    101  O   UNL A   1      44.492  35.739  30.773  1.00  0.00    -0.237 OA
ATOM    102  O   UNL A   1      45.967  37.402  29.692  1.00  0.00    -0.237 OA
ATOM    103  O   UNL A   1      43.522  37.526  29.376  1.00  0.00    -0.744 OA
ENDBRANCH  96 100
ENDBRANCH  70  93
ENDBRANCH  44  45
ENDBRANCH  37  39
ENDBRANCH  36  37
ENDBRANCH  35  36
ENDBRANCH   1  35
TORSDOF 19
ENDMDL
MODEL 3
REMARK VINA RESULT:     -11.7      2.726      4.087
REMARK SMILES Cc1c(C(=O)Nc2ccc(C(=O)Nc3ccccc3C(=O)OCCOC(=O)c3ccc(-c4c5nc(c(-c6cc(S(=O)(=O)[O-])ccc6F)c6ccc([nH]6)c(-c6cc(S(=O)(=O)[O-])ccc6F)c6nc(c(-c7cc(S(=O)(=O)[O-])ccc7F)c7ccc4[nH]7)C=C6)C=C5)cc3)cc2)cccc1[N+](=O)[O-]
REMARK SMILES IDX 23 1 22 2 20 3 21 4 19 5 14 6 15 7 16 8 18 9 17 10 13 11
REMARK SMILES IDX 11 12 12 13 10 15 7 16 8 17 92 18 9 19 91 20 6 21 4 22 5 23
REMARK SMILES IDX 3 25 1 26 2 27 96 28 93 29 95 30 94 31 97 32 98 33 99 34
REMARK SMILES IDX 24 35 25 36 26 37 27 38 28 39 29 40 90 41 30 42 89 43 31 44
REMARK SMILES IDX 32 45 33 46 83 47 34 48 88 49 82 50 84 51 35 52 87 53 81 54
REMARK SMILES IDX 80 55 36 57 68 58 48 59 67 60 49 61 52 62 66 63 85 64 50 65
REMARK SMILES IDX 51 66 65 68 86 69 53 70 37 71 38 72 46 73 39 74 45 75 47 76
REMARK SMILES IDX 44 77 40 78 41 79 42 80 43 81 69 82 70 83 78 84 71 85 77 86
REMARK SMILES IDX 79 87 76 88 72 89 73 90 74 91 75 92 54 93 55 94 63 95 56 96
REMARK SMILES IDX 62 97 64 98 61 99 57 100 58 101 59 102 60 103
REMARK H PARENT 13 14 6 24 84 56 52 67
REMARK Flexibility Score: inf
ROOT
ATOM      1  C   UNL A   1      39.368  19.131  25.765  1.00  0.00     0.275 C 
ENDROOT
BRANCH   1   2
ATOM      2  O   UNL A   1      38.644  19.789  24.703  1.00  0.00    -0.458 OA
BRANCH   2   3
ATOM      3  C   UNL A   1      37.321  19.927  24.998  1.00  0.00     0.340 C 
ATOM      4  O   UNL A   1      36.523  19.021  24.751  1.00  0.00    -0.246 OA
BRANCH   3   5
ATOM      5  C   UNL A   1      36.771  21.258  25.486  1.00  0.00     0.083 A 
ATOM      6  C   UNL A   1      35.482  21.701  25.879  1.00  0.00     0.056 A 
ATOM      7  C   UNL A   1      35.309  23.078  26.197  1.00  0.00     0.027 A 
ATOM      8  C   UNL A   1      36.363  23.984  26.250  1.00  0.00     0.002 A 
ATOM      9  C   UNL A   1      37.820  22.223  25.552  1.00  0.00     0.018 A 
ATOM     10  C   UNL A   1      37.633  23.548  25.944  1.00  0.00     0.001 A 
BRANCH   6  11
ATOM     11  N   UNL A   1      34.268  21.016  26.105  1.00  0.00    -0.321 N 
ATOM     12  C   UNL A   1      33.057  20.954  25.448  1.00  0.00     0.255 C 
ATOM     13  O   UNL A   1      32.335  19.988  25.691  1.00  0.00    -0.269 OA
ATOM     14  H   UNL A   1      34.291  20.455  26.913  1.00  0.00     0.170 HD
BRANCH  12  15
ATOM     15  C   UNL A   1      32.610  21.936  24.454  1.00  0.00     0.040 A 
ATOM     16  C   UNL A   1      31.732  23.783  22.584  1.00  0.00     0.041 A 
ATOM     17  C   UNL A   1      30.932  23.454  23.663  1.00  0.00     0.027 A 
ATOM     18  C   UNL A   1      32.896  23.060  22.323  1.00  0.00     0.027 A 
ATOM     19  C   UNL A   1      31.460  22.674  24.666  1.00  0.00     0.016 A 
ATOM     20  C   UNL A   1      33.339  22.132  23.275  1.00  0.00     0.016 A 
BRANCH  16  21
ATOM     21  N   UNL A   1      31.489  24.987  21.914  1.00  0.00    -0.322 N 
ATOM     22  C   UNL A   1      31.605  26.264  22.456  1.00  0.00     0.256 C 
ATOM     23  O   UNL A   1      31.191  27.235  21.824  1.00  0.00    -0.269 OA
ATOM     24  H   UNL A   1      31.211  24.925  20.972  1.00  0.00     0.170 HD
BRANCH  22  25
ATOM     25  C   UNL A   1      32.204  26.501  23.831  1.00  0.00     0.049 A 
ATOM     26  C   UNL A   1      29.993  26.773  25.076  1.00  0.00     0.053 C 
ATOM     27  C   UNL A   1      31.490  26.923  24.991  1.00  0.00     0.039 A 
ATOM     28  C   UNL A   1      32.246  27.480  26.057  1.00  0.00     0.273 A 
ATOM     29  C   UNL A   1      33.605  26.381  23.886  1.00  0.00     0.014 A 
ATOM     30  C   UNL A   1      33.646  27.357  26.086  1.00  0.00     0.086 A 
ATOM     31  C   UNL A   1      34.315  26.756  25.025  1.00  0.00     0.008 A 
BRANCH  28  32
ATOM     32  N   UNL A   1      31.640  28.316  27.121  1.00  0.00     0.063 N 
ATOM     33  O   UNL A   1      31.610  29.542  26.935  1.00  0.00    -0.258 OA
ATOM     34  O   UNL A   1      31.136  27.754  28.099  1.00  0.00    -0.258 OA
ENDBRANCH  28  32
ENDBRANCH  22  25
ENDBRANCH  16  21
ENDBRANCH  12  15
ENDBRANCH   6  11
ENDBRANCH   3   5
ENDBRANCH   2   3
ENDBRANCH   1   2
BRANCH   1  35
ATOM     35  C   UNL A   1      40.706  19.729  26.261  1.00  0.00     0.275 C 
BRANCH  35  36
ATOM     36  O   UNL A   1      41.007  21.139  26.208  1.00  0.00    -0.458 OA
BRANCH  36  37
ATOM     37  C   UNL A   1      42.166  21.791  25.896  1.00  0.00     0.338 C 
ATOM     38  O   UNL A   1      42.991  21.329  25.174  1.00  0.00    -0.246 OA
BRANCH  37  39
ATOM     39  C   UNL A   1      42.229  23.152  26.427  1.00  0.00     0.060 A 
ATOM     40  C   UNL A   1      42.605  24.191  25.565  1.00  0.00     0.016 A 
ATOM     41  C   UNL A   1      41.707  23.367  27.696  1.00  0.00     0.016 A 
ATOM     42  C   UNL A   1      42.344  25.498  25.927  1.00  0.00     0.010 A 
ATOM     43  C   UNL A   1      41.353  24.642  28.028  1.00  0.00     0.010 A 
ATOM     44  C   UNL A   1      41.757  25.691  27.174  1.00  0.00    -0.014 A 
BRANCH  44  45
ATOM     45  C   UNL A   1      42.080  26.872  27.948  1.00  0.00     0.031 A 
ATOM     46  C   UNL A   1      41.113  27.971  27.991  1.00  0.00     0.074 A 
ATOM     47  C   UNL A   1      43.052  26.475  28.806  1.00  0.00     0.049 A 
ATOM     48  N   UNL A   1      41.319  29.133  28.495  1.00  0.00    -0.248 NA
ATOM     49  C   UNL A   1      39.798  27.893  27.345  1.00  0.00     0.031 C 
ATOM     50  C   UNL A   1      43.356  26.774  30.188  1.00  0.00     0.029 A 
ATOM     51  N   UNL A   1      44.078  25.585  28.454  1.00  0.00    -0.354 N 
ATOM     52  C   UNL A   1      40.058  29.646  28.737  1.00  0.00     0.074 A 
ATOM     53  C   UNL A   1      39.209  29.016  27.766  1.00  0.00     0.031 C 
ATOM     54  C   UNL A   1      44.617  26.358  30.448  1.00  0.00     0.029 A 
ATOM     55  C   UNL A   1      45.204  25.896  29.189  1.00  0.00     0.049 A 
ATOM     56  H   UNL A   1      44.006  24.858  27.793  1.00  0.00     0.167 HD
ATOM     57  C   UNL A   1      39.820  30.236  29.945  1.00  0.00     0.034 A 
ATOM     58  C   UNL A   1      46.184  26.537  28.480  1.00  0.00     0.034 A 
ATOM     59  C   UNL A   1      41.055  30.208  30.738  1.00  0.00     0.049 A 
ATOM     60  C   UNL A   1      46.178  28.001  28.865  1.00  0.00     0.074 A 
ATOM     61  C   UNL A   1      41.471  29.416  31.795  1.00  0.00     0.029 A 
ATOM     62  N   UNL A   1      42.200  30.797  30.216  1.00  0.00    -0.354 N 
ATOM     63  N   UNL A   1      45.111  28.701  29.164  1.00  0.00    -0.248 NA
ATOM     64  C   UNL A   1      47.420  28.703  29.133  1.00  0.00     0.031 C 
ATOM     65  C   UNL A   1      42.895  29.484  31.849  1.00  0.00     0.029 A 
ATOM     66  C   UNL A   1      43.336  30.275  30.800  1.00  0.00     0.049 A 
ATOM     67  H   UNL A   1      42.201  31.493  29.521  1.00  0.00     0.167 HD
ATOM     68  C   UNL A   1      45.501  29.860  29.787  1.00  0.00     0.074 A 
ATOM     69  C   UNL A   1      46.957  29.818  29.717  1.00  0.00     0.031 C 
ATOM     70  C   UNL A   1      44.641  30.753  30.375  1.00  0.00     0.034 A 
BRANCH  57  71
ATOM     71  C   UNL A   1      38.462  30.506  30.565  1.00  0.00     0.023 A 
ATOM     72  C   UNL A   1      37.825  31.732  30.268  1.00  0.00     0.031 A 
ATOM     73  C   UNL A   1      37.736  29.654  31.421  1.00  0.00     0.131 A 
ATOM     74  C   UNL A   1      36.592  32.092  30.839  1.00  0.00     0.055 A 
ATOM     75  C   UNL A   1      36.515  30.020  32.012  1.00  0.00     0.041 A 
ATOM     76  F   UNL A   1      38.139  28.407  31.694  1.00  0.00    -0.206 F 
ATOM     77  C   UNL A   1      35.936  31.248  31.725  1.00  0.00     0.022 A 
BRANCH  74  78
ATOM     78  S   UNL A   1      35.851  33.682  30.380  1.00  0.00     0.124 S 
ATOM     79  O   UNL A   1      36.035  34.467  31.597  1.00  0.00    -0.237 OA
ATOM     80  O   UNL A   1      36.653  34.078  29.228  1.00  0.00    -0.237 OA
ATOM     81  O   UNL A   1      34.464  33.333  30.074  1.00  0.00    -0.744 OA
ENDBRANCH  74  78
ENDBRANCH  57  71
BRANCH  58  82
ATOM     82  C   UNL A   1      46.396  25.964  27.098  1.00  0.00     0.023 A 
ATOM     83  C   UNL A   1      46.677  26.871  26.046  1.00  0.00     0.031 A 
ATOM     84  C   UNL A   1      46.643  24.609  26.838  1.00  0.00     0.131 A 
ATOM     85  C   UNL A   1      47.277  26.443  24.847  1.00  0.00     0.055 A 
ATOM     86  C   UNL A   1      47.214  24.178  25.623  1.00  0.00     0.041 A 
ATOM     87  F   UNL A   1      46.434  23.680  27.782  1.00  0.00    -0.206 F 
ATOM     88  C   UNL A   1      47.564  25.097  24.633  1.00  0.00     0.022 A 
BRANCH  85  89
ATOM     89  S   UNL A   1      47.834  27.713  23.666  1.00  0.00     0.124 S 
ATOM     90  O   UNL A   1      49.070  28.179  24.291  1.00  0.00    -0.237 OA
ATOM     91  O   UNL A   1      48.005  26.932  22.444  1.00  0.00    -0.237 OA
ATOM     92  O   UNL A   1      46.745  28.683  23.656  1.00  0.00    -0.744 OA
ENDBRANCH  85  89
ENDBRANCH  58  82
BRANCH  70  93
ATOM     93  C   UNL A   1      44.986  32.195  30.670  1.00  0.00     0.023 A 
ATOM     94  C   UNL A   1      44.654  33.228  29.795  1.00  0.00     0.031 A 
ATOM     95  C   UNL A   1      45.557  32.602  31.903  1.00  0.00     0.131 A 
ATOM     96  C   UNL A   1      45.006  34.553  30.067  1.00  0.00     0.055 A 
ATOM     97  C   UNL A   1      45.779  33.940  32.233  1.00  0.00     0.041 A 
ATOM     98  F   UNL A   1      45.913  31.729  32.856  1.00  0.00    -0.206 F 
ATOM     99  C   UNL A   1      45.531  34.928  31.297  1.00  0.00     0.022 A 
BRANCH  96 100
ATOM    100  S   UNL A   1      44.863  35.732  28.708  1.00  0.00     0.124 S 
ATOM    101  O   UNL A   1      43.613  35.306  28.080  1.00  0.00    -0.237 OA
ATOM    102  O   UNL A   1      44.815  37.012  29.405  1.00  0.00    -0.237 OA
ATOM    103  O   UNL A   1      46.068  35.490  27.919  1.00  0.00    -0.744 OA
ENDBRANCH  96 100
ENDBRANCH  70  93
ENDBRANCH  44  45
ENDBRANCH  37  39
ENDBRANCH  36  37
ENDBRANCH  35  36
ENDBRANCH   1  35
TORSDOF 19
ENDMDL
