MODEL 1
REMARK VINA RESULT:     -12.5      0.000      0.000
REMARK SMILES COc1ccc2c(c1)c(CC(=O)OCCOC(=O)c1ccc(-c3c4nc(c(-c5cc(S(=O)(=O)[O-])ccc5F)c5ccc([nH]5)c(-c5cc(S(=O)(=O)[O-])ccc5F)c5nc(c(-c6cc(S(=O)(=O)[O-])ccc6F)c6ccc3[nH]6)C=C5)C=C4)cc1)c(C)n2Cc1ccn(C(F)F)c(=O)c1
REMARK SMILES IDX 14 1 13 2 11 3 12 4 10 5 9 6 3 7 4 8 8 9 5 10 7 11 6 12
REMARK SMILES IDX 84 13 82 14 83 15 2 16 1 17 85 18 86 19 87 20 95 21 88 22
REMARK SMILES IDX 93 23 89 24 94 25 90 26 91 27 92 28 15 29 16 30 17 31 18 32
REMARK SMILES IDX 19 33 20 34 81 35 21 36 80 37 22 38 23 39 24 40 74 41 25 42
REMARK SMILES IDX 79 43 73 44 75 45 26 46 78 47 72 48 71 49 27 51 59 52 39 53
REMARK SMILES IDX 58 54 40 55 43 56 57 57 76 58 41 59 42 60 56 62 77 63 44 64
REMARK SMILES IDX 28 65 29 66 37 67 30 68 36 69 38 70 35 71 31 72 32 73 33 74
REMARK SMILES IDX 34 75 60 76 61 77 69 78 62 79 68 80 70 81 67 82 63 83 64 84
REMARK SMILES IDX 65 85 66 86 45 87 46 88 54 89 47 90 53 91 55 92 52 93 48 94
REMARK SMILES IDX 49 95 50 96 51 97
REMARK H PARENT 75 50 43 61
REMARK Flexibility Score: inf
ROOT
ATOM      1  C   UNL A   1      33.135  31.372  27.276  1.00  0.00     0.274 C 
ENDROOT
BRANCH   1   2
ATOM      2  O   UNL A   1      33.923  30.259  26.796  1.00  0.00    -0.462 OA
BRANCH   2   3
ATOM      3  C   UNL A   1      33.341  29.041  26.918  1.00  0.00     0.310 C 
ATOM      4  O   UNL A   1      32.214  28.867  27.377  1.00  0.00    -0.252 OA
BRANCH   3   5
ATOM      5  C   UNL A   1      34.205  27.872  26.544  1.00  0.00     0.160 C 
BRANCH   5   6
ATOM      6  C   UNL A   1      33.840  26.936  25.430  1.00  0.00    -0.008 A 
ATOM      7  C   UNL A   1      34.159  23.090  25.633  1.00  0.00     0.119 A 
ATOM      8  C   UNL A   1      33.628  22.835  24.377  1.00  0.00     0.048 A 
ATOM      9  C   UNL A   1      34.187  24.407  26.118  1.00  0.00     0.057 A 
ATOM     10  C   UNL A   1      33.174  23.884  23.568  1.00  0.00     0.031 A 
ATOM     11  C   UNL A   1      33.817  25.502  25.303  1.00  0.00     0.007 A 
ATOM     12  C   UNL A   1      33.326  25.207  24.023  1.00  0.00     0.049 A 
ATOM     13  N   UNL A   1      33.065  26.421  23.415  1.00  0.00    -0.340 N 
ATOM     14  C   UNL A   1      33.698  27.409  24.130  1.00  0.00     0.020 A 
ATOM     15  C   UNL A   1      34.121  28.739  23.595  1.00  0.00     0.065 C 
BRANCH   7  16
ATOM     16  O   UNL A   1      34.638  22.134  26.490  1.00  0.00    -0.497 OA
ATOM     17  C   UNL A   1      33.687  21.490  27.334  1.00  0.00     0.278 C 
ENDBRANCH   7  16
BRANCH  13  18
ATOM     18  C   UNL A   1      32.272  26.624  22.203  1.00  0.00     0.158 C 
BRANCH  18  19
ATOM     19  C   UNL A   1      31.022  27.444  22.470  1.00  0.00    -0.021 A 
ATOM     20  C   UNL A   1      29.994  26.891  23.331  1.00  0.00     0.024 A 
ATOM     21  C   UNL A   1      30.824  28.666  21.947  1.00  0.00     0.077 A 
ATOM     22  C   UNL A   1      28.821  27.510  23.491  1.00  0.00     0.095 A 
ATOM     23  C   UNL A   1      29.553  29.415  22.191  1.00  0.00     0.255 A 
ATOM     24  N   UNL A   1      28.583  28.740  22.912  1.00  0.00    -0.258 N 
ATOM     25  O   UNL A   1      29.449  30.553  21.743  1.00  0.00    -0.269 OA
BRANCH  24  26
ATOM     26  C   UNL A   1      27.325  29.402  23.133  1.00  0.00     0.451 C 
ATOM     27  F   UNL A   1      26.407  28.538  23.631  1.00  0.00    -0.185 F 
ATOM     28  F   UNL A   1      27.448  30.430  24.009  1.00  0.00    -0.185 F 
ENDBRANCH  24  26
ENDBRANCH  18  19
ENDBRANCH  13  18
ENDBRANCH   5   6
ENDBRANCH   3   5
ENDBRANCH   2   3
ENDBRANCH   1   2
BRANCH   1  29
ATOM     29  C   UNL A   1      34.030  32.400  27.973  1.00  0.00     0.275 C 
BRANCH  29  30
ATOM     30  O   UNL A   1      35.124  31.707  28.591  1.00  0.00    -0.458 OA
BRANCH  30  31
ATOM     31  C   UNL A   1      36.352  32.271  28.488  1.00  0.00     0.338 C 
ATOM     32  O   UNL A   1      36.615  33.455  28.370  1.00  0.00    -0.246 OA
BRANCH  31  33
ATOM     33  C   UNL A   1      37.304  31.209  28.862  1.00  0.00     0.060 A 
ATOM     34  C   UNL A   1      38.487  31.545  29.521  1.00  0.00     0.016 A 
ATOM     35  C   UNL A   1      37.107  29.916  28.362  1.00  0.00     0.016 A 
ATOM     36  C   UNL A   1      39.515  30.613  29.574  1.00  0.00     0.010 A 
ATOM     37  C   UNL A   1      38.150  28.997  28.389  1.00  0.00     0.010 A 
ATOM     38  C   UNL A   1      39.369  29.359  28.957  1.00  0.00    -0.014 A 
BRANCH  38  39
ATOM     39  C   UNL A   1      40.360  28.341  29.285  1.00  0.00     0.031 A 
ATOM     40  C   UNL A   1      40.534  28.247  30.747  1.00  0.00     0.074 A 
ATOM     41  C   UNL A   1      41.060  27.503  28.499  1.00  0.00     0.049 A 
ATOM     42  N   UNL A   1      41.383  28.912  31.453  1.00  0.00    -0.248 NA
ATOM     43  C   UNL A   1      39.525  27.515  31.521  1.00  0.00     0.031 C 
ATOM     44  C   UNL A   1      40.807  27.118  27.115  1.00  0.00     0.029 A 
ATOM     45  N   UNL A   1      42.154  26.751  28.844  1.00  0.00    -0.354 N 
ATOM     46  C   UNL A   1      41.183  28.471  32.751  1.00  0.00     0.074 A 
ATOM     47  C   UNL A   1      39.887  27.841  32.763  1.00  0.00     0.031 C 
ATOM     48  C   UNL A   1      41.595  26.059  26.801  1.00  0.00     0.029 A 
ATOM     49  C   UNL A   1      42.529  25.817  27.894  1.00  0.00     0.049 A 
ATOM     50  H   UNL A   1      42.633  26.867  29.697  1.00  0.00     0.167 HD
ATOM     51  C   UNL A   1      42.237  28.361  33.605  1.00  0.00     0.034 A 
ATOM     52  C   UNL A   1      43.525  24.904  28.006  1.00  0.00     0.034 A 
ATOM     53  C   UNL A   1      43.417  28.984  33.056  1.00  0.00     0.049 A 
ATOM     54  C   UNL A   1      44.530  25.380  28.984  1.00  0.00     0.074 A 
ATOM     55  C   UNL A   1      43.923  30.255  32.914  1.00  0.00     0.029 A 
ATOM     56  N   UNL A   1      44.117  28.174  32.201  1.00  0.00    -0.354 N 
ATOM     57  N   UNL A   1      45.327  26.389  28.775  1.00  0.00    -0.248 NA
ATOM     58  C   UNL A   1      44.508  24.876  30.355  1.00  0.00     0.031 C 
ATOM     59  C   UNL A   1      44.905  30.192  31.878  1.00  0.00     0.029 A 
ATOM     60  C   UNL A   1      44.988  28.882  31.414  1.00  0.00     0.049 A 
ATOM     61  H   UNL A   1      44.005  27.197  32.155  1.00  0.00     0.167 HD
ATOM     62  C   UNL A   1      45.526  26.920  30.030  1.00  0.00     0.074 A 
ATOM     63  C   UNL A   1      45.196  25.849  30.959  1.00  0.00     0.031 C 
ATOM     64  C   UNL A   1      45.559  28.269  30.228  1.00  0.00     0.034 A 
BRANCH  51  65
ATOM     65  C   UNL A   1      42.343  27.300  34.679  1.00  0.00     0.023 A 
ATOM     66  C   UNL A   1      43.135  26.145  34.551  1.00  0.00     0.031 A 
ATOM     67  C   UNL A   1      41.823  27.543  35.965  1.00  0.00     0.131 A 
ATOM     68  C   UNL A   1      43.365  25.280  35.625  1.00  0.00     0.055 A 
ATOM     69  C   UNL A   1      42.110  26.718  37.060  1.00  0.00     0.041 A 
ATOM     70  F   UNL A   1      41.060  28.620  36.210  1.00  0.00    -0.206 F 
ATOM     71  C   UNL A   1      42.885  25.576  36.894  1.00  0.00     0.022 A 
BRANCH  68  72
ATOM     72  S   UNL A   1      44.320  23.757  35.377  1.00  0.00     0.124 S 
ATOM     73  O   UNL A   1      44.783  23.466  36.729  1.00  0.00    -0.237 OA
ATOM     74  O   UNL A   1      43.299  22.855  34.846  1.00  0.00    -0.237 OA
ATOM     75  O   UNL A   1      45.351  24.151  34.420  1.00  0.00    -0.744 OA
ENDBRANCH  68  72
ENDBRANCH  51  65
BRANCH  52  76
ATOM     76  C   UNL A   1      43.558  23.506  27.525  1.00  0.00     0.023 A 
ATOM     77  C   UNL A   1      44.403  23.167  26.455  1.00  0.00     0.031 A 
ATOM     78  C   UNL A   1      42.532  22.601  27.859  1.00  0.00     0.131 A 
ATOM     79  C   UNL A   1      44.163  22.005  25.710  1.00  0.00     0.055 A 
ATOM     80  C   UNL A   1      42.304  21.435  27.121  1.00  0.00     0.041 A 
ATOM     81  F   UNL A   1      41.677  22.873  28.857  1.00  0.00    -0.206 F 
ATOM     82  C   UNL A   1      43.111  21.142  26.027  1.00  0.00     0.022 A 
BRANCH  79  83
ATOM     83  S   UNL A   1      45.172  21.632  24.250  1.00  0.00     0.124 S 
ATOM     84  O   UNL A   1      46.469  21.315  24.841  1.00  0.00    -0.237 OA
ATOM     85  O   UNL A   1      44.451  20.504  23.672  1.00  0.00    -0.237 OA
ATOM     86  O   UNL A   1      45.134  22.875  23.484  1.00  0.00    -0.744 OA
ENDBRANCH  79  83
ENDBRANCH  52  76
BRANCH  64  87
ATOM     87  C   UNL A   1      46.049  29.150  29.110  1.00  0.00     0.023 A 
ATOM     88  C   UNL A   1      45.110  30.022  28.531  1.00  0.00     0.031 A 
ATOM     89  C   UNL A   1      47.340  29.124  28.552  1.00  0.00     0.131 A 
ATOM     90  C   UNL A   1      45.451  30.809  27.426  1.00  0.00     0.055 A 
ATOM     91  C   UNL A   1      47.699  29.967  27.492  1.00  0.00     0.041 A 
ATOM     92  F   UNL A   1      48.271  28.254  28.970  1.00  0.00    -0.206 F 
ATOM     93  C   UNL A   1      46.750  30.804  26.914  1.00  0.00     0.022 A 
BRANCH  90  94
ATOM     94  S   UNL A   1      44.180  31.759  26.554  1.00  0.00     0.124 S 
ATOM     95  O   UNL A   1      44.929  32.328  25.438  1.00  0.00    -0.237 OA
ATOM     96  O   UNL A   1      43.208  30.728  26.196  1.00  0.00    -0.237 OA
ATOM     97  O   UNL A   1      43.715  32.721  27.550  1.00  0.00    -0.744 OA
ENDBRANCH  90  94
ENDBRANCH  64  87
ENDBRANCH  38  39
ENDBRANCH  31  33
ENDBRANCH  30  31
ENDBRANCH  29  30
ENDBRANCH   1  29
TORSDOF 19
ENDMDL
MODEL 2
REMARK VINA RESULT:     -12.0      4.002      9.636
REMARK SMILES COc1ccc2c(c1)c(CC(=O)OCCOC(=O)c1ccc(-c3c4nc(c(-c5cc(S(=O)(=O)[O-])ccc5F)c5ccc([nH]5)c(-c5cc(S(=O)(=O)[O-])ccc5F)c5nc(c(-c6cc(S(=O)(=O)[O-])ccc6F)c6ccc3[nH]6)C=C5)C=C4)cc1)c(C)n2Cc1ccn(C(F)F)c(=O)c1
REMARK SMILES IDX 14 1 13 2 11 3 12 4 10 5 9 6 3 7 4 8 8 9 5 10 7 11 6 12
REMARK SMILES IDX 84 13 82 14 83 15 2 16 1 17 85 18 86 19 87 20 95 21 88 22
REMARK SMILES IDX 93 23 89 24 94 25 90 26 91 27 92 28 15 29 16 30 17 31 18 32
REMARK SMILES IDX 19 33 20 34 81 35 21 36 80 37 22 38 23 39 24 40 74 41 25 42
REMARK SMILES IDX 79 43 73 44 75 45 26 46 78 47 72 48 71 49 27 51 59 52 39 53
REMARK SMILES IDX 58 54 40 55 43 56 57 57 76 58 41 59 42 60 56 62 77 63 44 64
REMARK SMILES IDX 28 65 29 66 37 67 30 68 36 69 38 70 35 71 31 72 32 73 33 74
REMARK SMILES IDX 34 75 60 76 61 77 69 78 62 79 68 80 70 81 67 82 63 83 64 84
REMARK SMILES IDX 65 85 66 86 45 87 46 88 54 89 47 90 53 91 55 92 52 93 48 94
REMARK SMILES IDX 49 95 50 96 51 97
REMARK H PARENT 75 50 43 61
REMARK Flexibility Score: inf
ROOT
ATOM      1  C   UNL A   1      38.829  21.317  25.519  1.00  0.00     0.274 C 
ENDROOT
BRANCH   1   2
ATOM      2  O   UNL A   1      38.357  22.680  25.605  1.00  0.00    -0.462 OA
BRANCH   2   3
ATOM      3  C   UNL A   1      37.114  22.896  25.109  1.00  0.00     0.310 C 
ATOM      4  O   UNL A   1      36.633  22.258  24.175  1.00  0.00    -0.252 OA
BRANCH   3   5
ATOM      5  C   UNL A   1      36.371  24.052  25.711  1.00  0.00     0.160 C 
BRANCH   5   6
ATOM      6  C   UNL A   1      34.875  24.155  25.654  1.00  0.00    -0.008 A 
ATOM      7  C   UNL A   1      32.956  27.260  24.385  1.00  0.00     0.119 A 
ATOM      8  C   UNL A   1      31.690  26.712  24.522  1.00  0.00     0.048 A 
ATOM      9  C   UNL A   1      34.085  26.466  24.642  1.00  0.00     0.057 A 
ATOM     10  C   UNL A   1      31.525  25.395  24.969  1.00  0.00     0.031 A 
ATOM     11  C   UNL A   1      33.964  25.161  25.174  1.00  0.00     0.007 A 
ATOM     12  C   UNL A   1      32.666  24.658  25.341  1.00  0.00     0.049 A 
ATOM     13  N   UNL A   1      32.802  23.399  25.895  1.00  0.00    -0.340 N 
ATOM     14  C   UNL A   1      34.081  23.276  26.383  1.00  0.00     0.020 A 
ATOM     15  C   UNL A   1      34.513  22.351  27.474  1.00  0.00     0.065 C 
BRANCH   7  16
ATOM     16  O   UNL A   1      33.217  28.539  23.967  1.00  0.00    -0.497 OA
ATOM     17  C   UNL A   1      34.085  28.686  22.847  1.00  0.00     0.278 C 
ENDBRANCH   7  16
BRANCH  13  18
ATOM     18  C   UNL A   1      31.760  22.376  25.975  1.00  0.00     0.158 C 
BRANCH  18  19
ATOM     19  C   UNL A   1      32.047  21.197  25.061  1.00  0.00    -0.021 A 
ATOM     20  C   UNL A   1      32.032  21.405  23.626  1.00  0.00     0.024 A 
ATOM     21  C   UNL A   1      32.320  19.964  25.522  1.00  0.00     0.077 A 
ATOM     22  C   UNL A   1      32.145  20.379  22.778  1.00  0.00     0.095 A 
ATOM     23  C   UNL A   1      32.541  18.820  24.585  1.00  0.00     0.255 A 
ATOM     24  N   UNL A   1      32.369  19.099  23.240  1.00  0.00    -0.258 N 
ATOM     25  O   UNL A   1      32.850  17.729  25.056  1.00  0.00    -0.269 OA
BRANCH  24  26
ATOM     26  C   UNL A   1      32.526  18.018  22.304  1.00  0.00     0.451 C 
ATOM     27  F   UNL A   1      32.402  18.464  21.029  1.00  0.00    -0.185 F 
ATOM     28  F   UNL A   1      33.741  17.427  22.422  1.00  0.00    -0.185 F 
ENDBRANCH  24  26
ENDBRANCH  18  19
ENDBRANCH  13  18
ENDBRANCH   5   6
ENDBRANCH   3   5
ENDBRANCH   2   3
ENDBRANCH   1   2
BRANCH   1  29
ATOM     29  C   UNL A   1      39.987  21.089  26.495  1.00  0.00     0.275 C 
BRANCH  29  30
ATOM     30  O   UNL A   1      40.789  22.278  26.536  1.00  0.00    -0.458 OA
BRANCH  30  31
ATOM     31  C   UNL A   1      41.578  22.456  27.623  1.00  0.00     0.338 C 
ATOM     32  O   UNL A   1      42.513  21.762  27.981  1.00  0.00    -0.246 OA
BRANCH  31  33
ATOM     33  C   UNL A   1      41.281  23.818  28.104  1.00  0.00     0.060 A 
ATOM     34  C   UNL A   1      40.102  24.448  27.705  1.00  0.00     0.016 A 
ATOM     35  C   UNL A   1      42.281  24.532  28.776  1.00  0.00     0.016 A 
ATOM     36  C   UNL A   1      39.981  25.820  27.879  1.00  0.00     0.010 A 
ATOM     37  C   UNL A   1      42.169  25.911  28.919  1.00  0.00     0.010 A 
ATOM     38  C   UNL A   1      41.038  26.562  28.432  1.00  0.00    -0.014 A 
BRANCH  38  39
ATOM     39  C   UNL A   1      40.744  27.931  28.839  1.00  0.00     0.031 A 
ATOM     40  C   UNL A   1      41.697  28.867  28.216  1.00  0.00     0.074 A 
ATOM     41  C   UNL A   1      39.767  28.431  29.617  1.00  0.00     0.049 A 
ATOM     42  N   UNL A   1      42.822  29.250  28.717  1.00  0.00    -0.248 NA
ATOM     43  C   UNL A   1      41.488  29.240  26.811  1.00  0.00     0.031 C 
ATOM     44  C   UNL A   1      38.509  27.811  30.021  1.00  0.00     0.029 A 
ATOM     45  N   UNL A   1      39.694  29.686  30.164  1.00  0.00    -0.354 N 
ATOM     46  C   UNL A   1      43.341  30.134  27.784  1.00  0.00     0.074 A 
ATOM     47  C   UNL A   1      42.631  29.879  26.556  1.00  0.00     0.031 C 
ATOM     48  C   UNL A   1      37.711  28.758  30.577  1.00  0.00     0.029 A 
ATOM     49  C   UNL A   1      38.471  29.992  30.734  1.00  0.00     0.049 A 
ATOM     50  H   UNL A   1      40.450  30.317  30.153  1.00  0.00     0.167 HD
ATOM     51  C   UNL A   1      44.058  31.215  28.193  1.00  0.00     0.034 A 
ATOM     52  C   UNL A   1      38.107  31.178  31.281  1.00  0.00     0.034 A 
ATOM     53  C   UNL A   1      44.377  31.125  29.598  1.00  0.00     0.049 A 
ATOM     54  C   UNL A   1      39.312  31.913  31.728  1.00  0.00     0.074 A 
ATOM     55  C   UNL A   1      45.289  30.472  30.393  1.00  0.00     0.029 A 
ATOM     56  N   UNL A   1      43.373  31.569  30.417  1.00  0.00    -0.354 N 
ATOM     57  N   UNL A   1      40.054  31.549  32.735  1.00  0.00    -0.248 NA
ATOM     58  C   UNL A   1      39.873  32.970  30.890  1.00  0.00     0.031 C 
ATOM     59  C   UNL A   1      44.752  30.471  31.717  1.00  0.00     0.029 A 
ATOM     60  C   UNL A   1      43.528  31.134  31.708  1.00  0.00     0.049 A 
ATOM     61  H   UNL A   1      42.626  32.134  30.114  1.00  0.00     0.167 HD
ATOM     62  C   UNL A   1      41.317  31.973  32.387  1.00  0.00     0.074 A 
ATOM     63  C   UNL A   1      41.113  33.009  31.384  1.00  0.00     0.031 C 
ATOM     64  C   UNL A   1      42.414  31.203  32.637  1.00  0.00     0.034 A 
BRANCH  51  65
ATOM     65  C   UNL A   1      44.050  32.549  27.479  1.00  0.00     0.023 A 
ATOM     66  C   UNL A   1      43.357  33.677  27.954  1.00  0.00     0.031 A 
ATOM     67  C   UNL A   1      44.938  32.783  26.412  1.00  0.00     0.131 A 
ATOM     68  C   UNL A   1      43.520  34.943  27.381  1.00  0.00     0.055 A 
ATOM     69  C   UNL A   1      45.157  34.062  25.883  1.00  0.00     0.041 A 
ATOM     70  F   UNL A   1      45.661  31.784  25.882  1.00  0.00    -0.206 F 
ATOM     71  C   UNL A   1      44.444  35.153  26.366  1.00  0.00     0.022 A 
BRANCH  68  72
ATOM     72  S   UNL A   1      42.530  36.343  27.977  1.00  0.00     0.124 S 
ATOM     73  O   UNL A   1      41.302  35.685  28.406  1.00  0.00    -0.237 OA
ATOM     74  O   UNL A   1      43.378  36.867  29.045  1.00  0.00    -0.237 OA
ATOM     75  O   UNL A   1      42.416  37.205  26.803  1.00  0.00    -0.744 OA
ENDBRANCH  68  72
ENDBRANCH  51  65
BRANCH  52  76
ATOM     76  C   UNL A   1      36.798  31.864  31.218  1.00  0.00     0.023 A 
ATOM     77  C   UNL A   1      36.290  32.263  29.970  1.00  0.00     0.031 A 
ATOM     78  C   UNL A   1      36.225  32.438  32.369  1.00  0.00     0.131 A 
ATOM     79  C   UNL A   1      35.306  33.258  29.896  1.00  0.00     0.055 A 
ATOM     80  C   UNL A   1      35.233  33.420  32.292  1.00  0.00     0.041 A 
ATOM     81  F   UNL A   1      36.678  32.117  33.591  1.00  0.00    -0.206 F 
ATOM     82  C   UNL A   1      34.781  33.849  31.048  1.00  0.00     0.022 A 
BRANCH  79  83
ATOM     83  S   UNL A   1      34.741  33.865  28.283  1.00  0.00     0.124 S 
ATOM     84  O   UNL A   1      34.636  35.304  28.513  1.00  0.00    -0.237 OA
ATOM     85  O   UNL A   1      35.831  33.445  27.411  1.00  0.00    -0.237 OA
ATOM     86  O   UNL A   1      33.466  33.181  28.090  1.00  0.00    -0.744 OA
ENDBRANCH  79  83
ENDBRANCH  52  76
BRANCH  64  87
ATOM     87  C   UNL A   1      42.389  30.276  33.823  1.00  0.00     0.023 A 
ATOM     88  C   UNL A   1      42.921  30.771  35.027  1.00  0.00     0.031 A 
ATOM     89  C   UNL A   1      41.947  28.941  33.811  1.00  0.00     0.131 A 
ATOM     90  C   UNL A   1      43.026  29.949  36.154  1.00  0.00     0.055 A 
ATOM     91  C   UNL A   1      41.985  28.143  34.961  1.00  0.00     0.041 A 
ATOM     92  F   UNL A   1      41.519  28.351  32.685  1.00  0.00    -0.206 F 
ATOM     93  C   UNL A   1      42.539  28.641  36.137  1.00  0.00     0.022 A 
BRANCH  90  94
ATOM     94  S   UNL A   1      43.910  30.525  37.626  1.00  0.00     0.124 S 
ATOM     95  O   UNL A   1      44.843  31.498  37.066  1.00  0.00    -0.237 OA
ATOM     96  O   UNL A   1      42.832  31.086  38.439  1.00  0.00    -0.237 OA
ATOM     97  O   UNL A   1      44.520  29.313  38.166  1.00  0.00    -0.744 OA
ENDBRANCH  90  94
ENDBRANCH  64  87
ENDBRANCH  38  39
ENDBRANCH  31  33
ENDBRANCH  30  31
ENDBRANCH  29  30
ENDBRANCH   1  29
TORSDOF 19
ENDMDL
MODEL 3
REMARK VINA RESULT:     -11.8      2.404      4.121
REMARK SMILES COc1ccc2c(c1)c(CC(=O)OCCOC(=O)c1ccc(-c3c4nc(c(-c5cc(S(=O)(=O)[O-])ccc5F)c5ccc([nH]5)c(-c5cc(S(=O)(=O)[O-])ccc5F)c5nc(c(-c6cc(S(=O)(=O)[O-])ccc6F)c6ccc3[nH]6)C=C5)C=C4)cc1)c(C)n2Cc1ccn(C(F)F)c(=O)c1
REMARK SMILES IDX 14 1 13 2 11 3 12 4 10 5 9 6 3 7 4 8 8 9 5 10 7 11 6 12
REMARK SMILES IDX 84 13 82 14 83 15 2 16 1 17 85 18 86 19 87 20 95 21 88 22
REMARK SMILES IDX 93 23 89 24 94 25 90 26 91 27 92 28 15 29 16 30 17 31 18 32
REMARK SMILES IDX 19 33 20 34 81 35 21 36 80 37 22 38 23 39 24 40 74 41 25 42
REMARK SMILES IDX 79 43 73 44 75 45 26 46 78 47 72 48 71 49 27 51 59 52 39 53
REMARK SMILES IDX 58 54 40 55 43 56 57 57 76 58 41 59 42 60 56 62 77 63 44 64
REMARK SMILES IDX 28 65 29 66 37 67 30 68 36 69 38 70 35 71 31 72 32 73 33 74
REMARK SMILES IDX 34 75 60 76 61 77 69 78 62 79 68 80 70 81 67 82 63 83 64 84
REMARK SMILES IDX 65 85 66 86 45 87 46 88 54 89 47 90 53 91 55 92 52 93 48 94
REMARK SMILES IDX 49 95 50 96 51 97
REMARK H PARENT 75 50 43 61
REMARK Flexibility Score: inf
ROOT
ATOM      1  C   UNL A   1      32.676  31.284  27.268  1.00  0.00     0.274 C 
ENDROOT
BRANCH   1   2
ATOM      2  O   UNL A   1      33.372  30.419  26.344  1.00  0.00    -0.462 OA
BRANCH   2   3
ATOM      3  C   UNL A   1      33.602  29.159  26.788  1.00  0.00     0.310 C 
ATOM      4  O   UNL A   1      34.725  28.706  26.999  1.00  0.00    -0.252 OA
BRANCH   3   5
ATOM      5  C   UNL A   1      32.386  28.289  26.922  1.00  0.00     0.160 C 
BRANCH   5   6
ATOM      6  C   UNL A   1      31.635  27.780  25.727  1.00  0.00    -0.008 A 
ATOM      7  C   UNL A   1      29.656  30.028  23.285  1.00  0.00     0.119 A 
ATOM      8  C   UNL A   1      29.281  29.008  22.423  1.00  0.00     0.048 A 
ATOM      9  C   UNL A   1      30.515  29.745  24.359  1.00  0.00     0.057 A 
ATOM     10  C   UNL A   1      29.703  27.692  22.647  1.00  0.00     0.031 A 
ATOM     11  C   UNL A   1      30.897  28.420  24.670  1.00  0.00     0.007 A 
ATOM     12  C   UNL A   1      30.461  27.410  23.800  1.00  0.00     0.049 A 
ATOM     13  N   UNL A   1      30.926  26.217  24.321  1.00  0.00    -0.340 N 
ATOM     14  C   UNL A   1      31.309  26.432  25.623  1.00  0.00     0.020 A 
ATOM     15  C   UNL A   1      31.377  25.394  26.695  1.00  0.00     0.065 C 
BRANCH   7  16
ATOM     16  O   UNL A   1      29.284  31.341  23.155  1.00  0.00    -0.497 OA
ATOM     17  C   UNL A   1      28.689  31.723  21.918  1.00  0.00     0.278 C 
ENDBRANCH   7  16
BRANCH  13  18
ATOM     18  C   UNL A   1      30.980  24.934  23.620  1.00  0.00     0.158 C 
BRANCH  18  19
ATOM     19  C   UNL A   1      32.346  24.279  23.735  1.00  0.00    -0.021 A 
ATOM     20  C   UNL A   1      33.531  25.102  23.591  1.00  0.00     0.024 A 
ATOM     21  C   UNL A   1      32.509  22.965  23.970  1.00  0.00     0.077 A 
ATOM     22  C   UNL A   1      34.750  24.557  23.551  1.00  0.00     0.095 A 
ATOM     23  C   UNL A   1      33.871  22.352  24.020  1.00  0.00     0.255 A 
ATOM     24  N   UNL A   1      34.927  23.201  23.734  1.00  0.00    -0.258 N 
ATOM     25  O   UNL A   1      33.967  21.161  24.301  1.00  0.00    -0.269 OA
BRANCH  24  26
ATOM     26  C   UNL A   1      36.254  22.645  23.724  1.00  0.00     0.451 C 
ATOM     27  F   UNL A   1      36.738  22.577  22.459  1.00  0.00    -0.185 F 
ATOM     28  F   UNL A   1      37.114  23.392  24.459  1.00  0.00    -0.185 F 
ENDBRANCH  24  26
ENDBRANCH  18  19
ENDBRANCH  13  18
ENDBRANCH   5   6
ENDBRANCH   3   5
ENDBRANCH   2   3
ENDBRANCH   1   2
BRANCH   1  29
ATOM     29  C   UNL A   1      33.602  32.403  27.755  1.00  0.00     0.275 C 
BRANCH  29  30
ATOM     30  O   UNL A   1      34.885  31.835  28.052  1.00  0.00    -0.458 OA
BRANCH  30  31
ATOM     31  C   UNL A   1      35.567  32.357  29.100  1.00  0.00     0.338 C 
ATOM     32  O   UNL A   1      35.225  33.281  29.818  1.00  0.00    -0.246 OA
BRANCH  31  33
ATOM     33  C   UNL A   1      36.643  31.392  29.389  1.00  0.00     0.060 A 
ATOM     34  C   UNL A   1      37.975  31.776  29.230  1.00  0.00     0.016 A 
ATOM     35  C   UNL A   1      36.308  30.050  29.611  1.00  0.00     0.016 A 
ATOM     36  C   UNL A   1      38.956  30.795  29.178  1.00  0.00     0.010 A 
ATOM     37  C   UNL A   1      37.290  29.068  29.527  1.00  0.00     0.010 A 
ATOM     38  C   UNL A   1      38.607  29.437  29.267  1.00  0.00    -0.014 A 
BRANCH  38  39
ATOM     39  C   UNL A   1      39.693  28.488  29.485  1.00  0.00     0.031 A 
ATOM     40  C   UNL A   1      40.036  28.421  30.918  1.00  0.00     0.074 A 
ATOM     41  C   UNL A   1      40.353  27.689  28.628  1.00  0.00     0.049 A 
ATOM     42  N   UNL A   1      40.914  29.146  31.523  1.00  0.00    -0.248 NA
ATOM     43  C   UNL A   1      39.169  27.633  31.804  1.00  0.00     0.031 C 
ATOM     44  C   UNL A   1      39.972  27.274  27.282  1.00  0.00     0.029 A 
ATOM     45  N   UNL A   1      41.526  27.013  28.850  1.00  0.00    -0.354 N 
ATOM     46  C   UNL A   1      40.890  28.707  32.836  1.00  0.00     0.074 A 
ATOM     47  C   UNL A   1      39.647  27.995  32.996  1.00  0.00     0.031 C 
ATOM     48  C   UNL A   1      40.788  26.264  26.885  1.00  0.00     0.029 A 
ATOM     49  C   UNL A   1      41.852  26.095  27.867  1.00  0.00     0.049 A 
ATOM     50  H   UNL A   1      42.089  27.168  29.643  1.00  0.00     0.167 HD
ATOM     51  C   UNL A   1      42.037  28.674  33.566  1.00  0.00     0.034 A 
ATOM     52  C   UNL A   1      42.912  25.249  27.869  1.00  0.00     0.034 A 
ATOM     53  C   UNL A   1      43.105  29.366  32.885  1.00  0.00     0.049 A 
ATOM     54  C   UNL A   1      43.987  25.799  28.726  1.00  0.00     0.074 A 
ATOM     55  C   UNL A   1      43.508  30.666  32.684  1.00  0.00     0.029 A 
ATOM     56  N   UNL A   1      43.756  28.594  31.959  1.00  0.00    -0.354 N 
ATOM     57  N   UNL A   1      44.688  26.856  28.425  1.00  0.00    -0.248 NA
ATOM     58  C   UNL A   1      44.152  25.309  30.092  1.00  0.00     0.031 C 
ATOM     59  C   UNL A   1      44.369  30.655  31.544  1.00  0.00     0.029 A 
ATOM     60  C   UNL A   1      44.486  29.348  31.078  1.00  0.00     0.049 A 
ATOM     61  H   UNL A   1      43.704  27.611  31.930  1.00  0.00     0.167 HD
ATOM     62  C   UNL A   1      44.991  27.411  29.648  1.00  0.00     0.074 A 
ATOM     63  C   UNL A   1      44.839  26.330  30.612  1.00  0.00     0.031 C 
ATOM     64  C   UNL A   1      44.958  28.761  29.836  1.00  0.00     0.034 A 
BRANCH  51  65
ATOM     65  C   UNL A   1      42.332  27.634  34.624  1.00  0.00     0.023 A 
ATOM     66  C   UNL A   1      42.933  26.393  34.345  1.00  0.00     0.031 A 
ATOM     67  C   UNL A   1      42.223  27.964  35.989  1.00  0.00     0.131 A 
ATOM     68  C   UNL A   1      43.367  25.533  35.358  1.00  0.00     0.055 A 
ATOM     69  C   UNL A   1      42.721  27.138  37.005  1.00  0.00     0.041 A 
ATOM     70  F   UNL A   1      41.675  29.126  36.377  1.00  0.00    -0.206 F 
ATOM     71  C   UNL A   1      43.297  25.911  36.693  1.00  0.00     0.022 A 
BRANCH  68  72
ATOM     72  S   UNL A   1      44.052  23.905  34.938  1.00  0.00     0.124 S 
ATOM     73  O   UNL A   1      42.863  23.179  34.508  1.00  0.00    -0.237 OA
ATOM     74  O   UNL A   1      45.002  24.252  33.883  1.00  0.00    -0.237 OA
ATOM     75  O   UNL A   1      44.657  23.456  36.189  1.00  0.00    -0.744 OA
ENDBRANCH  68  72
ENDBRANCH  51  65
BRANCH  52  76
ATOM     76  C   UNL A   1      42.982  23.851  27.392  1.00  0.00     0.023 A 
ATOM     77  C   UNL A   1      44.005  23.479  26.504  1.00  0.00     0.031 A 
ATOM     78  C   UNL A   1      41.875  22.989  27.510  1.00  0.00     0.131 A 
ATOM     79  C   UNL A   1      43.869  22.328  25.716  1.00  0.00     0.055 A 
ATOM     80  C   UNL A   1      41.749  21.833  26.733  1.00  0.00     0.041 A 
ATOM     81  F   UNL A   1      40.853  23.296  28.325  1.00  0.00    -0.206 F 
ATOM     82  C   UNL A   1      42.741  21.508  25.815  1.00  0.00     0.022 A 
BRANCH  79  83
ATOM     83  S   UNL A   1      45.127  21.914  24.477  1.00  0.00     0.124 S 
ATOM     84  O   UNL A   1      44.441  20.921  23.656  1.00  0.00    -0.237 OA
ATOM     85  O   UNL A   1      45.355  23.207  23.843  1.00  0.00    -0.237 OA
ATOM     86  O   UNL A   1      46.232  21.391  25.277  1.00  0.00    -0.744 OA
ENDBRANCH  79  83
ENDBRANCH  52  76
BRANCH  64  87
ATOM     87  C   UNL A   1      45.261  29.660  28.668  1.00  0.00     0.023 A 
ATOM     88  C   UNL A   1      46.616  29.948  28.422  1.00  0.00     0.031 A 
ATOM     89  C   UNL A   1      44.306  30.290  27.849  1.00  0.00     0.131 A 
ATOM     90  C   UNL A   1      46.985  30.849  27.418  1.00  0.00     0.055 A 
ATOM     91  C   UNL A   1      44.682  31.135  26.796  1.00  0.00     0.041 A 
ATOM     92  F   UNL A   1      42.990  30.157  28.071  1.00  0.00    -0.206 F 
ATOM     93  C   UNL A   1      46.026  31.428  26.585  1.00  0.00     0.022 A 
BRANCH  90  94
ATOM     94  S   UNL A   1      48.708  31.379  27.255  1.00  0.00     0.124 S 
ATOM     95  O   UNL A   1      49.086  31.635  28.642  1.00  0.00    -0.237 OA
ATOM     96  O   UNL A   1      49.338  30.214  26.638  1.00  0.00    -0.237 OA
ATOM     97  O   UNL A   1      48.632  32.561  26.400  1.00  0.00    -0.744 OA
ENDBRANCH  90  94
ENDBRANCH  64  87
ENDBRANCH  38  39
ENDBRANCH  31  33
ENDBRANCH  30  31
ENDBRANCH  29  30
ENDBRANCH   1  29
TORSDOF 19
ENDMDL
