MODEL 1
REMARK VINA RESULT:     -12.0      0.000      0.000
REMARK SMILES COc1cc(NC(=O)C2CCN(S(=O)(=O)c3cccs3)CC2)c(Cl)cc1C(=O)OCCOC(=O)c1ccc(-c2c3nc(c(-c4cc(S(=O)(=O)[O-])ccc4F)c4ccc([nH]4)c(-c4cc(S(=O)(=O)[O-])ccc4F)c4nc(c(-c5cc(S(=O)(=O)[O-])ccc5F)c5ccc2[nH]5)C=C4)C=C3)cc1
REMARK SMILES IDX 30 1 29 2 27 3 28 4 26 5 3 6 4 7 5 8 25 9 23 10 24 11 2 12
REMARK SMILES IDX 1 13 6 14 7 15 8 17 9 18 10 19 22 20 11 21 21 22 12 23 13 24
REMARK SMILES IDX 14 25 15 26 16 27 17 28 20 29 18 30 19 31 31 32 32 33 33 34
REMARK SMILES IDX 34 35 35 36 36 37 97 38 37 39 96 40 38 41 39 42 40 43 90 44
REMARK SMILES IDX 41 45 95 46 89 47 91 48 42 49 94 50 88 51 87 52 43 54 75 55
REMARK SMILES IDX 55 56 74 57 56 58 59 59 73 60 92 61 57 62 58 63 72 65 93 66
REMARK SMILES IDX 60 67 44 68 45 69 53 70 46 71 52 72 54 73 51 74 47 75 48 76
REMARK SMILES IDX 49 77 50 78 76 79 77 80 85 81 78 82 84 83 86 84 83 85 79 86
REMARK SMILES IDX 80 87 81 88 82 89 61 90 62 91 70 92 63 93 69 94 71 95 68 96
REMARK SMILES IDX 64 97 65 98 66 99 67 100
REMARK H PARENT 6 16 91 53 59 64
REMARK Flexibility Score: inf
ROOT
ATOM      1  C   UNL A   1      35.279  20.828  25.407  1.00  0.00     0.275 C 
ENDROOT
BRANCH   1   2
ATOM      2  O   UNL A   1      34.360  20.054  24.622  1.00  0.00    -0.458 OA
BRANCH   2   3
ATOM      3  C   UNL A   1      33.042  20.177  24.907  1.00  0.00     0.342 C 
ATOM      4  O   UNL A   1      32.381  19.450  25.631  1.00  0.00    -0.246 OA
BRANCH   3   5
ATOM      5  C   UNL A   1      32.497  21.412  24.301  1.00  0.00     0.103 A 
ATOM      6  C   UNL A   1      31.540  22.180  24.947  1.00  0.00     0.135 A 
ATOM      7  C   UNL A   1      31.123  23.376  24.362  1.00  0.00     0.075 A 
ATOM      8  C   UNL A   1      31.561  23.806  23.107  1.00  0.00     0.063 A 
ATOM      9  C   UNL A   1      32.972  21.830  23.047  1.00  0.00     0.042 A 
ATOM     10  C   UNL A   1      32.461  22.974  22.430  1.00  0.00     0.065 A 
ATOM     11  Cl  UNL A   1      33.011  23.354  20.835  1.00  0.00    -0.082 Cl
BRANCH   6  12
ATOM     12  O   UNL A   1      31.104  21.855  26.205  1.00  0.00    -0.496 OA
ATOM     13  C   UNL A   1      30.476  22.952  26.875  1.00  0.00     0.278 C 
ENDBRANCH   6  12
BRANCH   8  14
ATOM     14  N   UNL A   1      31.210  25.038  22.504  1.00  0.00    -0.324 N 
ATOM     15  C   UNL A   1      31.869  26.218  22.301  1.00  0.00     0.227 C 
ATOM     16  H   UNL A   1      30.289  25.047  22.156  1.00  0.00     0.169 HD
ATOM     17  O   UNL A   1      31.318  27.090  21.626  1.00  0.00    -0.274 OA
BRANCH  15  18
ATOM     18  C   UNL A   1      33.247  26.452  22.893  1.00  0.00     0.081 C 
ATOM     19  C   UNL A   1      33.295  25.908  24.331  1.00  0.00     0.030 C 
ATOM     20  C   UNL A   1      33.703  27.904  22.844  1.00  0.00     0.030 C 
ATOM     21  C   UNL A   1      32.598  26.830  25.318  1.00  0.00     0.103 C 
ATOM     22  C   UNL A   1      33.050  28.775  23.902  1.00  0.00     0.103 C 
ATOM     23  N   UNL A   1      33.231  28.172  25.250  1.00  0.00    -0.197 NA
BRANCH  23  24
ATOM     24  S   UNL A   1      32.708  29.173  26.548  1.00  0.00     0.252 S 
ATOM     25  O   UNL A   1      31.917  30.248  25.981  1.00  0.00    -0.206 OA
ATOM     26  O   UNL A   1      32.188  28.316  27.587  1.00  0.00    -0.206 OA
BRANCH  24  27
ATOM     27  C   UNL A   1      34.159  29.986  27.192  1.00  0.00     0.135 A 
ATOM     28  C   UNL A   1      35.434  29.507  27.435  1.00  0.00     0.033 A 
ATOM     29  S   UNL A   1      34.021  31.633  27.626  1.00  0.00    -0.131 S 
ATOM     30  C   UNL A   1      36.274  30.473  28.049  1.00  0.00     0.013 A 
ATOM     31  C   UNL A   1      35.638  31.687  28.184  1.00  0.00     0.066 A 
ENDBRANCH  24  27
ENDBRANCH  23  24
ENDBRANCH  15  18
ENDBRANCH   8  14
ENDBRANCH   3   5
ENDBRANCH   2   3
ENDBRANCH   1   2
BRANCH   1  32
ATOM     32  C   UNL A   1      36.718  20.509  25.004  1.00  0.00     0.275 C 
BRANCH  32  33
ATOM     33  O   UNL A   1      37.573  21.644  25.235  1.00  0.00    -0.458 OA
BRANCH  33  34
ATOM     34  C   UNL A   1      38.736  21.355  25.865  1.00  0.00     0.338 C 
ATOM     35  O   UNL A   1      39.354  20.303  25.831  1.00  0.00    -0.246 OA
BRANCH  34  36
ATOM     36  C   UNL A   1      39.278  22.563  26.500  1.00  0.00     0.060 A 
ATOM     37  C   UNL A   1      38.693  23.770  26.146  1.00  0.00     0.016 A 
ATOM     38  C   UNL A   1      40.446  22.554  27.253  1.00  0.00     0.016 A 
ATOM     39  C   UNL A   1      39.334  24.973  26.402  1.00  0.00     0.010 A 
ATOM     40  C   UNL A   1      41.016  23.778  27.640  1.00  0.00     0.010 A 
ATOM     41  C   UNL A   1      40.494  25.006  27.180  1.00  0.00    -0.014 A 
BRANCH  41  42
ATOM     42  C   UNL A   1      41.164  26.312  27.472  1.00  0.00     0.031 A 
ATOM     43  C   UNL A   1      42.507  26.630  26.860  1.00  0.00     0.074 A 
ATOM     44  C   UNL A   1      40.566  27.231  28.261  1.00  0.00     0.049 A 
ATOM     45  N   UNL A   1      43.336  27.606  27.136  1.00  0.00    -0.248 NA
ATOM     46  C   UNL A   1      42.990  25.716  25.814  1.00  0.00     0.031 C 
ATOM     47  C   UNL A   1      39.241  27.094  28.873  1.00  0.00     0.029 A 
ATOM     48  N   UNL A   1      40.986  28.472  28.681  1.00  0.00    -0.354 N 
ATOM     49  C   UNL A   1      44.463  27.386  26.347  1.00  0.00     0.074 A 
ATOM     50  C   UNL A   1      44.215  26.172  25.599  1.00  0.00     0.031 C 
ATOM     51  C   UNL A   1      38.937  28.219  29.535  1.00  0.00     0.029 A 
ATOM     52  C   UNL A   1      40.090  29.108  29.511  1.00  0.00     0.049 A 
ATOM     53  H   UNL A   1      41.846  28.868  28.412  1.00  0.00     0.167 HD
ATOM     54  C   UNL A   1      45.596  28.128  26.261  1.00  0.00     0.034 A 
ATOM     55  C   UNL A   1      40.198  30.243  30.231  1.00  0.00     0.034 A 
ATOM     56  C   UNL A   1      45.803  29.362  26.983  1.00  0.00     0.049 A 
ATOM     57  C   UNL A   1      41.491  31.011  30.173  1.00  0.00     0.074 A 
ATOM     58  C   UNL A   1      46.903  30.204  26.954  1.00  0.00     0.029 A 
ATOM     59  N   UNL A   1      44.890  29.940  27.858  1.00  0.00    -0.354 N 
ATOM     60  N   UNL A   1      42.573  30.757  29.475  1.00  0.00    -0.248 NA
ATOM     61  C   UNL A   1      41.580  32.213  31.009  1.00  0.00     0.031 C 
ATOM     62  C   UNL A   1      46.689  31.240  27.870  1.00  0.00     0.029 A 
ATOM     63  C   UNL A   1      45.418  31.103  28.401  1.00  0.00     0.049 A 
ATOM     64  H   UNL A   1      44.000  29.575  28.064  1.00  0.00     0.167 HD
ATOM     65  C   UNL A   1      43.464  31.783  29.773  1.00  0.00     0.074 A 
ATOM     66  C   UNL A   1      42.780  32.672  30.690  1.00  0.00     0.031 C 
ATOM     67  C   UNL A   1      44.732  31.975  29.327  1.00  0.00     0.034 A 
BRANCH  54  68
ATOM     68  C   UNL A   1      46.726  27.588  25.410  1.00  0.00     0.023 A 
ATOM     69  C   UNL A   1      46.990  28.064  24.115  1.00  0.00     0.031 A 
ATOM     70  C   UNL A   1      47.540  26.551  25.905  1.00  0.00     0.131 A 
ATOM     71  C   UNL A   1      47.984  27.453  23.333  1.00  0.00     0.055 A 
ATOM     72  C   UNL A   1      48.586  26.010  25.154  1.00  0.00     0.041 A 
ATOM     73  F   UNL A   1      47.326  26.035  27.125  1.00  0.00    -0.206 F 
ATOM     74  C   UNL A   1      48.802  26.449  23.854  1.00  0.00     0.022 A 
BRANCH  71  75
ATOM     75  S   UNL A   1      48.085  27.879  21.572  1.00  0.00     0.124 S 
ATOM     76  O   UNL A   1      48.279  26.566  20.962  1.00  0.00    -0.237 OA
ATOM     77  O   UNL A   1      46.796  28.515  21.327  1.00  0.00    -0.237 OA
ATOM     78  O   UNL A   1      49.243  28.768  21.500  1.00  0.00    -0.744 OA
ENDBRANCH  71  75
ENDBRANCH  54  68
BRANCH  55  79
ATOM     79  C   UNL A   1      39.086  30.683  31.127  1.00  0.00     0.023 A 
ATOM     80  C   UNL A   1      38.265  31.769  30.785  1.00  0.00     0.031 A 
ATOM     81  C   UNL A   1      38.860  30.054  32.366  1.00  0.00     0.131 A 
ATOM     82  C   UNL A   1      37.287  32.219  31.687  1.00  0.00     0.055 A 
ATOM     83  C   UNL A   1      37.841  30.461  33.229  1.00  0.00     0.041 A 
ATOM     84  F   UNL A   1      39.621  29.018  32.752  1.00  0.00    -0.206 F 
ATOM     85  C   UNL A   1      37.056  31.560  32.897  1.00  0.00     0.022 A 
BRANCH  82  86
ATOM     86  S   UNL A   1      36.387  33.746  31.303  1.00  0.00     0.124 S 
ATOM     87  O   UNL A   1      35.015  33.262  31.205  1.00  0.00    -0.237 OA
ATOM     88  O   UNL A   1      36.693  34.578  32.462  1.00  0.00    -0.237 OA
ATOM     89  O   UNL A   1      36.987  34.187  30.046  1.00  0.00    -0.744 OA
ENDBRANCH  82  86
ENDBRANCH  55  79
BRANCH  67  90
ATOM     90  C   UNL A   1      45.436  33.227  29.796  1.00  0.00     0.023 A 
ATOM     91  C   UNL A   1      45.313  34.448  29.109  1.00  0.00     0.031 A 
ATOM     92  C   UNL A   1      46.277  33.187  30.923  1.00  0.00     0.131 A 
ATOM     93  C   UNL A   1      46.078  35.555  29.507  1.00  0.00     0.055 A 
ATOM     94  C   UNL A   1      46.974  34.312  31.361  1.00  0.00     0.041 A 
ATOM     95  F   UNL A   1      46.438  32.047  31.615  1.00  0.00    -0.206 F 
ATOM     96  C   UNL A   1      46.893  35.500  30.641  1.00  0.00     0.022 A 
BRANCH  93  97
ATOM     97  S   UNL A   1      46.096  37.025  28.446  1.00  0.00     0.124 S 
ATOM     98  O   UNL A   1      45.477  38.028  29.307  1.00  0.00    -0.237 OA
ATOM     99  O   UNL A   1      47.520  37.203  28.182  1.00  0.00    -0.237 OA
ATOM    100  O   UNL A   1      45.297  36.623  27.290  1.00  0.00    -0.744 OA
ENDBRANCH  93  97
ENDBRANCH  67  90
ENDBRANCH  41  42
ENDBRANCH  34  36
ENDBRANCH  33  34
ENDBRANCH  32  33
ENDBRANCH   1  32
TORSDOF 19
ENDMDL
MODEL 2
REMARK VINA RESULT:     -11.9      0.679      7.214
REMARK SMILES COc1cc(NC(=O)C2CCN(S(=O)(=O)c3cccs3)CC2)c(Cl)cc1C(=O)OCCOC(=O)c1ccc(-c2c3nc(c(-c4cc(S(=O)(=O)[O-])ccc4F)c4ccc([nH]4)c(-c4cc(S(=O)(=O)[O-])ccc4F)c4nc(c(-c5cc(S(=O)(=O)[O-])ccc5F)c5ccc2[nH]5)C=C4)C=C3)cc1
REMARK SMILES IDX 30 1 29 2 27 3 28 4 26 5 3 6 4 7 5 8 25 9 23 10 24 11 2 12
REMARK SMILES IDX 1 13 6 14 7 15 8 17 9 18 10 19 22 20 11 21 21 22 12 23 13 24
REMARK SMILES IDX 14 25 15 26 16 27 17 28 20 29 18 30 19 31 31 32 32 33 33 34
REMARK SMILES IDX 34 35 35 36 36 37 97 38 37 39 96 40 38 41 39 42 40 43 90 44
REMARK SMILES IDX 41 45 95 46 89 47 91 48 42 49 94 50 88 51 87 52 43 54 75 55
REMARK SMILES IDX 55 56 74 57 56 58 59 59 73 60 92 61 57 62 58 63 72 65 93 66
REMARK SMILES IDX 60 67 44 68 45 69 53 70 46 71 52 72 54 73 51 74 47 75 48 76
REMARK SMILES IDX 49 77 50 78 76 79 77 80 85 81 78 82 84 83 86 84 83 85 79 86
REMARK SMILES IDX 80 87 81 88 82 89 61 90 62 91 70 92 63 93 69 94 71 95 68 96
REMARK SMILES IDX 64 97 65 98 66 99 67 100
REMARK H PARENT 6 16 91 53 59 64
REMARK Flexibility Score: inf
ROOT
ATOM      1  C   UNL A   1      35.000  21.050  25.457  1.00  0.00     0.275 C 
ENDROOT
BRANCH   1   2
ATOM      2  O   UNL A   1      34.280  20.035  24.741  1.00  0.00    -0.458 OA
BRANCH   2   3
ATOM      3  C   UNL A   1      32.928  20.079  24.791  1.00  0.00     0.342 C 
ATOM      4  O   UNL A   1      32.190  19.268  25.325  1.00  0.00    -0.246 OA
BRANCH   3   5
ATOM      5  C   UNL A   1      32.432  21.338  24.192  1.00  0.00     0.103 A 
ATOM      6  C   UNL A   1      31.447  22.099  24.804  1.00  0.00     0.135 A 
ATOM      7  C   UNL A   1      31.078  23.317  24.233  1.00  0.00     0.075 A 
ATOM      8  C   UNL A   1      31.593  23.779  23.020  1.00  0.00     0.063 A 
ATOM      9  C   UNL A   1      32.984  21.788  22.981  1.00  0.00     0.042 A 
ATOM     10  C   UNL A   1      32.522  22.957  22.371  1.00  0.00     0.065 A 
ATOM     11  Cl  UNL A   1      33.168  23.378  20.823  1.00  0.00    -0.082 Cl
BRANCH   6  12
ATOM     12  O   UNL A   1      30.934  21.741  26.025  1.00  0.00    -0.496 OA
ATOM     13  C   UNL A   1      30.792  22.853  26.914  1.00  0.00     0.278 C 
ENDBRANCH   6  12
BRANCH   8  14
ATOM     14  N   UNL A   1      31.290  25.032  22.435  1.00  0.00    -0.324 N 
ATOM     15  C   UNL A   1      31.941  26.233  22.373  1.00  0.00     0.227 C 
ATOM     16  H   UNL A   1      30.420  25.042  21.974  1.00  0.00     0.169 HD
ATOM     17  O   UNL A   1      31.458  27.126  21.675  1.00  0.00    -0.274 OA
BRANCH  15  18
ATOM     18  C   UNL A   1      33.227  26.462  23.144  1.00  0.00     0.081 C 
ATOM     19  C   UNL A   1      33.046  26.013  24.604  1.00  0.00     0.030 C 
ATOM     20  C   UNL A   1      33.744  27.893  23.073  1.00  0.00     0.030 C 
ATOM     21  C   UNL A   1      32.253  27.021  25.420  1.00  0.00     0.103 C 
ATOM     22  C   UNL A   1      32.982  28.851  23.969  1.00  0.00     0.103 C 
ATOM     23  N   UNL A   1      32.943  28.334  25.363  1.00  0.00    -0.197 NA
BRANCH  23  24
ATOM     24  S   UNL A   1      32.280  29.435  26.507  1.00  0.00     0.252 S 
ATOM     25  O   UNL A   1      31.519  30.426  25.772  1.00  0.00    -0.206 OA
ATOM     26  O   UNL A   1      31.688  28.663  27.575  1.00  0.00    -0.206 OA
BRANCH  24  27
ATOM     27  C   UNL A   1      33.646  30.351  27.197  1.00  0.00     0.135 A 
ATOM     28  C   UNL A   1      33.748  31.678  27.576  1.00  0.00     0.033 A 
ATOM     29  S   UNL A   1      35.120  29.521  27.439  1.00  0.00    -0.131 S 
ATOM     30  C   UNL A   1      35.061  32.029  27.993  1.00  0.00     0.013 A 
ATOM     31  C   UNL A   1      35.901  30.938  27.995  1.00  0.00     0.066 A 
ENDBRANCH  24  27
ENDBRANCH  23  24
ENDBRANCH  15  18
ENDBRANCH   8  14
ENDBRANCH   3   5
ENDBRANCH   2   3
ENDBRANCH   1   2
BRANCH   1  32
ATOM     32  C   UNL A   1      36.356  21.301  24.798  1.00  0.00     0.275 C 
BRANCH  32  33
ATOM     33  O   UNL A   1      37.118  22.258  25.555  1.00  0.00    -0.458 OA
BRANCH  33  34
ATOM     34  C   UNL A   1      38.355  21.839  25.912  1.00  0.00     0.338 C 
ATOM     35  O   UNL A   1      38.894  20.786  25.613  1.00  0.00    -0.246 OA
BRANCH  34  36
ATOM     36  C   UNL A   1      39.071  22.918  26.607  1.00  0.00     0.060 A 
ATOM     37  C   UNL A   1      38.697  24.216  26.295  1.00  0.00     0.016 A 
ATOM     38  C   UNL A   1      40.204  22.689  27.378  1.00  0.00     0.016 A 
ATOM     39  C   UNL A   1      39.519  25.288  26.612  1.00  0.00     0.010 A 
ATOM     40  C   UNL A   1      40.955  23.787  27.826  1.00  0.00     0.010 A 
ATOM     41  C   UNL A   1      40.650  25.101  27.410  1.00  0.00    -0.014 A 
BRANCH  41  42
ATOM     42  C   UNL A   1      41.516  26.268  27.768  1.00  0.00     0.031 A 
ATOM     43  C   UNL A   1      41.016  27.319  28.730  1.00  0.00     0.074 A 
ATOM     44  C   UNL A   1      42.762  26.382  27.258  1.00  0.00     0.049 A 
ATOM     45  N   UNL A   1      41.522  28.492  29.016  1.00  0.00    -0.248 NA
ATOM     46  C   UNL A   1      39.768  27.016  29.449  1.00  0.00     0.031 C 
ATOM     47  C   UNL A   1      43.409  25.415  26.367  1.00  0.00     0.029 A 
ATOM     48  N   UNL A   1      43.720  27.357  27.423  1.00  0.00    -0.354 N 
ATOM     49  C   UNL A   1      40.623  29.093  29.894  1.00  0.00     0.074 A 
ATOM     50  C   UNL A   1      39.532  28.160  30.075  1.00  0.00     0.031 C 
ATOM     51  C   UNL A   1      44.663  25.812  26.112  1.00  0.00     0.029 A 
ATOM     52  C   UNL A   1      44.874  27.124  26.708  1.00  0.00     0.049 A 
ATOM     53  H   UNL A   1      43.592  28.145  27.997  1.00  0.00     0.167 HD
ATOM     54  C   UNL A   1      40.704  30.310  30.490  1.00  0.00     0.034 A 
ATOM     55  C   UNL A   1      45.957  27.898  26.495  1.00  0.00     0.034 A 
ATOM     56  C   UNL A   1      41.825  31.208  30.331  1.00  0.00     0.049 A 
ATOM     57  C   UNL A   1      45.991  29.272  27.108  1.00  0.00     0.074 A 
ATOM     58  C   UNL A   1      42.020  32.454  30.904  1.00  0.00     0.029 A 
ATOM     59  N   UNL A   1      42.948  30.955  29.551  1.00  0.00    -0.354 N 
ATOM     60  N   UNL A   1      45.105  29.855  27.882  1.00  0.00    -0.248 NA
ATOM     61  C   UNL A   1      47.167  30.097  26.808  1.00  0.00     0.031 C 
ATOM     62  C   UNL A   1      43.214  32.986  30.406  1.00  0.00     0.029 A 
ATOM     63  C   UNL A   1      43.817  32.036  29.598  1.00  0.00     0.049 A 
ATOM     64  H   UNL A   1      43.103  30.129  29.039  1.00  0.00     0.167 HD
ATOM     65  C   UNL A   1      45.631  31.107  28.180  1.00  0.00     0.074 A 
ATOM     66  C   UNL A   1      46.921  31.182  27.526  1.00  0.00     0.031 C 
ATOM     67  C   UNL A   1      45.096  32.106  28.929  1.00  0.00     0.034 A 
BRANCH  54  68
ATOM     68  C   UNL A   1      39.517  30.772  31.308  1.00  0.00     0.023 A 
ATOM     69  C   UNL A   1      38.613  31.743  30.845  1.00  0.00     0.031 A 
ATOM     70  C   UNL A   1      39.306  30.243  32.596  1.00  0.00     0.131 A 
ATOM     71  C   UNL A   1      37.591  32.208  31.689  1.00  0.00     0.055 A 
ATOM     72  C   UNL A   1      38.234  30.645  33.395  1.00  0.00     0.041 A 
ATOM     73  F   UNL A   1      40.147  29.330  33.108  1.00  0.00    -0.206 F 
ATOM     74  C   UNL A   1      37.378  31.646  32.950  1.00  0.00     0.022 A 
BRANCH  71  75
ATOM     75  S   UNL A   1      36.645  33.671  31.180  1.00  0.00     0.124 S 
ATOM     76  O   UNL A   1      37.241  33.970  29.881  1.00  0.00    -0.237 OA
ATOM     77  O   UNL A   1      35.277  33.168  31.156  1.00  0.00    -0.237 OA
ATOM     78  O   UNL A   1      36.933  34.647  32.229  1.00  0.00    -0.744 OA
ENDBRANCH  71  75
ENDBRANCH  54  68
BRANCH  55  79
ATOM     79  C   UNL A   1      47.060  27.431  25.602  1.00  0.00     0.023 A 
ATOM     80  C   UNL A   1      47.169  27.890  24.280  1.00  0.00     0.031 A 
ATOM     81  C   UNL A   1      47.997  26.476  26.043  1.00  0.00     0.131 A 
ATOM     82  C   UNL A   1      48.160  27.365  23.435  1.00  0.00     0.055 A 
ATOM     83  C   UNL A   1      49.024  26.010  25.221  1.00  0.00     0.041 A 
ATOM     84  F   UNL A   1      47.937  25.992  27.294  1.00  0.00    -0.206 F 
ATOM     85  C   UNL A   1      49.101  26.444  23.902  1.00  0.00     0.022 A 
BRANCH  82  86
ATOM     86  S   UNL A   1      48.140  27.826  21.681  1.00  0.00     0.124 S 
ATOM     87  O   UNL A   1      48.321  26.531  21.034  1.00  0.00    -0.237 OA
ATOM     88  O   UNL A   1      46.822  28.434  21.542  1.00  0.00    -0.237 OA
ATOM     89  O   UNL A   1      49.267  28.749  21.560  1.00  0.00    -0.744 OA
ENDBRANCH  82  86
ENDBRANCH  55  79
BRANCH  67  90
ATOM     90  C   UNL A   1      45.941  33.345  29.115  1.00  0.00     0.023 A 
ATOM     91  C   UNL A   1      45.856  34.439  28.235  1.00  0.00     0.031 A 
ATOM     92  C   UNL A   1      46.876  33.413  30.163  1.00  0.00     0.131 A 
ATOM     93  C   UNL A   1      46.743  35.517  28.373  1.00  0.00     0.055 A 
ATOM     94  C   UNL A   1      47.702  34.522  30.341  1.00  0.00     0.041 A 
ATOM     95  F   UNL A   1      47.007  32.395  31.029  1.00  0.00    -0.206 F 
ATOM     96  C   UNL A   1      47.653  35.575  29.432  1.00  0.00     0.022 A 
BRANCH  93  97
ATOM     97  S   UNL A   1      46.784  36.780  27.072  1.00  0.00     0.124 S 
ATOM     98  O   UNL A   1      47.707  37.762  27.631  1.00  0.00    -0.237 OA
ATOM     99  O   UNL A   1      47.272  36.027  25.921  1.00  0.00    -0.237 OA
ATOM    100  O   UNL A   1      45.393  37.221  26.978  1.00  0.00    -0.744 OA
ENDBRANCH  93  97
ENDBRANCH  67  90
ENDBRANCH  41  42
ENDBRANCH  34  36
ENDBRANCH  33  34
ENDBRANCH  32  33
ENDBRANCH   1  32
TORSDOF 19
ENDMDL
MODEL 3
REMARK VINA RESULT:     -11.8      2.013      7.519
REMARK SMILES COc1cc(NC(=O)C2CCN(S(=O)(=O)c3cccs3)CC2)c(Cl)cc1C(=O)OCCOC(=O)c1ccc(-c2c3nc(c(-c4cc(S(=O)(=O)[O-])ccc4F)c4ccc([nH]4)c(-c4cc(S(=O)(=O)[O-])ccc4F)c4nc(c(-c5cc(S(=O)(=O)[O-])ccc5F)c5ccc2[nH]5)C=C4)C=C3)cc1
REMARK SMILES IDX 30 1 29 2 27 3 28 4 26 5 3 6 4 7 5 8 25 9 23 10 24 11 2 12
REMARK SMILES IDX 1 13 6 14 7 15 8 17 9 18 10 19 22 20 11 21 21 22 12 23 13 24
REMARK SMILES IDX 14 25 15 26 16 27 17 28 20 29 18 30 19 31 31 32 32 33 33 34
REMARK SMILES IDX 34 35 35 36 36 37 97 38 37 39 96 40 38 41 39 42 40 43 90 44
REMARK SMILES IDX 41 45 95 46 89 47 91 48 42 49 94 50 88 51 87 52 43 54 75 55
REMARK SMILES IDX 55 56 74 57 56 58 59 59 73 60 92 61 57 62 58 63 72 65 93 66
REMARK SMILES IDX 60 67 44 68 45 69 53 70 46 71 52 72 54 73 51 74 47 75 48 76
REMARK SMILES IDX 49 77 50 78 76 79 77 80 85 81 78 82 84 83 86 84 83 85 79 86
REMARK SMILES IDX 80 87 81 88 82 89 61 90 62 91 70 92 63 93 69 94 71 95 68 96
REMARK SMILES IDX 64 97 65 98 66 99 67 100
REMARK H PARENT 6 16 91 53 59 64
REMARK Flexibility Score: inf
ROOT
ATOM      1  C   UNL A   1      35.987  20.610  25.388  1.00  0.00     0.275 C 
ENDROOT
BRANCH   1   2
ATOM      2  O   UNL A   1      34.648  21.102  25.552  1.00  0.00    -0.458 OA
BRANCH   2   3
ATOM      3  C   UNL A   1      33.720  20.687  24.658  1.00  0.00     0.342 C 
ATOM      4  O   UNL A   1      33.440  19.532  24.379  1.00  0.00    -0.246 OA
BRANCH   3   5
ATOM      5  C   UNL A   1      32.973  21.844  24.117  1.00  0.00     0.103 A 
ATOM      6  C   UNL A   1      31.863  22.363  24.765  1.00  0.00     0.135 A 
ATOM      7  C   UNL A   1      31.249  23.505  24.249  1.00  0.00     0.075 A 
ATOM      8  C   UNL A   1      31.645  24.111  23.055  1.00  0.00     0.063 A 
ATOM      9  C   UNL A   1      33.407  22.446  22.924  1.00  0.00     0.042 A 
ATOM     10  C   UNL A   1      32.712  23.521  22.368  1.00  0.00     0.065 A 
ATOM     11  Cl  UNL A   1      33.240  24.128  20.837  1.00  0.00    -0.082 Cl
BRANCH   6  12
ATOM     12  O   UNL A   1      31.449  21.859  25.971  1.00  0.00    -0.496 OA
ATOM     13  C   UNL A   1      30.571  22.746  26.671  1.00  0.00     0.278 C 
ENDBRANCH   6  12
BRANCH   8  14
ATOM     14  N   UNL A   1      31.088  25.301  22.527  1.00  0.00    -0.324 N 
ATOM     15  C   UNL A   1      31.562  26.570  22.341  1.00  0.00     0.227 C 
ATOM     16  H   UNL A   1      30.156  25.192  22.230  1.00  0.00     0.169 HD
ATOM     17  O   UNL A   1      30.854  27.378  21.736  1.00  0.00    -0.274 OA
BRANCH  15  18
ATOM     18  C   UNL A   1      32.926  26.977  22.866  1.00  0.00     0.081 C 
ATOM     19  C   UNL A   1      33.088  26.498  24.319  1.00  0.00     0.030 C 
ATOM     20  C   UNL A   1      33.216  28.467  22.747  1.00  0.00     0.030 C 
ATOM     21  C   UNL A   1      32.330  27.377  25.301  1.00  0.00     0.103 C 
ATOM     22  C   UNL A   1      32.510  29.302  23.800  1.00  0.00     0.103 C 
ATOM     23  N   UNL A   1      32.807  28.777  25.159  1.00  0.00    -0.197 NA
BRANCH  23  24
ATOM     24  S   UNL A   1      32.225  29.765  26.442  1.00  0.00     0.252 S 
ATOM     25  O   UNL A   1      31.530  30.890  25.847  1.00  0.00    -0.206 OA
ATOM     26  O   UNL A   1      31.587  28.905  27.410  1.00  0.00    -0.206 OA
BRANCH  24  27
ATOM     27  C   UNL A   1      33.653  30.494  27.224  1.00  0.00     0.135 A 
ATOM     28  C   UNL A   1      33.862  31.767  27.722  1.00  0.00     0.033 A 
ATOM     29  S   UNL A   1      35.045  29.520  27.403  1.00  0.00    -0.131 S 
ATOM     30  C   UNL A   1      35.192  31.964  28.182  1.00  0.00     0.013 A 
ATOM     31  C   UNL A   1      35.936  30.808  28.092  1.00  0.00     0.066 A 
ENDBRANCH  24  27
ENDBRANCH  23  24
ENDBRANCH  15  18
ENDBRANCH   8  14
ENDBRANCH   3   5
ENDBRANCH   2   3
ENDBRANCH   1   2
BRANCH   1  32
ATOM     32  C   UNL A   1      36.860  21.668  24.714  1.00  0.00     0.275 C 
BRANCH  32  33
ATOM     33  O   UNL A   1      37.470  22.524  25.697  1.00  0.00    -0.458 OA
BRANCH  33  34
ATOM     34  C   UNL A   1      38.681  22.107  26.135  1.00  0.00     0.338 C 
ATOM     35  O   UNL A   1      39.212  21.028  25.926  1.00  0.00    -0.246 OA
BRANCH  34  36
ATOM     36  C   UNL A   1      39.389  23.215  26.791  1.00  0.00     0.060 A 
ATOM     37  C   UNL A   1      39.107  24.493  26.332  1.00  0.00     0.016 A 
ATOM     38  C   UNL A   1      40.441  23.013  27.676  1.00  0.00     0.016 A 
ATOM     39  C   UNL A   1      39.951  25.555  26.623  1.00  0.00     0.010 A 
ATOM     40  C   UNL A   1      41.205  24.116  28.088  1.00  0.00     0.010 A 
ATOM     41  C   UNL A   1      41.001  25.397  27.531  1.00  0.00    -0.014 A 
BRANCH  41  42
ATOM     42  C   UNL A   1      41.890  26.555  27.858  1.00  0.00     0.031 A 
ATOM     43  C   UNL A   1      41.386  27.676  28.735  1.00  0.00     0.074 A 
ATOM     44  C   UNL A   1      43.160  26.599  27.399  1.00  0.00     0.049 A 
ATOM     45  N   UNL A   1      41.919  28.849  28.974  1.00  0.00    -0.248 NA
ATOM     46  C   UNL A   1      40.100  27.457  29.413  1.00  0.00     0.031 C 
ATOM     47  C   UNL A   1      43.811  25.560  26.594  1.00  0.00     0.029 A 
ATOM     48  N   UNL A   1      44.142  27.551  27.548  1.00  0.00    -0.354 N 
ATOM     49  C   UNL A   1      41.005  29.529  29.775  1.00  0.00     0.074 A 
ATOM     50  C   UNL A   1      39.876  28.643  29.961  1.00  0.00     0.031 C 
ATOM     51  C   UNL A   1      45.087  25.902  26.372  1.00  0.00     0.029 A 
ATOM     52  C   UNL A   1      45.317  27.240  26.900  1.00  0.00     0.049 A 
ATOM     53  H   UNL A   1      44.017  28.376  28.069  1.00  0.00     0.167 HD
ATOM     54  C   UNL A   1      41.102  30.776  30.301  1.00  0.00     0.034 A 
ATOM     55  C   UNL A   1      46.434  27.965  26.690  1.00  0.00     0.034 A 
ATOM     56  C   UNL A   1      42.259  31.627  30.140  1.00  0.00     0.049 A 
ATOM     57  C   UNL A   1      46.489  29.372  27.222  1.00  0.00     0.074 A 
ATOM     58  C   UNL A   1      42.471  32.899  30.647  1.00  0.00     0.029 A 
ATOM     59  N   UNL A   1      43.404  31.293  29.426  1.00  0.00    -0.354 N 
ATOM     60  N   UNL A   1      45.591  30.027  27.921  1.00  0.00    -0.248 NA
ATOM     61  C   UNL A   1      47.704  30.140  26.928  1.00  0.00     0.031 C 
ATOM     62  C   UNL A   1      43.703  33.362  30.172  1.00  0.00     0.029 A 
ATOM     63  C   UNL A   1      44.306  32.346  29.449  1.00  0.00     0.049 A 
ATOM     64  H   UNL A   1      43.552  30.433  28.971  1.00  0.00     0.167 HD
ATOM     65  C   UNL A   1      46.146  31.278  28.169  1.00  0.00     0.074 A 
ATOM     66  C   UNL A   1      47.465  31.273  27.569  1.00  0.00     0.031 C 
ATOM     67  C   UNL A   1      45.614  32.336  28.834  1.00  0.00     0.034 A 
BRANCH  54  68
ATOM     68  C   UNL A   1      39.898  31.323  31.038  1.00  0.00     0.023 A 
ATOM     69  C   UNL A   1      39.799  31.307  32.440  1.00  0.00     0.031 A 
ATOM     70  C   UNL A   1      38.812  31.849  30.311  1.00  0.00     0.131 A 
ATOM     71  C   UNL A   1      38.614  31.731  33.064  1.00  0.00     0.055 A 
ATOM     72  C   UNL A   1      37.673  32.353  30.944  1.00  0.00     0.041 A 
ATOM     73  F   UNL A   1      38.832  31.871  28.969  1.00  0.00    -0.206 F 
ATOM     74  C   UNL A   1      37.562  32.280  32.327  1.00  0.00     0.022 A 
BRANCH  71  75
ATOM     75  S   UNL A   1      38.404  31.406  34.836  1.00  0.00     0.124 S 
ATOM     76  O   UNL A   1      39.613  32.008  35.392  1.00  0.00    -0.237 OA
ATOM     77  O   UNL A   1      37.153  32.092  35.136  1.00  0.00    -0.237 OA
ATOM     78  O   UNL A   1      38.350  29.948  34.913  1.00  0.00    -0.744 OA
ENDBRANCH  71  75
ENDBRANCH  54  68
BRANCH  55  79
ATOM     79  C   UNL A   1      47.557  27.411  25.876  1.00  0.00     0.023 A 
ATOM     80  C   UNL A   1      48.651  26.776  26.485  1.00  0.00     0.031 A 
ATOM     81  C   UNL A   1      47.580  27.554  24.475  1.00  0.00     0.131 A 
ATOM     82  C   UNL A   1      49.737  26.347  25.704  1.00  0.00     0.055 A 
ATOM     83  C   UNL A   1      48.628  27.063  23.696  1.00  0.00     0.041 A 
ATOM     84  F   UNL A   1      46.567  28.162  23.837  1.00  0.00    -0.206 F 
ATOM     85  C   UNL A   1      49.723  26.467  24.313  1.00  0.00     0.022 A 
BRANCH  82  86
ATOM     86  S   UNL A   1      51.217  25.720  26.543  1.00  0.00     0.124 S 
ATOM     87  O   UNL A   1      50.657  24.665  27.380  1.00  0.00    -0.237 OA
ATOM     88  O   UNL A   1      52.038  25.280  25.421  1.00  0.00    -0.237 OA
ATOM     89  O   UNL A   1      51.720  26.887  27.263  1.00  0.00    -0.744 OA
ENDBRANCH  82  86
ENDBRANCH  55  79
BRANCH  67  90
ATOM     90  C   UNL A   1      46.492  33.557  28.984  1.00  0.00     0.023 A 
ATOM     91  C   UNL A   1      46.478  34.601  28.042  1.00  0.00     0.031 A 
ATOM     92  C   UNL A   1      47.388  33.655  30.064  1.00  0.00     0.131 A 
ATOM     93  C   UNL A   1      47.395  35.657  28.155  1.00  0.00     0.055 A 
ATOM     94  C   UNL A   1      48.243  34.747  30.213  1.00  0.00     0.041 A 
ATOM     95  F   UNL A   1      47.451  32.685  30.991  1.00  0.00    -0.206 F 
ATOM     96  C   UNL A   1      48.264  35.747  29.245  1.00  0.00     0.022 A 
BRANCH  93  97
ATOM     97  S   UNL A   1      47.528  36.841  26.788  1.00  0.00     0.124 S 
ATOM     98  O   UNL A   1      48.144  37.991  27.442  1.00  0.00    -0.237 OA
ATOM     99  O   UNL A   1      48.367  36.124  25.834  1.00  0.00    -0.237 OA
ATOM    100  O   UNL A   1      46.142  37.037  26.368  1.00  0.00    -0.744 OA
ENDBRANCH  93  97
ENDBRANCH  67  90
ENDBRANCH  41  42
ENDBRANCH  34  36
ENDBRANCH  33  34
ENDBRANCH  32  33
ENDBRANCH   1  32
TORSDOF 19
ENDMDL
