MODEL 1
REMARK VINA RESULT:     -11.8      0.000      0.000
REMARK SMILES C[C@@H]1[NH2+]CC[C@H]1C(=O)N[C@@H]1CCC[C@H](C(=O)OCCOC(=O)c2ccc(-c3c4nc(c(-c5cc(S(=O)(=O)[O-])ccc5F)c5ccc([nH]5)c(-c5cc(S(=O)(=O)[O-])ccc5F)c5nc(c(-c6cc(S(=O)(=O)[O-])ccc6F)c6ccc3[nH]6)C=C5)C=C4)cc2)C1
REMARK SMILES IDX 19 1 18 2 17 3 15 4 16 5 14 6 10 7 11 8 86 9 12 10 13 11
REMARK SMILES IDX 9 12 7 13 8 14 6 16 1 17 2 18 3 19 4 20 5 23 20 24 21 25
REMARK SMILES IDX 22 26 23 27 24 28 85 29 25 30 84 31 26 32 27 33 28 34 78 35
REMARK SMILES IDX 29 36 83 37 77 38 79 39 30 40 82 41 76 42 75 43 31 45 63 46
REMARK SMILES IDX 43 47 62 48 44 49 47 50 61 51 80 52 45 53 46 54 60 56 81 57
REMARK SMILES IDX 48 58 32 59 33 60 41 61 34 62 40 63 42 64 39 65 35 66 36 67
REMARK SMILES IDX 37 68 38 69 64 70 65 71 73 72 66 73 72 74 74 75 71 76 67 77
REMARK SMILES IDX 68 78 69 79 70 80 49 81 50 82 58 83 51 84 57 85 59 86 56 87
REMARK SMILES IDX 52 88 53 89 54 90 55 91
REMARK H PARENT 9 15 3 21 3 22 79 44 47 55
REMARK Flexibility Score: inf
ROOT
ATOM      1  C   UNL A   1      32.439  30.500  26.079  1.00  0.00     0.275 C 
ENDROOT
BRANCH   1   2
ATOM      2  C   UNL A   1      33.118  29.269  25.463  1.00  0.00     0.274 C 
BRANCH   2   3
ATOM      3  O   UNL A   1      33.204  28.148  26.367  1.00  0.00    -0.462 OA
BRANCH   3   4
ATOM      4  C   UNL A   1      32.030  27.499  26.544  1.00  0.00     0.309 C 
ATOM      5  O   UNL A   1      31.427  27.454  27.614  1.00  0.00    -0.252 OA
BRANCH   4   6
ATOM      6  C   UNL A   1      31.559  26.686  25.354  1.00  0.00     0.101 C 
ATOM      7  C   UNL A   1      29.648  26.847  23.667  1.00  0.00     0.082 C 
ATOM      8  C   UNL A   1      29.592  25.303  23.667  1.00  0.00     0.025 C 
ATOM      9  C   UNL A   1      30.239  27.315  24.972  1.00  0.00     0.040 C 
ATOM     10  C   UNL A   1      30.888  24.626  24.146  1.00  0.00     0.003 C 
ATOM     11  C   UNL A   1      31.395  25.183  25.484  1.00  0.00     0.015 C 
BRANCH   7  12
ATOM     12  N   UNL A   1      28.298  27.407  23.473  1.00  0.00    -0.353 N 
ATOM     13  C   UNL A   1      27.760  28.636  23.256  1.00  0.00     0.229 C 
ATOM     14  O   UNL A   1      26.525  28.641  23.127  1.00  0.00    -0.275 OA
ATOM     15  H   UNL A   1      27.606  26.708  23.512  1.00  0.00     0.163 HD
BRANCH  13  16
ATOM     16  C   UNL A   1      28.497  29.978  23.198  1.00  0.00     0.142 C 
ATOM     17  C   UNL A   1      30.746  29.693  22.003  1.00  0.00     0.076 C 
ATOM     18  C   UNL A   1      29.326  30.242  21.941  1.00  0.00     0.192 C 
ATOM     19  N   UNL A   1      29.383  31.703  21.810  1.00  0.00    -0.343 N 
ATOM     20  C   UNL A   1      28.199  32.272  22.457  1.00  0.00     0.261 C 
ATOM     21  H   UNL A   1      29.394  31.960  20.823  1.00  0.00     0.346 HD
ATOM     22  H   UNL A   1      30.230  32.062  22.252  1.00  0.00     0.346 HD
ATOM     23  C   UNL A   1      27.652  31.225  23.416  1.00  0.00     0.081 C 
ENDBRANCH  13  16
ENDBRANCH   7  12
ENDBRANCH   4   6
ENDBRANCH   3   4
ENDBRANCH   2   3
ENDBRANCH   1   2
BRANCH   1  24
ATOM     24  O   UNL A   1      32.817  30.741  27.448  1.00  0.00    -0.458 OA
BRANCH  24  25
ATOM     25  C   UNL A   1      33.631  31.810  27.628  1.00  0.00     0.338 C 
ATOM     26  O   UNL A   1      33.306  32.985  27.606  1.00  0.00    -0.246 OA
BRANCH  25  27
ATOM     27  C   UNL A   1      34.985  31.374  28.008  1.00  0.00     0.060 A 
ATOM     28  C   UNL A   1      35.148  30.058  28.447  1.00  0.00     0.016 A 
ATOM     29  C   UNL A   1      36.043  32.277  28.079  1.00  0.00     0.016 A 
ATOM     30  C   UNL A   1      36.356  29.635  28.985  1.00  0.00     0.010 A 
ATOM     31  C   UNL A   1      37.262  31.854  28.622  1.00  0.00     0.010 A 
ATOM     32  C   UNL A   1      37.414  30.539  29.100  1.00  0.00    -0.014 A 
BRANCH  32  33
ATOM     33  C   UNL A   1      38.633  30.127  29.832  1.00  0.00     0.031 A 
ATOM     34  C   UNL A   1      39.557  29.123  29.206  1.00  0.00     0.074 A 
ATOM     35  C   UNL A   1      38.936  30.691  31.015  1.00  0.00     0.049 A 
ATOM     36  N   UNL A   1      40.607  28.532  29.710  1.00  0.00    -0.248 NA
ATOM     37  C   UNL A   1      39.250  28.736  27.821  1.00  0.00     0.031 C 
ATOM     38  C   UNL A   1      38.157  31.743  31.670  1.00  0.00     0.029 A 
ATOM     39  N   UNL A   1      39.976  30.457  31.874  1.00  0.00    -0.354 N 
ATOM     40  C   UNL A   1      41.078  27.684  28.714  1.00  0.00     0.074 A 
ATOM     41  C   UNL A   1      40.183  27.827  27.584  1.00  0.00     0.031 C 
ATOM     42  C   UNL A   1      38.740  32.052  32.840  1.00  0.00     0.029 A 
ATOM     43  C   UNL A   1      39.896  31.181  33.040  1.00  0.00     0.049 A 
ATOM     44  H   UNL A   1      40.710  29.831  31.677  1.00  0.00     0.167 HD
ATOM     45  C   UNL A   1      42.158  26.863  28.744  1.00  0.00     0.034 A 
ATOM     46  C   UNL A   1      40.642  31.114  34.160  1.00  0.00     0.034 A 
ATOM     47  C   UNL A   1      43.026  26.733  29.890  1.00  0.00     0.049 A 
ATOM     48  C   UNL A   1      41.780  30.129  34.211  1.00  0.00     0.074 A 
ATOM     49  C   UNL A   1      44.125  25.908  30.055  1.00  0.00     0.029 A 
ATOM     50  N   UNL A   1      42.888  27.450  31.073  1.00  0.00    -0.354 N 
ATOM     51  N   UNL A   1      42.180  29.280  33.292  1.00  0.00    -0.248 NA
ATOM     52  C   UNL A   1      42.565  30.088  35.451  1.00  0.00     0.031 C 
ATOM     53  C   UNL A   1      44.616  26.086  31.355  1.00  0.00     0.029 A 
ATOM     54  C   UNL A   1      43.866  27.070  31.979  1.00  0.00     0.049 A 
ATOM     55  H   UNL A   1      42.195  28.128  31.243  1.00  0.00     0.167 HD
ATOM     56  C   UNL A   1      43.271  28.612  33.839  1.00  0.00     0.074 A 
ATOM     57  C   UNL A   1      43.477  29.171  35.162  1.00  0.00     0.031 C 
ATOM     58  C   UNL A   1      44.036  27.628  33.302  1.00  0.00     0.034 A 
BRANCH  45  59
ATOM     59  C   UNL A   1      42.394  26.001  27.529  1.00  0.00     0.023 A 
ATOM     60  C   UNL A   1      41.879  24.695  27.435  1.00  0.00     0.031 A 
ATOM     61  C   UNL A   1      43.209  26.465  26.481  1.00  0.00     0.131 A 
ATOM     62  C   UNL A   1      42.250  23.873  26.359  1.00  0.00     0.055 A 
ATOM     63  C   UNL A   1      43.510  25.667  25.374  1.00  0.00     0.041 A 
ATOM     64  F   UNL A   1      43.750  27.692  26.527  1.00  0.00    -0.206 F 
ATOM     65  C   UNL A   1      43.043  24.357  25.317  1.00  0.00     0.022 A 
BRANCH  62  66
ATOM     66  S   UNL A   1      41.812  22.112  26.422  1.00  0.00     0.124 S 
ATOM     67  O   UNL A   1      40.379  22.154  26.141  1.00  0.00    -0.237 OA
ATOM     68  O   UNL A   1      42.653  21.541  25.376  1.00  0.00    -0.237 OA
ATOM     69  O   UNL A   1      42.160  21.721  27.787  1.00  0.00    -0.744 OA
ENDBRANCH  62  66
ENDBRANCH  45  59
BRANCH  46  70
ATOM     70  C   UNL A   1      40.284  31.940  35.345  1.00  0.00     0.023 A 
ATOM     71  C   UNL A   1      39.291  31.534  36.248  1.00  0.00     0.031 A 
ATOM     72  C   UNL A   1      40.926  33.171  35.576  1.00  0.00     0.131 A 
ATOM     73  C   UNL A   1      38.948  32.365  37.327  1.00  0.00     0.055 A 
ATOM     74  C   UNL A   1      40.614  33.972  36.675  1.00  0.00     0.041 A 
ATOM     75  F   UNL A   1      41.885  33.604  34.742  1.00  0.00    -0.206 F 
ATOM     76  C   UNL A   1      39.612  33.573  37.554  1.00  0.00     0.022 A 
BRANCH  73  77
ATOM     77  S   UNL A   1      37.576  31.869  38.406  1.00  0.00     0.124 S 
ATOM     78  O   UNL A   1      36.572  32.879  38.094  1.00  0.00    -0.237 OA
ATOM     79  O   UNL A   1      37.295  30.517  37.934  1.00  0.00    -0.237 OA
ATOM     80  O   UNL A   1      38.151  31.951  39.747  1.00  0.00    -0.744 OA
ENDBRANCH  73  77
ENDBRANCH  46  70
BRANCH  58  81
ATOM     81  C   UNL A   1      45.180  27.124  34.144  1.00  0.00     0.023 A 
ATOM     82  C   UNL A   1      45.034  26.018  34.999  1.00  0.00     0.031 A 
ATOM     83  C   UNL A   1      46.426  27.774  34.102  1.00  0.00     0.131 A 
ATOM     84  C   UNL A   1      46.104  25.625  35.816  1.00  0.00     0.055 A 
ATOM     85  C   UNL A   1      47.502  27.346  34.880  1.00  0.00     0.041 A 
ATOM     86  F   UNL A   1      46.615  28.836  33.302  1.00  0.00    -0.206 F 
ATOM     87  C   UNL A   1      47.340  26.273  35.752  1.00  0.00     0.022 A 
BRANCH  84  88
ATOM     88  S   UNL A   1      45.836  24.299  37.024  1.00  0.00     0.124 S 
ATOM     89  O   UNL A   1      45.831  25.034  38.285  1.00  0.00    -0.237 OA
ATOM     90  O   UNL A   1      44.552  23.748  36.604  1.00  0.00    -0.237 OA
ATOM     91  O   UNL A   1      46.983  23.416  36.826  1.00  0.00    -0.744 OA
ENDBRANCH  84  88
ENDBRANCH  58  81
ENDBRANCH  32  33
ENDBRANCH  25  27
ENDBRANCH  24  25
ENDBRANCH   1  24
TORSDOF 16
ENDMDL
MODEL 2
REMARK VINA RESULT:     -11.8      5.218      9.964
REMARK SMILES C[C@@H]1[NH2+]CC[C@H]1C(=O)N[C@@H]1CCC[C@H](C(=O)OCCOC(=O)c2ccc(-c3c4nc(c(-c5cc(S(=O)(=O)[O-])ccc5F)c5ccc([nH]5)c(-c5cc(S(=O)(=O)[O-])ccc5F)c5nc(c(-c6cc(S(=O)(=O)[O-])ccc6F)c6ccc3[nH]6)C=C5)C=C4)cc2)C1
REMARK SMILES IDX 19 1 18 2 17 3 15 4 16 5 14 6 10 7 11 8 86 9 12 10 13 11
REMARK SMILES IDX 9 12 7 13 8 14 6 16 1 17 2 18 3 19 4 20 5 23 20 24 21 25
REMARK SMILES IDX 22 26 23 27 24 28 85 29 25 30 84 31 26 32 27 33 28 34 78 35
REMARK SMILES IDX 29 36 83 37 77 38 79 39 30 40 82 41 76 42 75 43 31 45 63 46
REMARK SMILES IDX 43 47 62 48 44 49 47 50 61 51 80 52 45 53 46 54 60 56 81 57
REMARK SMILES IDX 48 58 32 59 33 60 41 61 34 62 40 63 42 64 39 65 35 66 36 67
REMARK SMILES IDX 37 68 38 69 64 70 65 71 73 72 66 73 72 74 74 75 71 76 67 77
REMARK SMILES IDX 68 78 69 79 70 80 49 81 50 82 58 83 51 84 57 85 59 86 56 87
REMARK SMILES IDX 52 88 53 89 54 90 55 91
REMARK H PARENT 9 15 3 21 3 22 79 44 47 55
REMARK Flexibility Score: inf
ROOT
ATOM      1  C   UNL A   1      36.826  20.196  24.967  1.00  0.00     0.275 C 
ENDROOT
BRANCH   1   2
ATOM      2  C   UNL A   1      35.300  20.348  25.039  1.00  0.00     0.274 C 
BRANCH   2   3
ATOM      3  O   UNL A   1      34.809  21.527  24.370  1.00  0.00    -0.462 OA
BRANCH   3   4
ATOM      4  C   UNL A   1      34.271  22.444  25.207  1.00  0.00     0.309 C 
ATOM      5  O   UNL A   1      34.586  22.560  26.390  1.00  0.00    -0.252 OA
BRANCH   4   6
ATOM      6  C   UNL A   1      33.122  23.246  24.629  1.00  0.00     0.101 C 
ATOM      7  C   UNL A   1      31.810  25.326  25.322  1.00  0.00     0.082 C 
ATOM      8  C   UNL A   1      30.557  24.677  24.694  1.00  0.00     0.025 C 
ATOM      9  C   UNL A   1      32.779  24.242  25.715  1.00  0.00     0.040 C 
ATOM     10  C   UNL A   1      30.866  23.587  23.654  1.00  0.00     0.003 C 
ATOM     11  C   UNL A   1      31.864  22.537  24.165  1.00  0.00     0.015 C 
BRANCH   7  12
ATOM     12  N   UNL A   1      31.433  26.140  26.492  1.00  0.00    -0.353 N 
ATOM     13  C   UNL A   1      31.549  27.440  26.871  1.00  0.00     0.229 C 
ATOM     14  O   UNL A   1      31.050  27.699  27.977  1.00  0.00    -0.275 OA
ATOM     15  H   UNL A   1      30.978  25.599  27.178  1.00  0.00     0.163 HD
BRANCH  13  16
ATOM     16  C   UNL A   1      32.250  28.572  26.112  1.00  0.00     0.142 C 
ATOM     17  C   UNL A   1      34.626  28.894  27.019  1.00  0.00     0.076 C 
ATOM     18  C   UNL A   1      33.750  28.399  25.874  1.00  0.00     0.192 C 
ATOM     19  N   UNL A   1      34.047  29.184  24.670  1.00  0.00    -0.343 N 
ATOM     20  C   UNL A   1      32.832  29.264  23.858  1.00  0.00     0.261 C 
ATOM     21  H   UNL A   1      34.789  28.730  24.137  1.00  0.00     0.346 HD
ATOM     22  H   UNL A   1      34.358  30.121  24.929  1.00  0.00     0.346 HD
ATOM     23  C   UNL A   1      31.651  28.959  24.769  1.00  0.00     0.081 C 
ENDBRANCH  13  16
ENDBRANCH   7  12
ENDBRANCH   4   6
ENDBRANCH   3   4
ENDBRANCH   2   3
ENDBRANCH   1   2
BRANCH   1  24
ATOM     24  O   UNL A   1      37.542  21.365  25.409  1.00  0.00    -0.458 OA
BRANCH  24  25
ATOM     25  C   UNL A   1      38.784  21.117  25.890  1.00  0.00     0.338 C 
ATOM     26  O   UNL A   1      39.444  20.105  25.719  1.00  0.00    -0.246 OA
BRANCH  25  27
ATOM     27  C   UNL A   1      39.331  22.310  26.557  1.00  0.00     0.060 A 
ATOM     28  C   UNL A   1      38.868  23.561  26.141  1.00  0.00     0.016 A 
ATOM     29  C   UNL A   1      40.387  22.215  27.462  1.00  0.00     0.016 A 
ATOM     30  C   UNL A   1      39.466  24.726  26.599  1.00  0.00     0.010 A 
ATOM     31  C   UNL A   1      40.992  23.389  27.926  1.00  0.00     0.010 A 
ATOM     32  C   UNL A   1      40.550  24.647  27.477  1.00  0.00    -0.014 A 
BRANCH  32  33
ATOM     33  C   UNL A   1      41.287  25.885  27.819  1.00  0.00     0.031 A 
ATOM     34  C   UNL A   1      40.586  26.960  28.596  1.00  0.00     0.074 A 
ATOM     35  C   UNL A   1      42.585  26.013  27.489  1.00  0.00     0.049 A 
ATOM     36  N   UNL A   1      40.992  28.164  28.900  1.00  0.00    -0.248 NA
ATOM     37  C   UNL A   1      39.244  26.629  29.096  1.00  0.00     0.031 C 
ATOM     38  C   UNL A   1      43.388  24.991  26.816  1.00  0.00     0.029 A 
ATOM     39  N   UNL A   1      43.452  27.056  27.674  1.00  0.00    -0.354 N 
ATOM     40  C   UNL A   1      39.947  28.747  29.609  1.00  0.00     0.074 A 
ATOM     41  C   UNL A   1      38.884  27.766  29.671  1.00  0.00     0.031 C 
ATOM     42  C   UNL A   1      44.629  25.467  26.629  1.00  0.00     0.029 A 
ATOM     43  C   UNL A   1      44.690  26.843  27.116  1.00  0.00     0.049 A 
ATOM     44  H   UNL A   1      43.213  27.880  28.158  1.00  0.00     0.167 HD
ATOM     45  C   UNL A   1      39.887  29.987  30.157  1.00  0.00     0.034 A 
ATOM     46  C   UNL A   1      45.736  27.680  26.971  1.00  0.00     0.034 A 
ATOM     47  C   UNL A   1      40.959  30.949  30.070  1.00  0.00     0.049 A 
ATOM     48  C   UNL A   1      45.616  29.084  27.503  1.00  0.00     0.074 A 
ATOM     49  C   UNL A   1      41.001  32.246  30.548  1.00  0.00     0.029 A 
ATOM     50  N   UNL A   1      42.184  30.714  29.456  1.00  0.00    -0.354 N 
ATOM     51  N   UNL A   1      44.601  29.653  28.113  1.00  0.00    -0.248 NA
ATOM     52  C   UNL A   1      46.779  29.961  27.322  1.00  0.00     0.031 C 
ATOM     53  C   UNL A   1      42.227  32.813  30.177  1.00  0.00     0.029 A 
ATOM     54  C   UNL A   1      42.979  31.848  29.524  1.00  0.00     0.049 A 
ATOM     55  H   UNL A   1      42.450  29.865  29.034  1.00  0.00     0.167 HD
ATOM     56  C   UNL A   1      45.009  30.952  28.399  1.00  0.00     0.074 A 
ATOM     57  C   UNL A   1      46.369  31.075  27.911  1.00  0.00     0.031 C 
ATOM     58  C   UNL A   1      44.325  31.953  29.010  1.00  0.00     0.034 A 
BRANCH  45  59
ATOM     59  C   UNL A   1      38.589  30.377  30.821  1.00  0.00     0.023 A 
ATOM     60  C   UNL A   1      37.563  31.031  30.116  1.00  0.00     0.031 A 
ATOM     61  C   UNL A   1      38.405  30.157  32.197  1.00  0.00     0.131 A 
ATOM     62  C   UNL A   1      36.439  31.513  30.804  1.00  0.00     0.055 A 
ATOM     63  C   UNL A   1      37.248  30.571  32.862  1.00  0.00     0.041 A 
ATOM     64  F   UNL A   1      39.361  29.560  32.928  1.00  0.00    -0.206 F 
ATOM     65  C   UNL A   1      36.264  31.268  32.168  1.00  0.00     0.022 A 
BRANCH  62  66
ATOM     66  S   UNL A   1      35.285  32.605  29.925  1.00  0.00     0.124 S 
ATOM     67  O   UNL A   1      34.385  33.012  31.001  1.00  0.00    -0.237 OA
ATOM     68  O   UNL A   1      36.169  33.643  29.404  1.00  0.00    -0.237 OA
ATOM     69  O   UNL A   1      34.686  31.732  28.917  1.00  0.00    -0.744 OA
ENDBRANCH  62  66
ENDBRANCH  45  59
BRANCH  46  70
ATOM     70  C   UNL A   1      46.947  27.239  26.226  1.00  0.00     0.023 A 
ATOM     71  C   UNL A   1      48.006  26.583  26.871  1.00  0.00     0.031 A 
ATOM     72  C   UNL A   1      47.068  27.494  24.847  1.00  0.00     0.131 A 
ATOM     73  C   UNL A   1      49.152  26.227  26.142  1.00  0.00     0.055 A 
ATOM     74  C   UNL A   1      48.190  27.098  24.119  1.00  0.00     0.041 A 
ATOM     75  F   UNL A   1      46.082  28.118  24.183  1.00  0.00    -0.206 F 
ATOM     76  C   UNL A   1      49.245  26.468  24.770  1.00  0.00     0.022 A 
BRANCH  73  77
ATOM     77  S   UNL A   1      50.553  25.490  27.030  1.00  0.00     0.124 S 
ATOM     78  O   UNL A   1      51.498  25.249  25.946  1.00  0.00    -0.237 OA
ATOM     79  O   UNL A   1      50.908  26.551  27.967  1.00  0.00    -0.237 OA
ATOM     80  O   UNL A   1      49.978  24.291  27.637  1.00  0.00    -0.744 OA
ENDBRANCH  73  77
ENDBRANCH  46  70
BRANCH  58  81
ATOM     81  C   UNL A   1      45.061  33.254  29.204  1.00  0.00     0.023 A 
ATOM     82  C   UNL A   1      45.076  34.247  28.210  1.00  0.00     0.031 A 
ATOM     83  C   UNL A   1      45.772  33.491  30.394  1.00  0.00     0.131 A 
ATOM     84  C   UNL A   1      45.829  35.414  28.404  1.00  0.00     0.055 A 
ATOM     85  C   UNL A   1      46.478  34.676  30.601  1.00  0.00     0.041 A 
ATOM     86  F   UNL A   1      45.789  32.573  31.373  1.00  0.00    -0.206 F 
ATOM     87  C   UNL A   1      46.519  35.641  29.598  1.00  0.00     0.022 A 
BRANCH  84  88
ATOM     88  S   UNL A   1      45.961  36.603  27.041  1.00  0.00     0.124 S 
ATOM     89  O   UNL A   1      44.667  37.277  27.099  1.00  0.00    -0.237 OA
ATOM     90  O   UNL A   1      47.114  37.406  27.436  1.00  0.00    -0.237 OA
ATOM     91  O   UNL A   1      46.168  35.759  25.866  1.00  0.00    -0.744 OA
ENDBRANCH  84  88
ENDBRANCH  58  81
ENDBRANCH  32  33
ENDBRANCH  25  27
ENDBRANCH  24  25
ENDBRANCH   1  24
TORSDOF 16
ENDMDL
MODEL 3
REMARK VINA RESULT:     -11.7      2.445      3.955
REMARK SMILES C[C@@H]1[NH2+]CC[C@H]1C(=O)N[C@@H]1CCC[C@H](C(=O)OCCOC(=O)c2ccc(-c3c4nc(c(-c5cc(S(=O)(=O)[O-])ccc5F)c5ccc([nH]5)c(-c5cc(S(=O)(=O)[O-])ccc5F)c5nc(c(-c6cc(S(=O)(=O)[O-])ccc6F)c6ccc3[nH]6)C=C5)C=C4)cc2)C1
REMARK SMILES IDX 19 1 18 2 17 3 15 4 16 5 14 6 10 7 11 8 86 9 12 10 13 11
REMARK SMILES IDX 9 12 7 13 8 14 6 16 1 17 2 18 3 19 4 20 5 23 20 24 21 25
REMARK SMILES IDX 22 26 23 27 24 28 85 29 25 30 84 31 26 32 27 33 28 34 78 35
REMARK SMILES IDX 29 36 83 37 77 38 79 39 30 40 82 41 76 42 75 43 31 45 63 46
REMARK SMILES IDX 43 47 62 48 44 49 47 50 61 51 80 52 45 53 46 54 60 56 81 57
REMARK SMILES IDX 48 58 32 59 33 60 41 61 34 62 40 63 42 64 39 65 35 66 36 67
REMARK SMILES IDX 37 68 38 69 64 70 65 71 73 72 66 73 72 74 74 75 71 76 67 77
REMARK SMILES IDX 68 78 69 79 70 80 49 81 50 82 58 83 51 84 57 85 59 86 56 87
REMARK SMILES IDX 52 88 53 89 54 90 55 91
REMARK H PARENT 9 15 3 21 3 22 79 44 47 55
REMARK Flexibility Score: inf
ROOT
ATOM      1  C   UNL A   1      31.514  30.894  25.951  1.00  0.00     0.275 C 
ENDROOT
BRANCH   1   2
ATOM      2  C   UNL A   1      31.620  29.661  25.042  1.00  0.00     0.274 C 
BRANCH   2   3
ATOM      3  O   UNL A   1      30.597  29.608  24.026  1.00  0.00    -0.462 OA
BRANCH   3   4
ATOM      4  C   UNL A   1      30.525  28.419  23.386  1.00  0.00     0.309 C 
ATOM      5  O   UNL A   1      30.144  28.288  22.224  1.00  0.00    -0.252 OA
BRANCH   4   6
ATOM      6  C   UNL A   1      30.810  27.206  24.249  1.00  0.00     0.101 C 
ATOM      7  C   UNL A   1      32.520  25.308  24.237  1.00  0.00     0.082 C 
ATOM      8  C   UNL A   1      31.412  24.380  24.781  1.00  0.00     0.025 C 
ATOM      9  C   UNL A   1      31.880  26.452  23.493  1.00  0.00     0.040 C 
ATOM     10  C   UNL A   1      30.254  25.120  25.473  1.00  0.00     0.003 C 
ATOM     11  C   UNL A   1      29.681  26.263  24.622  1.00  0.00     0.015 C 
BRANCH   7  12
ATOM     12  N   UNL A   1      33.430  24.555  23.354  1.00  0.00    -0.353 N 
ATOM     13  C   UNL A   1      34.469  23.692  23.511  1.00  0.00     0.229 C 
ATOM     14  O   UNL A   1      34.948  23.268  22.448  1.00  0.00    -0.275 OA
ATOM     15  H   UNL A   1      33.234  24.720  22.404  1.00  0.00     0.163 HD
BRANCH  13  16
ATOM     16  C   UNL A   1      35.114  23.240  24.825  1.00  0.00     0.142 C 
ATOM     17  C   UNL A   1      34.949  20.693  25.052  1.00  0.00     0.076 C 
ATOM     18  C   UNL A   1      35.845  21.898  24.794  1.00  0.00     0.192 C 
ATOM     19  N   UNL A   1      36.856  21.979  25.855  1.00  0.00    -0.343 N 
ATOM     20  C   UNL A   1      37.201  23.388  26.059  1.00  0.00     0.261 C 
ATOM     21  H   UNL A   1      37.688  21.457  25.580  1.00  0.00     0.346 HD
ATOM     22  H   UNL A   1      36.490  21.579  26.720  1.00  0.00     0.346 HD
ATOM     23  C   UNL A   1      36.068  24.225  25.485  1.00  0.00     0.081 C 
ENDBRANCH  13  16
ENDBRANCH   7  12
ENDBRANCH   4   6
ENDBRANCH   3   4
ENDBRANCH   2   3
ENDBRANCH   1   2
BRANCH   1  24
ATOM     24  O   UNL A   1      32.375  30.834  27.104  1.00  0.00    -0.458 OA
BRANCH  24  25
ATOM     25  C   UNL A   1      33.108  31.953  27.319  1.00  0.00     0.338 C 
ATOM     26  O   UNL A   1      32.707  33.105  27.283  1.00  0.00    -0.246 OA
BRANCH  25  27
ATOM     27  C   UNL A   1      34.470  31.607  27.757  1.00  0.00     0.060 A 
ATOM     28  C   UNL A   1      34.724  30.280  28.113  1.00  0.00     0.016 A 
ATOM     29  C   UNL A   1      35.437  32.589  27.961  1.00  0.00     0.016 A 
ATOM     30  C   UNL A   1      35.930  29.923  28.700  1.00  0.00     0.010 A 
ATOM     31  C   UNL A   1      36.655  32.231  28.552  1.00  0.00     0.010 A 
ATOM     32  C   UNL A   1      36.895  30.902  28.947  1.00  0.00    -0.014 A 
BRANCH  32  33
ATOM     33  C   UNL A   1      38.100  30.540  29.729  1.00  0.00     0.031 A 
ATOM     34  C   UNL A   1      39.103  29.600  29.129  1.00  0.00     0.074 A 
ATOM     35  C   UNL A   1      38.317  31.097  30.933  1.00  0.00     0.049 A 
ATOM     36  N   UNL A   1      40.159  29.055  29.672  1.00  0.00    -0.248 NA
ATOM     37  C   UNL A   1      38.881  29.223  27.725  1.00  0.00     0.031 C 
ATOM     38  C   UNL A   1      37.454  32.094  31.569  1.00  0.00     0.029 A 
ATOM     39  N   UNL A   1      39.329  30.903  31.836  1.00  0.00    -0.354 N 
ATOM     40  C   UNL A   1      40.720  28.253  28.684  1.00  0.00     0.074 A 
ATOM     41  C   UNL A   1      39.872  28.370  27.516  1.00  0.00     0.031 C 
ATOM     42  C   UNL A   1      37.965  32.410  32.769  1.00  0.00     0.029 A 
ATOM     43  C   UNL A   1      39.156  31.599  33.008  1.00  0.00     0.049 A 
ATOM     44  H   UNL A   1      40.104  30.320  31.662  1.00  0.00     0.167 HD
ATOM     45  C   UNL A   1      41.840  27.490  28.751  1.00  0.00     0.034 A 
ATOM     46  C   UNL A   1      39.853  31.550  34.160  1.00  0.00     0.034 A 
ATOM     47  C   UNL A   1      42.661  27.384  29.933  1.00  0.00     0.049 A 
ATOM     48  C   UNL A   1      41.039  30.626  34.248  1.00  0.00     0.074 A 
ATOM     49  C   UNL A   1      43.794  26.616  30.136  1.00  0.00     0.029 A 
ATOM     50  N   UNL A   1      42.431  28.070  31.120  1.00  0.00    -0.354 N 
ATOM     51  N   UNL A   1      41.526  29.817  33.334  1.00  0.00    -0.248 NA
ATOM     52  C   UNL A   1      41.768  30.603  35.522  1.00  0.00     0.031 C 
ATOM     53  C   UNL A   1      44.216  26.795  31.460  1.00  0.00     0.029 A 
ATOM     54  C   UNL A   1      43.386  27.725  32.065  1.00  0.00     0.049 A 
ATOM     55  H   UNL A   1      41.696  28.707  31.270  1.00  0.00     0.167 HD
ATOM     56  C   UNL A   1      42.625  29.198  33.921  1.00  0.00     0.074 A 
ATOM     57  C   UNL A   1      42.740  29.742  35.260  1.00  0.00     0.031 C 
ATOM     58  C   UNL A   1      43.465  28.266  33.403  1.00  0.00     0.034 A 
BRANCH  45  59
ATOM     59  C   UNL A   1      42.178  26.665  27.534  1.00  0.00     0.023 A 
ATOM     60  C   UNL A   1      41.852  25.299  27.450  1.00  0.00     0.031 A 
ATOM     61  C   UNL A   1      42.902  27.235  26.472  1.00  0.00     0.131 A 
ATOM     62  C   UNL A   1      42.319  24.534  26.371  1.00  0.00     0.055 A 
ATOM     63  C   UNL A   1      43.296  26.484  25.362  1.00  0.00     0.041 A 
ATOM     64  F   UNL A   1      43.263  28.527  26.507  1.00  0.00    -0.206 F 
ATOM     65  C   UNL A   1      43.019  25.121  25.315  1.00  0.00     0.022 A 
BRANCH  62  66
ATOM     66  S   UNL A   1      42.137  22.728  26.444  1.00  0.00     0.124 S 
ATOM     67  O   UNL A   1      43.104  22.376  27.481  1.00  0.00    -0.237 OA
ATOM     68  O   UNL A   1      40.732  22.568  26.800  1.00  0.00    -0.237 OA
ATOM     69  O   UNL A   1      42.494  22.292  25.096  1.00  0.00    -0.744 OA
ENDBRANCH  62  66
ENDBRANCH  45  59
BRANCH  46  70
ATOM     70  C   UNL A   1      39.398  32.333  35.341  1.00  0.00     0.023 A 
ATOM     71  C   UNL A   1      39.816  33.657  35.547  1.00  0.00     0.031 A 
ATOM     72  C   UNL A   1      38.548  31.751  36.300  1.00  0.00     0.131 A 
ATOM     73  C   UNL A   1      39.404  34.346  36.699  1.00  0.00     0.055 A 
ATOM     74  C   UNL A   1      38.106  32.456  37.420  1.00  0.00     0.041 A 
ATOM     75  F   UNL A   1      38.120  30.487  36.149  1.00  0.00    -0.206 F 
ATOM     76  C   UNL A   1      38.543  33.760  37.629  1.00  0.00     0.022 A 
BRANCH  73  77
ATOM     77  S   UNL A   1      40.060  36.012  36.996  1.00  0.00     0.124 S 
ATOM     78  O   UNL A   1      39.766  36.677  35.732  1.00  0.00    -0.237 OA
ATOM     79  O   UNL A   1      39.275  36.444  38.148  1.00  0.00    -0.237 OA
ATOM     80  O   UNL A   1      41.477  35.777  37.264  1.00  0.00    -0.744 OA
ENDBRANCH  73  77
ENDBRANCH  46  70
BRANCH  58  81
ATOM     81  C   UNL A   1      44.595  27.808  34.289  1.00  0.00     0.023 A 
ATOM     82  C   UNL A   1      44.463  26.693  35.134  1.00  0.00     0.031 A 
ATOM     83  C   UNL A   1      45.813  28.510  34.298  1.00  0.00     0.131 A 
ATOM     84  C   UNL A   1      45.515  26.341  35.992  1.00  0.00     0.055 A 
ATOM     85  C   UNL A   1      46.875  28.124  35.117  1.00  0.00     0.041 A 
ATOM     86  F   UNL A   1      45.989  29.582  33.509  1.00  0.00    -0.206 F 
ATOM     87  C   UNL A   1      46.724  27.041  35.980  1.00  0.00     0.022 A 
BRANCH  84  88
ATOM     88  S   UNL A   1      45.256  25.001  37.186  1.00  0.00     0.124 S 
ATOM     89  O   UNL A   1      45.081  23.845  36.312  1.00  0.00    -0.237 OA
ATOM     90  O   UNL A   1      46.491  25.030  37.962  1.00  0.00    -0.237 OA
ATOM     91  O   UNL A   1      44.058  25.414  37.913  1.00  0.00    -0.744 OA
ENDBRANCH  84  88
ENDBRANCH  58  81
ENDBRANCH  32  33
ENDBRANCH  25  27
ENDBRANCH  24  25
ENDBRANCH   1  24
TORSDOF 16
ENDMDL
