MODEL 1
REMARK VINA RESULT:     -10.9      0.000      0.000
REMARK SMILES CCC(CC)(NC(=O)c1c(C)noc1C)C(=O)OCCOC(=O)c1ccc(-c2c3nc(c(-c4cc(S(=O)(=O)[O-])ccc4F)c4ccc([nH]4)c(-c4cc(S(=O)(=O)[O-])ccc4F)c4nc(c(-c5cc(S(=O)(=O)[O-])ccc5F)c5ccc2[nH]5)C=C4)C=C3)cc1
REMARK SMILES IDX 20 1 19 2 18 3 16 4 17 5 3 6 2 7 1 8 4 9 5 10 6 11 7 12 8 14
REMARK SMILES IDX 9 15 10 16 14 17 11 18 12 19 13 20 15 21 21 22 22 23 23 24
REMARK SMILES IDX 24 25 25 26 86 27 26 28 85 29 27 30 28 31 29 32 79 33 30 34
REMARK SMILES IDX 84 35 78 36 80 37 31 38 83 39 77 40 76 41 32 43 64 44 44 45
REMARK SMILES IDX 63 46 45 47 48 48 62 49 81 50 46 51 47 52 61 54 82 55 49 56
REMARK SMILES IDX 33 57 34 58 42 59 35 60 41 61 43 62 40 63 36 64 37 65 38 66
REMARK SMILES IDX 39 67 65 68 66 69 74 70 67 71 73 72 75 73 72 74 68 75 69 76
REMARK SMILES IDX 70 77 71 78 50 79 51 80 59 81 52 82 58 83 60 84 57 85 53 86
REMARK SMILES IDX 54 87 55 88 56 89
REMARK H PARENT 6 13 80 42 48 53
REMARK Flexibility Score: inf
ROOT
ATOM      1  C   UNL A   1      31.698  29.551  25.987  1.00  0.00     0.275 C 
ENDROOT
BRANCH   1   2
ATOM      2  C   UNL A   1      31.426  29.081  24.563  1.00  0.00     0.274 C 
BRANCH   2   3
ATOM      3  O   UNL A   1      31.443  27.636  24.497  1.00  0.00    -0.460 OA
BRANCH   3   4
ATOM      4  C   UNL A   1      32.490  27.121  23.805  1.00  0.00     0.331 C 
ATOM      5  O   UNL A   1      33.225  27.809  23.100  1.00  0.00    -0.249 OA
BRANCH   4   6
ATOM      6  C   UNL A   1      32.691  25.581  23.984  1.00  0.00     0.137 C 
BRANCH   6   7
ATOM      7  C   UNL A   1      31.271  24.930  24.129  1.00  0.00     0.037 C 
ATOM      8  C   UNL A   1      30.923  24.255  25.447  1.00  0.00     0.007 C 
ENDBRANCH   6   7
BRANCH   6   9
ATOM      9  C   UNL A   1      33.531  25.385  25.283  1.00  0.00     0.037 C 
ATOM     10  C   UNL A   1      34.028  26.653  25.967  1.00  0.00     0.007 C 
ENDBRANCH   6   9
BRANCH   6  11
ATOM     11  N   UNL A   1      33.317  24.801  22.868  1.00  0.00    -0.336 N 
ATOM     12  C   UNL A   1      33.608  23.494  22.597  1.00  0.00     0.257 C 
ATOM     13  H   UNL A   1      33.595  25.391  22.130  1.00  0.00     0.165 HD
ATOM     14  O   UNL A   1      33.594  23.163  21.411  1.00  0.00    -0.269 OA
BRANCH  12  15
ATOM     15  C   UNL A   1      34.115  22.585  23.590  1.00  0.00     0.105 A 
ATOM     16  C   UNL A   1      35.487  22.459  23.972  1.00  0.00     0.093 A 
ATOM     17  C   UNL A   1      33.502  21.543  24.251  1.00  0.00     0.146 A 
ATOM     18  C   UNL A   1      36.652  23.250  23.503  1.00  0.00     0.071 C 
ATOM     19  N   UNL A   1      35.664  21.460  24.845  1.00  0.00    -0.084 NA
ATOM     20  O   UNL A   1      34.420  20.897  25.022  1.00  0.00    -0.361 OA
ATOM     21  C   UNL A   1      32.152  20.962  24.286  1.00  0.00     0.092 C 
ENDBRANCH  12  15
ENDBRANCH   6  11
ENDBRANCH   4   6
ENDBRANCH   3   4
ENDBRANCH   2   3
ENDBRANCH   1   2
BRANCH   1  22
ATOM     22  O   UNL A   1      33.005  30.145  25.990  1.00  0.00    -0.458 OA
BRANCH  22  23
ATOM     23  C   UNL A   1      33.197  31.131  26.889  1.00  0.00     0.338 C 
ATOM     24  O   UNL A   1      32.409  31.993  27.251  1.00  0.00    -0.246 OA
BRANCH  23  25
ATOM     25  C   UNL A   1      34.503  30.907  27.508  1.00  0.00     0.060 A 
ATOM     26  C   UNL A   1      34.797  29.615  27.946  1.00  0.00     0.016 A 
ATOM     27  C   UNL A   1      35.392  31.952  27.724  1.00  0.00     0.016 A 
ATOM     28  C   UNL A   1      35.965  29.367  28.655  1.00  0.00     0.010 A 
ATOM     29  C   UNL A   1      36.601  31.687  28.375  1.00  0.00     0.010 A 
ATOM     30  C   UNL A   1      36.888  30.398  28.865  1.00  0.00    -0.014 A 
BRANCH  30  31
ATOM     31  C   UNL A   1      38.130  30.139  29.640  1.00  0.00     0.031 A 
ATOM     32  C   UNL A   1      39.177  29.218  29.077  1.00  0.00     0.074 A 
ATOM     33  C   UNL A   1      38.326  30.740  30.829  1.00  0.00     0.049 A 
ATOM     34  N   UNL A   1      40.224  28.698  29.660  1.00  0.00    -0.248 NA
ATOM     35  C   UNL A   1      39.007  28.819  27.671  1.00  0.00     0.031 C 
ATOM     36  C   UNL A   1      37.413  31.701  31.453  1.00  0.00     0.029 A 
ATOM     37  N   UNL A   1      39.358  30.635  31.727  1.00  0.00    -0.354 N 
ATOM     38  C   UNL A   1      40.817  27.872  28.709  1.00  0.00     0.074 A 
ATOM     39  C   UNL A   1      40.002  27.957  27.514  1.00  0.00     0.031 C 
ATOM     40  C   UNL A   1      37.933  32.110  32.620  1.00  0.00     0.029 A 
ATOM     41  C   UNL A   1      39.171  31.380  32.869  1.00  0.00     0.049 A 
ATOM     42  H   UNL A   1      40.155  30.079  31.571  1.00  0.00     0.167 HD
ATOM     43  C   UNL A   1      41.933  27.111  28.829  1.00  0.00     0.034 A 
ATOM     44  C   UNL A   1      39.888  31.432  34.008  1.00  0.00     0.034 A 
ATOM     45  C   UNL A   1      42.736  27.055  30.029  1.00  0.00     0.049 A 
ATOM     46  C   UNL A   1      41.110  30.562  34.129  1.00  0.00     0.074 A 
ATOM     47  C   UNL A   1      43.851  26.279  30.293  1.00  0.00     0.029 A 
ATOM     48  N   UNL A   1      42.513  27.825  31.165  1.00  0.00    -0.354 N 
ATOM     49  N   UNL A   1      41.601  29.704  33.263  1.00  0.00    -0.248 NA
ATOM     50  C   UNL A   1      41.870  30.658  35.380  1.00  0.00     0.031 C 
ATOM     51  C   UNL A   1      44.278  26.550  31.600  1.00  0.00     0.029 A 
ATOM     52  C   UNL A   1      43.466  27.540  32.132  1.00  0.00     0.049 A 
ATOM     53  H   UNL A   1      41.784  28.478  31.269  1.00  0.00     0.167 HD
ATOM     54  C   UNL A   1      42.726  29.156  33.870  1.00  0.00     0.074 A 
ATOM     55  C   UNL A   1      42.862  29.811  35.155  1.00  0.00     0.031 C 
ATOM     56  C   UNL A   1      43.564  28.189  33.416  1.00  0.00     0.034 A 
BRANCH  43  57
ATOM     57  C   UNL A   1      42.295  26.232  27.656  1.00  0.00     0.023 A 
ATOM     58  C   UNL A   1      41.840  24.906  27.551  1.00  0.00     0.031 A 
ATOM     59  C   UNL A   1      43.158  26.713  26.654  1.00  0.00     0.131 A 
ATOM     60  C   UNL A   1      42.306  24.087  26.511  1.00  0.00     0.055 A 
ATOM     61  C   UNL A   1      43.558  25.915  25.580  1.00  0.00     0.041 A 
ATOM     62  F   UNL A   1      43.645  27.962  26.713  1.00  0.00    -0.206 F 
ATOM     63  C   UNL A   1      43.144  24.588  25.512  1.00  0.00     0.022 A 
BRANCH  60  64
ATOM     64  S   UNL A   1      41.915  22.315  26.560  1.00  0.00     0.124 S 
ATOM     65  O   UNL A   1      42.610  21.828  25.370  1.00  0.00    -0.237 OA
ATOM     66  O   UNL A   1      42.477  21.904  27.841  1.00  0.00    -0.237 OA
ATOM     67  O   UNL A   1      40.456  22.284  26.479  1.00  0.00    -0.744 OA
ENDBRANCH  60  64
ENDBRANCH  43  57
BRANCH  44  68
ATOM     68  C   UNL A   1      39.428  32.275  35.150  1.00  0.00     0.023 A 
ATOM     69  C   UNL A   1      38.736  31.717  36.236  1.00  0.00     0.031 A 
ATOM     70  C   UNL A   1      39.654  33.664  35.154  1.00  0.00     0.131 A 
ATOM     71  C   UNL A   1      38.265  32.548  37.265  1.00  0.00     0.055 A 
ATOM     72  C   UNL A   1      39.228  34.478  36.204  1.00  0.00     0.041 A 
ATOM     73  F   UNL A   1      40.312  34.248  34.140  1.00  0.00    -0.206 F 
ATOM     74  C   UNL A   1      38.519  33.922  37.263  1.00  0.00     0.022 A 
BRANCH  71  75
ATOM     75  S   UNL A   1      37.246  31.818  38.576  1.00  0.00     0.124 S 
ATOM     76  O   UNL A   1      38.115  31.952  39.740  1.00  0.00    -0.237 OA
ATOM     77  O   UNL A   1      36.066  32.675  38.554  1.00  0.00    -0.237 OA
ATOM     78  O   UNL A   1      37.028  30.449  38.115  1.00  0.00    -0.744 OA
ENDBRANCH  71  75
ENDBRANCH  44  68
BRANCH  56  79
ATOM     79  C   UNL A   1      44.705  27.814  34.328  1.00  0.00     0.023 A 
ATOM     80  C   UNL A   1      44.576  26.778  35.269  1.00  0.00     0.031 A 
ATOM     81  C   UNL A   1      45.911  28.533  34.289  1.00  0.00     0.131 A 
ATOM     82  C   UNL A   1      45.612  26.534  36.182  1.00  0.00     0.055 A 
ATOM     83  C   UNL A   1      46.960  28.250  35.164  1.00  0.00     0.041 A 
ATOM     84  F   UNL A   1      46.082  29.534  33.411  1.00  0.00    -0.206 F 
ATOM     85  C   UNL A   1      46.808  27.256  36.128  1.00  0.00     0.022 A 
BRANCH  82  86
ATOM     86  S   UNL A   1      45.334  25.332  37.512  1.00  0.00     0.124 S 
ATOM     87  O   UNL A   1      46.083  25.924  38.617  1.00  0.00    -0.237 OA
ATOM     88  O   UNL A   1      43.881  25.348  37.646  1.00  0.00    -0.237 OA
ATOM     89  O   UNL A   1      45.893  24.092  36.978  1.00  0.00    -0.744 OA
ENDBRANCH  82  86
ENDBRANCH  56  79
ENDBRANCH  30  31
ENDBRANCH  23  25
ENDBRANCH  22  23
ENDBRANCH   1  22
TORSDOF 18
ENDMDL
MODEL 2
REMARK VINA RESULT:     -10.8      2.031      2.937
REMARK SMILES CCC(CC)(NC(=O)c1c(C)noc1C)C(=O)OCCOC(=O)c1ccc(-c2c3nc(c(-c4cc(S(=O)(=O)[O-])ccc4F)c4ccc([nH]4)c(-c4cc(S(=O)(=O)[O-])ccc4F)c4nc(c(-c5cc(S(=O)(=O)[O-])ccc5F)c5ccc2[nH]5)C=C4)C=C3)cc1
REMARK SMILES IDX 20 1 19 2 18 3 16 4 17 5 3 6 2 7 1 8 4 9 5 10 6 11 7 12 8 14
REMARK SMILES IDX 9 15 10 16 14 17 11 18 12 19 13 20 15 21 21 22 22 23 23 24
REMARK SMILES IDX 24 25 25 26 86 27 26 28 85 29 27 30 28 31 29 32 79 33 30 34
REMARK SMILES IDX 84 35 78 36 80 37 31 38 83 39 77 40 76 41 32 43 64 44 44 45
REMARK SMILES IDX 63 46 45 47 48 48 62 49 81 50 46 51 47 52 61 54 82 55 49 56
REMARK SMILES IDX 33 57 34 58 42 59 35 60 41 61 43 62 40 63 36 64 37 65 38 66
REMARK SMILES IDX 39 67 65 68 66 69 74 70 67 71 73 72 75 73 72 74 68 75 69 76
REMARK SMILES IDX 70 77 71 78 50 79 51 80 59 81 52 82 58 83 60 84 57 85 53 86
REMARK SMILES IDX 54 87 55 88 56 89
REMARK H PARENT 6 13 80 42 48 53
REMARK Flexibility Score: inf
ROOT
ATOM      1  C   UNL A   1      32.019  29.825  26.408  1.00  0.00     0.275 C 
ENDROOT
BRANCH   1   2
ATOM      2  C   UNL A   1      32.014  28.522  27.198  1.00  0.00     0.274 C 
BRANCH   2   3
ATOM      3  O   UNL A   1      32.577  27.450  26.407  1.00  0.00    -0.460 OA
BRANCH   3   4
ATOM      4  C   UNL A   1      31.815  26.328  26.361  1.00  0.00     0.331 C 
ATOM      5  O   UNL A   1      30.704  26.257  26.884  1.00  0.00    -0.249 OA
BRANCH   4   6
ATOM      6  C   UNL A   1      32.460  25.136  25.584  1.00  0.00     0.137 C 
BRANCH   6   7
ATOM      7  C   UNL A   1      32.107  23.818  26.357  1.00  0.00     0.037 C 
ATOM      8  C   UNL A   1      31.331  22.738  25.617  1.00  0.00     0.007 C 
ENDBRANCH   6   7
BRANCH   6   9
ATOM      9  C   UNL A   1      33.999  25.385  25.577  1.00  0.00     0.037 C 
ATOM     10  C   UNL A   1      34.884  24.174  25.849  1.00  0.00     0.007 C 
ENDBRANCH   6   9
BRANCH   6  11
ATOM     11  N   UNL A   1      31.999  24.853  24.187  1.00  0.00    -0.336 N 
ATOM     12  C   UNL A   1      31.786  25.558  23.036  1.00  0.00     0.257 C 
ATOM     13  H   UNL A   1      31.794  23.897  24.064  1.00  0.00     0.165 HD
ATOM     14  O   UNL A   1      31.955  24.950  21.979  1.00  0.00    -0.269 OA
BRANCH  12  15
ATOM     15  C   UNL A   1      31.193  26.869  23.024  1.00  0.00     0.105 A 
ATOM     16  C   UNL A   1      31.901  28.096  22.828  1.00  0.00     0.093 A 
ATOM     17  C   UNL A   1      29.923  27.283  23.359  1.00  0.00     0.146 A 
ATOM     18  C   UNL A   1      33.344  28.292  22.535  1.00  0.00     0.071 C 
ATOM     19  N   UNL A   1      31.097  29.155  22.971  1.00  0.00    -0.084 NA
ATOM     20  O   UNL A   1      29.860  28.642  23.294  1.00  0.00    -0.361 OA
ATOM     21  C   UNL A   1      28.678  26.631  23.794  1.00  0.00     0.092 C 
ENDBRANCH  12  15
ENDBRANCH   6  11
ENDBRANCH   4   6
ENDBRANCH   3   4
ENDBRANCH   2   3
ENDBRANCH   1   2
BRANCH   1  22
ATOM     22  O   UNL A   1      33.380  30.277  26.354  1.00  0.00    -0.458 OA
BRANCH  22  23
ATOM     23  C   UNL A   1      33.699  31.277  27.200  1.00  0.00     0.338 C 
ATOM     24  O   UNL A   1      32.997  32.206  27.576  1.00  0.00    -0.246 OA
BRANCH  23  25
ATOM     25  C   UNL A   1      35.023  30.982  27.746  1.00  0.00     0.060 A 
ATOM     26  C   UNL A   1      35.278  29.670  28.146  1.00  0.00     0.016 A 
ATOM     27  C   UNL A   1      35.970  31.981  27.933  1.00  0.00     0.016 A 
ATOM     28  C   UNL A   1      36.469  29.354  28.788  1.00  0.00     0.010 A 
ATOM     29  C   UNL A   1      37.197  31.649  28.515  1.00  0.00     0.010 A 
ATOM     30  C   UNL A   1      37.449  30.338  28.967  1.00  0.00    -0.014 A 
BRANCH  30  31
ATOM     31  C   UNL A   1      38.715  30.007  29.671  1.00  0.00     0.031 A 
ATOM     32  C   UNL A   1      39.685  29.047  29.041  1.00  0.00     0.074 A 
ATOM     33  C   UNL A   1      39.002  30.580  30.855  1.00  0.00     0.049 A 
ATOM     34  N   UNL A   1      40.735  28.468  29.560  1.00  0.00    -0.248 NA
ATOM     35  C   UNL A   1      39.423  28.679  27.641  1.00  0.00     0.031 C 
ATOM     36  C   UNL A   1      38.171  31.573  31.540  1.00  0.00     0.029 A 
ATOM     37  N   UNL A   1      40.074  30.411  31.696  1.00  0.00    -0.354 N 
ATOM     38  C   UNL A   1      41.236  27.630  28.568  1.00  0.00     0.074 A 
ATOM     39  C   UNL A   1      40.365  27.773  27.420  1.00  0.00     0.031 C 
ATOM     40  C   UNL A   1      38.772  31.939  32.683  1.00  0.00     0.029 A 
ATOM     41  C   UNL A   1      39.984  31.146  32.856  1.00  0.00     0.049 A 
ATOM     42  H   UNL A   1      40.834  29.820  31.490  1.00  0.00     0.167 HD
ATOM     43  C   UNL A   1      42.319  26.814  28.618  1.00  0.00     0.034 A 
ATOM     44  C   UNL A   1      40.761  31.146  33.956  1.00  0.00     0.034 A 
ATOM     45  C   UNL A   1      43.180  26.701  29.773  1.00  0.00     0.049 A 
ATOM     46  C   UNL A   1      41.944  30.216  34.000  1.00  0.00     0.074 A 
ATOM     47  C   UNL A   1      44.268  25.868  29.967  1.00  0.00     0.029 A 
ATOM     48  N   UNL A   1      43.055  27.463  30.930  1.00  0.00    -0.354 N 
ATOM     49  N   UNL A   1      42.347  29.350  33.098  1.00  0.00    -0.248 NA
ATOM     50  C   UNL A   1      42.773  30.256  35.210  1.00  0.00     0.031 C 
ATOM     51  C   UNL A   1      44.776  26.098  31.252  1.00  0.00     0.029 A 
ATOM     52  C   UNL A   1      44.042  27.117  31.840  1.00  0.00     0.049 A 
ATOM     53  H   UNL A   1      42.365  28.148  31.080  1.00  0.00     0.167 HD
ATOM     54  C   UNL A   1      43.474  28.739  33.636  1.00  0.00     0.074 A 
ATOM     55  C   UNL A   1      43.709  29.366  34.921  1.00  0.00     0.031 C 
ATOM     56  C   UNL A   1      44.239  27.741  33.126  1.00  0.00     0.034 A 
BRANCH  43  57
ATOM     57  C   UNL A   1      42.575  25.938  27.416  1.00  0.00     0.023 A 
ATOM     58  C   UNL A   1      42.076  24.626  27.331  1.00  0.00     0.031 A 
ATOM     59  C   UNL A   1      43.382  26.404  26.362  1.00  0.00     0.131 A 
ATOM     60  C   UNL A   1      42.447  23.805  26.255  1.00  0.00     0.055 A 
ATOM     61  C   UNL A   1      43.685  25.607  25.257  1.00  0.00     0.041 A 
ATOM     62  F   UNL A   1      43.907  27.639  26.398  1.00  0.00    -0.206 F 
ATOM     63  C   UNL A   1      43.229  24.292  25.206  1.00  0.00     0.022 A 
BRANCH  60  64
ATOM     64  S   UNL A   1      42.010  22.045  26.315  1.00  0.00     0.124 S 
ATOM     65  O   UNL A   1      42.409  21.689  27.675  1.00  0.00    -0.237 OA
ATOM     66  O   UNL A   1      40.575  22.067  26.056  1.00  0.00    -0.237 OA
ATOM     67  O   UNL A   1      42.826  21.452  25.257  1.00  0.00    -0.744 OA
ENDBRANCH  60  64
ENDBRANCH  43  57
BRANCH  44  68
ATOM     68  C   UNL A   1      40.405  31.991  35.132  1.00  0.00     0.023 A 
ATOM     69  C   UNL A   1      39.399  31.603  36.031  1.00  0.00     0.031 A 
ATOM     70  C   UNL A   1      41.051  33.221  35.356  1.00  0.00     0.131 A 
ATOM     71  C   UNL A   1      39.046  32.452  37.093  1.00  0.00     0.055 A 
ATOM     72  C   UNL A   1      40.733  34.037  36.442  1.00  0.00     0.041 A 
ATOM     73  F   UNL A   1      42.021  33.639  34.526  1.00  0.00    -0.206 F 
ATOM     74  C   UNL A   1      39.716  33.658  37.312  1.00  0.00     0.022 A 
BRANCH  71  75
ATOM     75  S   UNL A   1      37.643  31.991  38.146  1.00  0.00     0.124 S 
ATOM     76  O   UNL A   1      37.385  30.621  37.717  1.00  0.00    -0.237 OA
ATOM     77  O   UNL A   1      38.206  32.149  39.483  1.00  0.00    -0.237 OA
ATOM     78  O   UNL A   1      36.614  32.963  37.786  1.00  0.00    -0.744 OA
ENDBRANCH  71  75
ENDBRANCH  44  68
BRANCH  56  79
ATOM     79  C   UNL A   1      45.407  27.296  33.970  1.00  0.00     0.023 A 
ATOM     80  C   UNL A   1      46.679  27.873  33.819  1.00  0.00     0.031 A 
ATOM     81  C   UNL A   1      45.255  26.250  34.897  1.00  0.00     0.131 A 
ATOM     82  C   UNL A   1      47.768  27.355  34.534  1.00  0.00     0.055 A 
ATOM     83  C   UNL A   1      46.332  25.775  35.646  1.00  0.00     0.041 A 
ATOM     84  F   UNL A   1      44.060  25.664  35.076  1.00  0.00    -0.206 F 
ATOM     85  C   UNL A   1      47.600  26.317  35.455  1.00  0.00     0.022 A 
BRANCH  82  86
ATOM     86  S   UNL A   1      49.430  27.983  34.164  1.00  0.00     0.124 S 
ATOM     87  O   UNL A   1      49.135  29.176  33.377  1.00  0.00    -0.237 OA
ATOM     88  O   UNL A   1      49.977  28.216  35.497  1.00  0.00    -0.237 OA
ATOM     89  O   UNL A   1      50.053  26.889  33.422  1.00  0.00    -0.744 OA
ENDBRANCH  82  86
ENDBRANCH  56  79
ENDBRANCH  30  31
ENDBRANCH  23  25
ENDBRANCH  22  23
ENDBRANCH   1  22
TORSDOF 18
ENDMDL
MODEL 3
REMARK VINA RESULT:     -10.8      1.614      2.228
REMARK SMILES CCC(CC)(NC(=O)c1c(C)noc1C)C(=O)OCCOC(=O)c1ccc(-c2c3nc(c(-c4cc(S(=O)(=O)[O-])ccc4F)c4ccc([nH]4)c(-c4cc(S(=O)(=O)[O-])ccc4F)c4nc(c(-c5cc(S(=O)(=O)[O-])ccc5F)c5ccc2[nH]5)C=C4)C=C3)cc1
REMARK SMILES IDX 20 1 19 2 18 3 16 4 17 5 3 6 2 7 1 8 4 9 5 10 6 11 7 12 8 14
REMARK SMILES IDX 9 15 10 16 14 17 11 18 12 19 13 20 15 21 21 22 22 23 23 24
REMARK SMILES IDX 24 25 25 26 86 27 26 28 85 29 27 30 28 31 29 32 79 33 30 34
REMARK SMILES IDX 84 35 78 36 80 37 31 38 83 39 77 40 76 41 32 43 64 44 44 45
REMARK SMILES IDX 63 46 45 47 48 48 62 49 81 50 46 51 47 52 61 54 82 55 49 56
REMARK SMILES IDX 33 57 34 58 42 59 35 60 41 61 43 62 40 63 36 64 37 65 38 66
REMARK SMILES IDX 39 67 65 68 66 69 74 70 67 71 73 72 75 73 72 74 68 75 69 76
REMARK SMILES IDX 70 77 71 78 50 79 51 80 59 81 52 82 58 83 60 84 57 85 53 86
REMARK SMILES IDX 54 87 55 88 56 89
REMARK H PARENT 6 13 80 42 48 53
REMARK Flexibility Score: inf
ROOT
ATOM      1  C   UNL A   1      31.586  29.951  26.490  1.00  0.00     0.275 C 
ENDROOT
BRANCH   1   2
ATOM      2  C   UNL A   1      31.689  28.565  27.118  1.00  0.00     0.274 C 
BRANCH   2   3
ATOM      3  O   UNL A   1      31.305  27.550  26.162  1.00  0.00    -0.460 OA
BRANCH   3   4
ATOM      4  C   UNL A   1      32.340  27.027  25.457  1.00  0.00     0.331 C 
ATOM      5  O   UNL A   1      33.365  26.607  25.991  1.00  0.00    -0.249 OA
BRANCH   4   6
ATOM      6  C   UNL A   1      32.120  26.995  23.910  1.00  0.00     0.137 C 
BRANCH   6   7
ATOM      7  C   UNL A   1      33.529  27.096  23.228  1.00  0.00     0.037 C 
ATOM      8  C   UNL A   1      33.899  28.399  22.534  1.00  0.00     0.007 C 
ENDBRANCH   6   7
BRANCH   6   9
ATOM      9  C   UNL A   1      31.238  28.230  23.556  1.00  0.00     0.037 C 
ATOM     10  C   UNL A   1      29.904  27.940  22.877  1.00  0.00     0.007 C 
ENDBRANCH   6   9
BRANCH   6  11
ATOM     11  N   UNL A   1      31.524  25.768  23.291  1.00  0.00    -0.336 N 
ATOM     12  C   UNL A   1      31.245  24.485  23.671  1.00  0.00     0.257 C 
ATOM     13  H   UNL A   1      31.260  25.930  22.356  1.00  0.00     0.165 HD
ATOM     14  O   UNL A   1      30.281  23.948  23.126  1.00  0.00    -0.269 OA
BRANCH  12  15
ATOM     15  C   UNL A   1      32.132  23.705  24.493  1.00  0.00     0.105 A 
ATOM     16  C   UNL A   1      31.870  23.302  25.840  1.00  0.00     0.093 A 
ATOM     17  C   UNL A   1      33.442  23.329  24.296  1.00  0.00     0.146 A 
ATOM     18  C   UNL A   1      30.645  23.526  26.649  1.00  0.00     0.071 C 
ATOM     19  N   UNL A   1      32.923  22.676  26.378  1.00  0.00    -0.084 NA
ATOM     20  O   UNL A   1      33.899  22.687  25.407  1.00  0.00    -0.361 OA
ATOM     21  C   UNL A   1      34.438  23.487  23.225  1.00  0.00     0.092 C 
ENDBRANCH  12  15
ENDBRANCH   6  11
ENDBRANCH   4   6
ENDBRANCH   3   4
ENDBRANCH   2   3
ENDBRANCH   1   2
BRANCH   1  22
ATOM     22  O   UNL A   1      32.927  30.427  26.304  1.00  0.00    -0.458 OA
BRANCH  22  23
ATOM     23  C   UNL A   1      33.267  31.516  27.022  1.00  0.00     0.338 C 
ATOM     24  O   UNL A   1      32.597  32.514  27.252  1.00  0.00    -0.246 OA
BRANCH  23  25
ATOM     25  C   UNL A   1      34.562  31.241  27.644  1.00  0.00     0.060 A 
ATOM     26  C   UNL A   1      34.847  29.919  27.983  1.00  0.00     0.016 A 
ATOM     27  C   UNL A   1      35.447  32.265  27.959  1.00  0.00     0.016 A 
ATOM     28  C   UNL A   1      36.002  29.612  28.690  1.00  0.00     0.010 A 
ATOM     29  C   UNL A   1      36.644  31.947  28.608  1.00  0.00     0.010 A 
ATOM     30  C   UNL A   1      36.922  30.622  28.999  1.00  0.00    -0.014 A 
BRANCH  30  31
ATOM     31  C   UNL A   1      38.150  30.300  29.771  1.00  0.00     0.031 A 
ATOM     32  C   UNL A   1      39.194  29.403  29.167  1.00  0.00     0.074 A 
ATOM     33  C   UNL A   1      38.336  30.823  30.998  1.00  0.00     0.049 A 
ATOM     34  N   UNL A   1      40.227  28.835  29.729  1.00  0.00    -0.248 NA
ATOM     35  C   UNL A   1      39.039  29.095  27.736  1.00  0.00     0.031 C 
ATOM     36  C   UNL A   1      37.425  31.755  31.669  1.00  0.00     0.029 A 
ATOM     37  N   UNL A   1      39.354  30.650  31.902  1.00  0.00    -0.354 N 
ATOM     38  C   UNL A   1      40.823  28.063  28.737  1.00  0.00     0.074 A 
ATOM     39  C   UNL A   1      40.026  28.232  27.539  1.00  0.00     0.031 C 
ATOM     40  C   UNL A   1      37.934  32.085  32.866  1.00  0.00     0.029 A 
ATOM     41  C   UNL A   1      39.160  31.325  33.086  1.00  0.00     0.049 A 
ATOM     42  H   UNL A   1      40.147  30.095  31.722  1.00  0.00     0.167 HD
ATOM     43  C   UNL A   1      41.929  27.282  28.824  1.00  0.00     0.034 A 
ATOM     44  C   UNL A   1      39.861  31.297  34.235  1.00  0.00     0.034 A 
ATOM     45  C   UNL A   1      42.714  27.141  30.028  1.00  0.00     0.049 A 
ATOM     46  C   UNL A   1      41.072  30.406  34.317  1.00  0.00     0.074 A 
ATOM     47  C   UNL A   1      43.816  26.336  30.259  1.00  0.00     0.029 A 
ATOM     48  N   UNL A   1      42.485  27.842  31.208  1.00  0.00    -0.354 N 
ATOM     49  N   UNL A   1      41.565  29.598  33.406  1.00  0.00    -0.248 NA
ATOM     50  C   UNL A   1      41.815  30.415  35.582  1.00  0.00     0.031 C 
ATOM     51  C   UNL A   1      44.228  26.521  31.585  1.00  0.00     0.029 A 
ATOM     52  C   UNL A   1      43.421  27.485  32.167  1.00  0.00     0.049 A 
ATOM     53  H   UNL A   1      41.762  28.496  31.342  1.00  0.00     0.167 HD
ATOM     54  C   UNL A   1      42.675  28.999  33.993  1.00  0.00     0.074 A 
ATOM     55  C   UNL A   1      42.800  29.572  35.318  1.00  0.00     0.031 C 
ATOM     56  C   UNL A   1      43.508  28.053  33.490  1.00  0.00     0.034 A 
BRANCH  43  57
ATOM     57  C   UNL A   1      42.297  26.473  27.604  1.00  0.00     0.023 A 
ATOM     58  C   UNL A   1      41.872  25.144  27.435  1.00  0.00     0.031 A 
ATOM     59  C   UNL A   1      43.136  27.025  26.618  1.00  0.00     0.131 A 
ATOM     60  C   UNL A   1      42.345  24.390  26.349  1.00  0.00     0.055 A 
ATOM     61  C   UNL A   1      43.541  26.293  25.500  1.00  0.00     0.041 A 
ATOM     62  F   UNL A   1      43.594  28.281  26.736  1.00  0.00    -0.206 F 
ATOM     63  C   UNL A   1      43.158  24.961  25.368  1.00  0.00     0.022 A 
BRANCH  60  64
ATOM     64  S   UNL A   1      41.996  22.609  26.311  1.00  0.00     0.124 S 
ATOM     65  O   UNL A   1      42.651  22.208  25.068  1.00  0.00    -0.237 OA
ATOM     66  O   UNL A   1      42.620  22.139  27.542  1.00  0.00    -0.237 OA
ATOM     67  O   UNL A   1      40.536  22.546  26.289  1.00  0.00    -0.744 OA
ENDBRANCH  60  64
ENDBRANCH  43  57
BRANCH  44  68
ATOM     68  C   UNL A   1      39.396  32.073  35.421  1.00  0.00     0.023 A 
ATOM     69  C   UNL A   1      39.796  33.402  35.626  1.00  0.00     0.031 A 
ATOM     70  C   UNL A   1      38.563  31.478  36.386  1.00  0.00     0.131 A 
ATOM     71  C   UNL A   1      39.388  34.083  36.785  1.00  0.00     0.055 A 
ATOM     72  C   UNL A   1      38.119  32.176  37.510  1.00  0.00     0.041 A 
ATOM     73  F   UNL A   1      38.151  30.208  36.238  1.00  0.00    -0.206 F 
ATOM     74  C   UNL A   1      38.541  33.484  37.720  1.00  0.00     0.022 A 
BRANCH  71  75
ATOM     75  S   UNL A   1      40.044  35.747  37.092  1.00  0.00     0.124 S 
ATOM     76  O   UNL A   1      41.469  35.482  37.252  1.00  0.00    -0.237 OA
ATOM     77  O   UNL A   1      39.655  36.453  35.876  1.00  0.00    -0.237 OA
ATOM     78  O   UNL A   1      39.346  36.168  38.304  1.00  0.00    -0.744 OA
ENDBRANCH  71  75
ENDBRANCH  44  68
BRANCH  56  79
ATOM     79  C   UNL A   1      44.632  27.607  34.392  1.00  0.00     0.023 A 
ATOM     80  C   UNL A   1      44.486  26.502  35.249  1.00  0.00     0.031 A 
ATOM     81  C   UNL A   1      45.838  28.326  34.431  1.00  0.00     0.131 A 
ATOM     82  C   UNL A   1      45.504  26.188  36.159  1.00  0.00     0.055 A 
ATOM     83  C   UNL A   1      46.871  27.975  35.301  1.00  0.00     0.041 A 
ATOM     84  F   UNL A   1      46.025  29.390  33.634  1.00  0.00    -0.206 F 
ATOM     85  C   UNL A   1      46.701  26.910  36.183  1.00  0.00     0.022 A 
BRANCH  82  86
ATOM     86  S   UNL A   1      45.202  24.889  37.389  1.00  0.00     0.124 S 
ATOM     87  O   UNL A   1      46.474  24.844  38.102  1.00  0.00    -0.237 OA
ATOM     88  O   UNL A   1      44.070  25.428  38.137  1.00  0.00    -0.237 OA
ATOM     89  O   UNL A   1      44.903  23.711  36.578  1.00  0.00    -0.744 OA
ENDBRANCH  82  86
ENDBRANCH  56  79
ENDBRANCH  30  31
ENDBRANCH  23  25
ENDBRANCH  22  23
ENDBRANCH   1  22
TORSDOF 18
ENDMDL
