MODEL 1
REMARK VINA RESULT:     -11.3      0.000      0.000
REMARK SMILES CC[C@H]1CC[C@](Cc2cccc(OC)n2)(C(=O)OCCOC(=O)c2ccc(-c3c4nc(c(-c5cc(S(=O)(=O)[O-])ccc5F)c5ccc([nH]5)c(-c5cc(S(=O)(=O)[O-])ccc5F)c5nc(c(-c6cc(S(=O)(=O)[O-])ccc6F)c6ccc3[nH]6)C=C5)C=C4)cc2)C1
REMARK SMILES IDX 19 1 18 2 16 3 17 4 6 5 3 6 4 7 87 8 5 9 2 10 1 11 7 12 8 13
REMARK SMILES IDX 9 14 15 15 10 16 12 17 11 18 13 19 14 20 20 21 21 22 22 23
REMARK SMILES IDX 23 24 24 25 25 26 86 27 26 28 85 29 27 30 28 31 29 32 79 33
REMARK SMILES IDX 30 34 84 35 78 36 80 37 31 38 83 39 77 40 76 41 32 43 64 44
REMARK SMILES IDX 44 45 63 46 45 47 48 48 62 49 81 50 46 51 47 52 61 54 82 55
REMARK SMILES IDX 49 56 33 57 34 58 42 59 35 60 41 61 43 62 40 63 36 64 37 65
REMARK SMILES IDX 38 66 39 67 65 68 66 69 74 70 67 71 73 72 75 73 72 74 68 75
REMARK SMILES IDX 69 76 70 77 71 78 50 79 51 80 59 81 52 82 58 83 60 84 57 85
REMARK SMILES IDX 53 86 54 87 55 88 56 89
REMARK H PARENT 80 42 48 53
REMARK Flexibility Score: inf
ROOT
ATOM      1  C   UNL A   1      35.156  21.599  26.405  1.00  0.00     0.274 C 
ENDROOT
BRANCH   1   2
ATOM      2  O   UNL A   1      33.785  21.854  26.039  1.00  0.00    -0.462 OA
BRANCH   2   3
ATOM      3  C   UNL A   1      33.190  22.920  26.651  1.00  0.00     0.312 C 
ATOM      4  O   UNL A   1      32.716  22.874  27.779  1.00  0.00    -0.252 OA
BRANCH   3   5
ATOM      5  C   UNL A   1      33.033  24.115  25.693  1.00  0.00     0.074 C 
ATOM      6  C   UNL A   1      33.981  24.412  23.400  1.00  0.00    -0.010 C 
ATOM      7  C   UNL A   1      35.077  24.617  24.434  1.00  0.00     0.005 C 
ATOM      8  C   UNL A   1      32.908  23.654  24.214  1.00  0.00     0.022 C 
ATOM      9  C   UNL A   1      34.325  24.974  25.712  1.00  0.00     0.019 C 
BRANCH   6  10
ATOM     10  C   UNL A   1      33.454  25.716  22.783  1.00  0.00     0.000 C 
ATOM     11  C   UNL A   1      32.397  25.524  21.705  1.00  0.00     0.004 C 
ENDBRANCH   6  10
BRANCH   5  12
ATOM     12  C   UNL A   1      31.796  24.854  26.274  1.00  0.00     0.075 C 
BRANCH  12  13
ATOM     13  C   UNL A   1      31.162  25.928  25.430  1.00  0.00     0.046 A 
ATOM     14  C   UNL A   1      30.036  25.661  24.660  1.00  0.00     0.024 A 
ATOM     15  N   UNL A   1      31.759  27.142  25.437  1.00  0.00    -0.219 NA
ATOM     16  C   UNL A   1      29.552  26.657  23.822  1.00  0.00     0.007 A 
ATOM     17  C   UNL A   1      31.282  28.104  24.618  1.00  0.00     0.213 A 
ATOM     18  C   UNL A   1      30.189  27.895  23.791  1.00  0.00     0.068 A 
BRANCH  17  19
ATOM     19  O   UNL A   1      31.984  29.270  24.717  1.00  0.00    -0.481 OA
ATOM     20  C   UNL A   1      31.898  29.970  25.948  1.00  0.00     0.280 C 
ENDBRANCH  17  19
ENDBRANCH  12  13
ENDBRANCH   5  12
ENDBRANCH   3   5
ENDBRANCH   2   3
ENDBRANCH   1   2
BRANCH   1  21
ATOM     21  C   UNL A   1      35.963  20.990  25.260  1.00  0.00     0.275 C 
BRANCH  21  22
ATOM     22  O   UNL A   1      37.148  21.755  24.990  1.00  0.00    -0.458 OA
BRANCH  22  23
ATOM     23  C   UNL A   1      38.268  21.303  25.595  1.00  0.00     0.338 C 
ATOM     24  O   UNL A   1      38.718  20.167  25.570  1.00  0.00    -0.246 OA
BRANCH  23  25
ATOM     25  C   UNL A   1      38.935  22.416  26.276  1.00  0.00     0.060 A 
ATOM     26  C   UNL A   1      38.487  23.714  26.033  1.00  0.00     0.016 A 
ATOM     27  C   UNL A   1      40.064  22.188  27.060  1.00  0.00     0.016 A 
ATOM     28  C   UNL A   1      39.208  24.804  26.511  1.00  0.00     0.010 A 
ATOM     29  C   UNL A   1      40.752  23.281  27.592  1.00  0.00     0.010 A 
ATOM     30  C   UNL A   1      40.347  24.598  27.297  1.00  0.00    -0.014 A 
BRANCH  30  31
ATOM     31  C   UNL A   1      41.154  25.745  27.782  1.00  0.00     0.031 A 
ATOM     32  C   UNL A   1      40.492  26.814  28.604  1.00  0.00     0.074 A 
ATOM     33  C   UNL A   1      42.458  25.841  27.465  1.00  0.00     0.049 A 
ATOM     34  N   UNL A   1      40.922  28.007  28.918  1.00  0.00    -0.248 NA
ATOM     35  C   UNL A   1      39.156  26.495  29.130  1.00  0.00     0.031 C 
ATOM     36  C   UNL A   1      43.230  24.831  26.739  1.00  0.00     0.029 A 
ATOM     37  N   UNL A   1      43.362  26.848  27.697  1.00  0.00    -0.354 N 
ATOM     38  C   UNL A   1      39.893  28.602  29.641  1.00  0.00     0.074 A 
ATOM     39  C   UNL A   1      38.816  27.638  29.709  1.00  0.00     0.031 C 
ATOM     40  C   UNL A   1      44.487  25.273  26.576  1.00  0.00     0.029 A 
ATOM     41  C   UNL A   1      44.588  26.626  27.112  1.00  0.00     0.049 A 
ATOM     42  H   UNL A   1      43.154  27.650  28.229  1.00  0.00     0.167 HD
ATOM     43  C   UNL A   1      39.856  29.845  30.185  1.00  0.00     0.034 A 
ATOM     44  C   UNL A   1      45.650  27.444  26.972  1.00  0.00     0.034 A 
ATOM     45  C   UNL A   1      40.954  30.779  30.114  1.00  0.00     0.049 A 
ATOM     46  C   UNL A   1      45.565  28.843  27.523  1.00  0.00     0.074 A 
ATOM     47  C   UNL A   1      41.030  32.066  30.617  1.00  0.00     0.029 A 
ATOM     48  N   UNL A   1      42.176  30.522  29.502  1.00  0.00    -0.354 N 
ATOM     49  N   UNL A   1      44.562  29.427  28.140  1.00  0.00    -0.248 NA
ATOM     50  C   UNL A   1      46.747  29.697  27.353  1.00  0.00     0.031 C 
ATOM     51  C   UNL A   1      42.273  32.604  30.264  1.00  0.00     0.029 A 
ATOM     52  C   UNL A   1      43.002  31.629  29.600  1.00  0.00     0.049 A 
ATOM     53  H   UNL A   1      42.418  29.675  29.063  1.00  0.00     0.167 HD
ATOM     54  C   UNL A   1      45.007  30.707  28.457  1.00  0.00     0.074 A 
ATOM     55  C   UNL A   1      46.367  30.808  27.965  1.00  0.00     0.031 C 
ATOM     56  C   UNL A   1      44.354  31.706  29.103  1.00  0.00     0.034 A 
BRANCH  43  57
ATOM     57  C   UNL A   1      38.564  30.279  30.835  1.00  0.00     0.023 A 
ATOM     58  C   UNL A   1      37.545  30.925  30.113  1.00  0.00     0.031 A 
ATOM     59  C   UNL A   1      38.367  30.077  32.212  1.00  0.00     0.131 A 
ATOM     60  C   UNL A   1      36.410  31.407  30.784  1.00  0.00     0.055 A 
ATOM     61  C   UNL A   1      37.202  30.489  32.860  1.00  0.00     0.041 A 
ATOM     62  F   UNL A   1      39.316  29.486  32.958  1.00  0.00    -0.206 F 
ATOM     63  C   UNL A   1      36.221  31.172  32.150  1.00  0.00     0.022 A 
BRANCH  60  64
ATOM     64  S   UNL A   1      35.247  32.465  29.880  1.00  0.00     0.124 S 
ATOM     65  O   UNL A   1      34.284  32.805  30.925  1.00  0.00    -0.237 OA
ATOM     66  O   UNL A   1      36.102  33.552  29.419  1.00  0.00    -0.237 OA
ATOM     67  O   UNL A   1      34.730  31.590  28.830  1.00  0.00    -0.744 OA
ENDBRANCH  60  64
ENDBRANCH  43  57
BRANCH  44  68
ATOM     68  C   UNL A   1      46.852  26.988  26.220  1.00  0.00     0.023 A 
ATOM     69  C   UNL A   1      47.943  26.404  26.880  1.00  0.00     0.031 A 
ATOM     70  C   UNL A   1      46.937  27.157  24.825  1.00  0.00     0.131 A 
ATOM     71  C   UNL A   1      49.086  26.040  26.151  1.00  0.00     0.055 A 
ATOM     72  C   UNL A   1      48.055  26.747  24.098  1.00  0.00     0.041 A 
ATOM     73  F   UNL A   1      45.921  27.713  24.144  1.00  0.00    -0.206 F 
ATOM     74  C   UNL A   1      49.144  26.194  24.764  1.00  0.00     0.022 A 
BRANCH  71  75
ATOM     75  S   UNL A   1      50.535  25.429  27.055  1.00  0.00     0.124 S 
ATOM     76  O   UNL A   1      49.987  24.265  27.743  1.00  0.00    -0.237 OA
ATOM     77  O   UNL A   1      51.474  25.151  25.973  1.00  0.00    -0.237 OA
ATOM     78  O   UNL A   1      50.898  26.551  27.918  1.00  0.00    -0.744 OA
ENDBRANCH  71  75
ENDBRANCH  44  68
BRANCH  56  79
ATOM     79  C   UNL A   1      45.135  32.966  29.372  1.00  0.00     0.023 A 
ATOM     80  C   UNL A   1      45.142  34.043  28.470  1.00  0.00     0.031 A 
ATOM     81  C   UNL A   1      45.881  33.085  30.559  1.00  0.00     0.131 A 
ATOM     82  C   UNL A   1      45.919  35.179  28.750  1.00  0.00     0.055 A 
ATOM     83  C   UNL A   1      46.612  34.235  30.853  1.00  0.00     0.041 A 
ATOM     84  F   UNL A   1      45.904  32.083  31.452  1.00  0.00    -0.206 F 
ATOM     85  C   UNL A   1      46.641  35.287  29.942  1.00  0.00     0.022 A 
BRANCH  82  86
ATOM     86  S   UNL A   1      46.020  36.497  27.507  1.00  0.00     0.124 S 
ATOM     87  O   UNL A   1      44.724  36.387  26.843  1.00  0.00    -0.237 OA
ATOM     88  O   UNL A   1      46.217  37.688  28.327  1.00  0.00    -0.237 OA
ATOM     89  O   UNL A   1      47.170  36.111  26.691  1.00  0.00    -0.744 OA
ENDBRANCH  82  86
ENDBRANCH  56  79
ENDBRANCH  30  31
ENDBRANCH  23  25
ENDBRANCH  22  23
ENDBRANCH  21  22
ENDBRANCH   1  21
TORSDOF 18
ENDMDL
MODEL 2
REMARK VINA RESULT:     -11.1      1.566      2.135
REMARK SMILES CC[C@H]1CC[C@](Cc2cccc(OC)n2)(C(=O)OCCOC(=O)c2ccc(-c3c4nc(c(-c5cc(S(=O)(=O)[O-])ccc5F)c5ccc([nH]5)c(-c5cc(S(=O)(=O)[O-])ccc5F)c5nc(c(-c6cc(S(=O)(=O)[O-])ccc6F)c6ccc3[nH]6)C=C5)C=C4)cc2)C1
REMARK SMILES IDX 19 1 18 2 16 3 17 4 6 5 3 6 4 7 87 8 5 9 2 10 1 11 7 12 8 13
REMARK SMILES IDX 9 14 15 15 10 16 12 17 11 18 13 19 14 20 20 21 21 22 22 23
REMARK SMILES IDX 23 24 24 25 25 26 86 27 26 28 85 29 27 30 28 31 29 32 79 33
REMARK SMILES IDX 30 34 84 35 78 36 80 37 31 38 83 39 77 40 76 41 32 43 64 44
REMARK SMILES IDX 44 45 63 46 45 47 48 48 62 49 81 50 46 51 47 52 61 54 82 55
REMARK SMILES IDX 49 56 33 57 34 58 42 59 35 60 41 61 43 62 40 63 36 64 37 65
REMARK SMILES IDX 38 66 39 67 65 68 66 69 74 70 67 71 73 72 75 73 72 74 68 75
REMARK SMILES IDX 69 76 70 77 71 78 50 79 51 80 59 81 52 82 58 83 60 84 57 85
REMARK SMILES IDX 53 86 54 87 55 88 56 89
REMARK H PARENT 80 42 48 53
REMARK Flexibility Score: inf
ROOT
ATOM      1  C   UNL A   1      35.296  20.886  25.128  1.00  0.00     0.274 C 
ENDROOT
BRANCH   1   2
ATOM      2  O   UNL A   1      34.956  22.283  25.007  1.00  0.00    -0.462 OA
BRANCH   2   3
ATOM      3  C   UNL A   1      34.138  22.786  25.978  1.00  0.00     0.312 C 
ATOM      4  O   UNL A   1      33.991  22.263  27.076  1.00  0.00    -0.252 OA
BRANCH   3   5
ATOM      5  C   UNL A   1      33.300  23.970  25.464  1.00  0.00     0.074 C 
ATOM      6  C   UNL A   1      30.888  24.472  25.881  1.00  0.00    -0.010 C 
ATOM      7  C   UNL A   1      31.004  23.340  24.872  1.00  0.00     0.005 C 
ATOM      8  C   UNL A   1      32.288  24.467  26.534  1.00  0.00     0.022 C 
ATOM      9  C   UNL A   1      32.403  23.503  24.286  1.00  0.00     0.019 C 
BRANCH   6  10
ATOM     10  C   UNL A   1      30.521  25.828  25.259  1.00  0.00     0.000 C 
ATOM     11  C   UNL A   1      29.864  25.738  23.889  1.00  0.00     0.004 C 
ENDBRANCH   6  10
BRANCH   5  12
ATOM     12  C   UNL A   1      34.387  24.995  25.037  1.00  0.00     0.075 C 
BRANCH  12  13
ATOM     13  C   UNL A   1      33.924  26.322  24.498  1.00  0.00     0.046 A 
ATOM     14  C   UNL A   1      33.646  26.487  23.146  1.00  0.00     0.024 A 
ATOM     15  N   UNL A   1      33.824  27.341  25.383  1.00  0.00    -0.219 NA
ATOM     16  C   UNL A   1      33.322  27.756  22.683  1.00  0.00     0.007 A 
ATOM     17  C   UNL A   1      33.509  28.570  24.925  1.00  0.00     0.213 A 
ATOM     18  C   UNL A   1      33.261  28.818  23.583  1.00  0.00     0.068 A 
BRANCH  17  19
ATOM     19  O   UNL A   1      33.455  29.502  25.920  1.00  0.00    -0.481 OA
ATOM     20  C   UNL A   1      32.995  29.063  27.188  1.00  0.00     0.280 C 
ENDBRANCH  17  19
ENDBRANCH  12  13
ENDBRANCH   5  12
ENDBRANCH   3   5
ENDBRANCH   2   3
ENDBRANCH   1   2
BRANCH   1  21
ATOM     21  C   UNL A   1      36.796  20.636  24.990  1.00  0.00     0.275 C 
BRANCH  21  22
ATOM     22  O   UNL A   1      37.559  21.757  25.463  1.00  0.00    -0.458 OA
BRANCH  22  23
ATOM     23  C   UNL A   1      38.793  21.454  25.921  1.00  0.00     0.338 C 
ATOM     24  O   UNL A   1      39.386  20.391  25.810  1.00  0.00    -0.246 OA
BRANCH  23  25
ATOM     25  C   UNL A   1      39.379  22.637  26.557  1.00  0.00     0.060 A 
ATOM     26  C   UNL A   1      38.936  23.898  26.161  1.00  0.00     0.016 A 
ATOM     27  C   UNL A   1      40.436  22.505  27.455  1.00  0.00     0.016 A 
ATOM     28  C   UNL A   1      39.594  25.042  26.601  1.00  0.00     0.010 A 
ATOM     29  C   UNL A   1      41.057  23.655  27.946  1.00  0.00     0.010 A 
ATOM     30  C   UNL A   1      40.661  24.932  27.501  1.00  0.00    -0.014 A 
BRANCH  30  31
ATOM     31  C   UNL A   1      41.403  26.135  27.951  1.00  0.00     0.031 A 
ATOM     32  C   UNL A   1      40.678  27.201  28.720  1.00  0.00     0.074 A 
ATOM     33  C   UNL A   1      42.707  26.282  27.649  1.00  0.00     0.049 A 
ATOM     34  N   UNL A   1      41.045  28.426  28.992  1.00  0.00    -0.248 NA
ATOM     35  C   UNL A   1      39.350  26.838  29.239  1.00  0.00     0.031 C 
ATOM     36  C   UNL A   1      43.538  25.283  26.975  1.00  0.00     0.029 A 
ATOM     37  N   UNL A   1      43.557  27.340  27.853  1.00  0.00    -0.354 N 
ATOM     38  C   UNL A   1      39.977  28.998  29.676  1.00  0.00     0.074 A 
ATOM     39  C   UNL A   1      38.946  27.985  29.767  1.00  0.00     0.031 C 
ATOM     40  C   UNL A   1      44.775  25.779  26.812  1.00  0.00     0.029 A 
ATOM     41  C   UNL A   1      44.801  27.155  27.295  1.00  0.00     0.049 A 
ATOM     42  H   UNL A   1      43.302  28.151  28.350  1.00  0.00     0.167 HD
ATOM     43  C   UNL A   1      39.871  30.258  30.169  1.00  0.00     0.034 A 
ATOM     44  C   UNL A   1      45.825  28.018  27.138  1.00  0.00     0.034 A 
ATOM     45  C   UNL A   1      40.924  31.241  30.077  1.00  0.00     0.049 A 
ATOM     46  C   UNL A   1      45.663  29.432  27.631  1.00  0.00     0.074 A 
ATOM     47  C   UNL A   1      40.929  32.548  30.529  1.00  0.00     0.029 A 
ATOM     48  N   UNL A   1      42.166  31.019  29.493  1.00  0.00    -0.354 N 
ATOM     49  N   UNL A   1      44.624  29.990  28.210  1.00  0.00    -0.248 NA
ATOM     50  C   UNL A   1      46.805  30.335  27.444  1.00  0.00     0.031 C 
ATOM     51  C   UNL A   1      42.150  33.132  30.173  1.00  0.00     0.029 A 
ATOM     52  C   UNL A   1      42.936  32.169  29.559  1.00  0.00     0.049 A 
ATOM     53  H   UNL A   1      42.455  30.169  29.092  1.00  0.00     0.167 HD
ATOM     54  C   UNL A   1      45.001  31.302  28.482  1.00  0.00     0.074 A 
ATOM     55  C   UNL A   1      46.363  31.449  28.006  1.00  0.00     0.031 C 
ATOM     56  C   UNL A   1      44.291  32.292  29.078  1.00  0.00     0.034 A 
BRANCH  43  57
ATOM     57  C   UNL A   1      38.549  30.653  30.783  1.00  0.00     0.023 A 
ATOM     58  C   UNL A   1      37.530  31.263  30.031  1.00  0.00     0.031 A 
ATOM     59  C   UNL A   1      38.323  30.451  32.156  1.00  0.00     0.131 A 
ATOM     60  C   UNL A   1      36.362  31.711  30.670  1.00  0.00     0.055 A 
ATOM     61  C   UNL A   1      37.129  30.829  32.771  1.00  0.00     0.041 A 
ATOM     62  F   UNL A   1      39.270  29.896  32.929  1.00  0.00    -0.206 F 
ATOM     63  C   UNL A   1      36.145  31.477  32.031  1.00  0.00     0.022 A 
BRANCH  60  64
ATOM     64  S   UNL A   1      35.190  32.726  29.729  1.00  0.00     0.124 S 
ATOM     65  O   UNL A   1      34.299  33.203  30.785  1.00  0.00    -0.237 OA
ATOM     66  O   UNL A   1      36.057  33.729  29.123  1.00  0.00    -0.237 OA
ATOM     67  O   UNL A   1      34.585  31.779  28.796  1.00  0.00    -0.744 OA
ENDBRANCH  60  64
ENDBRANCH  43  57
BRANCH  44  68
ATOM     68  C   UNL A   1      47.059  27.592  26.421  1.00  0.00     0.023 A 
ATOM     69  C   UNL A   1      47.216  27.820  25.046  1.00  0.00     0.031 A 
ATOM     70  C   UNL A   1      48.094  26.923  27.102  1.00  0.00     0.131 A 
ATOM     71  C   UNL A   1      48.364  27.353  24.388  1.00  0.00     0.055 A 
ATOM     72  C   UNL A   1      49.256  26.506  26.453  1.00  0.00     0.041 A 
ATOM     73  F   UNL A   1      47.994  26.678  28.419  1.00  0.00    -0.206 F 
ATOM     74  C   UNL A   1      49.391  26.711  25.084  1.00  0.00     0.022 A 
BRANCH  71  75
ATOM     75  S   UNL A   1      48.465  27.530  22.585  1.00  0.00     0.124 S 
ATOM     76  O   UNL A   1      49.721  28.255  22.427  1.00  0.00    -0.237 OA
ATOM     77  O   UNL A   1      48.467  26.139  22.143  1.00  0.00    -0.237 OA
ATOM     78  O   UNL A   1      47.261  28.285  22.249  1.00  0.00    -0.744 OA
ENDBRANCH  71  75
ENDBRANCH  44  68
BRANCH  56  79
ATOM     79  C   UNL A   1      45.006  33.598  29.308  1.00  0.00     0.023 A 
ATOM     80  C   UNL A   1      45.046  34.606  28.329  1.00  0.00     0.031 A 
ATOM     81  C   UNL A   1      45.654  33.832  30.534  1.00  0.00     0.131 A 
ATOM     82  C   UNL A   1      45.759  35.789  28.579  1.00  0.00     0.055 A 
ATOM     83  C   UNL A   1      46.321  35.029  30.793  1.00  0.00     0.041 A 
ATOM     84  F   UNL A   1      45.643  32.900  31.499  1.00  0.00    -0.206 F 
ATOM     85  C   UNL A   1      46.385  36.012  29.809  1.00  0.00     0.022 A 
BRANCH  82  86
ATOM     86  S   UNL A   1      45.910  37.015  27.251  1.00  0.00     0.124 S 
ATOM     87  O   UNL A   1      47.029  37.829  27.716  1.00  0.00    -0.237 OA
ATOM     88  O   UNL A   1      46.172  36.182  26.082  1.00  0.00    -0.237 OA
ATOM     89  O   UNL A   1      44.611  37.685  27.253  1.00  0.00    -0.744 OA
ENDBRANCH  82  86
ENDBRANCH  56  79
ENDBRANCH  30  31
ENDBRANCH  23  25
ENDBRANCH  22  23
ENDBRANCH  21  22
ENDBRANCH   1  21
TORSDOF 18
ENDMDL
MODEL 3
REMARK VINA RESULT:     -10.8      4.242     10.537
REMARK SMILES CC[C@H]1CC[C@](Cc2cccc(OC)n2)(C(=O)OCCOC(=O)c2ccc(-c3c4nc(c(-c5cc(S(=O)(=O)[O-])ccc5F)c5ccc([nH]5)c(-c5cc(S(=O)(=O)[O-])ccc5F)c5nc(c(-c6cc(S(=O)(=O)[O-])ccc6F)c6ccc3[nH]6)C=C5)C=C4)cc2)C1
REMARK SMILES IDX 19 1 18 2 16 3 17 4 6 5 3 6 4 7 87 8 5 9 2 10 1 11 7 12 8 13
REMARK SMILES IDX 9 14 15 15 10 16 12 17 11 18 13 19 14 20 20 21 21 22 22 23
REMARK SMILES IDX 23 24 24 25 25 26 86 27 26 28 85 29 27 30 28 31 29 32 79 33
REMARK SMILES IDX 30 34 84 35 78 36 80 37 31 38 83 39 77 40 76 41 32 43 64 44
REMARK SMILES IDX 44 45 63 46 45 47 48 48 62 49 81 50 46 51 47 52 61 54 82 55
REMARK SMILES IDX 49 56 33 57 34 58 42 59 35 60 41 61 43 62 40 63 36 64 37 65
REMARK SMILES IDX 38 66 39 67 65 68 66 69 74 70 67 71 73 72 75 73 72 74 68 75
REMARK SMILES IDX 69 76 70 77 71 78 50 79 51 80 59 81 52 82 58 83 60 84 57 85
REMARK SMILES IDX 53 86 54 87 55 88 56 89
REMARK H PARENT 80 42 48 53
REMARK Flexibility Score: inf
ROOT
ATOM      1  C   UNL A   1      41.857  20.664  26.237  1.00  0.00     0.274 C 
ENDROOT
BRANCH   1   2
ATOM      2  O   UNL A   1      42.405  21.801  25.538  1.00  0.00    -0.462 OA
BRANCH   2   3
ATOM      3  C   UNL A   1      43.768  21.877  25.497  1.00  0.00     0.312 C 
ATOM      4  O   UNL A   1      44.487  20.946  25.155  1.00  0.00    -0.252 OA
BRANCH   3   5
ATOM      5  C   UNL A   1      44.286  23.196  26.097  1.00  0.00     0.074 C 
ATOM      6  C   UNL A   1      45.324  23.590  28.336  1.00  0.00    -0.010 C 
ATOM      7  C   UNL A   1      43.822  23.411  28.496  1.00  0.00     0.005 C 
ATOM      8  C   UNL A   1      45.574  22.979  26.940  1.00  0.00     0.022 C 
ATOM      9  C   UNL A   1      43.255  23.745  27.121  1.00  0.00     0.019 C 
BRANCH   6  10
ATOM     10  C   UNL A   1      45.792  25.049  28.445  1.00  0.00     0.000 C 
ATOM     11  C   UNL A   1      47.287  25.250  28.242  1.00  0.00     0.004 C 
ENDBRANCH   6  10
BRANCH   5  12
ATOM     12  C   UNL A   1      44.445  24.100  24.843  1.00  0.00     0.075 C 
BRANCH  12  13
ATOM     13  C   UNL A   1      45.289  25.339  24.977  1.00  0.00     0.046 A 
ATOM     14  C   UNL A   1      44.727  26.549  25.367  1.00  0.00     0.024 A 
ATOM     15  N   UNL A   1      46.602  25.221  24.671  1.00  0.00    -0.219 NA
ATOM     16  C   UNL A   1      45.529  27.683  25.376  1.00  0.00     0.007 A 
ATOM     17  C   UNL A   1      47.373  26.328  24.682  1.00  0.00     0.213 A 
ATOM     18  C   UNL A   1      46.870  27.576  25.019  1.00  0.00     0.068 A 
BRANCH  17  19
ATOM     19  O   UNL A   1      48.669  26.067  24.342  1.00  0.00    -0.481 OA
ATOM     20  C   UNL A   1      49.315  27.007  23.500  1.00  0.00     0.280 C 
ENDBRANCH  17  19
ENDBRANCH  12  13
ENDBRANCH   5  12
ENDBRANCH   3   5
ENDBRANCH   2   3
ENDBRANCH   1   2
BRANCH   1  21
ATOM     21  C   UNL A   1      40.403  20.880  26.653  1.00  0.00     0.275 C 
BRANCH  21  22
ATOM     22  O   UNL A   1      40.219  22.166  27.264  1.00  0.00    -0.458 OA
BRANCH  22  23
ATOM     23  C   UNL A   1      39.345  22.978  26.631  1.00  0.00     0.338 C 
ATOM     24  O   UNL A   1      38.499  22.660  25.807  1.00  0.00    -0.246 OA
BRANCH  23  25
ATOM     25  C   UNL A   1      39.515  24.349  27.118  1.00  0.00     0.060 A 
ATOM     26  C   UNL A   1      40.094  25.293  26.271  1.00  0.00     0.016 A 
ATOM     27  C   UNL A   1      39.210  24.671  28.439  1.00  0.00     0.016 A 
ATOM     28  C   UNL A   1      40.444  26.549  26.757  1.00  0.00     0.010 A 
ATOM     29  C   UNL A   1      39.504  25.953  28.910  1.00  0.00     0.010 A 
ATOM     30  C   UNL A   1      40.149  26.892  28.081  1.00  0.00    -0.014 A 
BRANCH  30  31
ATOM     31  C   UNL A   1      40.550  28.211  28.632  1.00  0.00     0.031 A 
ATOM     32  C   UNL A   1      42.001  28.484  28.906  1.00  0.00     0.074 A 
ATOM     33  C   UNL A   1      39.618  29.143  28.908  1.00  0.00     0.049 A 
ATOM     34  N   UNL A   1      42.549  29.443  29.604  1.00  0.00    -0.248 NA
ATOM     35  C   UNL A   1      42.961  27.534  28.325  1.00  0.00     0.031 C 
ATOM     36  C   UNL A   1      38.189  29.026  28.615  1.00  0.00     0.029 A 
ATOM     37  N   UNL A   1      39.734  30.368  29.517  1.00  0.00    -0.354 N 
ATOM     38  C   UNL A   1      43.917  29.189  29.586  1.00  0.00     0.074 A 
ATOM     39  C   UNL A   1      44.109  27.980  28.814  1.00  0.00     0.031 C 
ATOM     40  C   UNL A   1      37.560  30.127  29.053  1.00  0.00     0.029 A 
ATOM     41  C   UNL A   1      38.524  30.989  29.728  1.00  0.00     0.049 A 
ATOM     42  H   UNL A   1      40.597  30.763  29.778  1.00  0.00     0.167 HD
ATOM     43  C   UNL A   1      44.913  29.901  30.172  1.00  0.00     0.034 A 
ATOM     44  C   UNL A   1      38.221  32.095  30.436  1.00  0.00     0.034 A 
ATOM     45  C   UNL A   1      44.690  31.113  30.924  1.00  0.00     0.049 A 
ATOM     46  C   UNL A   1      39.331  32.833  31.137  1.00  0.00     0.074 A 
ATOM     47  C   UNL A   1      45.616  31.914  31.570  1.00  0.00     0.029 A 
ATOM     48  N   UNL A   1      43.448  31.704  31.125  1.00  0.00    -0.354 N 
ATOM     49  N   UNL A   1      40.614  32.548  31.179  1.00  0.00    -0.248 NA
ATOM     50  C   UNL A   1      38.956  34.035  31.892  1.00  0.00     0.031 C 
ATOM     51  C   UNL A   1      44.930  32.955  32.205  1.00  0.00     0.029 A 
ATOM     52  C   UNL A   1      43.582  32.846  31.898  1.00  0.00     0.049 A 
ATOM     53  H   UNL A   1      42.597  31.360  30.769  1.00  0.00     0.167 HD
ATOM     54  C   UNL A   1      41.201  33.555  31.940  1.00  0.00     0.074 A 
ATOM     55  C   UNL A   1      40.133  34.453  32.334  1.00  0.00     0.031 C 
ATOM     56  C   UNL A   1      42.503  33.726  32.277  1.00  0.00     0.034 A 
BRANCH  43  57
ATOM     57  C   UNL A   1      46.312  29.341  30.080  1.00  0.00     0.023 A 
ATOM     58  C   UNL A   1      47.197  29.708  29.053  1.00  0.00     0.031 A 
ATOM     59  C   UNL A   1      46.751  28.390  31.019  1.00  0.00     0.131 A 
ATOM     60  C   UNL A   1      48.448  29.078  28.948  1.00  0.00     0.055 A 
ATOM     61  C   UNL A   1      48.025  27.824  30.955  1.00  0.00     0.041 A 
ATOM     62  F   UNL A   1      45.941  27.983  32.009  1.00  0.00    -0.206 F 
ATOM     63  C   UNL A   1      48.877  28.155  29.907  1.00  0.00     0.022 A 
BRANCH  60  64
ATOM     64  S   UNL A   1      49.452  29.375  27.467  1.00  0.00     0.124 S 
ATOM     65  O   UNL A   1      50.579  30.123  28.020  1.00  0.00    -0.237 OA
ATOM     66  O   UNL A   1      49.746  28.023  27.008  1.00  0.00    -0.237 OA
ATOM     67  O   UNL A   1      48.567  30.150  26.601  1.00  0.00    -0.744 OA
ENDBRANCH  60  64
ENDBRANCH  43  57
BRANCH  44  68
ATOM     68  C   UNL A   1      36.803  32.527  30.579  1.00  0.00     0.023 A 
ATOM     69  C   UNL A   1      36.142  33.200  29.541  1.00  0.00     0.031 A 
ATOM     70  C   UNL A   1      36.095  32.296  31.773  1.00  0.00     0.131 A 
ATOM     71  C   UNL A   1      34.825  33.650  29.728  1.00  0.00     0.055 A 
ATOM     72  C   UNL A   1      34.769  32.699  31.935  1.00  0.00     0.041 A 
ATOM     73  F   UNL A   1      36.682  31.658  32.799  1.00  0.00    -0.206 F 
ATOM     74  C   UNL A   1      34.130  33.391  30.912  1.00  0.00     0.022 A 
BRANCH  71  75
ATOM     75  S   UNL A   1      34.053  34.647  28.425  1.00  0.00     0.124 S 
ATOM     76  O   UNL A   1      32.762  33.988  28.270  1.00  0.00    -0.237 OA
ATOM     77  O   UNL A   1      34.028  35.974  29.033  1.00  0.00    -0.237 OA
ATOM     78  O   UNL A   1      34.969  34.500  27.296  1.00  0.00    -0.744 OA
ENDBRANCH  71  75
ENDBRANCH  44  68
BRANCH  56  79
ATOM     79  C   UNL A   1      42.847  34.970  33.054  1.00  0.00     0.023 A 
ATOM     80  C   UNL A   1      43.171  36.180  32.417  1.00  0.00     0.031 A 
ATOM     81  C   UNL A   1      42.845  34.936  34.461  1.00  0.00     0.131 A 
ATOM     82  C   UNL A   1      43.522  37.299  33.188  1.00  0.00     0.055 A 
ATOM     83  C   UNL A   1      43.149  36.065  35.221  1.00  0.00     0.041 A 
ATOM     84  F   UNL A   1      42.542  33.804  35.115  1.00  0.00    -0.206 F 
ATOM     85  C   UNL A   1      43.499  37.253  34.586  1.00  0.00     0.022 A 
BRANCH  82  86
ATOM     86  S   UNL A   1      44.068  38.808  32.341  1.00  0.00     0.124 S 
ATOM     87  O   UNL A   1      45.315  39.111  33.037  1.00  0.00    -0.237 OA
ATOM     88  O   UNL A   1      44.203  38.360  30.959  1.00  0.00    -0.237 OA
ATOM     89  O   UNL A   1      42.977  39.750  32.582  1.00  0.00    -0.744 OA
ENDBRANCH  82  86
ENDBRANCH  56  79
ENDBRANCH  30  31
ENDBRANCH  23  25
ENDBRANCH  22  23
ENDBRANCH  21  22
ENDBRANCH   1  21
TORSDOF 18
ENDMDL
