MODEL 1
REMARK VINA RESULT:     -10.1      0.000      0.000
REMARK SMILES O=C(OCCOC(=O)[C@@H](F)Sc1ccccc1O)c1ccc(-c2c3nc(c(-c4cc(S(=O)(=O)[O-])ccc4F)c4ccc([nH]4)c(-c4cc(S(=O)(=O)[O-])ccc4F)c4nc(c(-c5cc(S(=O)(=O)[O-])ccc5F)c5ccc2[nH]5)C=C4)C=C3)cc1
REMARK SMILES IDX 4 1 3 2 2 3 1 4 19 5 20 6 81 7 21 8 80 9 22 10 23 11 24 12
REMARK SMILES IDX 74 13 25 14 79 15 73 16 75 17 26 18 78 19 72 20 71 21 27 23
REMARK SMILES IDX 59 24 39 25 58 26 40 27 43 28 57 29 76 30 41 31 42 32 56 34
REMARK SMILES IDX 77 35 44 36 28 37 29 38 37 39 30 40 36 41 38 42 35 43 31 44
REMARK SMILES IDX 32 45 33 46 34 47 60 48 61 49 69 50 62 51 68 52 70 53 67 54
REMARK SMILES IDX 63 55 64 56 65 57 66 58 45 59 46 60 54 61 47 62 53 63 55 64
REMARK SMILES IDX 52 65 48 66 49 67 50 68 51 69 5 70 6 71 7 72 8 73 9 74 10 75
REMARK SMILES IDX 11 76 12 77 13 78 17 79 14 80 16 81 15 82 18 83
REMARK H PARENT 75 22 43 33 18 84
REMARK Flexibility Score: inf
ROOT
ATOM      1  C   UNL A   1      32.752  34.143  28.035  1.00  0.00     0.275 C 
ENDROOT
BRANCH   1   2
ATOM      2  O   UNL A   1      33.603  33.222  27.322  1.00  0.00    -0.458 OA
BRANCH   2   3
ATOM      3  C   UNL A   1      33.957  31.935  27.544  1.00  0.00     0.338 C 
ATOM      4  O   UNL A   1      33.082  31.084  27.364  1.00  0.00    -0.246 OA
BRANCH   3   5
ATOM      5  C   UNL A   1      35.305  31.441  27.999  1.00  0.00     0.060 A 
ATOM      6  C   UNL A   1      36.451  32.207  28.213  1.00  0.00     0.016 A 
ATOM      7  C   UNL A   1      35.405  30.058  28.277  1.00  0.00     0.016 A 
ATOM      8  C   UNL A   1      37.611  31.643  28.762  1.00  0.00     0.010 A 
ATOM      9  C   UNL A   1      36.567  29.486  28.817  1.00  0.00     0.010 A 
ATOM     10  C   UNL A   1      37.669  30.290  29.097  1.00  0.00    -0.014 A 
BRANCH  10  11
ATOM     11  C   UNL A   1      38.913  29.763  29.709  1.00  0.00     0.031 A 
ATOM     12  C   UNL A   1      39.229  30.129  31.125  1.00  0.00     0.074 A 
ATOM     13  C   UNL A   1      39.685  28.888  29.034  1.00  0.00     0.049 A 
ATOM     14  N   UNL A   1      40.223  29.737  31.875  1.00  0.00    -0.248 NA
ATOM     15  C   UNL A   1      38.302  31.064  31.782  1.00  0.00     0.031 C 
ATOM     16  C   UNL A   1      39.431  28.448  27.666  1.00  0.00     0.029 A 
ATOM     17  N   UNL A   1      40.806  28.181  29.401  1.00  0.00    -0.354 N 
ATOM     18  C   UNL A   1      40.072  30.414  33.078  1.00  0.00     0.074 A 
ATOM     19  C   UNL A   1      38.865  31.205  32.973  1.00  0.00     0.031 C 
ATOM     20  C   UNL A   1      40.314  27.493  27.335  1.00  0.00     0.029 A 
ATOM     21  C   UNL A   1      41.250  27.298  28.436  1.00  0.00     0.049 A 
ATOM     22  H   UNL A   1      41.250  28.294  30.272  1.00  0.00     0.167 HD
ATOM     23  C   UNL A   1      40.902  30.408  34.147  1.00  0.00     0.034 A 
ATOM     24  C   UNL A   1      42.302  26.449  28.442  1.00  0.00     0.034 A 
ATOM     25  C   UNL A   1      42.119  29.639  34.206  1.00  0.00     0.049 A 
ATOM     26  C   UNL A   1      43.212  26.479  29.653  1.00  0.00     0.074 A 
ATOM     27  C   UNL A   1      43.059  29.595  35.219  1.00  0.00     0.029 A 
ATOM     28  N   UNL A   1      42.577  28.799  33.198  1.00  0.00    -0.354 N 
ATOM     29  N   UNL A   1      43.056  27.127  30.786  1.00  0.00    -0.248 NA
ATOM     30  C   UNL A   1      44.456  25.703  29.574  1.00  0.00     0.031 C 
ATOM     31  C   UNL A   1      44.122  28.795  34.790  1.00  0.00     0.029 A 
ATOM     32  C   UNL A   1      43.809  28.270  33.545  1.00  0.00     0.049 A 
ATOM     33  H   UNL A   1      42.096  28.609  32.359  1.00  0.00     0.167 HD
ATOM     34  C   UNL A   1      44.197  26.855  31.538  1.00  0.00     0.074 A 
ATOM     35  C   UNL A   1      44.991  25.924  30.765  1.00  0.00     0.031 C 
ATOM     36  C   UNL A   1      44.580  27.355  32.739  1.00  0.00     0.034 A 
BRANCH  23  37
ATOM     37  C   UNL A   1      40.587  31.364  35.265  1.00  0.00     0.023 A 
ATOM     38  C   UNL A   1      39.543  31.136  36.176  1.00  0.00     0.031 A 
ATOM     39  C   UNL A   1      41.329  32.553  35.387  1.00  0.00     0.131 A 
ATOM     40  C   UNL A   1      39.237  32.112  37.137  1.00  0.00     0.055 A 
ATOM     41  C   UNL A   1      41.065  33.485  36.389  1.00  0.00     0.041 A 
ATOM     42  F   UNL A   1      42.315  32.833  34.520  1.00  0.00    -0.206 F 
ATOM     43  C   UNL A   1      40.006  33.273  37.266  1.00  0.00     0.022 A 
BRANCH  40  44
ATOM     44  S   UNL A   1      37.740  31.903  38.140  1.00  0.00     0.124 S 
ATOM     45  O   UNL A   1      36.895  32.983  37.635  1.00  0.00    -0.237 OA
ATOM     46  O   UNL A   1      37.316  30.550  37.800  1.00  0.00    -0.237 OA
ATOM     47  O   UNL A   1      38.217  32.082  39.510  1.00  0.00    -0.744 OA
ENDBRANCH  40  44
ENDBRANCH  23  37
BRANCH  24  48
ATOM     48  C   UNL A   1      42.631  25.570  27.268  1.00  0.00     0.023 A 
ATOM     49  C   UNL A   1      42.113  24.265  27.168  1.00  0.00     0.031 A 
ATOM     50  C   UNL A   1      43.562  25.966  26.289  1.00  0.00     0.131 A 
ATOM     51  C   UNL A   1      42.579  23.391  26.168  1.00  0.00     0.055 A 
ATOM     52  C   UNL A   1      43.951  25.125  25.243  1.00  0.00     0.041 A 
ATOM     53  F   UNL A   1      44.132  27.180  26.340  1.00  0.00    -0.206 F 
ATOM     54  C   UNL A   1      43.476  23.822  25.190  1.00  0.00     0.022 A 
BRANCH  51  55
ATOM     55  S   UNL A   1      42.137  21.631  26.269  1.00  0.00     0.124 S 
ATOM     56  O   UNL A   1      40.743  21.652  25.843  1.00  0.00    -0.237 OA
ATOM     57  O   UNL A   1      43.085  21.028  25.338  1.00  0.00    -0.237 OA
ATOM     58  O   UNL A   1      42.354  21.306  27.677  1.00  0.00    -0.744 OA
ENDBRANCH  51  55
ENDBRANCH  24  48
BRANCH  36  59
ATOM     59  C   UNL A   1      45.920  26.909  33.270  1.00  0.00     0.023 A 
ATOM     60  C   UNL A   1      46.043  25.748  34.052  1.00  0.00     0.031 A 
ATOM     61  C   UNL A   1      47.085  27.635  32.970  1.00  0.00     0.131 A 
ATOM     62  C   UNL A   1      47.300  25.369  34.545  1.00  0.00     0.055 A 
ATOM     63  C   UNL A   1      48.341  27.218  33.411  1.00  0.00     0.041 A 
ATOM     64  F   UNL A   1      47.022  28.753  32.228  1.00  0.00    -0.206 F 
ATOM     65  C   UNL A   1      48.452  26.084  34.212  1.00  0.00     0.022 A 
BRANCH  62  66
ATOM     66  S   UNL A   1      47.399  23.963  35.686  1.00  0.00     0.124 S 
ATOM     67  O   UNL A   1      46.088  23.998  36.326  1.00  0.00    -0.237 OA
ATOM     68  O   UNL A   1      47.639  22.842  34.783  1.00  0.00    -0.237 OA
ATOM     69  O   UNL A   1      48.522  24.307  36.556  1.00  0.00    -0.744 OA
ENDBRANCH  62  66
ENDBRANCH  36  59
ENDBRANCH  10  11
ENDBRANCH   3   5
ENDBRANCH   2   3
ENDBRANCH   1   2
BRANCH   1  70
ATOM     70  C   UNL A   1      33.573  35.110  28.880  1.00  0.00     0.274 C 
BRANCH  70  71
ATOM     71  O   UNL A   1      33.115  35.057  30.234  1.00  0.00    -0.459 OA
BRANCH  71  72
ATOM     72  C   UNL A   1      33.077  36.209  30.955  1.00  0.00     0.351 C 
ATOM     73  O   UNL A   1      32.859  37.316  30.484  1.00  0.00    -0.248 OA
BRANCH  72  74
ATOM     74  C   UNL A   1      33.381  35.934  32.420  1.00  0.00     0.338 C 
ATOM     75  F   UNL A   1      32.331  36.215  33.234  1.00  0.00    -0.222 F 
BRANCH  74  76
ATOM     76  S   UNL A   1      33.954  34.216  32.632  1.00  0.00    -0.073 SA
BRANCH  76  77
ATOM     77  C   UNL A   1      35.682  34.409  33.073  1.00  0.00     0.052 A 
ATOM     78  C   UNL A   1      36.596  34.602  32.029  1.00  0.00     0.019 A 
ATOM     79  C   UNL A   1      36.195  34.245  34.368  1.00  0.00     0.129 A 
ATOM     80  C   UNL A   1      37.974  34.666  32.273  1.00  0.00     0.001 A 
ATOM     81  C   UNL A   1      37.572  34.309  34.617  1.00  0.00     0.047 A 
ATOM     82  C   UNL A   1      38.461  34.523  33.567  1.00  0.00     0.004 A 
BRANCH  79  83
ATOM     83  O   UNL A   1      35.362  33.982  35.421  1.00  0.00    -0.507 OA
ATOM     84  H   UNL A   1      35.627  33.381  36.090  1.00  0.00     0.293 HD
ENDBRANCH  79  83
ENDBRANCH  76  77
ENDBRANCH  74  76
ENDBRANCH  72  74
ENDBRANCH  71  72
ENDBRANCH  70  71
ENDBRANCH   1  70
TORSDOF 17
ENDMDL
MODEL 2
REMARK VINA RESULT:     -10.0      6.185     12.393
REMARK SMILES O=C(OCCOC(=O)[C@@H](F)Sc1ccccc1O)c1ccc(-c2c3nc(c(-c4cc(S(=O)(=O)[O-])ccc4F)c4ccc([nH]4)c(-c4cc(S(=O)(=O)[O-])ccc4F)c4nc(c(-c5cc(S(=O)(=O)[O-])ccc5F)c5ccc2[nH]5)C=C4)C=C3)cc1
REMARK SMILES IDX 4 1 3 2 2 3 1 4 19 5 20 6 81 7 21 8 80 9 22 10 23 11 24 12
REMARK SMILES IDX 74 13 25 14 79 15 73 16 75 17 26 18 78 19 72 20 71 21 27 23
REMARK SMILES IDX 59 24 39 25 58 26 40 27 43 28 57 29 76 30 41 31 42 32 56 34
REMARK SMILES IDX 77 35 44 36 28 37 29 38 37 39 30 40 36 41 38 42 35 43 31 44
REMARK SMILES IDX 32 45 33 46 34 47 60 48 61 49 69 50 62 51 68 52 70 53 67 54
REMARK SMILES IDX 63 55 64 56 65 57 66 58 45 59 46 60 54 61 47 62 53 63 55 64
REMARK SMILES IDX 52 65 48 66 49 67 50 68 51 69 5 70 6 71 7 72 8 73 9 74 10 75
REMARK SMILES IDX 11 76 12 77 13 78 17 79 14 80 16 81 15 82 18 83
REMARK H PARENT 75 22 43 33 18 84
REMARK Flexibility Score: inf
ROOT
ATOM      1  C   UNL A   1      37.834  19.910  24.665  1.00  0.00     0.275 C 
ENDROOT
BRANCH   1   2
ATOM      2  O   UNL A   1      38.726  19.539  25.737  1.00  0.00    -0.458 OA
BRANCH   2   3
ATOM      3  C   UNL A   1      40.002  19.877  26.033  1.00  0.00     0.338 C 
ATOM      4  O   UNL A   1      40.858  19.007  25.856  1.00  0.00    -0.246 OA
BRANCH   3   5
ATOM      5  C   UNL A   1      40.477  21.203  26.568  1.00  0.00     0.060 A 
ATOM      6  C   UNL A   1      41.637  21.442  27.305  1.00  0.00     0.016 A 
ATOM      7  C   UNL A   1      39.682  22.328  26.251  1.00  0.00     0.016 A 
ATOM      8  C   UNL A   1      42.033  22.746  27.635  1.00  0.00     0.010 A 
ATOM      9  C   UNL A   1      40.068  23.635  26.587  1.00  0.00     0.010 A 
ATOM     10  C   UNL A   1      41.272  23.852  27.252  1.00  0.00    -0.014 A 
BRANCH  10  11
ATOM     11  C   UNL A   1      41.766  25.208  27.599  1.00  0.00     0.031 A 
ATOM     12  C   UNL A   1      43.097  25.644  27.073  1.00  0.00     0.074 A 
ATOM     13  C   UNL A   1      40.980  26.061  28.285  1.00  0.00     0.049 A 
ATOM     14  N   UNL A   1      43.693  26.798  27.199  1.00  0.00    -0.248 NA
ATOM     15  C   UNL A   1      43.858  24.645  26.307  1.00  0.00     0.031 C 
ATOM     16  C   UNL A   1      39.656  25.732  28.801  1.00  0.00     0.029 A 
ATOM     17  N   UNL A   1      41.147  27.381  28.635  1.00  0.00    -0.354 N 
ATOM     18  C   UNL A   1      44.922  26.653  26.570  1.00  0.00     0.074 A 
ATOM     19  C   UNL A   1      44.966  25.314  26.024  1.00  0.00     0.031 C 
ATOM     20  C   UNL A   1      39.098  26.832  29.330  1.00  0.00     0.029 A 
ATOM     21  C   UNL A   1      40.049  27.935  29.261  1.00  0.00     0.049 A 
ATOM     22  H   UNL A   1      41.974  27.883  28.455  1.00  0.00     0.167 HD
ATOM     23  C   UNL A   1      45.937  27.547  26.506  1.00  0.00     0.034 A 
ATOM     24  C   UNL A   1      39.849  29.185  29.738  1.00  0.00     0.034 A 
ATOM     25  C   UNL A   1      45.878  28.861  27.096  1.00  0.00     0.049 A 
ATOM     26  C   UNL A   1      41.012  30.153  29.657  1.00  0.00     0.074 A 
ATOM     27  C   UNL A   1      46.863  29.830  27.133  1.00  0.00     0.029 A 
ATOM     28  N   UNL A   1      44.780  29.379  27.772  1.00  0.00    -0.354 N 
ATOM     29  N   UNL A   1      42.172  30.001  29.058  1.00  0.00    -0.248 NA
ATOM     30  C   UNL A   1      40.860  31.440  30.348  1.00  0.00     0.031 C 
ATOM     31  C   UNL A   1      46.392  30.899  27.902  1.00  0.00     0.029 A 
ATOM     32  C   UNL A   1      45.082  30.635  28.272  1.00  0.00     0.049 A 
ATOM     33  H   UNL A   1      43.916  28.920  27.881  1.00  0.00     0.167 HD
ATOM     34  C   UNL A   1      42.893  31.162  29.327  1.00  0.00     0.074 A 
ATOM     35  C   UNL A   1      42.010  32.035  30.071  1.00  0.00     0.031 C 
ATOM     36  C   UNL A   1      44.179  31.471  29.025  1.00  0.00     0.034 A 
BRANCH  23  37
ATOM     37  C   UNL A   1      47.231  27.075  25.903  1.00  0.00     0.023 A 
ATOM     38  C   UNL A   1      48.195  26.376  26.646  1.00  0.00     0.031 A 
ATOM     39  C   UNL A   1      47.517  27.377  24.559  1.00  0.00     0.131 A 
ATOM     40  C   UNL A   1      49.424  26.048  26.053  1.00  0.00     0.055 A 
ATOM     41  C   UNL A   1      48.711  26.985  23.955  1.00  0.00     0.041 A 
ATOM     42  F   UNL A   1      46.643  28.073  23.816  1.00  0.00    -0.206 F 
ATOM     43  C   UNL A   1      49.679  26.325  24.706  1.00  0.00     0.022 A 
BRANCH  40  44
ATOM     44  S   UNL A   1      50.738  25.362  27.098  1.00  0.00     0.124 S 
ATOM     45  O   UNL A   1      51.725  24.955  26.101  1.00  0.00    -0.237 OA
ATOM     46  O   UNL A   1      51.107  26.500  27.932  1.00  0.00    -0.237 OA
ATOM     47  O   UNL A   1      50.080  24.262  27.800  1.00  0.00    -0.744 OA
ENDBRANCH  40  44
ENDBRANCH  23  37
BRANCH  24  48
ATOM     48  C   UNL A   1      38.569  29.593  30.411  1.00  0.00     0.023 A 
ATOM     49  C   UNL A   1      37.614  30.384  29.744  1.00  0.00     0.031 A 
ATOM     50  C   UNL A   1      38.327  29.308  31.769  1.00  0.00     0.131 A 
ATOM     51  C   UNL A   1      36.516  30.914  30.446  1.00  0.00     0.055 A 
ATOM     52  C   UNL A   1      37.186  29.759  32.437  1.00  0.00     0.041 A 
ATOM     53  F   UNL A   1      39.211  28.594  32.485  1.00  0.00    -0.206 F 
ATOM     54  C   UNL A   1      36.283  30.586  31.782  1.00  0.00     0.022 A 
BRANCH  51  55
ATOM     55  S   UNL A   1      35.496  32.185  29.642  1.00  0.00     0.124 S 
ATOM     56  O   UNL A   1      34.474  32.427  30.654  1.00  0.00    -0.237 OA
ATOM     57  O   UNL A   1      36.460  33.259  29.433  1.00  0.00    -0.237 OA
ATOM     58  O   UNL A   1      35.025  31.524  28.426  1.00  0.00    -0.744 OA
ENDBRANCH  51  55
ENDBRANCH  24  48
BRANCH  36  59
ATOM     59  C   UNL A   1      44.696  32.799  29.517  1.00  0.00     0.023 A 
ATOM     60  C   UNL A   1      44.575  33.962  28.736  1.00  0.00     0.031 A 
ATOM     61  C   UNL A   1      45.292  32.910  30.785  1.00  0.00     0.131 A 
ATOM     62  C   UNL A   1      45.081  35.179  29.214  1.00  0.00     0.055 A 
ATOM     63  C   UNL A   1      45.737  34.136  31.281  1.00  0.00     0.041 A 
ATOM     64  F   UNL A   1      45.434  31.830  31.570  1.00  0.00    -0.206 F 
ATOM     65  C   UNL A   1      45.642  35.278  30.489  1.00  0.00     0.022 A 
BRANCH  62  66
ATOM     66  S   UNL A   1      45.059  36.622  28.116  1.00  0.00     0.124 S 
ATOM     67  O   UNL A   1      44.016  37.447  28.719  1.00  0.00    -0.237 OA
ATOM     68  O   UNL A   1      46.422  37.129  28.236  1.00  0.00    -0.237 OA
ATOM     69  O   UNL A   1      44.723  36.055  26.811  1.00  0.00    -0.744 OA
ENDBRANCH  62  66
ENDBRANCH  36  59
ENDBRANCH  10  11
ENDBRANCH   3   5
ENDBRANCH   2   3
ENDBRANCH   1   2
BRANCH   1  70
ATOM     70  C   UNL A   1      36.954  21.089  25.063  1.00  0.00     0.274 C 
BRANCH  70  71
ATOM     71  O   UNL A   1      35.585  20.678  25.050  1.00  0.00    -0.459 OA
BRANCH  71  72
ATOM     72  C   UNL A   1      34.682  21.397  25.768  1.00  0.00     0.351 C 
ATOM     73  O   UNL A   1      34.717  21.543  26.982  1.00  0.00    -0.248 OA
BRANCH  72  74
ATOM     74  C   UNL A   1      33.601  21.962  24.859  1.00  0.00     0.338 C 
ATOM     75  F   UNL A   1      33.998  22.043  23.562  1.00  0.00    -0.222 F 
BRANCH  74  76
ATOM     76  S   UNL A   1      32.065  20.994  25.030  1.00  0.00    -0.073 SA
BRANCH  76  77
ATOM     77  C   UNL A   1      32.558  19.345  24.522  1.00  0.00     0.052 A 
ATOM     78  C   UNL A   1      32.528  19.057  23.151  1.00  0.00     0.019 A 
ATOM     79  C   UNL A   1      32.838  18.292  25.404  1.00  0.00     0.129 A 
ATOM     80  C   UNL A   1      32.804  17.770  22.674  1.00  0.00     0.001 A 
ATOM     81  C   UNL A   1      33.115  17.003  24.933  1.00  0.00     0.047 A 
ATOM     82  C   UNL A   1      33.100  16.744  23.565  1.00  0.00     0.004 A 
BRANCH  79  83
ATOM     83  O   UNL A   1      32.812  18.491  26.758  1.00  0.00    -0.507 OA
ATOM     84  H   UNL A   1      32.730  17.758  27.338  1.00  0.00     0.293 HD
ENDBRANCH  79  83
ENDBRANCH  76  77
ENDBRANCH  74  76
ENDBRANCH  72  74
ENDBRANCH  71  72
ENDBRANCH  70  71
ENDBRANCH   1  70
TORSDOF 17
ENDMDL
MODEL 3
REMARK VINA RESULT:      -9.8      3.403      5.582
REMARK SMILES O=C(OCCOC(=O)[C@@H](F)Sc1ccccc1O)c1ccc(-c2c3nc(c(-c4cc(S(=O)(=O)[O-])ccc4F)c4ccc([nH]4)c(-c4cc(S(=O)(=O)[O-])ccc4F)c4nc(c(-c5cc(S(=O)(=O)[O-])ccc5F)c5ccc2[nH]5)C=C4)C=C3)cc1
REMARK SMILES IDX 4 1 3 2 2 3 1 4 19 5 20 6 81 7 21 8 80 9 22 10 23 11 24 12
REMARK SMILES IDX 74 13 25 14 79 15 73 16 75 17 26 18 78 19 72 20 71 21 27 23
REMARK SMILES IDX 59 24 39 25 58 26 40 27 43 28 57 29 76 30 41 31 42 32 56 34
REMARK SMILES IDX 77 35 44 36 28 37 29 38 37 39 30 40 36 41 38 42 35 43 31 44
REMARK SMILES IDX 32 45 33 46 34 47 60 48 61 49 69 50 62 51 68 52 70 53 67 54
REMARK SMILES IDX 63 55 64 56 65 57 66 58 45 59 46 60 54 61 47 62 53 63 55 64
REMARK SMILES IDX 52 65 48 66 49 67 50 68 51 69 5 70 6 71 7 72 8 73 9 74 10 75
REMARK SMILES IDX 11 76 12 77 13 78 17 79 14 80 16 81 15 82 18 83
REMARK H PARENT 75 22 43 33 18 84
REMARK Flexibility Score: inf
ROOT
ATOM      1  C   UNL A   1      31.855  30.610  26.844  1.00  0.00     0.275 C 
ENDROOT
BRANCH   1   2
ATOM      2  O   UNL A   1      32.345  31.965  26.774  1.00  0.00    -0.458 OA
BRANCH   2   3
ATOM      3  C   UNL A   1      33.246  32.658  27.508  1.00  0.00     0.338 C 
ATOM      4  O   UNL A   1      32.956  33.827  27.776  1.00  0.00    -0.246 OA
BRANCH   3   5
ATOM      5  C   UNL A   1      34.569  32.150  28.018  1.00  0.00     0.060 A 
ATOM      6  C   UNL A   1      35.728  32.896  28.230  1.00  0.00     0.016 A 
ATOM      7  C   UNL A   1      34.626  30.778  28.354  1.00  0.00     0.016 A 
ATOM      8  C   UNL A   1      36.860  32.327  28.832  1.00  0.00     0.010 A 
ATOM      9  C   UNL A   1      35.759  30.200  28.947  1.00  0.00     0.010 A 
ATOM     10  C   UNL A   1      36.874  30.987  29.224  1.00  0.00    -0.014 A 
BRANCH  10  11
ATOM     11  C   UNL A   1      38.089  30.455  29.889  1.00  0.00     0.031 A 
ATOM     12  C   UNL A   1      38.289  30.732  31.346  1.00  0.00     0.074 A 
ATOM     13  C   UNL A   1      38.936  29.652  29.215  1.00  0.00     0.049 A 
ATOM     14  N   UNL A   1      39.240  30.317  32.139  1.00  0.00    -0.248 NA
ATOM     15  C   UNL A   1      37.287  31.592  31.994  1.00  0.00     0.031 C 
ATOM     16  C   UNL A   1      38.795  29.301  27.806  1.00  0.00     0.029 A 
ATOM     17  N   UNL A   1      40.050  28.954  29.616  1.00  0.00    -0.354 N 
ATOM     18  C   UNL A   1      38.980  30.905  33.370  1.00  0.00     0.074 A 
ATOM     19  C   UNL A   1      37.758  31.666  33.230  1.00  0.00     0.031 C 
ATOM     20  C   UNL A   1      39.732  28.396  27.478  1.00  0.00     0.029 A 
ATOM     21  C   UNL A   1      40.592  28.153  28.629  1.00  0.00     0.049 A 
ATOM     22  H   UNL A   1      40.427  29.019  30.523  1.00  0.00     0.167 HD
ATOM     23  C   UNL A   1      39.731  30.848  34.495  1.00  0.00     0.034 A 
ATOM     24  C   UNL A   1      41.669  27.336  28.656  1.00  0.00     0.034 A 
ATOM     25  C   UNL A   1      40.966  30.113  34.592  1.00  0.00     0.049 A 
ATOM     26  C   UNL A   1      42.488  27.308  29.930  1.00  0.00     0.074 A 
ATOM     27  C   UNL A   1      41.832  30.025  35.666  1.00  0.00     0.029 A 
ATOM     28  N   UNL A   1      41.523  29.359  33.566  1.00  0.00    -0.354 N 
ATOM     29  N   UNL A   1      42.230  27.872  31.090  1.00  0.00    -0.248 NA
ATOM     30  C   UNL A   1      43.761  26.576  29.891  1.00  0.00     0.031 C 
ATOM     31  C   UNL A   1      42.950  29.288  35.264  1.00  0.00     0.029 A 
ATOM     32  C   UNL A   1      42.744  28.842  33.967  1.00  0.00     0.049 A 
ATOM     33  H   UNL A   1      41.111  29.213  32.683  1.00  0.00     0.167 HD
ATOM     34  C   UNL A   1      43.323  27.581  31.903  1.00  0.00     0.074 A 
ATOM     35  C   UNL A   1      44.201  26.730  31.130  1.00  0.00     0.031 C 
ATOM     36  C   UNL A   1      43.602  28.008  33.161  1.00  0.00     0.034 A 
BRANCH  23  37
ATOM     37  C   UNL A   1      39.305  31.715  35.648  1.00  0.00     0.023 A 
ATOM     38  C   UNL A   1      38.563  31.214  36.730  1.00  0.00     0.031 A 
ATOM     39  C   UNL A   1      39.616  33.087  35.633  1.00  0.00     0.131 A 
ATOM     40  C   UNL A   1      38.112  32.092  37.727  1.00  0.00     0.055 A 
ATOM     41  C   UNL A   1      39.225  33.940  36.664  1.00  0.00     0.041 A 
ATOM     42  F   UNL A   1      40.293  33.621  34.605  1.00  0.00    -0.206 F 
ATOM     43  C   UNL A   1      38.460  33.447  37.715  1.00  0.00     0.022 A 
BRANCH  40  44
ATOM     44  S   UNL A   1      36.960  31.466  38.980  1.00  0.00     0.124 S 
ATOM     45  O   UNL A   1      36.718  30.106  38.503  1.00  0.00    -0.237 OA
ATOM     46  O   UNL A   1      37.736  31.579  40.210  1.00  0.00    -0.237 OA
ATOM     47  O   UNL A   1      35.817  32.369  38.878  1.00  0.00    -0.744 OA
ENDBRANCH  40  44
ENDBRANCH  23  37
BRANCH  24  48
ATOM     48  C   UNL A   1      42.111  26.550  27.454  1.00  0.00     0.023 A 
ATOM     49  C   UNL A   1      41.773  25.191  27.307  1.00  0.00     0.031 A 
ATOM     50  C   UNL A   1      42.978  27.102  26.491  1.00  0.00     0.131 A 
ATOM     51  C   UNL A   1      42.351  24.424  26.279  1.00  0.00     0.055 A 
ATOM     52  C   UNL A   1      43.474  26.358  25.417  1.00  0.00     0.041 A 
ATOM     53  F   UNL A   1      43.378  28.379  26.584  1.00  0.00    -0.206 F 
ATOM     54  C   UNL A   1      43.179  25.004  25.318  1.00  0.00     0.022 A 
BRANCH  51  55
ATOM     55  S   UNL A   1      42.151  22.617  26.319  1.00  0.00     0.124 S 
ATOM     56  O   UNL A   1      40.716  22.484  26.541  1.00  0.00    -0.237 OA
ATOM     57  O   UNL A   1      42.636  22.231  24.998  1.00  0.00    -0.237 OA
ATOM     58  O   UNL A   1      42.997  22.206  27.438  1.00  0.00    -0.744 OA
ENDBRANCH  51  55
ENDBRANCH  24  48
BRANCH  36  59
ATOM     59  C   UNL A   1      44.914  27.565  33.758  1.00  0.00     0.023 A 
ATOM     60  C   UNL A   1      45.053  26.299  34.354  1.00  0.00     0.031 A 
ATOM     61  C   UNL A   1      46.041  28.403  33.707  1.00  0.00     0.131 A 
ATOM     62  C   UNL A   1      46.281  25.923  34.915  1.00  0.00     0.055 A 
ATOM     63  C   UNL A   1      47.278  27.998  34.212  1.00  0.00     0.041 A 
ATOM     64  F   UNL A   1      45.962  29.622  33.151  1.00  0.00    -0.206 F 
ATOM     65  C   UNL A   1      47.400  26.756  34.829  1.00  0.00     0.022 A 
BRANCH  62  66
ATOM     66  S   UNL A   1      46.381  24.356  35.822  1.00  0.00     0.124 S 
ATOM     67  O   UNL A   1      46.981  23.469  34.830  1.00  0.00    -0.237 OA
ATOM     68  O   UNL A   1      47.226  24.705  36.959  1.00  0.00    -0.237 OA
ATOM     69  O   UNL A   1      44.988  24.063  36.153  1.00  0.00    -0.744 OA
ENDBRANCH  62  66
ENDBRANCH  36  59
ENDBRANCH  10  11
ENDBRANCH   3   5
ENDBRANCH   2   3
ENDBRANCH   1   2
BRANCH   1  70
ATOM     70  C   UNL A   1      31.824  29.963  25.464  1.00  0.00     0.274 C 
BRANCH  70  71
ATOM     71  O   UNL A   1      31.545  28.568  25.606  1.00  0.00    -0.459 OA
BRANCH  71  72
ATOM     72  C   UNL A   1      32.143  27.694  24.754  1.00  0.00     0.351 C 
ATOM     73  O   UNL A   1      33.326  27.725  24.443  1.00  0.00    -0.248 OA
BRANCH  72  74
ATOM     74  C   UNL A   1      31.131  26.697  24.210  1.00  0.00     0.338 C 
ATOM     75  F   UNL A   1      30.010  26.620  24.974  1.00  0.00    -0.222 F 
BRANCH  74  76
ATOM     76  S   UNL A   1      30.733  27.087  22.474  1.00  0.00    -0.073 SA
BRANCH  76  77
ATOM     77  C   UNL A   1      29.608  28.477  22.610  1.00  0.00     0.052 A 
ATOM     78  C   UNL A   1      28.312  28.216  23.076  1.00  0.00     0.019 A 
ATOM     79  C   UNL A   1      29.889  29.775  22.159  1.00  0.00     0.129 A 
ATOM     80  C   UNL A   1      27.341  29.223  23.123  1.00  0.00     0.001 A 
ATOM     81  C   UNL A   1      28.921  30.786  22.204  1.00  0.00     0.047 A 
ATOM     82  C   UNL A   1      27.647  30.509  22.690  1.00  0.00     0.004 A 
BRANCH  79  83
ATOM     83  O   UNL A   1      31.112  30.078  21.625  1.00  0.00    -0.507 OA
ATOM     84  H   UNL A   1      31.679  29.391  21.332  1.00  0.00     0.293 HD
ENDBRANCH  79  83
ENDBRANCH  76  77
ENDBRANCH  74  76
ENDBRANCH  72  74
ENDBRANCH  71  72
ENDBRANCH  70  71
ENDBRANCH   1  70
TORSDOF 17
ENDMDL
