MODEL 1
REMARK VINA RESULT:     -11.1      0.000      0.000
REMARK SMILES C[C@@](NC(=O)NCC(N)=O)(C(=O)OCCOC(=O)c1ccc(-c2c3nc(c(-c4cc(S(=O)(=O)[O-])ccc4F)c4ccc([nH]4)c(-c4cc(S(=O)(=O)[O-])ccc4F)c4nc(c(-c5cc(S(=O)(=O)[O-])ccc5F)c5ccc2[nH]5)C=C4)C=C3)cc1)C(F)(F)F
REMARK SMILES IDX 14 1 13 2 11 3 12 4 2 5 1 6 3 7 4 8 5 10 6 11 7 13 8 14 9 15
REMARK SMILES IDX 10 16 82 19 83 20 84 21 85 22 15 23 16 24 17 25 18 26 19 27
REMARK SMILES IDX 20 28 81 29 21 30 80 31 22 32 23 33 24 34 74 35 25 36 79 37
REMARK SMILES IDX 73 38 75 39 26 40 78 41 72 42 71 43 27 45 59 46 39 47 58 48
REMARK SMILES IDX 40 49 43 50 57 51 76 52 41 53 42 54 56 56 77 57 44 58 28 59
REMARK SMILES IDX 29 60 37 61 30 62 36 63 38 64 35 65 31 66 32 67 33 68 34 69
REMARK SMILES IDX 60 70 61 71 69 72 62 73 68 74 70 75 67 76 63 77 64 78 65 79
REMARK SMILES IDX 66 80 45 81 46 82 54 83 47 84 53 85 55 86 52 87 48 88 49 89
REMARK SMILES IDX 50 90 51 91
REMARK H PARENT 3 9 6 12 9 17 9 18 75 44 43 55
REMARK Flexibility Score: inf
ROOT
ATOM      1  C   UNL A   1      35.598  22.702  25.976  1.00  0.00     0.274 C 
ENDROOT
BRANCH   1   2
ATOM      2  O   UNL A   1      34.214  22.574  25.571  1.00  0.00    -0.460 OA
BRANCH   2   3
ATOM      3  C   UNL A   1      33.559  23.760  25.406  1.00  0.00     0.341 C 
ATOM      4  O   UNL A   1      34.113  24.818  25.648  1.00  0.00    -0.249 OA
BRANCH   3   5
ATOM      5  C   UNL A   1      32.063  23.620  25.102  1.00  0.00     0.232 C 
ATOM      6  C   UNL A   1      31.512  25.018  24.733  1.00  0.00     0.058 C 
BRANCH   5   7
ATOM      7  N   UNL A   1      31.745  22.688  23.954  1.00  0.00    -0.315 N 
ATOM      8  C   UNL A   1      32.263  22.387  22.754  1.00  0.00     0.316 C 
ATOM      9  H   UNL A   1      30.936  22.157  24.137  1.00  0.00     0.166 HD
ATOM     10  O   UNL A   1      32.051  21.244  22.345  1.00  0.00    -0.249 OA
ATOM     11  N   UNL A   1      32.930  23.228  21.963  1.00  0.00    -0.329 N 
ATOM     12  H   UNL A   1      33.388  22.799  21.202  1.00  0.00     0.165 HD
BRANCH  11  13
ATOM     13  C   UNL A   1      33.093  24.651  22.032  1.00  0.00     0.217 C 
BRANCH  13  14
ATOM     14  C   UNL A   1      32.636  25.531  20.878  1.00  0.00     0.236 C 
ATOM     15  N   UNL A   1      31.696  26.459  21.260  1.00  0.00    -0.368 N 
ATOM     16  O   UNL A   1      33.038  25.440  19.726  1.00  0.00    -0.273 OA
ATOM     17  H   UNL A   1      31.399  26.501  22.197  1.00  0.00     0.159 HD
ATOM     18  H   UNL A   1      31.321  27.082  20.597  1.00  0.00     0.159 HD
ENDBRANCH  13  14
ENDBRANCH  11  13
ENDBRANCH   5   7
BRANCH   5  19
ATOM     19  C   UNL A   1      31.361  23.222  26.417  1.00  0.00     0.422 C 
ATOM     20  F   UNL A   1      30.880  21.959  26.354  1.00  0.00    -0.168 F 
ATOM     21  F   UNL A   1      32.241  23.244  27.450  1.00  0.00    -0.168 F 
ATOM     22  F   UNL A   1      30.341  24.033  26.758  1.00  0.00    -0.168 F 
ENDBRANCH   5  19
ENDBRANCH   3   5
ENDBRANCH   2   3
ENDBRANCH   1   2
BRANCH   1  23
ATOM     23  C   UNL A   1      36.539  21.560  25.552  1.00  0.00     0.275 C 
BRANCH  23  24
ATOM     24  O   UNL A   1      37.832  22.007  25.086  1.00  0.00    -0.458 OA
BRANCH  24  25
ATOM     25  C   UNL A   1      38.878  21.673  25.885  1.00  0.00     0.338 C 
ATOM     26  O   UNL A   1      39.426  20.582  25.930  1.00  0.00    -0.246 OA
BRANCH  25  27
ATOM     27  C   UNL A   1      39.381  22.833  26.652  1.00  0.00     0.060 A 
ATOM     28  C   UNL A   1      38.958  24.107  26.271  1.00  0.00     0.016 A 
ATOM     29  C   UNL A   1      40.416  22.708  27.575  1.00  0.00     0.016 A 
ATOM     30  C   UNL A   1      39.568  25.253  26.762  1.00  0.00     0.010 A 
ATOM     31  C   UNL A   1      41.015  23.867  28.102  1.00  0.00     0.010 A 
ATOM     32  C   UNL A   1      40.611  25.150  27.679  1.00  0.00    -0.014 A 
BRANCH  32  33
ATOM     33  C   UNL A   1      41.336  26.384  28.087  1.00  0.00     0.031 A 
ATOM     34  C   UNL A   1      40.612  27.435  28.883  1.00  0.00     0.074 A 
ATOM     35  C   UNL A   1      42.651  26.529  27.825  1.00  0.00     0.049 A 
ATOM     36  N   UNL A   1      40.982  28.654  29.176  1.00  0.00    -0.248 NA
ATOM     37  C   UNL A   1      39.294  27.061  29.419  1.00  0.00     0.031 C 
ATOM     38  C   UNL A   1      43.502  25.528  27.178  1.00  0.00     0.029 A 
ATOM     39  N   UNL A   1      43.507  27.573  28.079  1.00  0.00    -0.354 N 
ATOM     40  C   UNL A   1      39.920  29.214  29.881  1.00  0.00     0.074 A 
ATOM     41  C   UNL A   1      38.896  28.196  29.977  1.00  0.00     0.031 C 
ATOM     42  C   UNL A   1      44.754  26.001  27.095  1.00  0.00     0.029 A 
ATOM     43  C   UNL A   1      44.778  27.374  27.588  1.00  0.00     0.049 A 
ATOM     44  H   UNL A   1      43.238  28.385  28.565  1.00  0.00     0.167 HD
ATOM     45  C   UNL A   1      39.814  30.468  30.385  1.00  0.00     0.034 A 
ATOM     46  C   UNL A   1      45.822  28.220  27.486  1.00  0.00     0.034 A 
ATOM     47  C   UNL A   1      40.869  31.450  30.314  1.00  0.00     0.049 A 
ATOM     48  C   UNL A   1      45.649  29.638  27.972  1.00  0.00     0.074 A 
ATOM     49  C   UNL A   1      40.870  32.753  30.784  1.00  0.00     0.029 A 
ATOM     50  N   UNL A   1      42.117  31.235  29.743  1.00  0.00    -0.354 N 
ATOM     51  N   UNL A   1      44.605  30.192  28.545  1.00  0.00    -0.248 NA
ATOM     52  C   UNL A   1      46.786  30.548  27.780  1.00  0.00     0.031 C 
ATOM     53  C   UNL A   1      42.093  33.342  30.443  1.00  0.00     0.029 A 
ATOM     54  C   UNL A   1      42.883  32.389  29.821  1.00  0.00     0.049 A 
ATOM     55  H   UNL A   1      42.415  30.387  29.341  1.00  0.00     0.167 HD
ATOM     56  C   UNL A   1      44.966  31.514  28.789  1.00  0.00     0.074 A 
ATOM     57  C   UNL A   1      46.331  31.665  28.328  1.00  0.00     0.031 C 
ATOM     58  C   UNL A   1      44.236  32.518  29.338  1.00  0.00     0.034 A 
BRANCH  45  59
ATOM     59  C   UNL A   1      38.486  30.874  30.975  1.00  0.00     0.023 A 
ATOM     60  C   UNL A   1      37.471  31.473  30.211  1.00  0.00     0.031 A 
ATOM     61  C   UNL A   1      38.245  30.664  32.346  1.00  0.00     0.131 A 
ATOM     62  C   UNL A   1      36.281  31.886  30.833  1.00  0.00     0.055 A 
ATOM     63  C   UNL A   1      37.034  31.016  32.944  1.00  0.00     0.041 A 
ATOM     64  F   UNL A   1      39.190  30.120  33.130  1.00  0.00    -0.206 F 
ATOM     65  C   UNL A   1      36.048  31.640  32.189  1.00  0.00     0.022 A 
BRANCH  62  66
ATOM     66  S   UNL A   1      35.082  32.852  29.873  1.00  0.00     0.124 S 
ATOM     67  O   UNL A   1      34.539  31.837  28.974  1.00  0.00    -0.237 OA
ATOM     68  O   UNL A   1      34.176  33.345  30.904  1.00  0.00    -0.237 OA
ATOM     69  O   UNL A   1      35.903  33.873  29.225  1.00  0.00    -0.744 OA
ENDBRANCH  62  66
ENDBRANCH  45  59
BRANCH  46  70
ATOM     70  C   UNL A   1      47.081  27.799  26.799  1.00  0.00     0.023 A 
ATOM     71  C   UNL A   1      47.237  27.933  25.410  1.00  0.00     0.031 A 
ATOM     72  C   UNL A   1      48.124  27.189  27.522  1.00  0.00     0.131 A 
ATOM     73  C   UNL A   1      48.386  27.423  24.784  1.00  0.00     0.055 A 
ATOM     74  C   UNL A   1      49.292  26.743  26.902  1.00  0.00     0.041 A 
ATOM     75  F   UNL A   1      48.026  27.020  28.850  1.00  0.00    -0.206 F 
ATOM     76  C   UNL A   1      49.421  26.845  25.521  1.00  0.00     0.022 A 
BRANCH  73  77
ATOM     77  S   UNL A   1      48.460  27.423  22.971  1.00  0.00     0.124 S 
ATOM     78  O   UNL A   1      49.740  28.074  22.724  1.00  0.00    -0.237 OA
ATOM     79  O   UNL A   1      48.395  25.997  22.666  1.00  0.00    -0.237 OA
ATOM     80  O   UNL A   1      47.281  28.196  22.582  1.00  0.00    -0.744 OA
ENDBRANCH  73  77
ENDBRANCH  46  70
BRANCH  58  81
ATOM     81  C   UNL A   1      44.926  33.850  29.491  1.00  0.00     0.023 A 
ATOM     82  C   UNL A   1      44.983  34.773  28.434  1.00  0.00     0.031 A 
ATOM     83  C   UNL A   1      45.555  34.188  30.703  1.00  0.00     0.131 A 
ATOM     84  C   UNL A   1      45.705  35.967  28.587  1.00  0.00     0.055 A 
ATOM     85  C   UNL A   1      46.222  35.401  30.869  1.00  0.00     0.041 A 
ATOM     86  F   UNL A   1      45.530  33.340  31.744  1.00  0.00    -0.206 F 
ATOM     87  C   UNL A   1      46.311  36.293  29.803  1.00  0.00     0.022 A 
BRANCH  84  88
ATOM     88  S   UNL A   1      45.913  37.049  27.148  1.00  0.00     0.124 S 
ATOM     89  O   UNL A   1      46.127  36.087  26.072  1.00  0.00    -0.237 OA
ATOM     90  O   UNL A   1      44.646  37.772  27.113  1.00  0.00    -0.237 OA
ATOM     91  O   UNL A   1      47.079  37.861  27.495  1.00  0.00    -0.744 OA
ENDBRANCH  84  88
ENDBRANCH  58  81
ENDBRANCH  32  33
ENDBRANCH  25  27
ENDBRANCH  24  25
ENDBRANCH  23  24
ENDBRANCH   1  23
TORSDOF 18
ENDMDL
MODEL 2
REMARK VINA RESULT:     -11.0      2.346      3.153
REMARK SMILES C[C@@](NC(=O)NCC(N)=O)(C(=O)OCCOC(=O)c1ccc(-c2c3nc(c(-c4cc(S(=O)(=O)[O-])ccc4F)c4ccc([nH]4)c(-c4cc(S(=O)(=O)[O-])ccc4F)c4nc(c(-c5cc(S(=O)(=O)[O-])ccc5F)c5ccc2[nH]5)C=C4)C=C3)cc1)C(F)(F)F
REMARK SMILES IDX 14 1 13 2 11 3 12 4 2 5 1 6 3 7 4 8 5 10 6 11 7 13 8 14 9 15
REMARK SMILES IDX 10 16 82 19 83 20 84 21 85 22 15 23 16 24 17 25 18 26 19 27
REMARK SMILES IDX 20 28 81 29 21 30 80 31 22 32 23 33 24 34 74 35 25 36 79 37
REMARK SMILES IDX 73 38 75 39 26 40 78 41 72 42 71 43 27 45 59 46 39 47 58 48
REMARK SMILES IDX 40 49 43 50 57 51 76 52 41 53 42 54 56 56 77 57 44 58 28 59
REMARK SMILES IDX 29 60 37 61 30 62 36 63 38 64 35 65 31 66 32 67 33 68 34 69
REMARK SMILES IDX 60 70 61 71 69 72 62 73 68 74 70 75 67 76 63 77 64 78 65 79
REMARK SMILES IDX 66 80 45 81 46 82 54 83 47 84 53 85 55 86 52 87 48 88 49 89
REMARK SMILES IDX 50 90 51 91
REMARK H PARENT 3 9 6 12 9 17 9 18 75 44 43 55
REMARK Flexibility Score: inf
ROOT
ATOM      1  C   UNL A   1      36.631  22.712  23.515  1.00  0.00     0.274 C 
ENDROOT
BRANCH   1   2
ATOM      2  O   UNL A   1      35.619  23.488  24.201  1.00  0.00    -0.460 OA
BRANCH   2   3
ATOM      3  C   UNL A   1      34.374  23.413  23.645  1.00  0.00     0.341 C 
ATOM      4  O   UNL A   1      34.234  23.219  22.450  1.00  0.00    -0.249 OA
BRANCH   3   5
ATOM      5  C   UNL A   1      33.233  23.791  24.597  1.00  0.00     0.232 C 
ATOM      6  C   UNL A   1      31.942  23.094  24.104  1.00  0.00     0.058 C 
BRANCH   5   7
ATOM      7  N   UNL A   1      33.455  23.371  26.033  1.00  0.00    -0.315 N 
ATOM      8  C   UNL A   1      34.049  22.362  26.687  1.00  0.00     0.316 C 
ATOM      9  H   UNL A   1      33.054  24.016  26.660  1.00  0.00     0.166 HD
ATOM     10  O   UNL A   1      34.477  22.624  27.813  1.00  0.00    -0.249 OA
ATOM     11  N   UNL A   1      34.163  21.109  26.244  1.00  0.00    -0.329 N 
ATOM     12  H   UNL A   1      34.775  20.542  26.768  1.00  0.00     0.165 HD
BRANCH  11  13
ATOM     13  C   UNL A   1      33.543  20.449  25.131  1.00  0.00     0.217 C 
BRANCH  13  14
ATOM     14  C   UNL A   1      32.805  19.133  25.337  1.00  0.00     0.236 C 
ATOM     15  N   UNL A   1      32.846  18.702  26.642  1.00  0.00    -0.368 N 
ATOM     16  O   UNL A   1      32.236  18.504  24.455  1.00  0.00    -0.273 OA
ATOM     17  H   UNL A   1      33.313  19.237  27.322  1.00  0.00     0.159 HD
ATOM     18  H   UNL A   1      32.407  17.859  26.895  1.00  0.00     0.159 HD
ENDBRANCH  13  14
ENDBRANCH  11  13
ENDBRANCH   5   7
BRANCH   5  19
ATOM     19  C   UNL A   1      32.983  25.305  24.440  1.00  0.00     0.422 C 
ATOM     20  F   UNL A   1      32.446  25.590  23.231  1.00  0.00    -0.168 F 
ATOM     21  F   UNL A   1      32.091  25.737  25.366  1.00  0.00    -0.168 F 
ATOM     22  F   UNL A   1      34.090  26.058  24.585  1.00  0.00    -0.168 F 
ENDBRANCH   5  19
ENDBRANCH   3   5
ENDBRANCH   2   3
ENDBRANCH   1   2
BRANCH   1  23
ATOM     23  C   UNL A   1      37.067  21.405  24.201  1.00  0.00     0.275 C 
BRANCH  23  24
ATOM     24  O   UNL A   1      37.369  21.552  25.607  1.00  0.00    -0.458 OA
BRANCH  24  25
ATOM     25  C   UNL A   1      38.665  21.326  25.943  1.00  0.00     0.338 C 
ATOM     26  O   UNL A   1      39.325  20.345  25.636  1.00  0.00    -0.246 OA
BRANCH  25  27
ATOM     27  C   UNL A   1      39.259  22.477  26.657  1.00  0.00     0.060 A 
ATOM     28  C   UNL A   1      38.849  23.759  26.295  1.00  0.00     0.016 A 
ATOM     29  C   UNL A   1      40.356  22.327  27.503  1.00  0.00     0.016 A 
ATOM     30  C   UNL A   1      39.528  24.890  26.727  1.00  0.00     0.010 A 
ATOM     31  C   UNL A   1      41.028  23.472  27.971  1.00  0.00     0.010 A 
ATOM     32  C   UNL A   1      40.634  24.763  27.565  1.00  0.00    -0.014 A 
BRANCH  32  33
ATOM     33  C   UNL A   1      41.424  25.976  27.904  1.00  0.00     0.031 A 
ATOM     34  C   UNL A   1      40.786  27.068  28.718  1.00  0.00     0.074 A 
ATOM     35  C   UNL A   1      42.726  26.068  27.563  1.00  0.00     0.049 A 
ATOM     36  N   UNL A   1      41.216  28.279  28.963  1.00  0.00    -0.248 NA
ATOM     37  C   UNL A   1      39.489  26.753  29.338  1.00  0.00     0.031 C 
ATOM     38  C   UNL A   1      43.501  25.024  26.889  1.00  0.00     0.029 A 
ATOM     39  N   UNL A   1      43.632  27.084  27.745  1.00  0.00    -0.354 N 
ATOM     40  C   UNL A   1      40.218  28.890  29.717  1.00  0.00     0.074 A 
ATOM     41  C   UNL A   1      39.166  27.912  29.894  1.00  0.00     0.031 C 
ATOM     42  C   UNL A   1      44.763  25.450  26.723  1.00  0.00     0.029 A 
ATOM     43  C   UNL A   1      44.864  26.830  27.186  1.00  0.00     0.049 A 
ATOM     44  H   UNL A   1      43.421  27.915  28.229  1.00  0.00     0.167 HD
ATOM     45  C   UNL A   1      40.186  30.156  30.200  1.00  0.00     0.034 A 
ATOM     46  C   UNL A   1      45.930  27.635  27.006  1.00  0.00     0.034 A 
ATOM     47  C   UNL A   1      41.269  31.098  30.047  1.00  0.00     0.049 A 
ATOM     48  C   UNL A   1      45.836  29.067  27.471  1.00  0.00     0.074 A 
ATOM     49  C   UNL A   1      41.344  32.408  30.489  1.00  0.00     0.029 A 
ATOM     50  N   UNL A   1      42.473  30.826  29.410  1.00  0.00    -0.354 N 
ATOM     51  N   UNL A   1      44.848  29.670  28.091  1.00  0.00    -0.248 NA
ATOM     52  C   UNL A   1      46.991  29.932  27.194  1.00  0.00     0.031 C 
ATOM     53  C   UNL A   1      42.564  32.945  30.065  1.00  0.00     0.029 A 
ATOM     54  C   UNL A   1      43.282  31.952  29.419  1.00  0.00     0.049 A 
ATOM     55  H   UNL A   1      42.716  29.960  29.009  1.00  0.00     0.167 HD
ATOM     56  C   UNL A   1      45.269  30.983  28.287  1.00  0.00     0.074 A 
ATOM     57  C   UNL A   1      46.609  31.074  27.744  1.00  0.00     0.031 C 
ATOM     58  C   UNL A   1      44.609  32.023  28.856  1.00  0.00     0.034 A 
BRANCH  45  59
ATOM     59  C   UNL A   1      38.910  30.622  30.858  1.00  0.00     0.023 A 
ATOM     60  C   UNL A   1      37.849  31.189  30.132  1.00  0.00     0.031 A 
ATOM     61  C   UNL A   1      38.767  30.503  32.253  1.00  0.00     0.131 A 
ATOM     62  C   UNL A   1      36.714  31.662  30.811  1.00  0.00     0.055 A 
ATOM     63  C   UNL A   1      37.608  30.912  32.913  1.00  0.00     0.041 A 
ATOM     64  F   UNL A   1      39.759  29.991  32.999  1.00  0.00    -0.206 F 
ATOM     65  C   UNL A   1      36.577  31.505  32.193  1.00  0.00     0.022 A 
BRANCH  62  66
ATOM     66  S   UNL A   1      35.461  32.587  29.881  1.00  0.00     0.124 S 
ATOM     67  O   UNL A   1      34.331  32.566  30.807  1.00  0.00    -0.237 OA
ATOM     68  O   UNL A   1      36.104  33.881  29.686  1.00  0.00    -0.237 OA
ATOM     69  O   UNL A   1      35.278  31.793  28.668  1.00  0.00    -0.744 OA
ENDBRANCH  62  66
ENDBRANCH  45  59
BRANCH  46  70
ATOM     70  C   UNL A   1      47.131  27.156  26.256  1.00  0.00     0.023 A 
ATOM     71  C   UNL A   1      48.155  26.440  26.895  1.00  0.00     0.031 A 
ATOM     72  C   UNL A   1      47.300  27.472  24.894  1.00  0.00     0.131 A 
ATOM     73  C   UNL A   1      49.321  26.105  26.186  1.00  0.00     0.055 A 
ATOM     74  C   UNL A   1      48.432  27.079  24.178  1.00  0.00     0.041 A 
ATOM     75  F   UNL A   1      46.360  28.168  24.234  1.00  0.00    -0.206 F 
ATOM     76  C   UNL A   1      49.458  26.404  24.829  1.00  0.00     0.022 A 
BRANCH  73  77
ATOM     77  S   UNL A   1      50.709  25.369  27.093  1.00  0.00     0.124 S 
ATOM     78  O   UNL A   1      51.161  26.491  27.907  1.00  0.00    -0.237 OA
ATOM     79  O   UNL A   1      50.057  24.278  27.811  1.00  0.00    -0.237 OA
ATOM     80  O   UNL A   1      51.628  24.956  26.034  1.00  0.00    -0.744 OA
ENDBRANCH  73  77
ENDBRANCH  46  70
BRANCH  58  81
ATOM     81  C   UNL A   1      45.353  33.331  28.940  1.00  0.00     0.023 A 
ATOM     82  C   UNL A   1      46.168  33.642  30.042  1.00  0.00     0.031 A 
ATOM     83  C   UNL A   1      45.224  34.288  27.918  1.00  0.00     0.131 A 
ATOM     84  C   UNL A   1      46.779  34.903  30.125  1.00  0.00     0.055 A 
ATOM     85  C   UNL A   1      45.880  35.517  27.978  1.00  0.00     0.041 A 
ATOM     86  F   UNL A   1      44.457  34.040  26.844  1.00  0.00    -0.206 F 
ATOM     87  C   UNL A   1      46.652  35.836  29.093  1.00  0.00     0.022 A 
BRANCH  84  88
ATOM     88  S   UNL A   1      47.671  35.340  31.641  1.00  0.00     0.124 S 
ATOM     89  O   UNL A   1      48.095  34.033  32.132  1.00  0.00    -0.237 OA
ATOM     90  O   UNL A   1      48.733  36.208  31.141  1.00  0.00    -0.237 OA
ATOM     91  O   UNL A   1      46.657  36.010  32.455  1.00  0.00    -0.744 OA
ENDBRANCH  84  88
ENDBRANCH  58  81
ENDBRANCH  32  33
ENDBRANCH  25  27
ENDBRANCH  24  25
ENDBRANCH  23  24
ENDBRANCH   1  23
TORSDOF 18
ENDMDL
MODEL 3
REMARK VINA RESULT:     -11.0      1.402      2.368
REMARK SMILES C[C@@](NC(=O)NCC(N)=O)(C(=O)OCCOC(=O)c1ccc(-c2c3nc(c(-c4cc(S(=O)(=O)[O-])ccc4F)c4ccc([nH]4)c(-c4cc(S(=O)(=O)[O-])ccc4F)c4nc(c(-c5cc(S(=O)(=O)[O-])ccc5F)c5ccc2[nH]5)C=C4)C=C3)cc1)C(F)(F)F
REMARK SMILES IDX 14 1 13 2 11 3 12 4 2 5 1 6 3 7 4 8 5 10 6 11 7 13 8 14 9 15
REMARK SMILES IDX 10 16 82 19 83 20 84 21 85 22 15 23 16 24 17 25 18 26 19 27
REMARK SMILES IDX 20 28 81 29 21 30 80 31 22 32 23 33 24 34 74 35 25 36 79 37
REMARK SMILES IDX 73 38 75 39 26 40 78 41 72 42 71 43 27 45 59 46 39 47 58 48
REMARK SMILES IDX 40 49 43 50 57 51 76 52 41 53 42 54 56 56 77 57 44 58 28 59
REMARK SMILES IDX 29 60 37 61 30 62 36 63 38 64 35 65 31 66 32 67 33 68 34 69
REMARK SMILES IDX 60 70 61 71 69 72 62 73 68 74 70 75 67 76 63 77 64 78 65 79
REMARK SMILES IDX 66 80 45 81 46 82 54 83 47 84 53 85 55 86 52 87 48 88 49 89
REMARK SMILES IDX 50 90 51 91
REMARK H PARENT 3 9 6 12 9 17 9 18 75 44 43 55
REMARK Flexibility Score: inf
ROOT
ATOM      1  C   UNL A   1      36.501  22.713  23.515  1.00  0.00     0.274 C 
ENDROOT
BRANCH   1   2
ATOM      2  O   UNL A   1      35.353  23.189  24.257  1.00  0.00    -0.460 OA
BRANCH   2   3
ATOM      3  C   UNL A   1      34.169  23.109  23.583  1.00  0.00     0.341 C 
ATOM      4  O   UNL A   1      34.119  23.308  22.381  1.00  0.00    -0.249 OA
BRANCH   3   5
ATOM      5  C   UNL A   1      32.937  22.959  24.483  1.00  0.00     0.232 C 
ATOM      6  C   UNL A   1      31.964  21.963  23.809  1.00  0.00     0.058 C 
BRANCH   5   7
ATOM      7  N   UNL A   1      33.238  22.433  25.868  1.00  0.00    -0.315 N 
ATOM      8  C   UNL A   1      34.089  21.562  26.431  1.00  0.00     0.316 C 
ATOM      9  H   UNL A   1      32.649  22.843  26.543  1.00  0.00     0.166 HD
ATOM     10  O   UNL A   1      34.392  21.783  27.605  1.00  0.00    -0.249 OA
ATOM     11  N   UNL A   1      34.580  20.469  25.847  1.00  0.00    -0.329 N 
ATOM     12  H   UNL A   1      35.320  20.040  26.336  1.00  0.00     0.165 HD
BRANCH  11  13
ATOM     13  C   UNL A   1      34.212  19.812  24.626  1.00  0.00     0.217 C 
BRANCH  13  14
ATOM     14  C   UNL A   1      33.794  18.349  24.639  1.00  0.00     0.236 C 
ATOM     15  N   UNL A   1      32.493  18.175  25.048  1.00  0.00    -0.368 N 
ATOM     16  O   UNL A   1      34.517  17.411  24.333  1.00  0.00    -0.273 OA
ATOM     17  H   UNL A   1      31.943  18.955  25.285  1.00  0.00     0.159 HD
ATOM     18  H   UNL A   1      32.111  17.269  25.102  1.00  0.00     0.159 HD
ENDBRANCH  13  14
ENDBRANCH  11  13
ENDBRANCH   5   7
BRANCH   5  19
ATOM     19  C   UNL A   1      32.208  24.319  24.496  1.00  0.00     0.422 C 
ATOM     20  F   UNL A   1      31.143  24.312  23.660  1.00  0.00    -0.168 F 
ATOM     21  F   UNL A   1      31.720  24.583  25.734  1.00  0.00    -0.168 F 
ATOM     22  F   UNL A   1      32.990  25.361  24.156  1.00  0.00    -0.168 F 
ENDBRANCH   5  19
ENDBRANCH   3   5
ENDBRANCH   2   3
ENDBRANCH   1   2
BRANCH   1  23
ATOM     23  C   UNL A   1      37.354  21.631  24.202  1.00  0.00     0.275 C 
BRANCH  23  24
ATOM     24  O   UNL A   1      37.574  21.865  25.612  1.00  0.00    -0.458 OA
BRANCH  24  25
ATOM     25  C   UNL A   1      38.849  21.665  26.036  1.00  0.00     0.338 C 
ATOM     26  O   UNL A   1      39.549  20.700  25.770  1.00  0.00    -0.246 OA
BRANCH  25  27
ATOM     27  C   UNL A   1      39.367  22.823  26.795  1.00  0.00     0.060 A 
ATOM     28  C   UNL A   1      38.866  24.088  26.489  1.00  0.00     0.016 A 
ATOM     29  C   UNL A   1      40.478  22.715  27.628  1.00  0.00     0.016 A 
ATOM     30  C   UNL A   1      39.468  25.244  26.965  1.00  0.00     0.010 A 
ATOM     31  C   UNL A   1      41.072  23.883  28.141  1.00  0.00     0.010 A 
ATOM     32  C   UNL A   1      40.586  25.159  27.792  1.00  0.00    -0.014 A 
BRANCH  32  33
ATOM     33  C   UNL A   1      41.293  26.410  28.178  1.00  0.00     0.031 A 
ATOM     34  C   UNL A   1      40.554  27.464  28.956  1.00  0.00     0.074 A 
ATOM     35  C   UNL A   1      42.606  26.569  27.914  1.00  0.00     0.049 A 
ATOM     36  N   UNL A   1      40.907  28.694  29.227  1.00  0.00    -0.248 NA
ATOM     37  C   UNL A   1      39.242  27.081  29.498  1.00  0.00     0.031 C 
ATOM     38  C   UNL A   1      43.471  25.568  27.284  1.00  0.00     0.029 A 
ATOM     39  N   UNL A   1      43.447  27.629  28.149  1.00  0.00    -0.354 N 
ATOM     40  C   UNL A   1      39.838  29.251  29.923  1.00  0.00     0.074 A 
ATOM     41  C   UNL A   1      38.828  28.220  30.036  1.00  0.00     0.031 C 
ATOM     42  C   UNL A   1      44.717  26.058  27.192  1.00  0.00     0.029 A 
ATOM     43  C   UNL A   1      44.721  27.439  27.662  1.00  0.00     0.049 A 
ATOM     44  H   UNL A   1      43.167  28.445  28.622  1.00  0.00     0.167 HD
ATOM     45  C   UNL A   1      39.714  30.511  30.405  1.00  0.00     0.034 A 
ATOM     46  C   UNL A   1      45.754  28.298  27.546  1.00  0.00     0.034 A 
ATOM     47  C   UNL A   1      40.754  31.507  30.316  1.00  0.00     0.049 A 
ATOM     48  C   UNL A   1      45.561  29.721  28.006  1.00  0.00     0.074 A 
ATOM     49  C   UNL A   1      40.737  32.817  30.764  1.00  0.00     0.029 A 
ATOM     50  N   UNL A   1      42.006  31.300  29.749  1.00  0.00    -0.354 N 
ATOM     51  N   UNL A   1      44.509  30.271  28.570  1.00  0.00    -0.248 NA
ATOM     52  C   UNL A   1      46.684  30.644  27.798  1.00  0.00     0.031 C 
ATOM     53  C   UNL A   1      41.951  33.417  30.412  1.00  0.00     0.029 A 
ATOM     54  C   UNL A   1      42.755  32.465  29.807  1.00  0.00     0.049 A 
ATOM     55  H   UNL A   1      42.315  30.449  29.362  1.00  0.00     0.167 HD
ATOM     56  C   UNL A   1      44.851  31.602  28.791  1.00  0.00     0.074 A 
ATOM     57  C   UNL A   1      46.214  31.764  28.328  1.00  0.00     0.031 C 
ATOM     58  C   UNL A   1      44.107  32.605  29.322  1.00  0.00     0.034 A 
BRANCH  45  59
ATOM     59  C   UNL A   1      38.380  30.909  30.988  1.00  0.00     0.023 A 
ATOM     60  C   UNL A   1      37.368  31.509  30.219  1.00  0.00     0.031 A 
ATOM     61  C   UNL A   1      38.129  30.690  32.355  1.00  0.00     0.131 A 
ATOM     62  C   UNL A   1      36.173  31.914  30.836  1.00  0.00     0.055 A 
ATOM     63  C   UNL A   1      36.913  31.033  32.947  1.00  0.00     0.041 A 
ATOM     64  F   UNL A   1      39.070  30.143  33.142  1.00  0.00    -0.206 F 
ATOM     65  C   UNL A   1      35.930  31.659  32.188  1.00  0.00     0.022 A 
BRANCH  62  66
ATOM     66  S   UNL A   1      34.977  32.882  29.874  1.00  0.00     0.124 S 
ATOM     67  O   UNL A   1      34.089  33.379  30.922  1.00  0.00    -0.237 OA
ATOM     68  O   UNL A   1      35.824  33.878  29.228  1.00  0.00    -0.237 OA
ATOM     69  O   UNL A   1      34.380  31.895  28.976  1.00  0.00    -0.744 OA
ENDBRANCH  62  66
ENDBRANCH  45  59
BRANCH  46  70
ATOM     70  C   UNL A   1      47.018  27.883  26.866  1.00  0.00     0.023 A 
ATOM     71  C   UNL A   1      47.173  27.997  25.475  1.00  0.00     0.031 A 
ATOM     72  C   UNL A   1      48.069  27.298  27.598  1.00  0.00     0.131 A 
ATOM     73  C   UNL A   1      48.330  27.492  24.857  1.00  0.00     0.055 A 
ATOM     74  C   UNL A   1      49.243  26.858  26.986  1.00  0.00     0.041 A 
ATOM     75  F   UNL A   1      47.971  27.149  28.930  1.00  0.00    -0.206 F 
ATOM     76  C   UNL A   1      49.372  26.940  25.604  1.00  0.00     0.022 A 
BRANCH  73  77
ATOM     77  S   UNL A   1      48.404  27.464  23.045  1.00  0.00     0.124 S 
ATOM     78  O   UNL A   1      49.660  28.159  22.787  1.00  0.00    -0.237 OA
ATOM     79  O   UNL A   1      48.393  26.032  22.763  1.00  0.00    -0.237 OA
ATOM     80  O   UNL A   1      47.198  28.186  22.643  1.00  0.00    -0.744 OA
ENDBRANCH  73  77
ENDBRANCH  46  70
BRANCH  58  81
ATOM     81  C   UNL A   1      44.777  33.949  29.452  1.00  0.00     0.023 A 
ATOM     82  C   UNL A   1      44.683  34.918  28.439  1.00  0.00     0.031 A 
ATOM     83  C   UNL A   1      45.541  34.253  30.593  1.00  0.00     0.131 A 
ATOM     84  C   UNL A   1      45.389  36.124  28.559  1.00  0.00     0.055 A 
ATOM     85  C   UNL A   1      46.194  35.477  30.733  1.00  0.00     0.041 A 
ATOM     86  F   UNL A   1      45.664  33.361  31.589  1.00  0.00    -0.206 F 
ATOM     87  C   UNL A   1      46.131  36.416  29.706  1.00  0.00     0.022 A 
BRANCH  84  88
ATOM     88  S   UNL A   1      45.394  37.273  27.156  1.00  0.00     0.124 S 
ATOM     89  O   UNL A   1      46.083  38.432  27.715  1.00  0.00    -0.237 OA
ATOM     90  O   UNL A   1      46.128  36.525  26.141  1.00  0.00    -0.237 OA
ATOM     91  O   UNL A   1      43.974  37.473  26.872  1.00  0.00    -0.744 OA
ENDBRANCH  84  88
ENDBRANCH  58  81
ENDBRANCH  32  33
ENDBRANCH  25  27
ENDBRANCH  24  25
ENDBRANCH  23  24
ENDBRANCH   1  23
TORSDOF 18
ENDMDL
