MODEL 1
REMARK VINA RESULT:     -11.8      0.000      0.000
REMARK SMILES C[C@H](NC(=O)N1CC[C@H](C(=O)OCCOC(=O)c2ccc(-c3c4nc(c(-c5cc(S(=O)(=O)[O-])ccc5F)c5ccc([nH]5)c(-c5cc(S(=O)(=O)[O-])ccc5F)c5nc(c(-c6cc(S(=O)(=O)[O-])ccc6F)c6ccc3[nH]6)C=C5)C=C4)cc2)[C@H]1C)c1ccsc1
REMARK SMILES IDX 13 1 12 2 10 3 11 4 9 5 6 6 7 7 81 8 8 9 82 10 4 11 3 12
REMARK SMILES IDX 5 14 2 15 1 16 83 17 84 18 87 19 85 20 86 21 14 22 15 23
REMARK SMILES IDX 16 24 17 25 18 26 19 27 80 28 20 29 79 30 21 31 22 32 23 33
REMARK SMILES IDX 73 34 24 35 78 36 72 37 74 38 25 39 77 40 71 41 70 42 26 44
REMARK SMILES IDX 58 45 38 46 57 47 39 48 42 49 56 50 75 51 40 52 41 53 55 55
REMARK SMILES IDX 76 56 43 57 27 58 28 59 36 60 29 61 35 62 37 63 34 64 30 65
REMARK SMILES IDX 31 66 32 67 33 68 59 69 60 70 68 71 61 72 67 73 69 74 66 75
REMARK SMILES IDX 62 76 63 77 64 78 65 79 44 80 45 81 53 82 46 83 52 84 54 85
REMARK SMILES IDX 51 86 47 87 48 88 49 89 50 90
REMARK H PARENT 3 13 74 43 42 54
REMARK Flexibility Score: inf
ROOT
ATOM      1  C   UNL A   1      34.719  21.638  24.649  1.00  0.00     0.274 C 
ENDROOT
BRANCH   1   2
ATOM      2  O   UNL A   1      35.141  22.579  23.645  1.00  0.00    -0.462 OA
BRANCH   2   3
ATOM      3  C   UNL A   1      34.251  23.562  23.317  1.00  0.00     0.311 C 
ATOM      4  O   UNL A   1      34.048  23.977  22.186  1.00  0.00    -0.252 OA
BRANCH   3   5
ATOM      5  C   UNL A   1      33.605  24.102  24.580  1.00  0.00     0.123 C 
ATOM      6  N   UNL A   1      32.282  26.054  24.158  1.00  0.00    -0.321 N 
ATOM      7  C   UNL A   1      33.621  26.507  24.491  1.00  0.00     0.122 C 
ATOM      8  C   UNL A   1      32.189  24.595  24.290  1.00  0.00     0.098 C 
ATOM      9  C   UNL A   1      34.312  25.327  25.154  1.00  0.00     0.039 C 
ATOM     10  C   UNL A   1      31.227  24.203  25.408  1.00  0.00     0.032 C 
BRANCH   6  11
ATOM     11  C   UNL A   1      31.684  26.724  23.110  1.00  0.00     0.318 C 
ATOM     12  N   UNL A   1      31.650  28.083  23.225  1.00  0.00    -0.331 N 
ATOM     13  H   UNL A   1      32.318  28.618  22.739  1.00  0.00     0.165 HD
ATOM     14  O   UNL A   1      31.372  26.175  22.060  1.00  0.00    -0.249 OA
BRANCH  12  15
ATOM     15  C   UNL A   1      30.654  28.771  24.045  1.00  0.00     0.112 C 
ATOM     16  C   UNL A   1      31.210  29.835  24.988  1.00  0.00     0.036 C 
BRANCH  15  17
ATOM     17  C   UNL A   1      29.595  29.309  23.109  1.00  0.00    -0.015 A 
ATOM     18  C   UNL A   1      28.207  28.935  23.169  1.00  0.00     0.017 A 
ATOM     19  C   UNL A   1      29.797  30.233  22.097  1.00  0.00     0.070 A 
ATOM     20  C   UNL A   1      27.435  29.579  22.227  1.00  0.00     0.065 A 
ATOM     21  S   UNL A   1      28.360  30.641  21.263  1.00  0.00    -0.152 S 
ENDBRANCH  15  17
ENDBRANCH  12  15
ENDBRANCH   6  11
ENDBRANCH   3   5
ENDBRANCH   2   3
ENDBRANCH   1   2
BRANCH   1  22
ATOM     22  C   UNL A   1      35.934  20.877  25.173  1.00  0.00     0.275 C 
BRANCH  22  23
ATOM     23  O   UNL A   1      37.130  21.590  24.804  1.00  0.00    -0.458 OA
BRANCH  23  24
ATOM     24  C   UNL A   1      38.264  21.164  25.407  1.00  0.00     0.338 C 
ATOM     25  O   UNL A   1      38.795  20.074  25.294  1.00  0.00    -0.246 OA
BRANCH  24  26
ATOM     26  C   UNL A   1      38.841  22.248  26.220  1.00  0.00     0.060 A 
ATOM     27  C   UNL A   1      38.310  23.525  26.106  1.00  0.00     0.016 A 
ATOM     28  C   UNL A   1      40.022  22.050  26.928  1.00  0.00     0.016 A 
ATOM     29  C   UNL A   1      39.051  24.626  26.540  1.00  0.00     0.010 A 
ATOM     30  C   UNL A   1      40.679  23.149  27.501  1.00  0.00     0.010 A 
ATOM     31  C   UNL A   1      40.243  24.466  27.256  1.00  0.00    -0.014 A 
BRANCH  31  32
ATOM     32  C   UNL A   1      41.067  25.653  27.666  1.00  0.00     0.031 A 
ATOM     33  C   UNL A   1      40.481  26.695  28.596  1.00  0.00     0.074 A 
ATOM     34  C   UNL A   1      42.344  25.815  27.255  1.00  0.00     0.049 A 
ATOM     35  N   UNL A   1      40.899  27.908  28.858  1.00  0.00    -0.248 NA
ATOM     36  C   UNL A   1      39.242  26.330  29.299  1.00  0.00     0.031 C 
ATOM     37  C   UNL A   1      43.098  24.888  26.409  1.00  0.00     0.029 A 
ATOM     38  N   UNL A   1      43.246  26.822  27.512  1.00  0.00    -0.354 N 
ATOM     39  C   UNL A   1      39.923  28.484  29.669  1.00  0.00     0.074 A 
ATOM     40  C   UNL A   1      38.899  27.480  29.860  1.00  0.00     0.031 C 
ATOM     41  C   UNL A   1      44.357  25.330  26.277  1.00  0.00     0.029 A 
ATOM     42  C   UNL A   1      44.475  26.631  26.924  1.00  0.00     0.049 A 
ATOM     43  H   UNL A   1      43.031  27.608  28.066  1.00  0.00     0.167 HD
ATOM     44  C   UNL A   1      39.881  29.735  30.195  1.00  0.00     0.034 A 
ATOM     45  C   UNL A   1      45.562  27.425  26.859  1.00  0.00     0.034 A 
ATOM     46  C   UNL A   1      40.955  30.695  30.086  1.00  0.00     0.049 A 
ATOM     47  C   UNL A   1      45.511  28.799  27.466  1.00  0.00     0.074 A 
ATOM     48  C   UNL A   1      41.018  31.983  30.593  1.00  0.00     0.029 A 
ATOM     49  N   UNL A   1      42.169  30.461  29.458  1.00  0.00    -0.354 N 
ATOM     50  N   UNL A   1      44.523  29.383  28.102  1.00  0.00    -0.248 NA
ATOM     51  C   UNL A   1      46.712  29.632  27.319  1.00  0.00     0.031 C 
ATOM     52  C   UNL A   1      42.254  32.539  30.240  1.00  0.00     0.029 A 
ATOM     53  C   UNL A   1      42.985  31.579  29.561  1.00  0.00     0.049 A 
ATOM     54  H   UNL A   1      42.418  29.623  29.004  1.00  0.00     0.167 HD
ATOM     55  C   UNL A   1      44.983  30.656  28.424  1.00  0.00     0.074 A 
ATOM     56  C   UNL A   1      46.346  30.744  27.940  1.00  0.00     0.031 C 
ATOM     57  C   UNL A   1      44.333  31.664  29.055  1.00  0.00     0.034 A 
BRANCH  44  58
ATOM     58  C   UNL A   1      38.602  30.160  30.877  1.00  0.00     0.023 A 
ATOM     59  C   UNL A   1      37.576  30.841  30.201  1.00  0.00     0.031 A 
ATOM     60  C   UNL A   1      38.428  29.906  32.251  1.00  0.00     0.131 A 
ATOM     61  C   UNL A   1      36.460  31.309  30.914  1.00  0.00     0.055 A 
ATOM     62  C   UNL A   1      37.280  30.303  32.937  1.00  0.00     0.041 A 
ATOM     63  F   UNL A   1      39.382  29.275  32.954  1.00  0.00    -0.206 F 
ATOM     64  C   UNL A   1      36.294  31.025  32.271  1.00  0.00     0.022 A 
BRANCH  61  65
ATOM     65  S   UNL A   1      35.299  32.422  30.074  1.00  0.00     0.124 S 
ATOM     66  O   UNL A   1      36.156  33.566  29.768  1.00  0.00    -0.237 OA
ATOM     67  O   UNL A   1      34.866  31.624  28.934  1.00  0.00    -0.237 OA
ATOM     68  O   UNL A   1      34.274  32.674  31.085  1.00  0.00    -0.744 OA
ENDBRANCH  61  65
ENDBRANCH  44  58
BRANCH  45  69
ATOM     69  C   UNL A   1      46.776  26.971  26.123  1.00  0.00     0.023 A 
ATOM     70  C   UNL A   1      47.053  27.445  24.832  1.00  0.00     0.031 A 
ATOM     71  C   UNL A   1      47.664  26.043  26.695  1.00  0.00     0.131 A 
ATOM     72  C   UNL A   1      48.182  26.972  24.145  1.00  0.00     0.055 A 
ATOM     73  C   UNL A   1      48.809  25.611  26.026  1.00  0.00     0.041 A 
ATOM     74  F   UNL A   1      47.440  25.561  27.928  1.00  0.00    -0.206 F 
ATOM     75  C   UNL A   1      49.069  26.070  24.739  1.00  0.00     0.022 A 
BRANCH  72  76
ATOM     76  S   UNL A   1      48.453  27.527  22.440  1.00  0.00     0.124 S 
ATOM     77  O   UNL A   1      49.681  28.301  22.572  1.00  0.00    -0.237 OA
ATOM     78  O   UNL A   1      48.567  26.261  21.723  1.00  0.00    -0.237 OA
ATOM     79  O   UNL A   1      47.252  28.305  22.140  1.00  0.00    -0.744 OA
ENDBRANCH  72  76
ENDBRANCH  45  69
BRANCH  57  80
ATOM     80  C   UNL A   1      45.108  32.935  29.277  1.00  0.00     0.023 A 
ATOM     81  C   UNL A   1      45.057  33.997  28.356  1.00  0.00     0.031 A 
ATOM     82  C   UNL A   1      45.934  33.072  30.406  1.00  0.00     0.131 A 
ATOM     83  C   UNL A   1      45.858  35.131  28.556  1.00  0.00     0.055 A 
ATOM     84  C   UNL A   1      46.695  34.221  30.621  1.00  0.00     0.041 A 
ATOM     85  F   UNL A   1      46.019  32.085  31.313  1.00  0.00    -0.206 F 
ATOM     86  C   UNL A   1      46.669  35.255  29.688  1.00  0.00     0.022 A 
BRANCH  83  87
ATOM     87  S   UNL A   1      45.886  36.416  27.275  1.00  0.00     0.124 S 
ATOM     88  O   UNL A   1      46.153  37.619  28.057  1.00  0.00    -0.237 OA
ATOM     89  O   UNL A   1      46.969  35.967  26.406  1.00  0.00    -0.237 OA
ATOM     90  O   UNL A   1      44.550  36.344  26.687  1.00  0.00    -0.744 OA
ENDBRANCH  83  87
ENDBRANCH  57  80
ENDBRANCH  31  32
ENDBRANCH  24  26
ENDBRANCH  23  24
ENDBRANCH  22  23
ENDBRANCH   1  22
TORSDOF 17
ENDMDL
MODEL 2
REMARK VINA RESULT:     -11.8      1.642      2.055
REMARK SMILES C[C@H](NC(=O)N1CC[C@H](C(=O)OCCOC(=O)c2ccc(-c3c4nc(c(-c5cc(S(=O)(=O)[O-])ccc5F)c5ccc([nH]5)c(-c5cc(S(=O)(=O)[O-])ccc5F)c5nc(c(-c6cc(S(=O)(=O)[O-])ccc6F)c6ccc3[nH]6)C=C5)C=C4)cc2)[C@H]1C)c1ccsc1
REMARK SMILES IDX 13 1 12 2 10 3 11 4 9 5 6 6 7 7 81 8 8 9 82 10 4 11 3 12
REMARK SMILES IDX 5 14 2 15 1 16 83 17 84 18 87 19 85 20 86 21 14 22 15 23
REMARK SMILES IDX 16 24 17 25 18 26 19 27 80 28 20 29 79 30 21 31 22 32 23 33
REMARK SMILES IDX 73 34 24 35 78 36 72 37 74 38 25 39 77 40 71 41 70 42 26 44
REMARK SMILES IDX 58 45 38 46 57 47 39 48 42 49 56 50 75 51 40 52 41 53 55 55
REMARK SMILES IDX 76 56 43 57 27 58 28 59 36 60 29 61 35 62 37 63 34 64 30 65
REMARK SMILES IDX 31 66 32 67 33 68 59 69 60 70 68 71 61 72 67 73 69 74 66 75
REMARK SMILES IDX 62 76 63 77 64 78 65 79 44 80 45 81 53 82 46 83 52 84 54 85
REMARK SMILES IDX 51 86 47 87 48 88 49 89 50 90
REMARK H PARENT 3 13 74 43 42 54
REMARK Flexibility Score: inf
ROOT
ATOM      1  C   UNL A   1      35.126  21.395  24.661  1.00  0.00     0.274 C 
ENDROOT
BRANCH   1   2
ATOM      2  O   UNL A   1      35.393  22.259  23.540  1.00  0.00    -0.462 OA
BRANCH   2   3
ATOM      3  C   UNL A   1      34.367  23.063  23.132  1.00  0.00     0.311 C 
ATOM      4  O   UNL A   1      34.085  23.304  21.968  1.00  0.00    -0.252 OA
BRANCH   3   5
ATOM      5  C   UNL A   1      33.678  23.660  24.345  1.00  0.00     0.123 C 
ATOM      6  N   UNL A   1      32.513  25.685  23.821  1.00  0.00    -0.321 N 
ATOM      7  C   UNL A   1      33.854  26.058  24.234  1.00  0.00     0.122 C 
ATOM      8  C   UNL A   1      32.318  24.238  23.959  1.00  0.00     0.098 C 
ATOM      9  C   UNL A   1      34.424  24.845  24.952  1.00  0.00     0.039 C 
ATOM     10  C   UNL A   1      31.264  23.922  25.017  1.00  0.00     0.032 C 
BRANCH   6  11
ATOM     11  C   UNL A   1      32.027  26.378  22.729  1.00  0.00     0.318 C 
ATOM     12  N   UNL A   1      31.877  27.723  22.907  1.00  0.00    -0.331 N 
ATOM     13  H   UNL A   1      32.568  28.328  22.554  1.00  0.00     0.165 HD
ATOM     14  O   UNL A   1      31.912  25.875  21.618  1.00  0.00    -0.249 OA
BRANCH  12  15
ATOM     15  C   UNL A   1      30.725  28.294  23.602  1.00  0.00     0.112 C 
ATOM     16  C   UNL A   1      29.499  27.389  23.682  1.00  0.00     0.036 C 
BRANCH  15  17
ATOM     17  C   UNL A   1      31.204  28.760  24.958  1.00  0.00    -0.015 A 
ATOM     18  C   UNL A   1      31.329  27.898  26.103  1.00  0.00     0.017 A 
ATOM     19  C   UNL A   1      31.602  30.046  25.284  1.00  0.00     0.070 A 
ATOM     20  C   UNL A   1      31.810  28.550  27.218  1.00  0.00     0.065 A 
ATOM     21  S   UNL A   1      32.119  30.200  26.907  1.00  0.00    -0.152 S 
ENDBRANCH  15  17
ENDBRANCH  12  15
ENDBRANCH   6  11
ENDBRANCH   3   5
ENDBRANCH   2   3
ENDBRANCH   1   2
BRANCH   1  22
ATOM     22  C   UNL A   1      36.391  20.617  25.013  1.00  0.00     0.275 C 
BRANCH  22  23
ATOM     23  O   UNL A   1      37.527  21.498  24.919  1.00  0.00    -0.458 OA
BRANCH  23  24
ATOM     24  C   UNL A   1      38.611  21.119  25.634  1.00  0.00     0.338 C 
ATOM     25  O   UNL A   1      39.147  20.025  25.638  1.00  0.00    -0.246 OA
BRANCH  24  26
ATOM     26  C   UNL A   1      39.126  22.258  26.410  1.00  0.00     0.060 A 
ATOM     27  C   UNL A   1      38.604  23.521  26.172  1.00  0.00     0.016 A 
ATOM     28  C   UNL A   1      40.253  22.116  27.213  1.00  0.00     0.016 A 
ATOM     29  C   UNL A   1      39.310  24.654  26.582  1.00  0.00     0.010 A 
ATOM     30  C   UNL A   1      40.866  23.256  27.755  1.00  0.00     0.010 A 
ATOM     31  C   UNL A   1      40.448  24.550  27.391  1.00  0.00    -0.014 A 
BRANCH  31  32
ATOM     32  C   UNL A   1      41.238  25.768  27.777  1.00  0.00     0.031 A 
ATOM     33  C   UNL A   1      40.618  26.820  28.673  1.00  0.00     0.074 A 
ATOM     34  C   UNL A   1      42.516  25.949  27.375  1.00  0.00     0.049 A 
ATOM     35  N   UNL A   1      41.004  28.049  28.906  1.00  0.00    -0.248 NA
ATOM     36  C   UNL A   1      39.380  26.443  29.372  1.00  0.00     0.031 C 
ATOM     37  C   UNL A   1      43.301  25.018  26.562  1.00  0.00     0.029 A 
ATOM     38  N   UNL A   1      43.390  26.984  27.614  1.00  0.00    -0.354 N 
ATOM     39  C   UNL A   1      40.006  28.622  29.691  1.00  0.00     0.074 A 
ATOM     40  C   UNL A   1      39.004  27.599  29.899  1.00  0.00     0.031 C 
ATOM     41  C   UNL A   1      44.550  25.487  26.431  1.00  0.00     0.029 A 
ATOM     42  C   UNL A   1      44.630  26.807  27.043  1.00  0.00     0.049 A 
ATOM     43  H   UNL A   1      43.151  27.779  28.144  1.00  0.00     0.167 HD
ATOM     44  C   UNL A   1      39.929  29.885  30.183  1.00  0.00     0.034 A 
ATOM     45  C   UNL A   1      45.699  27.625  26.968  1.00  0.00     0.034 A 
ATOM     46  C   UNL A   1      40.980  30.868  30.059  1.00  0.00     0.049 A 
ATOM     47  C   UNL A   1      45.608  29.013  27.537  1.00  0.00     0.074 A 
ATOM     48  C   UNL A   1      41.007  32.170  30.532  1.00  0.00     0.029 A 
ATOM     49  N   UNL A   1      42.207  30.646  29.450  1.00  0.00    -0.354 N 
ATOM     50  N   UNL A   1      44.600  29.590  28.147  1.00  0.00    -0.248 NA
ATOM     51  C   UNL A   1      46.790  29.871  27.380  1.00  0.00     0.031 C 
ATOM     52  C   UNL A   1      42.233  32.746  30.177  1.00  0.00     0.029 A 
ATOM     53  C   UNL A   1      42.994  31.786  29.530  1.00  0.00     0.049 A 
ATOM     54  H   UNL A   1      42.479  29.803  29.021  1.00  0.00     0.167 HD
ATOM     55  C   UNL A   1      45.026  30.882  28.439  1.00  0.00     0.074 A 
ATOM     56  C   UNL A   1      46.391  30.990  27.967  1.00  0.00     0.031 C 
ATOM     57  C   UNL A   1      44.345  31.891  29.036  1.00  0.00     0.034 A 
BRANCH  44  58
ATOM     58  C   UNL A   1      38.633  30.298  30.840  1.00  0.00     0.023 A 
ATOM     59  C   UNL A   1      37.597  30.933  30.135  1.00  0.00     0.031 A 
ATOM     60  C   UNL A   1      38.451  30.078  32.219  1.00  0.00     0.131 A 
ATOM     61  C   UNL A   1      36.462  31.393  30.824  1.00  0.00     0.055 A 
ATOM     62  C   UNL A   1      37.286  30.466  32.882  1.00  0.00     0.041 A 
ATOM     63  F   UNL A   1      39.412  29.491  32.949  1.00  0.00    -0.206 F 
ATOM     64  C   UNL A   1      36.289  31.143  32.187  1.00  0.00     0.022 A 
BRANCH  61  65
ATOM     65  S   UNL A   1      35.283  32.453  29.942  1.00  0.00     0.124 S 
ATOM     66  O   UNL A   1      34.834  31.566  28.871  1.00  0.00    -0.237 OA
ATOM     67  O   UNL A   1      34.300  32.758  30.974  1.00  0.00    -0.237 OA
ATOM     68  O   UNL A   1      36.100  33.582  29.503  1.00  0.00    -0.744 OA
ENDBRANCH  61  65
ENDBRANCH  44  58
BRANCH  45  69
ATOM     69  C   UNL A   1      46.930  27.181  26.256  1.00  0.00     0.023 A 
ATOM     70  C   UNL A   1      47.980  26.562  26.952  1.00  0.00     0.031 A 
ATOM     71  C   UNL A   1      47.081  27.388  24.874  1.00  0.00     0.131 A 
ATOM     72  C   UNL A   1      49.145  26.189  26.266  1.00  0.00     0.055 A 
ATOM     73  C   UNL A   1      48.223  26.973  24.188  1.00  0.00     0.041 A 
ATOM     74  F   UNL A   1      46.104  27.976  24.165  1.00  0.00    -0.206 F 
ATOM     75  C   UNL A   1      49.267  26.377  24.886  1.00  0.00     0.022 A 
BRANCH  72  76
ATOM     76  S   UNL A   1      50.521  25.487  27.214  1.00  0.00     0.124 S 
ATOM     77  O   UNL A   1      50.758  26.527  28.209  1.00  0.00    -0.237 OA
ATOM     78  O   UNL A   1      49.943  24.243  27.713  1.00  0.00    -0.237 OA
ATOM     79  O   UNL A   1      51.576  25.325  26.215  1.00  0.00    -0.744 OA
ENDBRANCH  72  76
ENDBRANCH  45  69
BRANCH  57  80
ATOM     80  C   UNL A   1      45.087  33.186  29.232  1.00  0.00     0.023 A 
ATOM     81  C   UNL A   1      44.944  34.257  28.333  1.00  0.00     0.031 A 
ATOM     82  C   UNL A   1      45.974  33.336  30.311  1.00  0.00     0.131 A 
ATOM     83  C   UNL A   1      45.714  35.417  28.503  1.00  0.00     0.055 A 
ATOM     84  C   UNL A   1      46.706  34.509  30.499  1.00  0.00     0.041 A 
ATOM     85  F   UNL A   1      46.148  32.340  31.196  1.00  0.00    -0.206 F 
ATOM     86  C   UNL A   1      46.587  35.554  29.586  1.00  0.00     0.022 A 
BRANCH  83  87
ATOM     87  S   UNL A   1      45.620  36.720  27.243  1.00  0.00     0.124 S 
ATOM     88  O   UNL A   1      45.800  37.928  28.041  1.00  0.00    -0.237 OA
ATOM     89  O   UNL A   1      46.723  36.374  26.353  1.00  0.00    -0.237 OA
ATOM     90  O   UNL A   1      44.286  36.548  26.671  1.00  0.00    -0.744 OA
ENDBRANCH  83  87
ENDBRANCH  57  80
ENDBRANCH  31  32
ENDBRANCH  24  26
ENDBRANCH  23  24
ENDBRANCH  22  23
ENDBRANCH   1  22
TORSDOF 17
ENDMDL
MODEL 3
REMARK VINA RESULT:     -11.7      5.344     10.477
REMARK SMILES C[C@H](NC(=O)N1CC[C@H](C(=O)OCCOC(=O)c2ccc(-c3c4nc(c(-c5cc(S(=O)(=O)[O-])ccc5F)c5ccc([nH]5)c(-c5cc(S(=O)(=O)[O-])ccc5F)c5nc(c(-c6cc(S(=O)(=O)[O-])ccc6F)c6ccc3[nH]6)C=C5)C=C4)cc2)[C@H]1C)c1ccsc1
REMARK SMILES IDX 13 1 12 2 10 3 11 4 9 5 6 6 7 7 81 8 8 9 82 10 4 11 3 12
REMARK SMILES IDX 5 14 2 15 1 16 83 17 84 18 87 19 85 20 86 21 14 22 15 23
REMARK SMILES IDX 16 24 17 25 18 26 19 27 80 28 20 29 79 30 21 31 22 32 23 33
REMARK SMILES IDX 73 34 24 35 78 36 72 37 74 38 25 39 77 40 71 41 70 42 26 44
REMARK SMILES IDX 58 45 38 46 57 47 39 48 42 49 56 50 75 51 40 52 41 53 55 55
REMARK SMILES IDX 76 56 43 57 27 58 28 59 36 60 29 61 35 62 37 63 34 64 30 65
REMARK SMILES IDX 31 66 32 67 33 68 59 69 60 70 68 71 61 72 67 73 69 74 66 75
REMARK SMILES IDX 62 76 63 77 64 78 65 79 44 80 45 81 53 82 46 83 52 84 54 85
REMARK SMILES IDX 51 86 47 87 48 88 49 89 50 90
REMARK H PARENT 3 13 74 43 42 54
REMARK Flexibility Score: inf
ROOT
ATOM      1  C   UNL A   1      31.945  27.786  25.642  1.00  0.00     0.274 C 
ENDROOT
BRANCH   1   2
ATOM      2  O   UNL A   1      30.916  27.182  24.835  1.00  0.00    -0.462 OA
BRANCH   2   3
ATOM      3  C   UNL A   1      31.007  25.833  24.640  1.00  0.00     0.311 C 
ATOM      4  O   UNL A   1      30.279  25.179  23.908  1.00  0.00    -0.252 OA
BRANCH   3   5
ATOM      5  C   UNL A   1      32.106  25.266  25.519  1.00  0.00     0.123 C 
ATOM      6  N   UNL A   1      32.624  22.993  24.972  1.00  0.00    -0.321 N 
ATOM      7  C   UNL A   1      31.601  22.963  26.002  1.00  0.00     0.122 C 
ATOM      8  C   UNL A   1      33.040  24.374  24.704  1.00  0.00     0.098 C 
ATOM      9  C   UNL A   1      31.593  24.349  26.626  1.00  0.00     0.039 C 
ATOM     10  C   UNL A   1      34.498  24.596  25.097  1.00  0.00     0.032 C 
BRANCH   6  11
ATOM     11  C   UNL A   1      32.448  22.081  23.950  1.00  0.00     0.318 C 
ATOM     12  N   UNL A   1      32.646  20.774  24.289  1.00  0.00    -0.331 N 
ATOM     13  H   UNL A   1      31.863  20.206  24.472  1.00  0.00     0.165 HD
ATOM     14  O   UNL A   1      31.966  22.381  22.865  1.00  0.00    -0.249 OA
BRANCH  12  15
ATOM     15  C   UNL A   1      33.982  20.188  24.389  1.00  0.00     0.112 C 
ATOM     16  C   UNL A   1      34.907  20.847  25.407  1.00  0.00     0.036 C 
BRANCH  15  17
ATOM     17  C   UNL A   1      33.805  18.705  24.627  1.00  0.00    -0.015 A 
ATOM     18  C   UNL A   1      34.776  17.712  24.251  1.00  0.00     0.017 A 
ATOM     19  C   UNL A   1      32.721  18.102  25.244  1.00  0.00     0.070 A 
ATOM     20  C   UNL A   1      34.398  16.433  24.596  1.00  0.00     0.065 A 
ATOM     21  S   UNL A   1      32.880  16.405  25.376  1.00  0.00    -0.152 S 
ENDBRANCH  15  17
ENDBRANCH  12  15
ENDBRANCH   6  11
ENDBRANCH   3   5
ENDBRANCH   2   3
ENDBRANCH   1   2
BRANCH   1  22
ATOM     22  C   UNL A   1      31.708  29.292  25.720  1.00  0.00     0.275 C 
BRANCH  22  23
ATOM     23  O   UNL A   1      32.065  29.756  27.036  1.00  0.00    -0.458 OA
BRANCH  23  24
ATOM     24  C   UNL A   1      32.672  30.965  27.075  1.00  0.00     0.338 C 
ATOM     25  O   UNL A   1      32.162  32.054  26.877  1.00  0.00    -0.246 OA
BRANCH  24  26
ATOM     26  C   UNL A   1      34.085  30.808  27.456  1.00  0.00     0.060 A 
ATOM     27  C   UNL A   1      34.605  29.528  27.587  1.00  0.00     0.016 A 
ATOM     28  C   UNL A   1      34.831  31.904  27.878  1.00  0.00     0.016 A 
ATOM     29  C   UNL A   1      35.784  29.328  28.306  1.00  0.00     0.010 A 
ATOM     30  C   UNL A   1      36.093  31.702  28.457  1.00  0.00     0.010 A 
ATOM     31  C   UNL A   1      36.561  30.406  28.747  1.00  0.00    -0.014 A 
BRANCH  31  32
ATOM     32  C   UNL A   1      37.797  30.185  29.572  1.00  0.00     0.031 A 
ATOM     33  C   UNL A   1      38.966  29.415  28.994  1.00  0.00     0.074 A 
ATOM     34  C   UNL A   1      37.921  30.683  30.823  1.00  0.00     0.049 A 
ATOM     35  N   UNL A   1      39.996  28.882  29.602  1.00  0.00    -0.248 NA
ATOM     36  C   UNL A   1      38.953  29.191  27.541  1.00  0.00     0.031 C 
ATOM     37  C   UNL A   1      36.928  31.500  31.524  1.00  0.00     0.029 A 
ATOM     38  N   UNL A   1      38.953  30.584  31.726  1.00  0.00    -0.354 N 
ATOM     39  C   UNL A   1      40.694  28.174  28.625  1.00  0.00     0.074 A 
ATOM     40  C   UNL A   1      39.970  28.357  27.385  1.00  0.00     0.031 C 
ATOM     41  C   UNL A   1      37.426  31.883  32.709  1.00  0.00     0.029 A 
ATOM     42  C   UNL A   1      38.720  31.244  32.911  1.00  0.00     0.049 A 
ATOM     43  H   UNL A   1      39.783  30.086  31.543  1.00  0.00     0.167 HD
ATOM     44  C   UNL A   1      41.825  27.434  28.754  1.00  0.00     0.034 A 
ATOM     45  C   UNL A   1      39.431  31.295  34.055  1.00  0.00     0.034 A 
ATOM     46  C   UNL A   1      42.597  27.341  29.971  1.00  0.00     0.049 A 
ATOM     47  C   UNL A   1      40.694  30.490  34.177  1.00  0.00     0.074 A 
ATOM     48  C   UNL A   1      43.764  26.630  30.203  1.00  0.00     0.029 A 
ATOM     49  N   UNL A   1      42.304  28.010  31.151  1.00  0.00    -0.354 N 
ATOM     50  N   UNL A   1      41.261  29.707  33.290  1.00  0.00    -0.248 NA
ATOM     51  C   UNL A   1      41.396  30.551  35.465  1.00  0.00     0.031 C 
ATOM     52  C   UNL A   1      44.154  26.840  31.531  1.00  0.00     0.029 A 
ATOM     53  C   UNL A   1      43.263  27.726  32.113  1.00  0.00     0.049 A 
ATOM     54  H   UNL A   1      41.528  28.601  31.287  1.00  0.00     0.167 HD
ATOM     55  C   UNL A   1      42.383  29.177  33.918  1.00  0.00     0.074 A 
ATOM     56  C   UNL A   1      42.430  29.752  35.247  1.00  0.00     0.031 C 
ATOM     57  C   UNL A   1      43.288  28.286  33.442  1.00  0.00     0.034 A 
BRANCH  44  58
ATOM     58  C   UNL A   1      42.255  26.608  27.565  1.00  0.00     0.023 A 
ATOM     59  C   UNL A   1      41.881  25.264  27.404  1.00  0.00     0.031 A 
ATOM     60  C   UNL A   1      43.092  27.179  26.588  1.00  0.00     0.131 A 
ATOM     61  C   UNL A   1      42.403  24.517  26.335  1.00  0.00     0.055 A 
ATOM     62  C   UNL A   1      43.543  26.454  25.484  1.00  0.00     0.041 A 
ATOM     63  F   UNL A   1      43.497  28.455  26.696  1.00  0.00    -0.206 F 
ATOM     64  C   UNL A   1      43.212  25.108  25.362  1.00  0.00     0.022 A 
BRANCH  61  65
ATOM     65  S   UNL A   1      42.130  22.723  26.316  1.00  0.00     0.124 S 
ATOM     66  O   UNL A   1      42.653  22.359  25.001  1.00  0.00    -0.237 OA
ATOM     67  O   UNL A   1      42.910  22.273  27.462  1.00  0.00    -0.237 OA
ATOM     68  O   UNL A   1      40.681  22.596  26.458  1.00  0.00    -0.744 OA
ENDBRANCH  61  65
ENDBRANCH  44  58
BRANCH  45  69
ATOM     69  C   UNL A   1      38.926  32.083  35.214  1.00  0.00     0.023 A 
ATOM     70  C   UNL A   1      38.355  31.444  36.325  1.00  0.00     0.031 A 
ATOM     71  C   UNL A   1      38.990  33.488  35.217  1.00  0.00     0.131 A 
ATOM     72  C   UNL A   1      37.851  32.210  37.387  1.00  0.00     0.055 A 
ATOM     73  C   UNL A   1      38.529  34.244  36.296  1.00  0.00     0.041 A 
ATOM     74  F   UNL A   1      39.527  34.145  34.177  1.00  0.00    -0.206 F 
ATOM     75  C   UNL A   1      37.948  33.605  37.386  1.00  0.00     0.022 A 
BRANCH  72  76
ATOM     76  S   UNL A   1      37.028  31.356  38.758  1.00  0.00     0.124 S 
ATOM     77  O   UNL A   1      36.950  29.990  38.252  1.00  0.00    -0.237 OA
ATOM     78  O   UNL A   1      37.961  31.578  39.858  1.00  0.00    -0.237 OA
ATOM     79  O   UNL A   1      35.750  32.054  38.876  1.00  0.00    -0.744 OA
ENDBRANCH  72  76
ENDBRANCH  45  69
BRANCH  57  80
ATOM     80  C   UNL A   1      44.418  27.910  34.363  1.00  0.00     0.023 A 
ATOM     81  C   UNL A   1      44.313  26.819  35.244  1.00  0.00     0.031 A 
ATOM     82  C   UNL A   1      45.597  28.672  34.383  1.00  0.00     0.131 A 
ATOM     83  C   UNL A   1      45.354  26.550  36.145  1.00  0.00     0.055 A 
ATOM     84  C   UNL A   1      46.647  28.373  35.252  1.00  0.00     0.041 A 
ATOM     85  F   UNL A   1      45.744  29.726  33.563  1.00  0.00    -0.206 F 
ATOM     86  C   UNL A   1      46.525  27.314  36.148  1.00  0.00     0.022 A 
BRANCH  83  87
ATOM     87  S   UNL A   1      45.128  25.232  37.372  1.00  0.00     0.124 S 
ATOM     88  O   UNL A   1      43.975  24.514  36.838  1.00  0.00    -0.237 OA
ATOM     89  O   UNL A   1      46.403  24.525  37.310  1.00  0.00    -0.237 OA
ATOM     90  O   UNL A   1      44.883  25.960  38.616  1.00  0.00    -0.744 OA
ENDBRANCH  83  87
ENDBRANCH  57  80
ENDBRANCH  31  32
ENDBRANCH  24  26
ENDBRANCH  23  24
ENDBRANCH  22  23
ENDBRANCH   1  22
TORSDOF 17
ENDMDL
