MODEL 1
REMARK VINA RESULT:     -12.7      0.000      0.000
REMARK SMILES O=C(OCCOC(=O)c1ccc2c(=O)[nH]c(N3CC[NH2+]CC3)nc2c1)c1ccc(-c2c3nc(c(-c4cc(S(=O)(=O)[O-])ccc4F)c4ccc([nH]4)c(-c4cc(S(=O)(=O)[O-])ccc4F)c4nc(c(-c5cc(S(=O)(=O)[O-])ccc5F)c5ccc2[nH]5)C=C4)C=C3)cc1
REMARK SMILES IDX 4 1 3 2 2 3 1 4 26 5 27 6 88 7 28 8 87 9 29 10 30 11 31 12
REMARK SMILES IDX 81 13 32 14 86 15 80 16 82 17 33 18 85 19 79 20 78 21 34 23
REMARK SMILES IDX 66 24 46 25 65 26 47 27 50 28 64 29 83 30 48 31 49 32 63 34
REMARK SMILES IDX 84 35 51 36 35 37 36 38 44 39 37 40 43 41 45 42 42 43 38 44
REMARK SMILES IDX 39 45 40 46 41 47 67 48 68 49 76 50 69 51 75 52 77 53 74 54
REMARK SMILES IDX 70 55 71 56 72 57 73 58 52 59 53 60 61 61 54 62 60 63 62 64
REMARK SMILES IDX 59 65 55 66 56 67 57 68 58 69 5 70 6 71 7 72 8 73 9 74 10 75
REMARK SMILES IDX 25 76 11 77 24 78 12 79 23 80 13 81 16 82 14 83 15 84 17 86
REMARK SMILES IDX 18 87 22 88 19 89 21 90 20 91
REMARK H PARENT 82 22 50 33 15 85 20 92 20 93
REMARK Flexibility Score: inf
ROOT
ATOM      1  C   UNL A   1      36.931  22.565  25.487  1.00  0.00     0.275 C 
ENDROOT
BRANCH   1   2
ATOM      2  O   UNL A   1      38.256  22.026  25.645  1.00  0.00    -0.458 OA
BRANCH   2   3
ATOM      3  C   UNL A   1      39.255  22.397  26.482  1.00  0.00     0.338 C 
ATOM      4  O   UNL A   1      39.881  21.523  27.081  1.00  0.00    -0.246 OA
BRANCH   3   5
ATOM      5  C   UNL A   1      39.547  23.821  26.825  1.00  0.00     0.060 A 
ATOM      6  C   UNL A   1      40.055  24.779  25.947  1.00  0.00     0.016 A 
ATOM      7  C   UNL A   1      39.344  24.195  28.164  1.00  0.00     0.016 A 
ATOM      8  C   UNL A   1      40.270  26.096  26.368  1.00  0.00     0.010 A 
ATOM      9  C   UNL A   1      39.550  25.511  28.592  1.00  0.00     0.010 A 
ATOM     10  C   UNL A   1      40.024  26.469  27.693  1.00  0.00    -0.014 A 
BRANCH  10  11
ATOM     11  C   UNL A   1      40.459  27.806  28.159  1.00  0.00     0.031 A 
ATOM     12  C   UNL A   1      41.916  28.152  28.057  1.00  0.00     0.074 A 
ATOM     13  C   UNL A   1      39.566  28.710  28.599  1.00  0.00     0.049 A 
ATOM     14  N   UNL A   1      42.516  29.289  28.284  1.00  0.00    -0.248 NA
ATOM     15  C   UNL A   1      42.814  27.071  27.621  1.00  0.00     0.031 C 
ATOM     16  C   UNL A   1      38.125  28.491  28.700  1.00  0.00     0.029 A 
ATOM     17  N   UNL A   1      39.736  29.998  29.040  1.00  0.00    -0.354 N 
ATOM     18  C   UNL A   1      43.854  29.073  27.976  1.00  0.00     0.074 A 
ATOM     19  C   UNL A   1      43.990  27.675  27.634  1.00  0.00     0.031 C 
ATOM     20  C   UNL A   1      37.544  29.593  29.205  1.00  0.00     0.029 A 
ATOM     21  C   UNL A   1      38.569  30.603  29.447  1.00  0.00     0.049 A 
ATOM     22  H   UNL A   1      40.612  30.447  29.062  1.00  0.00     0.167 HD
ATOM     23  C   UNL A   1      44.869  29.971  27.939  1.00  0.00     0.034 A 
ATOM     24  C   UNL A   1      38.357  31.837  29.947  1.00  0.00     0.034 A 
ATOM     25  C   UNL A   1      44.721  31.349  28.331  1.00  0.00     0.049 A 
ATOM     26  C   UNL A   1      39.527  32.787  30.021  1.00  0.00     0.074 A 
ATOM     27  C   UNL A   1      45.674  32.350  28.363  1.00  0.00     0.029 A 
ATOM     28  N   UNL A   1      43.534  31.915  28.784  1.00  0.00    -0.354 N 
ATOM     29  N   UNL A   1      40.777  32.588  29.667  1.00  0.00    -0.248 NA
ATOM     30  C   UNL A   1      39.250  34.138  30.523  1.00  0.00     0.031 C 
ATOM     31  C   UNL A   1      45.078  33.502  28.891  1.00  0.00     0.029 A 
ATOM     32  C   UNL A   1      43.737  33.241  29.126  1.00  0.00     0.049 A 
ATOM     33  H   UNL A   1      42.673  31.441  28.852  1.00  0.00     0.167 HD
ATOM     34  C   UNL A   1      41.423  33.808  29.852  1.00  0.00     0.074 A 
ATOM     35  C   UNL A   1      40.422  34.732  30.351  1.00  0.00     0.031 C 
ATOM     36  C   UNL A   1      42.718  34.140  29.616  1.00  0.00     0.034 A 
BRANCH  23  37
ATOM     37  C   UNL A   1      46.213  29.445  27.501  1.00  0.00     0.023 A 
ATOM     38  C   UNL A   1      46.457  29.097  26.158  1.00  0.00     0.031 A 
ATOM     39  C   UNL A   1      47.221  29.183  28.441  1.00  0.00     0.131 A 
ATOM     40  C   UNL A   1      47.634  28.418  25.812  1.00  0.00     0.055 A 
ATOM     41  C   UNL A   1      48.428  28.581  28.076  1.00  0.00     0.041 A 
ATOM     42  F   UNL A   1      47.036  29.468  29.740  1.00  0.00    -0.206 F 
ATOM     43  C   UNL A   1      48.632  28.177  26.759  1.00  0.00     0.022 A 
BRANCH  40  44
ATOM     44  S   UNL A   1      47.762  27.697  24.152  1.00  0.00     0.124 S 
ATOM     45  O   UNL A   1      49.197  27.805  23.893  1.00  0.00    -0.237 OA
ATOM     46  O   UNL A   1      47.250  26.346  24.352  1.00  0.00    -0.237 OA
ATOM     47  O   UNL A   1      46.922  28.568  23.334  1.00  0.00    -0.744 OA
ENDBRANCH  40  44
ENDBRANCH  23  37
BRANCH  24  48
ATOM     48  C   UNL A   1      36.999  32.254  30.402  1.00  0.00     0.023 A 
ATOM     49  C   UNL A   1      36.094  32.887  29.535  1.00  0.00     0.031 A 
ATOM     50  C   UNL A   1      36.608  32.069  31.741  1.00  0.00     0.131 A 
ATOM     51  C   UNL A   1      34.862  33.351  30.025  1.00  0.00     0.055 A 
ATOM     52  C   UNL A   1      35.365  32.495  32.213  1.00  0.00     0.041 A 
ATOM     53  F   UNL A   1      37.433  31.469  32.612  1.00  0.00    -0.206 F 
ATOM     54  C   UNL A   1      34.488  33.152  31.356  1.00  0.00     0.022 A 
BRANCH  51  55
ATOM     55  S   UNL A   1      33.777  34.285  28.911  1.00  0.00     0.124 S 
ATOM     56  O   UNL A   1      34.699  35.263  28.344  1.00  0.00    -0.237 OA
ATOM     57  O   UNL A   1      33.309  33.244  28.003  1.00  0.00    -0.237 OA
ATOM     58  O   UNL A   1      32.758  34.834  29.805  1.00  0.00    -0.744 OA
ENDBRANCH  51  55
ENDBRANCH  24  48
BRANCH  36  59
ATOM     59  C   UNL A   1      43.097  35.584  29.835  1.00  0.00     0.023 A 
ATOM     60  C   UNL A   1      42.935  36.552  28.831  1.00  0.00     0.031 A 
ATOM     61  C   UNL A   1      43.645  35.986  31.066  1.00  0.00     0.131 A 
ATOM     62  C   UNL A   1      43.376  37.866  29.054  1.00  0.00     0.055 A 
ATOM     63  C   UNL A   1      44.025  37.306  31.303  1.00  0.00     0.041 A 
ATOM     64  F   UNL A   1      43.821  35.098  32.058  1.00  0.00    -0.206 F 
ATOM     65  C   UNL A   1      43.905  38.252  30.289  1.00  0.00     0.022 A 
BRANCH  62  66
ATOM     66  S   UNL A   1      43.338  39.041  27.674  1.00  0.00     0.124 S 
ATOM     67  O   UNL A   1      44.658  38.855  27.080  1.00  0.00    -0.237 OA
ATOM     68  O   UNL A   1      42.209  38.557  26.884  1.00  0.00    -0.237 OA
ATOM     69  O   UNL A   1      43.128  40.331  28.328  1.00  0.00    -0.744 OA
ENDBRANCH  62  66
ENDBRANCH  36  59
ENDBRANCH  10  11
ENDBRANCH   3   5
ENDBRANCH   2   3
ENDBRANCH   1   2
BRANCH   1  70
ATOM     70  C   UNL A   1      35.820  21.742  26.133  1.00  0.00     0.275 C 
BRANCH  70  71
ATOM     71  O   UNL A   1      34.847  21.261  25.198  1.00  0.00    -0.458 OA
BRANCH  71  72
ATOM     72  C   UNL A   1      33.593  21.758  25.354  1.00  0.00     0.338 C 
ATOM     73  O   UNL A   1      32.811  21.517  26.258  1.00  0.00    -0.246 OA
BRANCH  72  74
ATOM     74  C   UNL A   1      33.327  22.732  24.280  1.00  0.00     0.062 A 
ATOM     75  C   UNL A   1      33.743  22.479  22.968  1.00  0.00     0.016 A 
ATOM     76  C   UNL A   1      32.689  23.937  24.610  1.00  0.00     0.045 A 
ATOM     77  C   UNL A   1      33.532  23.444  21.986  1.00  0.00     0.017 A 
ATOM     78  C   UNL A   1      32.550  24.943  23.651  1.00  0.00     0.081 A 
ATOM     79  C   UNL A   1      32.957  24.669  22.341  1.00  0.00     0.066 A 
ATOM     80  N   UNL A   1      32.077  26.212  24.046  1.00  0.00    -0.214 NA
ATOM     81  C   UNL A   1      32.787  25.734  21.347  1.00  0.00     0.260 A 
ATOM     82  C   UNL A   1      31.993  27.142  23.147  1.00  0.00     0.206 A 
ATOM     83  O   UNL A   1      33.002  25.555  20.156  1.00  0.00    -0.269 OA
ATOM     84  N   UNL A   1      32.340  26.925  21.844  1.00  0.00    -0.292 N 
ATOM     85  H   UNL A   1      32.262  27.681  21.218  1.00  0.00     0.173 HD
BRANCH  82  86
ATOM     86  N   UNL A   1      31.563  28.412  23.405  1.00  0.00    -0.331 N 
ATOM     87  C   UNL A   1      30.593  29.095  22.548  1.00  0.00     0.181 C 
ATOM     88  C   UNL A   1      32.279  29.279  24.342  1.00  0.00     0.181 C 
ATOM     89  C   UNL A   1      29.630  29.932  23.427  1.00  0.00     0.282 C 
ATOM     90  C   UNL A   1      31.277  30.099  25.175  1.00  0.00     0.282 C 
ATOM     91  N   UNL A   1      30.321  30.866  24.351  1.00  0.00    -0.343 N 
ATOM     92  H   UNL A   1      29.637  31.322  24.953  1.00  0.00     0.346 HD
ATOM     93  H   UNL A   1      30.819  31.576  23.814  1.00  0.00     0.346 HD
ENDBRANCH  82  86
ENDBRANCH  72  74
ENDBRANCH  71  72
ENDBRANCH  70  71
ENDBRANCH   1  70
TORSDOF 15
ENDMDL
MODEL 2
REMARK VINA RESULT:     -12.5      4.916     10.459
REMARK SMILES O=C(OCCOC(=O)c1ccc2c(=O)[nH]c(N3CC[NH2+]CC3)nc2c1)c1ccc(-c2c3nc(c(-c4cc(S(=O)(=O)[O-])ccc4F)c4ccc([nH]4)c(-c4cc(S(=O)(=O)[O-])ccc4F)c4nc(c(-c5cc(S(=O)(=O)[O-])ccc5F)c5ccc2[nH]5)C=C4)C=C3)cc1
REMARK SMILES IDX 4 1 3 2 2 3 1 4 26 5 27 6 88 7 28 8 87 9 29 10 30 11 31 12
REMARK SMILES IDX 81 13 32 14 86 15 80 16 82 17 33 18 85 19 79 20 78 21 34 23
REMARK SMILES IDX 66 24 46 25 65 26 47 27 50 28 64 29 83 30 48 31 49 32 63 34
REMARK SMILES IDX 84 35 51 36 35 37 36 38 44 39 37 40 43 41 45 42 42 43 38 44
REMARK SMILES IDX 39 45 40 46 41 47 67 48 68 49 76 50 69 51 75 52 77 53 74 54
REMARK SMILES IDX 70 55 71 56 72 57 73 58 52 59 53 60 61 61 54 62 60 63 62 64
REMARK SMILES IDX 59 65 55 66 56 67 57 68 58 69 5 70 6 71 7 72 8 73 9 74 10 75
REMARK SMILES IDX 25 76 11 77 24 78 12 79 23 80 13 81 16 82 14 83 15 84 17 86
REMARK SMILES IDX 18 87 22 88 19 89 21 90 20 91
REMARK H PARENT 82 22 50 33 15 85 20 92 20 93
REMARK Flexibility Score: inf
ROOT
ATOM      1  C   UNL A   1      31.957  32.969  26.809  1.00  0.00     0.275 C 
ENDROOT
BRANCH   1   2
ATOM      2  O   UNL A   1      32.521  33.474  28.032  1.00  0.00    -0.458 OA
BRANCH   2   3
ATOM      3  C   UNL A   1      33.750  33.989  28.279  1.00  0.00     0.338 C 
ATOM      4  O   UNL A   1      33.966  35.168  28.001  1.00  0.00    -0.246 OA
BRANCH   3   5
ATOM      5  C   UNL A   1      34.903  33.161  28.744  1.00  0.00     0.060 A 
ATOM      6  C   UNL A   1      34.816  32.037  29.565  1.00  0.00     0.016 A 
ATOM      7  C   UNL A   1      36.182  33.602  28.361  1.00  0.00     0.016 A 
ATOM      8  C   UNL A   1      35.963  31.319  29.922  1.00  0.00     0.010 A 
ATOM      9  C   UNL A   1      37.333  32.886  28.709  1.00  0.00     0.010 A 
ATOM     10  C   UNL A   1      37.228  31.740  29.502  1.00  0.00    -0.014 A 
BRANCH  10  11
ATOM     11  C   UNL A   1      38.432  31.089  30.067  1.00  0.00     0.031 A 
ATOM     12  C   UNL A   1      38.859  31.472  31.454  1.00  0.00     0.074 A 
ATOM     13  C   UNL A   1      39.085  30.132  29.385  1.00  0.00     0.049 A 
ATOM     14  N   UNL A   1      39.797  30.960  32.204  1.00  0.00    -0.248 NA
ATOM     15  C   UNL A   1      38.113  32.572  32.086  1.00  0.00     0.031 C 
ATOM     16  C   UNL A   1      38.729  29.656  28.050  1.00  0.00     0.029 A 
ATOM     17  N   UNL A   1      40.184  29.381  29.721  1.00  0.00    -0.354 N 
ATOM     18  C   UNL A   1      39.725  31.643  33.411  1.00  0.00     0.074 A 
ATOM     19  C   UNL A   1      38.713  32.665  33.260  1.00  0.00     0.031 C 
ATOM     20  C   UNL A   1      39.612  28.719  27.664  1.00  0.00     0.029 A 
ATOM     21  C   UNL A   1      40.587  28.515  28.731  1.00  0.00     0.049 A 
ATOM     22  H   UNL A   1      40.640  29.456  30.589  1.00  0.00     0.167 HD
ATOM     23  C   UNL A   1      40.409  31.410  34.558  1.00  0.00     0.034 A 
ATOM     24  C   UNL A   1      41.619  27.648  28.701  1.00  0.00     0.034 A 
ATOM     25  C   UNL A   1      41.447  30.418  34.671  1.00  0.00     0.049 A 
ATOM     26  C   UNL A   1      42.456  27.492  29.946  1.00  0.00     0.074 A 
ATOM     27  C   UNL A   1      42.231  30.102  35.765  1.00  0.00     0.029 A 
ATOM     28  N   UNL A   1      41.862  29.590  33.633  1.00  0.00    -0.354 N 
ATOM     29  N   UNL A   1      42.336  28.102  31.104  1.00  0.00    -0.248 NA
ATOM     30  C   UNL A   1      43.539  26.504  29.894  1.00  0.00     0.031 C 
ATOM     31  C   UNL A   1      43.157  29.128  35.371  1.00  0.00     0.029 A 
ATOM     32  C   UNL A   1      42.909  28.786  34.051  1.00  0.00     0.049 A 
ATOM     33  H   UNL A   1      41.468  29.578  32.730  1.00  0.00     0.167 HD
ATOM     34  C   UNL A   1      43.296  27.530  31.936  1.00  0.00     0.074 A 
ATOM     35  C   UNL A   1      43.984  26.530  31.142  1.00  0.00     0.031 C 
ATOM     36  C   UNL A   1      43.572  27.793  33.239  1.00  0.00     0.034 A 
BRANCH  23  37
ATOM     37  C   UNL A   1      40.064  32.287  35.734  1.00  0.00     0.023 A 
ATOM     38  C   UNL A   1      39.134  31.869  36.707  1.00  0.00     0.031 A 
ATOM     39  C   UNL A   1      40.576  33.590  35.833  1.00  0.00     0.131 A 
ATOM     40  C   UNL A   1      38.671  32.777  37.671  1.00  0.00     0.055 A 
ATOM     41  C   UNL A   1      40.174  34.463  36.847  1.00  0.00     0.041 A 
ATOM     42  F   UNL A   1      41.445  34.053  34.921  1.00  0.00    -0.206 F 
ATOM     43  C   UNL A   1      39.202  34.065  37.761  1.00  0.00     0.022 A 
BRANCH  40  44
ATOM     44  S   UNL A   1      37.243  32.308  38.687  1.00  0.00     0.124 S 
ATOM     45  O   UNL A   1      37.209  30.859  38.497  1.00  0.00    -0.237 OA
ATOM     46  O   UNL A   1      37.633  32.768  40.014  1.00  0.00    -0.237 OA
ATOM     47  O   UNL A   1      36.133  33.034  38.074  1.00  0.00    -0.744 OA
ENDBRANCH  40  44
ENDBRANCH  23  37
BRANCH  24  48
ATOM     48  C   UNL A   1      41.916  26.856  27.472  1.00  0.00     0.023 A 
ATOM     49  C   UNL A   1      41.698  25.470  27.418  1.00  0.00     0.031 A 
ATOM     50  C   UNL A   1      42.478  27.478  26.342  1.00  0.00     0.131 A 
ATOM     51  C   UNL A   1      42.079  24.744  26.278  1.00  0.00     0.055 A 
ATOM     52  C   UNL A   1      42.817  26.758  25.194  1.00  0.00     0.041 A 
ATOM     53  F   UNL A   1      42.706  28.799  26.338  1.00  0.00    -0.206 F 
ATOM     54  C   UNL A   1      42.629  25.380  25.163  1.00  0.00     0.022 A 
BRANCH  51  55
ATOM     55  S   UNL A   1      41.910  22.938  26.298  1.00  0.00     0.124 S 
ATOM     56  O   UNL A   1      42.619  22.583  27.522  1.00  0.00    -0.237 OA
ATOM     57  O   UNL A   1      40.461  22.771  26.325  1.00  0.00    -0.237 OA
ATOM     58  O   UNL A   1      42.560  22.519  25.057  1.00  0.00    -0.744 OA
ENDBRANCH  51  55
ENDBRANCH  24  48
BRANCH  36  59
ATOM     59  C   UNL A   1      44.622  26.932  33.895  1.00  0.00     0.023 A 
ATOM     60  C   UNL A   1      44.315  25.674  34.439  1.00  0.00     0.031 A 
ATOM     61  C   UNL A   1      45.948  27.392  33.990  1.00  0.00     0.131 A 
ATOM     62  C   UNL A   1      45.309  24.944  35.110  1.00  0.00     0.055 A 
ATOM     63  C   UNL A   1      46.945  26.636  34.605  1.00  0.00     0.041 A 
ATOM     64  F   UNL A   1      46.293  28.589  33.487  1.00  0.00    -0.206 F 
ATOM     65  C   UNL A   1      46.625  25.410  35.182  1.00  0.00     0.022 A 
BRANCH  62  66
ATOM     66  S   UNL A   1      44.834  23.421  35.972  1.00  0.00     0.124 S 
ATOM     67  O   UNL A   1      43.474  23.209  35.487  1.00  0.00    -0.237 OA
ATOM     68  O   UNL A   1      45.836  22.470  35.499  1.00  0.00    -0.237 OA
ATOM     69  O   UNL A   1      44.940  23.781  37.384  1.00  0.00    -0.744 OA
ENDBRANCH  62  66
ENDBRANCH  36  59
ENDBRANCH  10  11
ENDBRANCH   3   5
ENDBRANCH   2   3
ENDBRANCH   1   2
BRANCH   1  70
ATOM     70  C   UNL A   1      31.587  31.488  26.833  1.00  0.00     0.275 C 
BRANCH  70  71
ATOM     71  O   UNL A   1      32.246  30.717  25.821  1.00  0.00    -0.458 OA
BRANCH  71  72
ATOM     72  C   UNL A   1      33.059  29.731  26.277  1.00  0.00     0.338 C 
ATOM     73  O   UNL A   1      33.522  29.616  27.399  1.00  0.00    -0.246 OA
BRANCH  72  74
ATOM     74  C   UNL A   1      33.247  28.732  25.209  1.00  0.00     0.062 A 
ATOM     75  C   UNL A   1      32.876  29.020  23.891  1.00  0.00     0.016 A 
ATOM     76  C   UNL A   1      33.761  27.472  25.550  1.00  0.00     0.045 A 
ATOM     77  C   UNL A   1      33.009  28.036  22.913  1.00  0.00     0.017 A 
ATOM     78  C   UNL A   1      33.818  26.455  24.595  1.00  0.00     0.081 A 
ATOM     79  C   UNL A   1      33.458  26.763  23.279  1.00  0.00     0.066 A 
ATOM     80  N   UNL A   1      34.161  25.148  24.999  1.00  0.00    -0.214 NA
ATOM     81  C   UNL A   1      33.540  25.683  22.289  1.00  0.00     0.260 A 
ATOM     82  C   UNL A   1      34.168  24.211  24.103  1.00  0.00     0.206 A 
ATOM     83  O   UNL A   1      33.362  25.879  21.094  1.00  0.00    -0.269 OA
ATOM     84  N   UNL A   1      33.864  24.457  22.794  1.00  0.00    -0.292 N 
ATOM     85  H   UNL A   1      33.878  23.695  22.171  1.00  0.00     0.173 HD
BRANCH  82  86
ATOM     86  N   UNL A   1      34.471  22.906  24.370  1.00  0.00    -0.331 N 
ATOM     87  C   UNL A   1      35.833  22.472  24.688  1.00  0.00     0.181 C 
ATOM     88  C   UNL A   1      33.541  21.829  24.031  1.00  0.00     0.181 C 
ATOM     89  C   UNL A   1      35.779  21.377  25.783  1.00  0.00     0.282 C 
ATOM     90  C   UNL A   1      33.541  20.762  25.141  1.00  0.00     0.282 C 
ATOM     91  N   UNL A   1      34.888  20.239  25.448  1.00  0.00    -0.343 N 
ATOM     92  H   UNL A   1      34.836  19.599  26.240  1.00  0.00     0.346 HD
ATOM     93  H   UNL A   1      35.258  19.738  24.640  1.00  0.00     0.346 HD
ENDBRANCH  82  86
ENDBRANCH  72  74
ENDBRANCH  71  72
ENDBRANCH  70  71
ENDBRANCH   1  70
TORSDOF 15
ENDMDL
MODEL 3
REMARK VINA RESULT:     -12.4      5.117     10.538
REMARK SMILES O=C(OCCOC(=O)c1ccc2c(=O)[nH]c(N3CC[NH2+]CC3)nc2c1)c1ccc(-c2c3nc(c(-c4cc(S(=O)(=O)[O-])ccc4F)c4ccc([nH]4)c(-c4cc(S(=O)(=O)[O-])ccc4F)c4nc(c(-c5cc(S(=O)(=O)[O-])ccc5F)c5ccc2[nH]5)C=C4)C=C3)cc1
REMARK SMILES IDX 4 1 3 2 2 3 1 4 26 5 27 6 88 7 28 8 87 9 29 10 30 11 31 12
REMARK SMILES IDX 81 13 32 14 86 15 80 16 82 17 33 18 85 19 79 20 78 21 34 23
REMARK SMILES IDX 66 24 46 25 65 26 47 27 50 28 64 29 83 30 48 31 49 32 63 34
REMARK SMILES IDX 84 35 51 36 35 37 36 38 44 39 37 40 43 41 45 42 42 43 38 44
REMARK SMILES IDX 39 45 40 46 41 47 67 48 68 49 76 50 69 51 75 52 77 53 74 54
REMARK SMILES IDX 70 55 71 56 72 57 73 58 52 59 53 60 61 61 54 62 60 63 62 64
REMARK SMILES IDX 59 65 55 66 56 67 57 68 58 69 5 70 6 71 7 72 8 73 9 74 10 75
REMARK SMILES IDX 25 76 11 77 24 78 12 79 23 80 13 81 16 82 14 83 15 84 17 86
REMARK SMILES IDX 18 87 22 88 19 89 21 90 20 91
REMARK H PARENT 82 22 50 33 15 85 20 92 20 93
REMARK Flexibility Score: inf
ROOT
ATOM      1  C   UNL A   1      31.959  31.183  27.056  1.00  0.00     0.275 C 
ENDROOT
BRANCH   1   2
ATOM      2  O   UNL A   1      33.235  30.605  27.384  1.00  0.00    -0.458 OA
BRANCH   2   3
ATOM      3  C   UNL A   1      34.422  31.204  27.647  1.00  0.00     0.338 C 
ATOM      4  O   UNL A   1      34.566  32.390  27.354  1.00  0.00    -0.246 OA
BRANCH   3   5
ATOM      5  C   UNL A   1      35.617  30.462  28.150  1.00  0.00     0.060 A 
ATOM      6  C   UNL A   1      35.644  29.633  29.271  1.00  0.00     0.016 A 
ATOM      7  C   UNL A   1      36.821  30.676  27.457  1.00  0.00     0.016 A 
ATOM      8  C   UNL A   1      36.816  28.964  29.641  1.00  0.00     0.010 A 
ATOM      9  C   UNL A   1      37.996  30.007  27.817  1.00  0.00     0.010 A 
ATOM     10  C   UNL A   1      38.000  29.150  28.921  1.00  0.00    -0.014 A 
BRANCH  10  11
ATOM     11  C   UNL A   1      39.267  28.601  29.457  1.00  0.00     0.031 A 
ATOM     12  C   UNL A   1      39.809  29.184  30.730  1.00  0.00     0.074 A 
ATOM     13  C   UNL A   1      39.880  27.564  28.860  1.00  0.00     0.049 A 
ATOM     14  N   UNL A   1      40.824  28.796  31.453  1.00  0.00    -0.248 NA
ATOM     15  C   UNL A   1      39.095  30.354  31.266  1.00  0.00     0.031 C 
ATOM     16  C   UNL A   1      39.416  26.898  27.644  1.00  0.00     0.029 A 
ATOM     17  N   UNL A   1      41.023  26.883  29.195  1.00  0.00    -0.354 N 
ATOM     18  C   UNL A   1      40.843  29.644  32.554  1.00  0.00     0.074 A 
ATOM     19  C   UNL A   1      39.797  30.622  32.355  1.00  0.00     0.031 C 
ATOM     20  C   UNL A   1      40.284  25.925  27.314  1.00  0.00     0.029 A 
ATOM     21  C   UNL A   1      41.356  25.888  28.304  1.00  0.00     0.049 A 
ATOM     22  H   UNL A   1      41.554  27.087  29.997  1.00  0.00     0.167 HD
ATOM     23  C   UNL A   1      41.635  29.587  33.652  1.00  0.00     0.034 A 
ATOM     24  C   UNL A   1      42.403  25.038  28.301  1.00  0.00     0.034 A 
ATOM     25  C   UNL A   1      42.704  28.634  33.808  1.00  0.00     0.049 A 
ATOM     26  C   UNL A   1      43.353  25.073  29.472  1.00  0.00     0.074 A 
ATOM     27  C   UNL A   1      43.592  28.488  34.857  1.00  0.00     0.029 A 
ATOM     28  N   UNL A   1      43.043  27.671  32.863  1.00  0.00    -0.354 N 
ATOM     29  N   UNL A   1      43.324  25.842  30.538  1.00  0.00    -0.248 NA
ATOM     30  C   UNL A   1      44.453  24.101  29.459  1.00  0.00     0.031 C 
ATOM     31  C   UNL A   1      44.502  27.479  34.521  1.00  0.00     0.029 A 
ATOM     32  C   UNL A   1      44.144  26.948  33.291  1.00  0.00     0.049 A 
ATOM     33  H   UNL A   1      42.569  27.525  32.012  1.00  0.00     0.167 HD
ATOM     34  C   UNL A   1      44.369  25.407  31.348  1.00  0.00     0.074 A 
ATOM     35  C   UNL A   1      45.008  24.311  30.644  1.00  0.00     0.031 C 
ATOM     36  C   UNL A   1      44.756  25.857  32.569  1.00  0.00     0.034 A 
BRANCH  23  37
ATOM     37  C   UNL A   1      41.375  30.619  34.720  1.00  0.00     0.023 A 
ATOM     38  C   UNL A   1      40.212  30.571  35.513  1.00  0.00     0.031 A 
ATOM     39  C   UNL A   1      42.232  31.720  34.877  1.00  0.00     0.131 A 
ATOM     40  C   UNL A   1      39.888  31.649  36.350  1.00  0.00     0.055 A 
ATOM     41  C   UNL A   1      41.947  32.752  35.774  1.00  0.00     0.041 A 
ATOM     42  F   UNL A   1      43.342  31.834  34.130  1.00  0.00    -0.206 F 
ATOM     43  C   UNL A   1      40.759  32.730  36.502  1.00  0.00     0.022 A 
BRANCH  40  44
ATOM     44  S   UNL A   1      38.234  31.702  37.094  1.00  0.00     0.124 S 
ATOM     45  O   UNL A   1      37.820  30.304  36.990  1.00  0.00    -0.237 OA
ATOM     46  O   UNL A   1      38.508  32.187  38.442  1.00  0.00    -0.237 OA
ATOM     47  O   UNL A   1      37.500  32.626  36.234  1.00  0.00    -0.744 OA
ENDBRANCH  40  44
ENDBRANCH  23  37
BRANCH  24  48
ATOM     48  C   UNL A   1      42.607  24.083  27.174  1.00  0.00     0.023 A 
ATOM     49  C   UNL A   1      42.056  22.792  27.195  1.00  0.00     0.031 A 
ATOM     50  C   UNL A   1      43.411  24.437  26.075  1.00  0.00     0.131 A 
ATOM     51  C   UNL A   1      42.349  21.887  26.160  1.00  0.00     0.055 A 
ATOM     52  C   UNL A   1      43.666  23.548  25.028  1.00  0.00     0.041 A 
ATOM     53  F   UNL A   1      43.962  25.658  26.003  1.00  0.00    -0.206 F 
ATOM     54  C   UNL A   1      43.143  22.259  25.074  1.00  0.00     0.022 A 
BRANCH  51  55
ATOM     55  S   UNL A   1      41.733  20.186  26.290  1.00  0.00     0.124 S 
ATOM     56  O   UNL A   1      40.299  20.369  26.093  1.00  0.00    -0.237 OA
ATOM     57  O   UNL A   1      42.449  19.523  25.205  1.00  0.00    -0.237 OA
ATOM     58  O   UNL A   1      42.131  19.779  27.636  1.00  0.00    -0.744 OA
ENDBRANCH  51  55
ENDBRANCH  24  48
BRANCH  36  59
ATOM     59  C   UNL A   1      45.883  25.111  33.240  1.00  0.00     0.023 A 
ATOM     60  C   UNL A   1      45.652  23.975  34.031  1.00  0.00     0.031 A 
ATOM     61  C   UNL A   1      47.207  25.564  33.095  1.00  0.00     0.131 A 
ATOM     62  C   UNL A   1      46.723  23.362  34.699  1.00  0.00     0.055 A 
ATOM     63  C   UNL A   1      48.275  24.915  33.713  1.00  0.00     0.041 A 
ATOM     64  F   UNL A   1      47.481  26.647  32.350  1.00  0.00    -0.206 F 
ATOM     65  C   UNL A   1      48.035  23.815  34.532  1.00  0.00     0.022 A 
BRANCH  62  66
ATOM     66  S   UNL A   1      46.366  22.023  35.868  1.00  0.00     0.124 S 
ATOM     67  O   UNL A   1      47.702  21.644  36.315  1.00  0.00    -0.237 OA
ATOM     68  O   UNL A   1      45.527  22.690  36.859  1.00  0.00    -0.237 OA
ATOM     69  O   UNL A   1      45.680  21.027  35.047  1.00  0.00    -0.744 OA
ENDBRANCH  62  66
ENDBRANCH  36  59
ENDBRANCH  10  11
ENDBRANCH   3   5
ENDBRANCH   2   3
ENDBRANCH   1   2
BRANCH   1  70
ATOM     70  C   UNL A   1      31.435  30.840  25.663  1.00  0.00     0.275 C 
BRANCH  70  71
ATOM     71  O   UNL A   1      31.593  29.459  25.317  1.00  0.00    -0.458 OA
BRANCH  71  72
ATOM     72  C   UNL A   1      30.907  29.051  24.218  1.00  0.00     0.338 C 
ATOM     73  O   UNL A   1      29.925  29.577  23.725  1.00  0.00    -0.246 OA
BRANCH  72  74
ATOM     74  C   UNL A   1      31.592  27.884  23.632  1.00  0.00     0.062 A 
ATOM     75  C   UNL A   1      31.202  27.380  22.387  1.00  0.00     0.016 A 
ATOM     76  C   UNL A   1      32.612  27.264  24.369  1.00  0.00     0.045 A 
ATOM     77  C   UNL A   1      31.827  26.240  21.885  1.00  0.00     0.017 A 
ATOM     78  C   UNL A   1      33.183  26.074  23.913  1.00  0.00     0.081 A 
ATOM     79  C   UNL A   1      32.794  25.592  22.660  1.00  0.00     0.066 A 
ATOM     80  N   UNL A   1      34.070  25.369  24.753  1.00  0.00    -0.214 NA
ATOM     81  C   UNL A   1      33.419  24.349  22.194  1.00  0.00     0.260 A 
ATOM     82  C   UNL A   1      34.558  24.247  24.326  1.00  0.00     0.206 A 
ATOM     83  O   UNL A   1      33.234  23.908  21.067  1.00  0.00    -0.269 OA
ATOM     84  N   UNL A   1      34.245  23.741  23.095  1.00  0.00    -0.292 N 
ATOM     85  H   UNL A   1      34.644  22.878  22.841  1.00  0.00     0.173 HD
BRANCH  82  86
ATOM     86  N   UNL A   1      35.416  23.466  25.047  1.00  0.00    -0.331 N 
ATOM     87  C   UNL A   1      35.064  22.109  25.471  1.00  0.00     0.181 C 
ATOM     88  C   UNL A   1      36.581  24.042  25.718  1.00  0.00     0.181 C 
ATOM     89  C   UNL A   1      36.313  21.198  25.363  1.00  0.00     0.282 C 
ATOM     90  C   UNL A   1      37.785  23.089  25.596  1.00  0.00     0.282 C 
ATOM     91  N   UNL A   1      37.500  21.723  26.081  1.00  0.00    -0.343 N 
ATOM     92  H   UNL A   1      38.303  21.121  25.902  1.00  0.00     0.346 HD
ATOM     93  H   UNL A   1      37.316  21.743  27.084  1.00  0.00     0.346 HD
ENDBRANCH  82  86
ENDBRANCH  72  74
ENDBRANCH  71  72
ENDBRANCH  70  71
ENDBRANCH   1  70
TORSDOF 15
ENDMDL
