MODEL 1
REMARK VINA RESULT:     -11.4      0.000      0.000
REMARK SMILES O=C(OCCOC(=O)C1([NH+]2CCOCC2)CCC1)c1ccc(-c2c3nc(c(-c4cc(S(=O)(=O)[O-])ccc4F)c4ccc([nH]4)c(-c4cc(S(=O)(=O)[O-])ccc4F)c4nc(c(-c5cc(S(=O)(=O)[O-])ccc5F)c5ccc2[nH]5)C=C4)C=C3)cc1
REMARK SMILES IDX 4 1 3 2 2 3 1 4 19 5 20 6 81 7 21 8 80 9 22 10 23 11 24 12
REMARK SMILES IDX 74 13 25 14 79 15 73 16 75 17 26 18 78 19 72 20 71 21 27 23
REMARK SMILES IDX 59 24 39 25 58 26 40 27 43 28 57 29 76 30 41 31 42 32 56 34
REMARK SMILES IDX 77 35 44 36 28 37 29 38 37 39 30 40 36 41 38 42 35 43 31 44
REMARK SMILES IDX 32 45 33 46 34 47 60 48 61 49 69 50 62 51 68 52 70 53 67 54
REMARK SMILES IDX 63 55 64 56 65 57 66 58 45 59 46 60 54 61 47 62 53 63 55 64
REMARK SMILES IDX 52 65 48 66 49 67 50 68 51 69 5 70 6 71 7 72 8 73 9 74 16 75
REMARK SMILES IDX 18 76 17 77 10 78 11 79 15 80 12 82 14 83 13 84
REMARK H PARENT 75 22 43 33 10 81
REMARK Flexibility Score: inf
ROOT
ATOM      1  C   UNL A   1      35.472  33.460  27.876  1.00  0.00     0.275 C 
ENDROOT
BRANCH   1   2
ATOM      2  O   UNL A   1      34.432  32.481  27.750  1.00  0.00    -0.458 OA
BRANCH   2   3
ATOM      3  C   UNL A   1      34.533  31.157  27.482  1.00  0.00     0.338 C 
ATOM      4  O   UNL A   1      33.526  30.569  27.086  1.00  0.00    -0.246 OA
BRANCH   3   5
ATOM      5  C   UNL A   1      35.745  30.334  27.813  1.00  0.00     0.060 A 
ATOM      6  C   UNL A   1      36.940  30.266  27.086  1.00  0.00     0.016 A 
ATOM      7  C   UNL A   1      35.694  29.656  29.044  1.00  0.00     0.016 A 
ATOM      8  C   UNL A   1      38.096  29.687  27.629  1.00  0.00     0.010 A 
ATOM      9  C   UNL A   1      36.853  29.107  29.604  1.00  0.00     0.010 A 
ATOM     10  C   UNL A   1      38.077  29.147  28.911  1.00  0.00    -0.014 A 
BRANCH  10  11
ATOM     11  C   UNL A   1      39.273  28.484  29.489  1.00  0.00     0.031 A 
ATOM     12  C   UNL A   1      39.874  29.132  30.702  1.00  0.00     0.074 A 
ATOM     13  C   UNL A   1      39.837  27.385  28.943  1.00  0.00     0.049 A 
ATOM     14  N   UNL A   1      40.962  28.828  31.352  1.00  0.00    -0.248 NA
ATOM     15  C   UNL A   1      39.144  30.292  31.245  1.00  0.00     0.031 C 
ATOM     16  C   UNL A   1      39.321  26.629  27.800  1.00  0.00     0.029 A 
ATOM     17  N   UNL A   1      41.015  26.739  29.241  1.00  0.00    -0.354 N 
ATOM     18  C   UNL A   1      41.011  29.729  32.407  1.00  0.00     0.074 A 
ATOM     19  C   UNL A   1      39.960  30.695  32.200  1.00  0.00     0.031 C 
ATOM     20  C   UNL A   1      40.230  25.712  27.418  1.00  0.00     0.029 A 
ATOM     21  C   UNL A   1      41.369  25.770  28.325  1.00  0.00     0.049 A 
ATOM     22  H   UNL A   1      41.554  26.949  30.038  1.00  0.00     0.167 HD
ATOM     23  C   UNL A   1      41.791  29.690  33.511  1.00  0.00     0.034 A 
ATOM     24  C   UNL A   1      42.488  25.021  28.237  1.00  0.00     0.034 A 
ATOM     25  C   UNL A   1      42.839  28.726  33.686  1.00  0.00     0.049 A 
ATOM     26  C   UNL A   1      43.477  25.110  29.375  1.00  0.00     0.074 A 
ATOM     27  C   UNL A   1      43.698  28.561  34.753  1.00  0.00     0.029 A 
ATOM     28  N   UNL A   1      43.179  27.764  32.740  1.00  0.00    -0.354 N 
ATOM     29  N   UNL A   1      43.452  25.897  30.428  1.00  0.00    -0.248 NA
ATOM     30  C   UNL A   1      44.600  24.164  29.358  1.00  0.00     0.031 C 
ATOM     31  C   UNL A   1      44.602  27.546  34.423  1.00  0.00     0.029 A 
ATOM     32  C   UNL A   1      44.258  27.024  33.183  1.00  0.00     0.049 A 
ATOM     33  H   UNL A   1      42.717  27.630  31.881  1.00  0.00     0.167 HD
ATOM     34  C   UNL A   1      44.503  25.480  31.240  1.00  0.00     0.074 A 
ATOM     35  C   UNL A   1      45.156  24.392  30.538  1.00  0.00     0.031 C 
ATOM     36  C   UNL A   1      44.875  25.932  32.465  1.00  0.00     0.034 A 
BRANCH  23  37
ATOM     37  C   UNL A   1      41.494  30.723  34.566  1.00  0.00     0.023 A 
ATOM     38  C   UNL A   1      40.369  30.587  35.404  1.00  0.00     0.031 A 
ATOM     39  C   UNL A   1      42.231  31.912  34.636  1.00  0.00     0.131 A 
ATOM     40  C   UNL A   1      39.938  31.674  36.177  1.00  0.00     0.055 A 
ATOM     41  C   UNL A   1      41.853  32.955  35.486  1.00  0.00     0.041 A 
ATOM     42  F   UNL A   1      43.295  32.106  33.842  1.00  0.00    -0.206 F 
ATOM     43  C   UNL A   1      40.687  32.849  36.243  1.00  0.00     0.022 A 
BRANCH  40  44
ATOM     44  S   UNL A   1      38.284  31.597  36.922  1.00  0.00     0.124 S 
ATOM     45  O   UNL A   1      38.532  32.176  38.243  1.00  0.00    -0.237 OA
ATOM     46  O   UNL A   1      37.485  32.401  36.014  1.00  0.00    -0.237 OA
ATOM     47  O   UNL A   1      37.979  30.164  36.927  1.00  0.00    -0.744 OA
ENDBRANCH  40  44
ENDBRANCH  23  37
BRANCH  24  48
ATOM     48  C   UNL A   1      42.734  24.100  27.085  1.00  0.00     0.023 A 
ATOM     49  C   UNL A   1      42.347  22.751  27.126  1.00  0.00     0.031 A 
ATOM     50  C   UNL A   1      43.445  24.540  25.952  1.00  0.00     0.131 A 
ATOM     51  C   UNL A   1      42.720  21.876  26.089  1.00  0.00     0.055 A 
ATOM     52  C   UNL A   1      43.784  23.674  24.906  1.00  0.00     0.041 A 
ATOM     53  F   UNL A   1      43.837  25.821  25.853  1.00  0.00    -0.206 F 
ATOM     54  C   UNL A   1      43.434  22.329  24.979  1.00  0.00     0.022 A 
BRANCH  51  55
ATOM     55  S   UNL A   1      42.331  20.110  26.258  1.00  0.00     0.124 S 
ATOM     56  O   UNL A   1      43.535  19.487  25.721  1.00  0.00    -0.237 OA
ATOM     57  O   UNL A   1      42.131  19.984  27.698  1.00  0.00    -0.237 OA
ATOM     58  O   UNL A   1      41.127  19.947  25.446  1.00  0.00    -0.744 OA
ENDBRANCH  51  55
ENDBRANCH  24  48
BRANCH  36  59
ATOM     59  C   UNL A   1      45.987  25.193  33.160  1.00  0.00     0.023 A 
ATOM     60  C   UNL A   1      45.743  24.060  33.949  1.00  0.00     0.031 A 
ATOM     61  C   UNL A   1      47.316  25.625  33.002  1.00  0.00     0.131 A 
ATOM     62  C   UNL A   1      46.812  23.420  34.591  1.00  0.00     0.055 A 
ATOM     63  C   UNL A   1      48.382  24.942  33.585  1.00  0.00     0.041 A 
ATOM     64  F   UNL A   1      47.600  26.709  32.261  1.00  0.00    -0.206 F 
ATOM     65  C   UNL A   1      48.132  23.838  34.394  1.00  0.00     0.022 A 
BRANCH  62  66
ATOM     66  S   UNL A   1      46.443  22.084  35.758  1.00  0.00     0.124 S 
ATOM     67  O   UNL A   1      46.068  20.996  34.861  1.00  0.00    -0.237 OA
ATOM     68  O   UNL A   1      47.714  21.923  36.458  1.00  0.00    -0.237 OA
ATOM     69  O   UNL A   1      45.353  22.627  36.567  1.00  0.00    -0.744 OA
ENDBRANCH  62  66
ENDBRANCH  36  59
ENDBRANCH  10  11
ENDBRANCH   3   5
ENDBRANCH   2   3
ENDBRANCH   1   2
BRANCH   1  70
ATOM     70  C   UNL A   1      36.400  33.272  29.083  1.00  0.00     0.274 C 
BRANCH  70  71
ATOM     71  O   UNL A   1      36.002  33.991  30.266  1.00  0.00    -0.457 OA
BRANCH  71  72
ATOM     72  C   UNL A   1      35.084  33.360  31.082  1.00  0.00     0.368 C 
ATOM     73  O   UNL A   1      34.738  32.201  30.844  1.00  0.00    -0.245 OA
BRANCH  72  74
ATOM     74  C   UNL A   1      34.563  34.330  32.319  1.00  0.00     0.196 C 
ATOM     75  C   UNL A   1      34.457  33.593  33.675  1.00  0.00     0.081 C 
ATOM     76  C   UNL A   1      35.624  35.234  33.030  1.00  0.00     0.081 C 
ATOM     77  C   UNL A   1      35.057  34.797  34.398  1.00  0.00     0.014 C 
BRANCH  74  78
ATOM     78  N   UNL A   1      33.260  35.004  32.019  1.00  0.00    -0.317 N 
ATOM     79  C   UNL A   1      32.956  35.109  30.584  1.00  0.00     0.292 C 
ATOM     80  C   UNL A   1      32.874  36.257  32.689  1.00  0.00     0.292 C 
ATOM     81  H   UNL A   1      32.673  34.314  32.488  1.00  0.00     0.349 HD
ATOM     82  C   UNL A   1      33.447  36.404  29.926  1.00  0.00     0.221 C 
ATOM     83  C   UNL A   1      33.360  37.539  31.987  1.00  0.00     0.221 C 
ATOM     84  O   UNL A   1      32.960  37.561  30.613  1.00  0.00    -0.370 OA
ENDBRANCH  74  78
ENDBRANCH  72  74
ENDBRANCH  71  72
ENDBRANCH  70  71
ENDBRANCH   1  70
TORSDOF 15
ENDMDL
MODEL 2
REMARK VINA RESULT:     -11.2      5.017     12.687
REMARK SMILES O=C(OCCOC(=O)C1([NH+]2CCOCC2)CCC1)c1ccc(-c2c3nc(c(-c4cc(S(=O)(=O)[O-])ccc4F)c4ccc([nH]4)c(-c4cc(S(=O)(=O)[O-])ccc4F)c4nc(c(-c5cc(S(=O)(=O)[O-])ccc5F)c5ccc2[nH]5)C=C4)C=C3)cc1
REMARK SMILES IDX 4 1 3 2 2 3 1 4 19 5 20 6 81 7 21 8 80 9 22 10 23 11 24 12
REMARK SMILES IDX 74 13 25 14 79 15 73 16 75 17 26 18 78 19 72 20 71 21 27 23
REMARK SMILES IDX 59 24 39 25 58 26 40 27 43 28 57 29 76 30 41 31 42 32 56 34
REMARK SMILES IDX 77 35 44 36 28 37 29 38 37 39 30 40 36 41 38 42 35 43 31 44
REMARK SMILES IDX 32 45 33 46 34 47 60 48 61 49 69 50 62 51 68 52 70 53 67 54
REMARK SMILES IDX 63 55 64 56 65 57 66 58 45 59 46 60 54 61 47 62 53 63 55 64
REMARK SMILES IDX 52 65 48 66 49 67 50 68 51 69 5 70 6 71 7 72 8 73 9 74 16 75
REMARK SMILES IDX 18 76 17 77 10 78 11 79 15 80 12 82 14 83 13 84
REMARK H PARENT 75 22 43 33 10 81
REMARK Flexibility Score: inf
ROOT
ATOM      1  C   UNL A   1      40.441  20.256  26.646  1.00  0.00     0.275 C 
ENDROOT
BRANCH   1   2
ATOM      2  O   UNL A   1      40.142  21.546  27.194  1.00  0.00    -0.458 OA
BRANCH   2   3
ATOM      3  C   UNL A   1      39.291  22.495  26.732  1.00  0.00     0.338 C 
ATOM      4  O   UNL A   1      38.517  22.185  25.827  1.00  0.00    -0.246 OA
BRANCH   3   5
ATOM      5  C   UNL A   1      39.366  23.940  27.132  1.00  0.00     0.060 A 
ATOM      6  C   UNL A   1      39.199  24.467  28.420  1.00  0.00     0.016 A 
ATOM      7  C   UNL A   1      39.754  24.828  26.113  1.00  0.00     0.016 A 
ATOM      8  C   UNL A   1      39.561  25.788  28.723  1.00  0.00     0.010 A 
ATOM      9  C   UNL A   1      40.149  26.135  26.417  1.00  0.00     0.010 A 
ATOM     10  C   UNL A   1      40.085  26.618  27.738  1.00  0.00    -0.014 A 
BRANCH  10  11
ATOM     11  C   UNL A   1      40.429  28.034  28.022  1.00  0.00     0.031 A 
ATOM     12  C   UNL A   1      41.887  28.386  27.988  1.00  0.00     0.074 A 
ATOM     13  C   UNL A   1      39.502  28.962  28.344  1.00  0.00     0.049 A 
ATOM     14  N   UNL A   1      42.477  29.510  28.284  1.00  0.00    -0.248 NA
ATOM     15  C   UNL A   1      42.804  27.310  27.570  1.00  0.00     0.031 C 
ATOM     16  C   UNL A   1      38.051  28.763  28.358  1.00  0.00     0.029 A 
ATOM     17  N   UNL A   1      39.646  30.258  28.784  1.00  0.00    -0.354 N 
ATOM     18  C   UNL A   1      43.823  29.283  28.036  1.00  0.00     0.074 A 
ATOM     19  C   UNL A   1      43.980  27.878  27.752  1.00  0.00     0.031 C 
ATOM     20  C   UNL A   1      37.453  29.841  28.901  1.00  0.00     0.029 A 
ATOM     21  C   UNL A   1      38.470  30.836  29.218  1.00  0.00     0.049 A 
ATOM     22  H   UNL A   1      40.509  30.730  28.786  1.00  0.00     0.167 HD
ATOM     23  C   UNL A   1      44.825  30.187  27.942  1.00  0.00     0.034 A 
ATOM     24  C   UNL A   1      38.250  32.032  29.802  1.00  0.00     0.034 A 
ATOM     25  C   UNL A   1      44.645  31.578  28.244  1.00  0.00     0.049 A 
ATOM     26  C   UNL A   1      39.414  32.990  29.888  1.00  0.00     0.074 A 
ATOM     27  C   UNL A   1      45.565  32.605  28.182  1.00  0.00     0.029 A 
ATOM     28  N   UNL A   1      43.448  32.130  28.687  1.00  0.00    -0.354 N 
ATOM     29  N   UNL A   1      40.668  32.794  29.545  1.00  0.00    -0.248 NA
ATOM     30  C   UNL A   1      39.125  34.349  30.361  1.00  0.00     0.031 C 
ATOM     31  C   UNL A   1      44.942  33.766  28.655  1.00  0.00     0.029 A 
ATOM     32  C   UNL A   1      43.613  33.479  28.937  1.00  0.00     0.049 A 
ATOM     33  H   UNL A   1      42.607  31.633  28.805  1.00  0.00     0.167 HD
ATOM     34  C   UNL A   1      41.296  34.029  29.679  1.00  0.00     0.074 A 
ATOM     35  C   UNL A   1      40.287  34.953  30.159  1.00  0.00     0.031 C 
ATOM     36  C   UNL A   1      42.579  34.377  29.399  1.00  0.00     0.034 A 
BRANCH  23  37
ATOM     37  C   UNL A   1      46.158  29.649  27.492  1.00  0.00     0.023 A 
ATOM     38  C   UNL A   1      46.384  29.338  26.136  1.00  0.00     0.031 A 
ATOM     39  C   UNL A   1      47.145  29.301  28.424  1.00  0.00     0.131 A 
ATOM     40  C   UNL A   1      47.505  28.581  25.771  1.00  0.00     0.055 A 
ATOM     41  C   UNL A   1      48.310  28.634  28.036  1.00  0.00     0.041 A 
ATOM     42  F   UNL A   1      46.970  29.548  29.731  1.00  0.00    -0.206 F 
ATOM     43  C   UNL A   1      48.484  28.248  26.708  1.00  0.00     0.022 A 
BRANCH  40  44
ATOM     44  S   UNL A   1      47.554  27.868  24.102  1.00  0.00     0.124 S 
ATOM     45  O   UNL A   1      46.778  28.848  23.342  1.00  0.00    -0.237 OA
ATOM     46  O   UNL A   1      48.977  27.821  23.814  1.00  0.00    -0.237 OA
ATOM     47  O   UNL A   1      46.903  26.566  24.269  1.00  0.00    -0.744 OA
ENDBRANCH  40  44
ENDBRANCH  23  37
BRANCH  24  48
ATOM     48  C   UNL A   1      36.901  32.425  30.314  1.00  0.00     0.023 A 
ATOM     49  C   UNL A   1      35.958  33.058  29.488  1.00  0.00     0.031 A 
ATOM     50  C   UNL A   1      36.567  32.250  31.670  1.00  0.00     0.131 A 
ATOM     51  C   UNL A   1      34.756  33.546  30.032  1.00  0.00     0.055 A 
ATOM     52  C   UNL A   1      35.355  32.706  32.201  1.00  0.00     0.041 A 
ATOM     53  F   UNL A   1      37.425  31.646  32.507  1.00  0.00    -0.206 F 
ATOM     54  C   UNL A   1      34.447  33.372  31.382  1.00  0.00     0.022 A 
BRANCH  51  55
ATOM     55  S   UNL A   1      33.636  34.493  28.961  1.00  0.00     0.124 S 
ATOM     56  O   UNL A   1      34.520  35.532  28.449  1.00  0.00    -0.237 OA
ATOM     57  O   UNL A   1      33.212  33.480  28.001  1.00  0.00    -0.237 OA
ATOM     58  O   UNL A   1      32.595  34.953  29.879  1.00  0.00    -0.744 OA
ENDBRANCH  51  55
ENDBRANCH  24  48
BRANCH  36  59
ATOM     59  C   UNL A   1      42.938  35.832  29.527  1.00  0.00     0.023 A 
ATOM     60  C   UNL A   1      42.651  36.758  28.513  1.00  0.00     0.031 A 
ATOM     61  C   UNL A   1      43.557  36.299  30.701  1.00  0.00     0.131 A 
ATOM     62  C   UNL A   1      43.024  38.099  28.672  1.00  0.00     0.055 A 
ATOM     63  C   UNL A   1      43.862  37.646  30.883  1.00  0.00     0.041 A 
ATOM     64  F   UNL A   1      43.858  35.450  31.698  1.00  0.00    -0.206 F 
ATOM     65  C   UNL A   1      43.605  38.554  29.860  1.00  0.00     0.022 A 
BRANCH  62  66
ATOM     66  S   UNL A   1      42.819  39.226  27.269  1.00  0.00     0.124 S 
ATOM     67  O   UNL A   1      41.611  38.704  26.637  1.00  0.00    -0.237 OA
ATOM     68  O   UNL A   1      42.685  40.522  27.926  1.00  0.00    -0.237 OA
ATOM     69  O   UNL A   1      44.050  39.044  26.501  1.00  0.00    -0.744 OA
ENDBRANCH  62  66
ENDBRANCH  36  59
ENDBRANCH  10  11
ENDBRANCH   3   5
ENDBRANCH   2   3
ENDBRANCH   1   2
BRANCH   1  70
ATOM     70  C   UNL A   1      41.907  20.042  26.247  1.00  0.00     0.274 C 
BRANCH  70  71
ATOM     71  O   UNL A   1      42.449  21.055  25.379  1.00  0.00    -0.457 OA
BRANCH  71  72
ATOM     72  C   UNL A   1      43.819  21.229  25.429  1.00  0.00     0.368 C 
ATOM     73  O   UNL A   1      44.571  20.284  25.190  1.00  0.00    -0.245 OA
BRANCH  72  74
ATOM     74  C   UNL A   1      44.247  22.777  25.833  1.00  0.00     0.196 C 
ATOM     75  C   UNL A   1      44.738  23.614  24.629  1.00  0.00     0.081 C 
ATOM     76  C   UNL A   1      43.104  23.840  25.951  1.00  0.00     0.081 C 
ATOM     77  C   UNL A   1      43.960  24.828  25.130  1.00  0.00     0.014 C 
BRANCH  74  78
ATOM     78  N   UNL A   1      45.272  22.830  26.924  1.00  0.00    -0.317 N 
ATOM     79  C   UNL A   1      44.703  22.941  28.276  1.00  0.00     0.292 C 
ATOM     80  C   UNL A   1      46.454  23.703  26.822  1.00  0.00     0.292 C 
ATOM     81  H   UNL A   1      45.665  21.905  26.745  1.00  0.00     0.349 HD
ATOM     82  C   UNL A   1      44.524  24.381  28.770  1.00  0.00     0.221 C 
ATOM     83  C   UNL A   1      46.246  25.133  27.352  1.00  0.00     0.221 C 
ATOM     84  O   UNL A   1      45.746  25.122  28.693  1.00  0.00    -0.370 OA
ENDBRANCH  74  78
ENDBRANCH  72  74
ENDBRANCH  71  72
ENDBRANCH  70  71
ENDBRANCH   1  70
TORSDOF 15
ENDMDL
MODEL 3
REMARK VINA RESULT:     -11.0      5.675     11.833
REMARK SMILES O=C(OCCOC(=O)C1([NH+]2CCOCC2)CCC1)c1ccc(-c2c3nc(c(-c4cc(S(=O)(=O)[O-])ccc4F)c4ccc([nH]4)c(-c4cc(S(=O)(=O)[O-])ccc4F)c4nc(c(-c5cc(S(=O)(=O)[O-])ccc5F)c5ccc2[nH]5)C=C4)C=C3)cc1
REMARK SMILES IDX 4 1 3 2 2 3 1 4 19 5 20 6 81 7 21 8 80 9 22 10 23 11 24 12
REMARK SMILES IDX 74 13 25 14 79 15 73 16 75 17 26 18 78 19 72 20 71 21 27 23
REMARK SMILES IDX 59 24 39 25 58 26 40 27 43 28 57 29 76 30 41 31 42 32 56 34
REMARK SMILES IDX 77 35 44 36 28 37 29 38 37 39 30 40 36 41 38 42 35 43 31 44
REMARK SMILES IDX 32 45 33 46 34 47 60 48 61 49 69 50 62 51 68 52 70 53 67 54
REMARK SMILES IDX 63 55 64 56 65 57 66 58 45 59 46 60 54 61 47 62 53 63 55 64
REMARK SMILES IDX 52 65 48 66 49 67 50 68 51 69 5 70 6 71 7 72 8 73 9 74 16 75
REMARK SMILES IDX 18 76 17 77 10 78 11 79 15 80 12 82 14 83 13 84
REMARK H PARENT 75 22 43 33 10 81
REMARK Flexibility Score: inf
ROOT
ATOM      1  C   UNL A   1      37.186  21.852  25.465  1.00  0.00     0.275 C 
ENDROOT
BRANCH   1   2
ATOM      2  O   UNL A   1      38.617  21.919  25.516  1.00  0.00    -0.458 OA
BRANCH   2   3
ATOM      3  C   UNL A   1      39.417  22.342  26.525  1.00  0.00     0.338 C 
ATOM      4  O   UNL A   1      39.989  21.490  27.204  1.00  0.00    -0.246 OA
BRANCH   3   5
ATOM      5  C   UNL A   1      39.499  23.773  26.973  1.00  0.00     0.060 A 
ATOM      6  C   UNL A   1      39.259  24.267  28.262  1.00  0.00     0.016 A 
ATOM      7  C   UNL A   1      39.976  24.679  26.009  1.00  0.00     0.016 A 
ATOM      8  C   UNL A   1      39.632  25.569  28.629  1.00  0.00     0.010 A 
ATOM      9  C   UNL A   1      40.381  25.966  26.378  1.00  0.00     0.010 A 
ATOM     10  C   UNL A   1      40.241  26.413  27.705  1.00  0.00    -0.014 A 
BRANCH  10  11
ATOM     11  C   UNL A   1      40.598  27.810  28.054  1.00  0.00     0.031 A 
ATOM     12  C   UNL A   1      42.061  28.144  28.054  1.00  0.00     0.074 A 
ATOM     13  C   UNL A   1      39.680  28.737  28.404  1.00  0.00     0.049 A 
ATOM     14  N   UNL A   1      42.662  29.247  28.405  1.00  0.00    -0.248 NA
ATOM     15  C   UNL A   1      42.970  27.075  27.602  1.00  0.00     0.031 C 
ATOM     16  C   UNL A   1      38.227  28.556  28.392  1.00  0.00     0.029 A 
ATOM     17  N   UNL A   1      39.834  30.010  28.901  1.00  0.00    -0.354 N 
ATOM     18  C   UNL A   1      44.008  29.013  28.164  1.00  0.00     0.074 A 
ATOM     19  C   UNL A   1      44.151  27.619  27.822  1.00  0.00     0.031 C 
ATOM     20  C   UNL A   1      37.635  29.617  28.974  1.00  0.00     0.029 A 
ATOM     21  C   UNL A   1      38.660  30.584  29.346  1.00  0.00     0.049 A 
ATOM     22  H   UNL A   1      40.704  30.470  28.935  1.00  0.00     0.167 HD
ATOM     23  C   UNL A   1      45.023  29.906  28.122  1.00  0.00     0.034 A 
ATOM     24  C   UNL A   1      38.448  31.757  29.978  1.00  0.00     0.034 A 
ATOM     25  C   UNL A   1      44.857  31.285  28.480  1.00  0.00     0.049 A 
ATOM     26  C   UNL A   1      39.623  32.696  30.119  1.00  0.00     0.074 A 
ATOM     27  C   UNL A   1      45.790  32.302  28.474  1.00  0.00     0.029 A 
ATOM     28  N   UNL A   1      43.661  31.834  28.932  1.00  0.00    -0.354 N 
ATOM     29  N   UNL A   1      40.879  32.498  29.784  1.00  0.00    -0.248 NA
ATOM     30  C   UNL A   1      39.345  34.036  30.647  1.00  0.00     0.031 C 
ATOM     31  C   UNL A   1      45.176  33.450  28.989  1.00  0.00     0.029 A 
ATOM     32  C   UNL A   1      43.840  33.169  29.242  1.00  0.00     0.049 A 
ATOM     33  H   UNL A   1      42.812  31.344  29.018  1.00  0.00     0.167 HD
ATOM     34  C   UNL A   1      41.521  33.717  29.978  1.00  0.00     0.074 A 
ATOM     35  C   UNL A   1      40.517  34.633  30.485  1.00  0.00     0.031 C 
ATOM     36  C   UNL A   1      42.812  34.059  29.729  1.00  0.00     0.034 A 
BRANCH  23  37
ATOM     37  C   UNL A   1      46.355  29.371  27.666  1.00  0.00     0.023 A 
ATOM     38  C   UNL A   1      46.586  29.093  26.304  1.00  0.00     0.031 A 
ATOM     39  C   UNL A   1      47.334  28.992  28.594  1.00  0.00     0.131 A 
ATOM     40  C   UNL A   1      47.704  28.337  25.925  1.00  0.00     0.055 A 
ATOM     41  C   UNL A   1      48.496  28.327  28.196  1.00  0.00     0.041 A 
ATOM     42  F   UNL A   1      47.153  29.207  29.906  1.00  0.00    -0.206 F 
ATOM     43  C   UNL A   1      48.675  27.974  26.859  1.00  0.00     0.022 A 
BRANCH  40  44
ATOM     44  S   UNL A   1      47.757  27.666  24.239  1.00  0.00     0.124 S 
ATOM     45  O   UNL A   1      47.318  26.288  24.459  1.00  0.00    -0.237 OA
ATOM     46  O   UNL A   1      46.828  28.524  23.522  1.00  0.00    -0.237 OA
ATOM     47  O   UNL A   1      49.165  27.809  23.859  1.00  0.00    -0.744 OA
ENDBRANCH  40  44
ENDBRANCH  23  37
BRANCH  24  48
ATOM     48  C   UNL A   1      37.097  32.146  30.489  1.00  0.00     0.023 A 
ATOM     49  C   UNL A   1      36.168  32.813  29.675  1.00  0.00     0.031 A 
ATOM     50  C   UNL A   1      36.749  31.932  31.836  1.00  0.00     0.131 A 
ATOM     51  C   UNL A   1      34.965  33.294  30.223  1.00  0.00     0.055 A 
ATOM     52  C   UNL A   1      35.536  32.381  32.369  1.00  0.00     0.041 A 
ATOM     53  F   UNL A   1      37.595  31.294  32.662  1.00  0.00    -0.206 F 
ATOM     54  C   UNL A   1      34.642  33.081  31.564  1.00  0.00     0.022 A 
BRANCH  51  55
ATOM     55  S   UNL A   1      33.863  34.284  29.172  1.00  0.00     0.124 S 
ATOM     56  O   UNL A   1      32.883  34.765  30.137  1.00  0.00    -0.237 OA
ATOM     57  O   UNL A   1      34.780  35.284  28.635  1.00  0.00    -0.237 OA
ATOM     58  O   UNL A   1      33.361  33.316  28.199  1.00  0.00    -0.744 OA
ENDBRANCH  51  55
ENDBRANCH  24  48
BRANCH  36  59
ATOM     59  C   UNL A   1      43.188  35.504  29.924  1.00  0.00     0.023 A 
ATOM     60  C   UNL A   1      42.986  36.463  28.921  1.00  0.00     0.031 A 
ATOM     61  C   UNL A   1      43.734  35.924  31.150  1.00  0.00     0.131 A 
ATOM     62  C   UNL A   1      43.372  37.791  29.145  1.00  0.00     0.055 A 
ATOM     63  C   UNL A   1      44.050  37.259  31.392  1.00  0.00     0.041 A 
ATOM     64  F   UNL A   1      43.952  35.041  32.140  1.00  0.00    -0.206 F 
ATOM     65  C   UNL A   1      43.880  38.200  30.382  1.00  0.00     0.022 A 
BRANCH  62  66
ATOM     66  S   UNL A   1      43.282  38.961  27.765  1.00  0.00     0.124 S 
ATOM     67  O   UNL A   1      44.021  38.255  26.723  1.00  0.00    -0.237 OA
ATOM     68  O   UNL A   1      41.843  39.084  27.553  1.00  0.00    -0.237 OA
ATOM     69  O   UNL A   1      43.937  40.159  28.288  1.00  0.00    -0.744 OA
ENDBRANCH  62  66
ENDBRANCH  36  59
ENDBRANCH  10  11
ENDBRANCH   3   5
ENDBRANCH   2   3
ENDBRANCH   1   2
BRANCH   1  70
ATOM     70  C   UNL A   1      36.557  22.354  24.159  1.00  0.00     0.274 C 
BRANCH  70  71
ATOM     71  O   UNL A   1      35.951  23.658  24.246  1.00  0.00    -0.457 OA
BRANCH  71  72
ATOM     72  C   UNL A   1      34.768  23.827  23.553  1.00  0.00     0.368 C 
ATOM     73  O   UNL A   1      34.647  23.370  22.415  1.00  0.00    -0.245 OA
BRANCH  72  74
ATOM     74  C   UNL A   1      33.642  24.677  24.420  1.00  0.00     0.196 C 
ATOM     75  C   UNL A   1      34.264  25.663  25.437  1.00  0.00     0.081 C 
ATOM     76  C   UNL A   1      33.017  25.947  23.753  1.00  0.00     0.081 C 
ATOM     77  C   UNL A   1      33.228  26.724  25.070  1.00  0.00     0.014 C 
BRANCH  74  78
ATOM     78  N   UNL A   1      32.663  23.790  25.127  1.00  0.00    -0.317 N 
ATOM     79  C   UNL A   1      32.958  23.591  26.555  1.00  0.00     0.292 C 
ATOM     80  C   UNL A   1      32.224  22.512  24.541  1.00  0.00     0.292 C 
ATOM     81  H   UNL A   1      31.851  24.390  24.981  1.00  0.00     0.349 HD
ATOM     82  C   UNL A   1      33.838  22.373  26.856  1.00  0.00     0.221 C 
ATOM     83  C   UNL A   1      33.116  21.306  24.885  1.00  0.00     0.221 C 
ATOM     84  O   UNL A   1      33.288  21.175  26.301  1.00  0.00    -0.370 OA
ENDBRANCH  74  78
ENDBRANCH  72  74
ENDBRANCH  71  72
ENDBRANCH  70  71
ENDBRANCH   1  70
TORSDOF 15
ENDMDL
