MODEL 1
REMARK VINA RESULT:     -12.2      0.000      0.000
REMARK SMILES O=C(OCCOC(=O)[C@@H]1C=C[C@H](NC(=O)[C@@H]2Cc3ccccc3O2)C1)c1ccc(-c2c3nc(c(-c4cc(S(=O)(=O)[O-])ccc4F)c4ccc([nH]4)c(-c4cc(S(=O)(=O)[O-])ccc4F)c4nc(c(-c5cc(S(=O)(=O)[O-])ccc5F)c5ccc2[nH]5)C=C4)C=C3)cc1
REMARK SMILES IDX 4 1 3 2 2 3 1 4 26 5 27 6 88 7 28 8 87 9 29 10 30 11 31 12
REMARK SMILES IDX 81 13 32 14 86 15 80 16 82 17 33 18 85 19 79 20 78 21 34 23
REMARK SMILES IDX 66 24 46 25 65 26 47 27 50 28 64 29 83 30 48 31 49 32 63 34
REMARK SMILES IDX 84 35 51 36 35 37 36 38 44 39 37 40 43 41 45 42 42 43 38 44
REMARK SMILES IDX 39 45 40 46 41 47 67 48 68 49 76 50 69 51 75 52 77 53 74 54
REMARK SMILES IDX 70 55 71 56 72 57 73 58 52 59 53 60 61 61 54 62 60 63 62 64
REMARK SMILES IDX 59 65 55 66 56 67 57 68 58 69 5 70 6 71 7 72 8 73 9 74 10 75
REMARK SMILES IDX 25 76 11 77 12 78 13 79 14 80 15 82 16 83 17 84 24 85 18 86
REMARK SMILES IDX 23 87 19 88 22 89 20 90 21 91
REMARK H PARENT 82 22 50 33 13 81
REMARK Flexibility Score: inf
ROOT
ATOM      1  C   UNL A   1      31.397  32.273  26.966  1.00  0.00     0.275 C 
ENDROOT
BRANCH   1   2
ATOM      2  O   UNL A   1      32.222  33.453  27.013  1.00  0.00    -0.458 OA
BRANCH   2   3
ATOM      3  C   UNL A   1      33.043  33.923  27.985  1.00  0.00     0.338 C 
ATOM      4  O   UNL A   1      32.859  35.076  28.379  1.00  0.00    -0.246 OA
BRANCH   3   5
ATOM      5  C   UNL A   1      34.241  33.191  28.529  1.00  0.00     0.060 A 
ATOM      6  C   UNL A   1      34.228  31.961  29.186  1.00  0.00     0.016 A 
ATOM      7  C   UNL A   1      35.499  33.797  28.318  1.00  0.00     0.016 A 
ATOM      8  C   UNL A   1      35.411  31.322  29.562  1.00  0.00     0.010 A 
ATOM      9  C   UNL A   1      36.693  33.164  28.697  1.00  0.00     0.010 A 
ATOM     10  C   UNL A   1      36.652  31.912  29.318  1.00  0.00    -0.014 A 
BRANCH  10  11
ATOM     11  C   UNL A   1      37.854  31.276  29.908  1.00  0.00     0.031 A 
ATOM     12  C   UNL A   1      38.246  31.694  31.296  1.00  0.00     0.074 A 
ATOM     13  C   UNL A   1      38.470  30.240  29.302  1.00  0.00     0.049 A 
ATOM     14  N   UNL A   1      39.210  31.244  32.054  1.00  0.00    -0.248 NA
ATOM     15  C   UNL A   1      37.414  32.733  31.927  1.00  0.00     0.031 C 
ATOM     16  C   UNL A   1      38.090  29.664  28.012  1.00  0.00     0.029 A 
ATOM     17  N   UNL A   1      39.532  29.467  29.699  1.00  0.00    -0.354 N 
ATOM     18  C   UNL A   1      39.062  31.900  33.269  1.00  0.00     0.074 A 
ATOM     19  C   UNL A   1      37.976  32.842  33.119  1.00  0.00     0.031 C 
ATOM     20  C   UNL A   1      38.917  28.647  27.714  1.00  0.00     0.029 A 
ATOM     21  C   UNL A   1      39.909  28.518  28.773  1.00  0.00     0.049 A 
ATOM     22  H   UNL A   1      39.983  29.581  30.566  1.00  0.00     0.167 HD
ATOM     23  C   UNL A   1      39.745  31.699  34.422  1.00  0.00     0.034 A 
ATOM     24  C   UNL A   1      40.962  27.677  28.765  1.00  0.00     0.034 A 
ATOM     25  C   UNL A   1      40.858  30.794  34.534  1.00  0.00     0.049 A 
ATOM     26  C   UNL A   1      41.881  27.685  29.950  1.00  0.00     0.074 A 
ATOM     27  C   UNL A   1      41.670  30.551  35.625  1.00  0.00     0.029 A 
ATOM     28  N   UNL A   1      41.327  29.990  33.501  1.00  0.00    -0.354 N 
ATOM     29  N   UNL A   1      41.774  28.362  31.070  1.00  0.00    -0.248 NA
ATOM     30  C   UNL A   1      43.059  26.816  29.871  1.00  0.00     0.031 C 
ATOM     31  C   UNL A   1      42.672  29.658  35.232  1.00  0.00     0.029 A 
ATOM     32  C   UNL A   1      42.437  29.277  33.921  1.00  0.00     0.049 A 
ATOM     33  H   UNL A   1      40.928  29.936  32.603  1.00  0.00     0.167 HD
ATOM     34  C   UNL A   1      42.847  27.959  31.853  1.00  0.00     0.074 A 
ATOM     35  C   UNL A   1      43.594  26.993  31.069  1.00  0.00     0.031 C 
ATOM     36  C   UNL A   1      43.170  28.330  33.117  1.00  0.00     0.034 A 
BRANCH  23  37
ATOM     37  C   UNL A   1      39.316  32.515  35.614  1.00  0.00     0.023 A 
ATOM     38  C   UNL A   1      39.690  33.865  35.747  1.00  0.00     0.031 A 
ATOM     39  C   UNL A   1      38.591  31.924  36.660  1.00  0.00     0.131 A 
ATOM     40  C   UNL A   1      39.403  34.556  36.934  1.00  0.00     0.055 A 
ATOM     41  C   UNL A   1      38.236  32.641  37.804  1.00  0.00     0.041 A 
ATOM     42  F   UNL A   1      38.238  30.630  36.600  1.00  0.00    -0.206 F 
ATOM     43  C   UNL A   1      38.655  33.961  37.953  1.00  0.00     0.022 A 
BRANCH  40  44
ATOM     44  S   UNL A   1      40.154  36.188  37.190  1.00  0.00     0.124 S 
ATOM     45  O   UNL A   1      39.968  36.806  35.878  1.00  0.00    -0.237 OA
ATOM     46  O   UNL A   1      39.350  36.739  38.274  1.00  0.00    -0.237 OA
ATOM     47  O   UNL A   1      41.539  35.878  37.535  1.00  0.00    -0.744 OA
ENDBRANCH  40  44
ENDBRANCH  23  37
BRANCH  24  48
ATOM     48  C   UNL A   1      41.346  26.915  27.541  1.00  0.00     0.023 A 
ATOM     49  C   UNL A   1      41.303  25.519  27.433  1.00  0.00     0.031 A 
ATOM     50  C   UNL A   1      41.951  27.632  26.499  1.00  0.00     0.131 A 
ATOM     51  C   UNL A   1      41.880  24.895  26.309  1.00  0.00     0.055 A 
ATOM     52  C   UNL A   1      42.471  27.018  25.361  1.00  0.00     0.041 A 
ATOM     53  F   UNL A   1      42.061  28.961  26.605  1.00  0.00    -0.206 F 
ATOM     54  C   UNL A   1      42.438  25.635  25.261  1.00  0.00     0.022 A 
BRANCH  51  55
ATOM     55  S   UNL A   1      42.021  23.085  26.283  1.00  0.00     0.124 S 
ATOM     56  O   UNL A   1      40.619  22.685  26.244  1.00  0.00    -0.237 OA
ATOM     57  O   UNL A   1      42.790  22.855  25.066  1.00  0.00    -0.237 OA
ATOM     58  O   UNL A   1      42.724  22.780  27.529  1.00  0.00    -0.744 OA
ENDBRANCH  51  55
ENDBRANCH  24  48
BRANCH  36  59
ATOM     59  C   UNL A   1      44.331  27.607  33.743  1.00  0.00     0.023 A 
ATOM     60  C   UNL A   1      44.161  26.408  34.453  1.00  0.00     0.031 A 
ATOM     61  C   UNL A   1      45.616  28.173  33.684  1.00  0.00     0.131 A 
ATOM     62  C   UNL A   1      45.246  25.856  35.146  1.00  0.00     0.055 A 
ATOM     63  C   UNL A   1      46.708  27.575  34.308  1.00  0.00     0.041 A 
ATOM     64  F   UNL A   1      45.826  29.325  33.028  1.00  0.00    -0.206 F 
ATOM     65  C   UNL A   1      46.523  26.419  35.061  1.00  0.00     0.022 A 
BRANCH  62  66
ATOM     66  S   UNL A   1      44.933  24.473  36.275  1.00  0.00     0.124 S 
ATOM     67  O   UNL A   1      44.365  25.155  37.434  1.00  0.00    -0.237 OA
ATOM     68  O   UNL A   1      44.008  23.647  35.507  1.00  0.00    -0.237 OA
ATOM     69  O   UNL A   1      46.259  23.894  36.481  1.00  0.00    -0.744 OA
ENDBRANCH  62  66
ENDBRANCH  36  59
ENDBRANCH  10  11
ENDBRANCH   3   5
ENDBRANCH   2   3
ENDBRANCH   1   2
BRANCH   1  70
ATOM     70  C   UNL A   1      32.140  31.015  26.507  1.00  0.00     0.274 C 
BRANCH  70  71
ATOM     71  O   UNL A   1      31.515  30.423  25.358  1.00  0.00    -0.462 OA
BRANCH  71  72
ATOM     72  C   UNL A   1      32.072  29.272  24.882  1.00  0.00     0.312 C 
ATOM     73  O   UNL A   1      32.783  29.212  23.882  1.00  0.00    -0.252 OA
BRANCH  72  74
ATOM     74  C   UNL A   1      31.840  28.115  25.852  1.00  0.00     0.124 C 
ATOM     75  C   UNL A   1      33.119  27.563  26.394  1.00  0.00    -0.014 C 
ATOM     76  C   UNL A   1      31.161  26.880  25.246  1.00  0.00     0.048 C 
ATOM     77  C   UNL A   1      33.310  26.291  26.035  1.00  0.00    -0.006 C 
ATOM     78  C   UNL A   1      32.200  25.757  25.199  1.00  0.00     0.106 C 
BRANCH  78  79
ATOM     79  N   UNL A   1      32.690  25.539  23.861  1.00  0.00    -0.347 N 
ATOM     80  C   UNL A   1      32.890  24.360  23.205  1.00  0.00     0.261 C 
ATOM     81  H   UNL A   1      32.909  26.351  23.350  1.00  0.00     0.164 HD
ATOM     82  O   UNL A   1      33.329  24.419  22.053  1.00  0.00    -0.271 OA
BRANCH  80  83
ATOM     83  C   UNL A   1      32.549  23.012  23.855  1.00  0.00     0.266 C 
ATOM     84  C   UNL A   1      33.741  22.410  24.603  1.00  0.00     0.095 C 
ATOM     85  O   UNL A   1      32.027  22.040  22.923  1.00  0.00    -0.480 OA
ATOM     86  C   UNL A   1      33.491  20.973  24.352  1.00  0.00    -0.002 A 
ATOM     87  C   UNL A   1      32.525  20.844  23.370  1.00  0.00     0.123 A 
ATOM     88  C   UNL A   1      34.107  19.852  24.881  1.00  0.00     0.008 A 
ATOM     89  C   UNL A   1      32.148  19.613  22.874  1.00  0.00     0.047 A 
ATOM     90  C   UNL A   1      33.731  18.593  24.408  1.00  0.00     0.001 A 
ATOM     91  C   UNL A   1      32.758  18.474  23.406  1.00  0.00     0.004 A 
ENDBRANCH  80  83
ENDBRANCH  78  79
ENDBRANCH  72  74
ENDBRANCH  71  72
ENDBRANCH  70  71
ENDBRANCH   1  70
TORSDOF 16
ENDMDL
MODEL 2
REMARK VINA RESULT:     -12.2      1.774      2.242
REMARK SMILES O=C(OCCOC(=O)[C@@H]1C=C[C@H](NC(=O)[C@@H]2Cc3ccccc3O2)C1)c1ccc(-c2c3nc(c(-c4cc(S(=O)(=O)[O-])ccc4F)c4ccc([nH]4)c(-c4cc(S(=O)(=O)[O-])ccc4F)c4nc(c(-c5cc(S(=O)(=O)[O-])ccc5F)c5ccc2[nH]5)C=C4)C=C3)cc1
REMARK SMILES IDX 4 1 3 2 2 3 1 4 26 5 27 6 88 7 28 8 87 9 29 10 30 11 31 12
REMARK SMILES IDX 81 13 32 14 86 15 80 16 82 17 33 18 85 19 79 20 78 21 34 23
REMARK SMILES IDX 66 24 46 25 65 26 47 27 50 28 64 29 83 30 48 31 49 32 63 34
REMARK SMILES IDX 84 35 51 36 35 37 36 38 44 39 37 40 43 41 45 42 42 43 38 44
REMARK SMILES IDX 39 45 40 46 41 47 67 48 68 49 76 50 69 51 75 52 77 53 74 54
REMARK SMILES IDX 70 55 71 56 72 57 73 58 52 59 53 60 61 61 54 62 60 63 62 64
REMARK SMILES IDX 59 65 55 66 56 67 57 68 58 69 5 70 6 71 7 72 8 73 9 74 10 75
REMARK SMILES IDX 25 76 11 77 12 78 13 79 14 80 15 82 16 83 17 84 24 85 18 86
REMARK SMILES IDX 23 87 19 88 22 89 20 90 21 91
REMARK H PARENT 82 22 50 33 13 81
REMARK Flexibility Score: inf
ROOT
ATOM      1  C   UNL A   1      31.405  32.334  27.065  1.00  0.00     0.275 C 
ENDROOT
BRANCH   1   2
ATOM      2  O   UNL A   1      32.459  33.317  27.031  1.00  0.00    -0.458 OA
BRANCH   2   3
ATOM      3  C   UNL A   1      33.272  33.780  28.012  1.00  0.00     0.338 C 
ATOM      4  O   UNL A   1      33.084  34.931  28.413  1.00  0.00    -0.246 OA
BRANCH   3   5
ATOM      5  C   UNL A   1      34.465  33.045  28.561  1.00  0.00     0.060 A 
ATOM      6  C   UNL A   1      34.443  31.828  29.243  1.00  0.00     0.016 A 
ATOM      7  C   UNL A   1      35.729  33.632  28.329  1.00  0.00     0.016 A 
ATOM      8  C   UNL A   1      35.622  31.183  29.622  1.00  0.00     0.010 A 
ATOM      9  C   UNL A   1      36.918  32.993  28.711  1.00  0.00     0.010 A 
ATOM     10  C   UNL A   1      36.867  31.753  29.357  1.00  0.00    -0.014 A 
BRANCH  10  11
ATOM     11  C   UNL A   1      38.066  31.115  29.950  1.00  0.00     0.031 A 
ATOM     12  C   UNL A   1      38.459  31.535  31.337  1.00  0.00     0.074 A 
ATOM     13  C   UNL A   1      38.680  30.076  29.348  1.00  0.00     0.049 A 
ATOM     14  N   UNL A   1      39.420  31.084  32.097  1.00  0.00    -0.248 NA
ATOM     15  C   UNL A   1      37.629  32.578  31.965  1.00  0.00     0.031 C 
ATOM     16  C   UNL A   1      38.300  29.497  28.058  1.00  0.00     0.029 A 
ATOM     17  N   UNL A   1      39.738  29.300  29.748  1.00  0.00    -0.354 N 
ATOM     18  C   UNL A   1      39.273  31.744  33.311  1.00  0.00     0.074 A 
ATOM     19  C   UNL A   1      38.190  32.689  33.157  1.00  0.00     0.031 C 
ATOM     20  C   UNL A   1      39.123  28.477  27.765  1.00  0.00     0.029 A 
ATOM     21  C   UNL A   1      40.113  28.347  28.825  1.00  0.00     0.049 A 
ATOM     22  H   UNL A   1      40.190  29.414  30.616  1.00  0.00     0.167 HD
ATOM     23  C   UNL A   1      39.953  31.544  34.465  1.00  0.00     0.034 A 
ATOM     24  C   UNL A   1      41.164  27.503  28.820  1.00  0.00     0.034 A 
ATOM     25  C   UNL A   1      41.063  30.635  34.581  1.00  0.00     0.049 A 
ATOM     26  C   UNL A   1      42.082  27.511  30.007  1.00  0.00     0.074 A 
ATOM     27  C   UNL A   1      41.874  30.393  35.674  1.00  0.00     0.029 A 
ATOM     28  N   UNL A   1      41.531  29.827  33.551  1.00  0.00    -0.354 N 
ATOM     29  N   UNL A   1      41.976  28.192  31.124  1.00  0.00    -0.248 NA
ATOM     30  C   UNL A   1      43.257  26.638  29.931  1.00  0.00     0.031 C 
ATOM     31  C   UNL A   1      42.873  29.495  35.284  1.00  0.00     0.029 A 
ATOM     32  C   UNL A   1      42.638  29.112  33.973  1.00  0.00     0.049 A 
ATOM     33  H   UNL A   1      41.133  29.772  32.652  1.00  0.00     0.167 HD
ATOM     34  C   UNL A   1      43.046  27.786  31.909  1.00  0.00     0.074 A 
ATOM     35  C   UNL A   1      43.791  26.816  31.129  1.00  0.00     0.031 C 
ATOM     36  C   UNL A   1      43.369  28.160  33.173  1.00  0.00     0.034 A 
BRANCH  23  37
ATOM     37  C   UNL A   1      39.526  32.365  35.654  1.00  0.00     0.023 A 
ATOM     38  C   UNL A   1      38.764  31.801  36.695  1.00  0.00     0.031 A 
ATOM     39  C   UNL A   1      39.818  33.737  35.717  1.00  0.00     0.131 A 
ATOM     40  C   UNL A   1      38.257  32.622  37.713  1.00  0.00     0.055 A 
ATOM     41  C   UNL A   1      39.379  34.532  36.776  1.00  0.00     0.041 A 
ATOM     42  F   UNL A   1      40.512  34.333  34.734  1.00  0.00    -0.206 F 
ATOM     43  C   UNL A   1      38.581  33.980  37.775  1.00  0.00     0.022 A 
BRANCH  40  44
ATOM     44  S   UNL A   1      37.042  31.923  38.864  1.00  0.00     0.124 S 
ATOM     45  O   UNL A   1      35.848  32.703  38.541  1.00  0.00    -0.237 OA
ATOM     46  O   UNL A   1      37.009  30.518  38.477  1.00  0.00    -0.237 OA
ATOM     47  O   UNL A   1      37.619  32.195  40.178  1.00  0.00    -0.744 OA
ENDBRANCH  40  44
ENDBRANCH  23  37
BRANCH  24  48
ATOM     48  C   UNL A   1      41.547  26.737  27.599  1.00  0.00     0.023 A 
ATOM     49  C   UNL A   1      41.436  25.345  27.471  1.00  0.00     0.031 A 
ATOM     50  C   UNL A   1      42.221  27.433  26.585  1.00  0.00     0.131 A 
ATOM     51  C   UNL A   1      42.015  24.706  26.357  1.00  0.00     0.055 A 
ATOM     52  C   UNL A   1      42.745  26.806  25.456  1.00  0.00     0.041 A 
ATOM     53  F   UNL A   1      42.396  28.753  26.713  1.00  0.00    -0.206 F 
ATOM     54  C   UNL A   1      42.643  25.428  25.337  1.00  0.00     0.022 A 
BRANCH  51  55
ATOM     55  S   UNL A   1      42.064  22.891  26.312  1.00  0.00     0.124 S 
ATOM     56  O   UNL A   1      40.652  22.559  26.463  1.00  0.00    -0.237 OA
ATOM     57  O   UNL A   1      42.649  22.634  25.001  1.00  0.00    -0.237 OA
ATOM     58  O   UNL A   1      42.913  22.545  27.450  1.00  0.00    -0.744 OA
ENDBRANCH  51  55
ENDBRANCH  24  48
BRANCH  36  59
ATOM     59  C   UNL A   1      44.527  27.434  33.802  1.00  0.00     0.023 A 
ATOM     60  C   UNL A   1      44.364  26.199  34.448  1.00  0.00     0.031 A 
ATOM     61  C   UNL A   1      45.799  28.032  33.813  1.00  0.00     0.131 A 
ATOM     62  C   UNL A   1      45.439  25.640  35.151  1.00  0.00     0.055 A 
ATOM     63  C   UNL A   1      46.885  27.431  34.444  1.00  0.00     0.041 A 
ATOM     64  F   UNL A   1      46.001  29.220  33.220  1.00  0.00    -0.206 F 
ATOM     65  C   UNL A   1      46.704  26.236  35.135  1.00  0.00     0.022 A 
BRANCH  62  66
ATOM     66  S   UNL A   1      45.124  24.197  36.202  1.00  0.00     0.124 S 
ATOM     67  O   UNL A   1      43.866  23.699  35.657  1.00  0.00    -0.237 OA
ATOM     68  O   UNL A   1      46.298  23.367  35.952  1.00  0.00    -0.237 OA
ATOM     69  O   UNL A   1      45.041  24.766  37.546  1.00  0.00    -0.744 OA
ENDBRANCH  62  66
ENDBRANCH  36  59
ENDBRANCH  10  11
ENDBRANCH   3   5
ENDBRANCH   2   3
ENDBRANCH   1   2
BRANCH   1  70
ATOM     70  C   UNL A   1      31.786  30.995  26.426  1.00  0.00     0.274 C 
BRANCH  70  71
ATOM     71  O   UNL A   1      32.195  30.037  27.413  1.00  0.00    -0.462 OA
BRANCH  71  72
ATOM     72  C   UNL A   1      31.814  28.743  27.208  1.00  0.00     0.312 C 
ATOM     73  O   UNL A   1      31.127  28.094  27.991  1.00  0.00    -0.252 OA
BRANCH  72  74
ATOM     74  C   UNL A   1      32.203  28.280  25.805  1.00  0.00     0.124 C 
ATOM     75  C   UNL A   1      31.031  27.774  25.028  1.00  0.00    -0.014 C 
ATOM     76  C   UNL A   1      33.184  27.100  25.755  1.00  0.00     0.048 C 
ATOM     77  C   UNL A   1      31.151  26.480  24.720  1.00  0.00    -0.006 C 
ATOM     78  C   UNL A   1      32.420  25.886  25.223  1.00  0.00     0.106 C 
BRANCH  78  79
ATOM     79  N   UNL A   1      32.109  24.948  26.274  1.00  0.00    -0.347 N 
ATOM     80  C   UNL A   1      32.538  23.663  26.427  1.00  0.00     0.261 C 
ATOM     81  H   UNL A   1      31.505  25.281  26.976  1.00  0.00     0.164 HD
ATOM     82  O   UNL A   1      32.130  23.043  27.413  1.00  0.00    -0.271 OA
BRANCH  80  83
ATOM     83  C   UNL A   1      33.520  23.021  25.438  1.00  0.00     0.266 C 
ATOM     84  C   UNL A   1      33.518  21.492  25.526  1.00  0.00     0.095 C 
ATOM     85  O   UNL A   1      34.873  23.507  25.573  1.00  0.00    -0.480 OA
ATOM     86  C   UNL A   1      34.945  21.226  25.236  1.00  0.00    -0.002 A 
ATOM     87  C   UNL A   1      35.652  22.412  25.305  1.00  0.00     0.123 A 
ATOM     88  C   UNL A   1      35.601  20.030  25.001  1.00  0.00     0.008 A 
ATOM     89  C   UNL A   1      37.024  22.453  25.157  1.00  0.00     0.047 A 
ATOM     90  C   UNL A   1      36.987  20.047  24.831  1.00  0.00     0.001 A 
ATOM     91  C   UNL A   1      37.696  21.253  24.913  1.00  0.00     0.004 A 
ENDBRANCH  80  83
ENDBRANCH  78  79
ENDBRANCH  72  74
ENDBRANCH  71  72
ENDBRANCH  70  71
ENDBRANCH   1  70
TORSDOF 16
ENDMDL
MODEL 3
REMARK VINA RESULT:     -12.1      4.946     10.654
REMARK SMILES O=C(OCCOC(=O)[C@@H]1C=C[C@H](NC(=O)[C@@H]2Cc3ccccc3O2)C1)c1ccc(-c2c3nc(c(-c4cc(S(=O)(=O)[O-])ccc4F)c4ccc([nH]4)c(-c4cc(S(=O)(=O)[O-])ccc4F)c4nc(c(-c5cc(S(=O)(=O)[O-])ccc5F)c5ccc2[nH]5)C=C4)C=C3)cc1
REMARK SMILES IDX 4 1 3 2 2 3 1 4 26 5 27 6 88 7 28 8 87 9 29 10 30 11 31 12
REMARK SMILES IDX 81 13 32 14 86 15 80 16 82 17 33 18 85 19 79 20 78 21 34 23
REMARK SMILES IDX 66 24 46 25 65 26 47 27 50 28 64 29 83 30 48 31 49 32 63 34
REMARK SMILES IDX 84 35 51 36 35 37 36 38 44 39 37 40 43 41 45 42 42 43 38 44
REMARK SMILES IDX 39 45 40 46 41 47 67 48 68 49 76 50 69 51 75 52 77 53 74 54
REMARK SMILES IDX 70 55 71 56 72 57 73 58 52 59 53 60 61 61 54 62 60 63 62 64
REMARK SMILES IDX 59 65 55 66 56 67 57 68 58 69 5 70 6 71 7 72 8 73 9 74 10 75
REMARK SMILES IDX 25 76 11 77 12 78 13 79 14 80 15 82 16 83 17 84 24 85 18 86
REMARK SMILES IDX 23 87 19 88 22 89 20 90 21 91
REMARK H PARENT 82 22 50 33 13 81
REMARK Flexibility Score: inf
ROOT
ATOM      1  C   UNL A   1      38.569  19.870  25.012  1.00  0.00     0.275 C 
ENDROOT
BRANCH   1   2
ATOM      2  O   UNL A   1      39.456  19.634  26.123  1.00  0.00    -0.458 OA
BRANCH   2   3
ATOM      3  C   UNL A   1      40.693  20.121  26.389  1.00  0.00     0.338 C 
ATOM      4  O   UNL A   1      41.623  19.314  26.446  1.00  0.00    -0.246 OA
BRANCH   3   5
ATOM      5  C   UNL A   1      40.998  21.551  26.745  1.00  0.00     0.060 A 
ATOM      6  C   UNL A   1      40.691  22.676  25.978  1.00  0.00     0.016 A 
ATOM      7  C   UNL A   1      41.622  21.772  27.992  1.00  0.00     0.016 A 
ATOM      8  C   UNL A   1      40.930  23.968  26.451  1.00  0.00     0.010 A 
ATOM      9  C   UNL A   1      41.870  23.067  28.473  1.00  0.00     0.010 A 
ATOM     10  C   UNL A   1      41.515  24.177  27.700  1.00  0.00    -0.014 A 
BRANCH  10  11
ATOM     11  C   UNL A   1      41.914  25.558  28.060  1.00  0.00     0.031 A 
ATOM     12  C   UNL A   1      43.303  25.995  27.693  1.00  0.00     0.074 A 
ATOM     13  C   UNL A   1      41.018  26.447  28.538  1.00  0.00     0.049 A 
ATOM     14  N   UNL A   1      43.868  27.163  27.838  1.00  0.00    -0.248 NA
ATOM     15  C   UNL A   1      44.155  24.986  27.040  1.00  0.00     0.031 C 
ATOM     16  C   UNL A   1      39.607  26.168  28.807  1.00  0.00     0.029 A 
ATOM     17  N   UNL A   1      41.150  27.775  28.858  1.00  0.00    -0.354 N 
ATOM     18  C   UNL A   1      45.118  27.047  27.241  1.00  0.00     0.074 A 
ATOM     19  C   UNL A   1      45.262  25.673  26.813  1.00  0.00     0.031 C 
ATOM     20  C   UNL A   1      39.011  27.279  29.271  1.00  0.00     0.029 A 
ATOM     21  C   UNL A   1      40.002  28.342  29.368  1.00  0.00     0.049 A 
ATOM     22  H   UNL A   1      41.989  28.275  28.737  1.00  0.00     0.167 HD
ATOM     23  C   UNL A   1      46.041  28.014  27.028  1.00  0.00     0.034 A 
ATOM     24  C   UNL A   1      39.793  29.566  29.894  1.00  0.00     0.034 A 
ATOM     25  C   UNL A   1      45.898  29.363  27.509  1.00  0.00     0.049 A 
ATOM     26  C   UNL A   1      40.939  30.533  29.908  1.00  0.00     0.074 A 
ATOM     27  C   UNL A   1      46.790  30.414  27.415  1.00  0.00     0.029 A 
ATOM     28  N   UNL A   1      44.788  29.842  28.195  1.00  0.00    -0.354 N 
ATOM     29  N   UNL A   1      42.142  30.391  29.403  1.00  0.00    -0.248 NA
ATOM     30  C   UNL A   1      40.698  31.824  30.559  1.00  0.00     0.031 C 
ATOM     31  C   UNL A   1      46.252  31.505  28.106  1.00  0.00     0.029 A 
ATOM     32  C   UNL A   1      44.988  31.162  28.559  1.00  0.00     0.049 A 
ATOM     33  H   UNL A   1      43.979  29.318  28.394  1.00  0.00     0.167 HD
ATOM     34  C   UNL A   1      42.787  31.599  29.630  1.00  0.00     0.074 A 
ATOM     35  C   UNL A   1      41.842  32.449  30.330  1.00  0.00     0.031 C 
ATOM     36  C   UNL A   1      44.037  31.983  29.267  1.00  0.00     0.034 A 
BRANCH  23  37
ATOM     37  C   UNL A   1      47.287  27.609  26.284  1.00  0.00     0.023 A 
ATOM     38  C   UNL A   1      47.449  27.899  24.917  1.00  0.00     0.031 A 
ATOM     39  C   UNL A   1      48.290  26.863  26.925  1.00  0.00     0.131 A 
ATOM     40  C   UNL A   1      48.549  27.381  24.218  1.00  0.00     0.055 A 
ATOM     41  C   UNL A   1      49.424  26.421  26.242  1.00  0.00     0.041 A 
ATOM     42  F   UNL A   1      48.171  26.529  28.220  1.00  0.00    -0.206 F 
ATOM     43  C   UNL A   1      49.553  26.666  24.877  1.00  0.00     0.022 A 
BRANCH  40  44
ATOM     44  S   UNL A   1      48.572  27.522  22.410  1.00  0.00     0.124 S 
ATOM     45  O   UNL A   1      47.320  28.233  22.155  1.00  0.00    -0.237 OA
ATOM     46  O   UNL A   1      49.795  28.278  22.166  1.00  0.00    -0.237 OA
ATOM     47  O   UNL A   1      48.595  26.134  21.958  1.00  0.00    -0.744 OA
ENDBRANCH  40  44
ENDBRANCH  23  37
BRANCH  24  48
ATOM     48  C   UNL A   1      38.543  29.894  30.640  1.00  0.00     0.023 A 
ATOM     49  C   UNL A   1      37.511  30.699  30.138  1.00  0.00     0.031 A 
ATOM     50  C   UNL A   1      38.480  29.518  31.989  1.00  0.00     0.131 A 
ATOM     51  C   UNL A   1      36.475  31.110  31.000  1.00  0.00     0.055 A 
ATOM     52  C   UNL A   1      37.426  29.880  32.826  1.00  0.00     0.041 A 
ATOM     53  F   UNL A   1      39.483  28.803  32.510  1.00  0.00    -0.206 F 
ATOM     54  C   UNL A   1      36.411  30.684  32.330  1.00  0.00     0.022 A 
BRANCH  51  55
ATOM     55  S   UNL A   1      35.269  32.330  30.405  1.00  0.00     0.124 S 
ATOM     56  O   UNL A   1      34.815  31.709  29.166  1.00  0.00    -0.237 OA
ATOM     57  O   UNL A   1      34.305  32.365  31.498  1.00  0.00    -0.237 OA
ATOM     58  O   UNL A   1      36.066  33.545  30.240  1.00  0.00    -0.744 OA
ENDBRANCH  51  55
ENDBRANCH  24  48
BRANCH  36  59
ATOM     59  C   UNL A   1      44.396  33.416  29.547  1.00  0.00     0.023 A 
ATOM     60  C   UNL A   1      44.161  34.436  28.612  1.00  0.00     0.031 A 
ATOM     61  C   UNL A   1      45.050  33.747  30.747  1.00  0.00     0.131 A 
ATOM     62  C   UNL A   1      44.653  35.724  28.857  1.00  0.00     0.055 A 
ATOM     63  C   UNL A   1      45.464  35.048  31.020  1.00  0.00     0.041 A 
ATOM     64  F   UNL A   1      45.309  32.803  31.667  1.00  0.00    -0.206 F 
ATOM     65  C   UNL A   1      45.284  36.043  30.063  1.00  0.00     0.022 A 
BRANCH  62  66
ATOM     66  S   UNL A   1      44.583  36.942  27.516  1.00  0.00     0.124 S 
ATOM     67  O   UNL A   1      43.231  36.745  27.003  1.00  0.00    -0.237 OA
ATOM     68  O   UNL A   1      44.819  38.197  28.222  1.00  0.00    -0.237 OA
ATOM     69  O   UNL A   1      45.657  36.524  26.617  1.00  0.00    -0.744 OA
ENDBRANCH  62  66
ENDBRANCH  36  59
ENDBRANCH  10  11
ENDBRANCH   3   5
ENDBRANCH   2   3
ENDBRANCH   1   2
BRANCH   1  70
ATOM     70  C   UNL A   1      37.626  21.061  25.214  1.00  0.00     0.274 C 
BRANCH  70  71
ATOM     71  O   UNL A   1      36.285  20.746  24.813  1.00  0.00    -0.462 OA
BRANCH  71  72
ATOM     72  C   UNL A   1      35.281  21.418  25.447  1.00  0.00     0.312 C 
ATOM     73  O   UNL A   1      34.793  21.075  26.520  1.00  0.00    -0.252 OA
BRANCH  72  74
ATOM     74  C   UNL A   1      34.977  22.736  24.737  1.00  0.00     0.124 C 
ATOM     75  C   UNL A   1      35.118  23.916  25.643  1.00  0.00    -0.014 C 
ATOM     76  C   UNL A   1      33.543  22.878  24.207  1.00  0.00     0.048 C 
ATOM     77  C   UNL A   1      33.960  24.560  25.815  1.00  0.00    -0.006 C 
ATOM     78  C   UNL A   1      32.840  23.940  25.055  1.00  0.00     0.106 C 
BRANCH  78  79
ATOM     79  N   UNL A   1      31.914  23.350  25.991  1.00  0.00    -0.347 N 
ATOM     80  C   UNL A   1      30.799  23.899  26.552  1.00  0.00     0.261 C 
ATOM     81  H   UNL A   1      32.114  22.425  26.260  1.00  0.00     0.164 HD
ATOM     82  O   UNL A   1      30.158  23.199  27.341  1.00  0.00    -0.271 OA
BRANCH  80  83
ATOM     83  C   UNL A   1      30.335  25.317  26.193  1.00  0.00     0.266 C 
ATOM     84  C   UNL A   1      30.235  25.529  24.680  1.00  0.00     0.095 C 
ATOM     85  O   UNL A   1      31.156  26.355  26.771  1.00  0.00    -0.480 OA
ATOM     86  C   UNL A   1      30.636  26.953  24.604  1.00  0.00    -0.002 A 
ATOM     87  C   UNL A   1      31.171  27.340  25.819  1.00  0.00     0.123 A 
ATOM     88  C   UNL A   1      30.608  27.833  23.536  1.00  0.00     0.008 A 
ATOM     89  C   UNL A   1      31.703  28.599  26.013  1.00  0.00     0.047 A 
ATOM     90  C   UNL A   1      31.126  29.118  23.712  1.00  0.00     0.001 A 
ATOM     91  C   UNL A   1      31.675  29.498  24.944  1.00  0.00     0.004 A 
ENDBRANCH  80  83
ENDBRANCH  78  79
ENDBRANCH  72  74
ENDBRANCH  71  72
ENDBRANCH  70  71
ENDBRANCH   1  70
TORSDOF 16
ENDMDL
