MODEL 1
REMARK VINA RESULT:     -12.9      0.000      0.000
REMARK SMILES O=C(OCCOC(=O)C1(n2cnc3ccccc32)CC[NH+](Cc2cccc3nonc23)CC1)c1ccc(-c2c3nc(c(-c4cc(S(=O)(=O)[O-])ccc4F)c4ccc([nH]4)c(-c4cc(S(=O)(=O)[O-])ccc4F)c4nc(c(-c5cc(S(=O)(=O)[O-])ccc5F)c5ccc2[nH]5)C=C4)C=C3)cc1
REMARK SMILES IDX 4 1 3 2 2 3 1 4 34 5 35 6 96 7 36 8 95 9 37 10 38 11 39 12
REMARK SMILES IDX 89 13 40 14 94 15 88 16 90 17 41 18 93 19 87 20 86 21 42 23
REMARK SMILES IDX 74 24 54 25 73 26 55 27 58 28 72 29 91 30 56 31 57 32 71 34
REMARK SMILES IDX 92 35 59 36 43 37 44 38 52 39 45 40 51 41 53 42 50 43 46 44
REMARK SMILES IDX 47 45 48 46 49 47 75 48 76 49 84 50 77 51 83 52 85 53 82 54
REMARK SMILES IDX 78 55 79 56 80 57 81 58 60 59 61 60 69 61 62 62 68 63 70 64
REMARK SMILES IDX 67 65 63 66 64 67 65 68 66 69 5 70 6 71 7 72 8 73 9 74 19 75
REMARK SMILES IDX 33 76 20 77 32 78 21 79 10 81 11 82 18 83 12 84 13 85 17 86
REMARK SMILES IDX 14 87 16 88 15 89 22 90 23 91 24 92 31 93 25 94 27 95 30 96
REMARK SMILES IDX 26 97 28 98 29 99
REMARK H PARENT 90 22 58 33 21 80
REMARK Flexibility Score: inf
ROOT
ATOM      1  C   UNL A   1      33.374  29.970  26.922  1.00  0.00     0.275 C 
ENDROOT
BRANCH   1   2
ATOM      2  O   UNL A   1      34.800  30.168  27.031  1.00  0.00    -0.458 OA
BRANCH   2   3
ATOM      3  C   UNL A   1      35.369  31.142  27.790  1.00  0.00     0.338 C 
ATOM      4  O   UNL A   1      35.230  32.331  27.541  1.00  0.00    -0.246 OA
BRANCH   3   5
ATOM      5  C   UNL A   1      36.370  30.674  28.761  1.00  0.00     0.060 A 
ATOM      6  C   UNL A   1      37.532  31.412  28.757  1.00  0.00     0.016 A 
ATOM      7  C   UNL A   1      36.319  29.444  29.415  1.00  0.00     0.016 A 
ATOM      8  C   UNL A   1      38.712  30.809  29.132  1.00  0.00     0.010 A 
ATOM      9  C   UNL A   1      37.519  28.855  29.837  1.00  0.00     0.010 A 
ATOM     10  C   UNL A   1      38.736  29.488  29.571  1.00  0.00    -0.014 A 
BRANCH  10  11
ATOM     11  C   UNL A   1      40.091  28.901  29.669  1.00  0.00     0.031 A 
ATOM     12  C   UNL A   1      40.618  28.716  31.061  1.00  0.00     0.074 A 
ATOM     13  C   UNL A   1      40.860  28.609  28.597  1.00  0.00     0.049 A 
ATOM     14  N   UNL A   1      41.767  29.078  31.549  1.00  0.00    -0.248 NA
ATOM     15  C   UNL A   1      39.667  28.216  32.071  1.00  0.00     0.031 C 
ATOM     16  C   UNL A   1      40.435  28.638  27.196  1.00  0.00     0.029 A 
ATOM     17  N   UNL A   1      42.131  28.089  28.531  1.00  0.00    -0.354 N 
ATOM     18  C   UNL A   1      41.739  28.686  32.889  1.00  0.00     0.074 A 
ATOM     19  C   UNL A   1      40.369  28.360  33.191  1.00  0.00     0.031 C 
ATOM     20  C   UNL A   1      41.281  27.881  26.472  1.00  0.00     0.029 A 
ATOM     21  C   UNL A   1      42.355  27.419  27.335  1.00  0.00     0.049 A 
ATOM     22  H   UNL A   1      42.802  28.179  29.247  1.00  0.00     0.167 HD
ATOM     23  C   UNL A   1      42.858  28.382  33.603  1.00  0.00     0.034 A 
ATOM     24  C   UNL A   1      43.228  26.409  27.103  1.00  0.00     0.034 A 
ATOM     25  C   UNL A   1      44.065  28.916  33.049  1.00  0.00     0.049 A 
ATOM     26  C   UNL A   1      44.328  26.419  28.088  1.00  0.00     0.074 A 
ATOM     27  C   UNL A   1      44.890  29.995  33.264  1.00  0.00     0.029 A 
ATOM     28  N   UNL A   1      44.507  28.287  31.923  1.00  0.00    -0.354 N 
ATOM     29  N   UNL A   1      45.291  27.295  28.101  1.00  0.00    -0.248 NA
ATOM     30  C   UNL A   1      44.241  25.568  29.273  1.00  0.00     0.031 C 
ATOM     31  C   UNL A   1      45.828  30.015  32.190  1.00  0.00     0.029 A 
ATOM     32  C   UNL A   1      45.556  28.947  31.341  1.00  0.00     0.049 A 
ATOM     33  H   UNL A   1      44.118  27.454  31.570  1.00  0.00     0.167 HD
ATOM     34  C   UNL A   1      45.622  27.403  29.434  1.00  0.00     0.074 A 
ATOM     35  C   UNL A   1      45.108  26.198  30.069  1.00  0.00     0.031 C 
ATOM     36  C   UNL A   1      45.949  28.604  29.988  1.00  0.00     0.034 A 
BRANCH  23  37
ATOM     37  C   UNL A   1      42.894  27.218  34.577  1.00  0.00     0.023 A 
ATOM     38  C   UNL A   1      43.671  26.070  34.328  1.00  0.00     0.031 A 
ATOM     39  C   UNL A   1      42.372  27.325  35.880  1.00  0.00     0.131 A 
ATOM     40  C   UNL A   1      43.867  25.074  35.289  1.00  0.00     0.055 A 
ATOM     41  C   UNL A   1      42.631  26.365  36.872  1.00  0.00     0.041 A 
ATOM     42  F   UNL A   1      41.637  28.386  36.247  1.00  0.00    -0.206 F 
ATOM     43  C   UNL A   1      43.377  25.226  36.578  1.00  0.00     0.022 A 
BRANCH  40  44
ATOM     44  S   UNL A   1      44.776  23.568  34.845  1.00  0.00     0.124 S 
ATOM     45  O   UNL A   1      45.692  23.426  35.970  1.00  0.00    -0.237 OA
ATOM     46  O   UNL A   1      43.700  22.582  34.768  1.00  0.00    -0.237 OA
ATOM     47  O   UNL A   1      45.389  23.907  33.563  1.00  0.00    -0.744 OA
ENDBRANCH  40  44
ENDBRANCH  23  37
BRANCH  24  48
ATOM     48  C   UNL A   1      42.892  25.186  26.340  1.00  0.00     0.023 A 
ATOM     49  C   UNL A   1      41.872  24.336  26.808  1.00  0.00     0.031 A 
ATOM     50  C   UNL A   1      43.728  24.693  25.329  1.00  0.00     0.131 A 
ATOM     51  C   UNL A   1      41.725  23.042  26.304  1.00  0.00     0.055 A 
ATOM     52  C   UNL A   1      43.582  23.397  24.820  1.00  0.00     0.041 A 
ATOM     53  F   UNL A   1      44.744  25.436  24.863  1.00  0.00    -0.206 F 
ATOM     54  C   UNL A   1      42.581  22.561  25.313  1.00  0.00     0.022 A 
BRANCH  51  55
ATOM     55  S   UNL A   1      40.448  21.954  26.985  1.00  0.00     0.124 S 
ATOM     56  O   UNL A   1      39.237  22.753  26.817  1.00  0.00    -0.237 OA
ATOM     57  O   UNL A   1      40.561  20.787  26.118  1.00  0.00    -0.237 OA
ATOM     58  O   UNL A   1      40.869  21.759  28.371  1.00  0.00    -0.744 OA
ENDBRANCH  51  55
ENDBRANCH  24  48
BRANCH  36  59
ATOM     59  C   UNL A   1      46.524  29.678  29.111  1.00  0.00     0.023 A 
ATOM     60  C   UNL A   1      45.623  30.588  28.529  1.00  0.00     0.031 A 
ATOM     61  C   UNL A   1      47.873  29.755  28.720  1.00  0.00     0.131 A 
ATOM     62  C   UNL A   1      46.058  31.488  27.552  1.00  0.00     0.055 A 
ATOM     63  C   UNL A   1      48.321  30.717  27.811  1.00  0.00     0.041 A 
ATOM     64  F   UNL A   1      48.772  28.845  29.125  1.00  0.00    -0.206 F 
ATOM     65  C   UNL A   1      47.409  31.577  27.206  1.00  0.00     0.022 A 
BRANCH  62  66
ATOM     66  S   UNL A   1      44.856  32.428  26.578  1.00  0.00     0.124 S 
ATOM     67  O   UNL A   1      45.679  32.960  25.497  1.00  0.00    -0.237 OA
ATOM     68  O   UNL A   1      43.902  31.391  26.192  1.00  0.00    -0.237 OA
ATOM     69  O   UNL A   1      44.339  33.418  27.519  1.00  0.00    -0.744 OA
ENDBRANCH  62  66
ENDBRANCH  36  59
ENDBRANCH  10  11
ENDBRANCH   3   5
ENDBRANCH   2   3
ENDBRANCH   1   2
BRANCH   1  70
ATOM     70  C   UNL A   1      32.830  29.706  25.505  1.00  0.00     0.274 C 
BRANCH  70  71
ATOM     71  O   UNL A   1      33.218  28.479  24.842  1.00  0.00    -0.460 OA
BRANCH  71  72
ATOM     72  C   UNL A   1      32.284  27.496  24.805  1.00  0.00     0.332 C 
ATOM     73  O   UNL A   1      31.921  26.913  25.827  1.00  0.00    -0.249 OA
BRANCH  72  74
ATOM     74  C   UNL A   1      31.827  27.030  23.378  1.00  0.00     0.154 C 
ATOM     75  C   UNL A   1      31.069  25.721  23.022  1.00  0.00     0.102 C 
ATOM     76  C   UNL A   1      33.151  26.913  22.560  1.00  0.00     0.102 C 
ATOM     77  C   UNL A   1      31.815  24.386  22.912  1.00  0.00     0.265 C 
ATOM     78  C   UNL A   1      33.954  25.657  22.964  1.00  0.00     0.265 C 
ATOM     79  N   UNL A   1      33.234  24.440  22.648  1.00  0.00    -0.331 N 
ATOM     80  H   UNL A   1      33.227  24.569  21.635  1.00  0.00     0.348 HD
BRANCH  74  81
ATOM     81  N   UNL A   1      30.913  28.120  22.936  1.00  0.00    -0.313 N 
ATOM     82  C   UNL A   1      31.227  29.181  22.133  1.00  0.00     0.201 A 
ATOM     83  C   UNL A   1      29.541  28.169  23.165  1.00  0.00     0.069 A 
ATOM     84  N   UNL A   1      30.165  29.864  21.774  1.00  0.00    -0.237 NA
ATOM     85  C   UNL A   1      29.102  29.233  22.378  1.00  0.00     0.088 A 
ATOM     86  C   UNL A   1      28.641  27.386  23.911  1.00  0.00     0.028 A 
ATOM     87  C   UNL A   1      27.728  29.506  22.290  1.00  0.00     0.030 A 
ATOM     88  C   UNL A   1      27.277  27.660  23.798  1.00  0.00     0.002 A 
ATOM     89  C   UNL A   1      26.825  28.698  22.990  1.00  0.00     0.002 A 
ENDBRANCH  74  81
BRANCH  79  90
ATOM     90  C   UNL A   1      33.955  23.162  22.793  1.00  0.00     0.301 C 
BRANCH  90  91
ATOM     91  C   UNL A   1      33.938  22.459  24.130  1.00  0.00     0.038 A 
ATOM     92  C   UNL A   1      34.528  23.006  25.306  1.00  0.00     0.012 A 
ATOM     93  C   UNL A   1      33.252  21.245  24.394  1.00  0.00     0.144 A 
ATOM     94  C   UNL A   1      34.519  22.376  26.587  1.00  0.00     0.003 A 
ATOM     95  C   UNL A   1      33.220  20.613  25.716  1.00  0.00     0.135 A 
ATOM     96  N   UNL A   1      32.519  20.489  23.564  1.00  0.00    -0.049 NA
ATOM     97  C   UNL A   1      33.877  21.152  26.835  1.00  0.00     0.034 A 
ATOM     98  N   UNL A   1      32.478  19.501  25.635  1.00  0.00    -0.050 NA
ATOM     99  O   UNL A   1      32.076  19.415  24.315  1.00  0.00    -0.243 OA
ENDBRANCH  90  91
ENDBRANCH  79  90
ENDBRANCH  72  74
ENDBRANCH  71  72
ENDBRANCH  70  71
ENDBRANCH   1  70
TORSDOF 17
ENDMDL
MODEL 2
REMARK VINA RESULT:     -12.8      3.489      7.373
REMARK SMILES O=C(OCCOC(=O)C1(n2cnc3ccccc32)CC[NH+](Cc2cccc3nonc23)CC1)c1ccc(-c2c3nc(c(-c4cc(S(=O)(=O)[O-])ccc4F)c4ccc([nH]4)c(-c4cc(S(=O)(=O)[O-])ccc4F)c4nc(c(-c5cc(S(=O)(=O)[O-])ccc5F)c5ccc2[nH]5)C=C4)C=C3)cc1
REMARK SMILES IDX 4 1 3 2 2 3 1 4 34 5 35 6 96 7 36 8 95 9 37 10 38 11 39 12
REMARK SMILES IDX 89 13 40 14 94 15 88 16 90 17 41 18 93 19 87 20 86 21 42 23
REMARK SMILES IDX 74 24 54 25 73 26 55 27 58 28 72 29 91 30 56 31 57 32 71 34
REMARK SMILES IDX 92 35 59 36 43 37 44 38 52 39 45 40 51 41 53 42 50 43 46 44
REMARK SMILES IDX 47 45 48 46 49 47 75 48 76 49 84 50 77 51 83 52 85 53 82 54
REMARK SMILES IDX 78 55 79 56 80 57 81 58 60 59 61 60 69 61 62 62 68 63 70 64
REMARK SMILES IDX 67 65 63 66 64 67 65 68 66 69 5 70 6 71 7 72 8 73 9 74 19 75
REMARK SMILES IDX 33 76 20 77 32 78 21 79 10 81 11 82 18 83 12 84 13 85 17 86
REMARK SMILES IDX 14 87 16 88 15 89 22 90 23 91 24 92 31 93 25 94 27 95 30 96
REMARK SMILES IDX 26 97 28 98 29 99
REMARK H PARENT 90 22 58 33 21 80
REMARK Flexibility Score: inf
ROOT
ATOM      1  C   UNL A   1      37.975  23.359  25.484  1.00  0.00     0.275 C 
ENDROOT
BRANCH   1   2
ATOM      2  O   UNL A   1      38.965  23.066  26.492  1.00  0.00    -0.458 OA
BRANCH   2   3
ATOM      3  C   UNL A   1      39.934  23.942  26.873  1.00  0.00     0.338 C 
ATOM      4  O   UNL A   1      41.121  23.649  26.862  1.00  0.00    -0.246 OA
BRANCH   3   5
ATOM      5  C   UNL A   1      39.450  25.158  27.544  1.00  0.00     0.060 A 
ATOM      6  C   UNL A   1      39.849  26.323  26.930  1.00  0.00     0.016 A 
ATOM      7  C   UNL A   1      38.907  25.188  28.827  1.00  0.00     0.016 A 
ATOM      8  C   UNL A   1      39.991  27.466  27.686  1.00  0.00     0.010 A 
ATOM      9  C   UNL A   1      39.012  26.368  29.576  1.00  0.00     0.010 A 
ATOM     10  C   UNL A   1      39.680  27.474  29.042  1.00  0.00    -0.014 A 
BRANCH  10  11
ATOM     11  C   UNL A   1      40.144  28.676  29.770  1.00  0.00     0.031 A 
ATOM     12  C   UNL A   1      39.128  29.768  29.930  1.00  0.00     0.074 A 
ATOM     13  C   UNL A   1      41.411  28.845  30.207  1.00  0.00     0.049 A 
ATOM     14  N   UNL A   1      39.250  31.035  29.669  1.00  0.00    -0.248 NA
ATOM     15  C   UNL A   1      37.752  29.353  30.262  1.00  0.00     0.031 C 
ATOM     16  C   UNL A   1      42.465  27.828  30.214  1.00  0.00     0.029 A 
ATOM     17  N   UNL A   1      41.988  29.902  30.869  1.00  0.00    -0.354 N 
ATOM     18  C   UNL A   1      38.009  31.596  29.978  1.00  0.00     0.074 A 
ATOM     19  C   UNL A   1      37.090  30.498  30.131  1.00  0.00     0.031 C 
ATOM     20  C   UNL A   1      43.410  28.191  31.101  1.00  0.00     0.029 A 
ATOM     21  C   UNL A   1      43.081  29.505  31.628  1.00  0.00     0.049 A 
ATOM     22  H   UNL A   1      41.666  30.832  30.811  1.00  0.00     0.167 HD
ATOM     23  C   UNL A   1      37.849  32.894  30.361  1.00  0.00     0.034 A 
ATOM     24  C   UNL A   1      43.577  30.098  32.740  1.00  0.00     0.034 A 
ATOM     25  C   UNL A   1      38.939  33.747  29.998  1.00  0.00     0.049 A 
ATOM     26  C   UNL A   1      43.201  31.525  32.795  1.00  0.00     0.074 A 
ATOM     27  C   UNL A   1      39.232  34.654  29.006  1.00  0.00     0.029 A 
ATOM     28  N   UNL A   1      40.072  33.577  30.737  1.00  0.00    -0.354 N 
ATOM     29  N   UNL A   1      43.713  32.447  32.032  1.00  0.00    -0.248 NA
ATOM     30  C   UNL A   1      42.023  31.930  33.560  1.00  0.00     0.031 C 
ATOM     31  C   UNL A   1      40.609  34.994  29.153  1.00  0.00     0.029 A 
ATOM     32  C   UNL A   1      41.129  34.286  30.232  1.00  0.00     0.049 A 
ATOM     33  H   UNL A   1      40.124  33.010  31.540  1.00  0.00     0.167 HD
ATOM     34  C   UNL A   1      42.692  33.360  31.883  1.00  0.00     0.074 A 
ATOM     35  C   UNL A   1      41.773  33.108  32.984  1.00  0.00     0.031 C 
ATOM     36  C   UNL A   1      42.471  33.990  30.696  1.00  0.00     0.034 A 
BRANCH  23  37
ATOM     37  C   UNL A   1      36.882  33.288  31.463  1.00  0.00     0.023 A 
ATOM     38  C   UNL A   1      35.707  34.016  31.190  1.00  0.00     0.031 A 
ATOM     39  C   UNL A   1      36.965  32.735  32.755  1.00  0.00     0.131 A 
ATOM     40  C   UNL A   1      34.714  34.226  32.150  1.00  0.00     0.055 A 
ATOM     41  C   UNL A   1      35.934  32.878  33.698  1.00  0.00     0.041 A 
ATOM     42  F   UNL A   1      38.023  31.998  33.127  1.00  0.00    -0.206 F 
ATOM     43  C   UNL A   1      34.803  33.634  33.402  1.00  0.00     0.022 A 
BRANCH  40  44
ATOM     44  S   UNL A   1      33.294  35.283  31.753  1.00  0.00     0.124 S 
ATOM     45  O   UNL A   1      33.002  34.890  30.380  1.00  0.00    -0.237 OA
ATOM     46  O   UNL A   1      32.321  34.865  32.759  1.00  0.00    -0.237 OA
ATOM     47  O   UNL A   1      33.818  36.636  31.931  1.00  0.00    -0.744 OA
ENDBRANCH  40  44
ENDBRANCH  23  37
BRANCH  24  48
ATOM     48  C   UNL A   1      43.976  29.362  33.961  1.00  0.00     0.023 A 
ATOM     49  C   UNL A   1      43.070  28.465  34.557  1.00  0.00     0.031 A 
ATOM     50  C   UNL A   1      45.106  29.727  34.707  1.00  0.00     0.131 A 
ATOM     51  C   UNL A   1      43.278  27.985  35.851  1.00  0.00     0.055 A 
ATOM     52  C   UNL A   1      45.318  29.245  36.004  1.00  0.00     0.041 A 
ATOM     53  F   UNL A   1      45.991  30.607  34.215  1.00  0.00    -0.206 F 
ATOM     54  C   UNL A   1      44.396  28.376  36.586  1.00  0.00     0.022 A 
BRANCH  51  55
ATOM     55  S   UNL A   1      42.050  26.891  36.609  1.00  0.00     0.124 S 
ATOM     56  O   UNL A   1      40.906  27.782  36.787  1.00  0.00    -0.237 OA
ATOM     57  O   UNL A   1      41.898  25.864  35.586  1.00  0.00    -0.237 OA
ATOM     58  O   UNL A   1      42.694  26.462  37.849  1.00  0.00    -0.744 OA
ENDBRANCH  51  55
ENDBRANCH  24  48
BRANCH  36  59
ATOM     59  C   UNL A   1      43.618  34.174  29.745  1.00  0.00     0.023 A 
ATOM     60  C   UNL A   1      43.693  33.299  28.647  1.00  0.00     0.031 A 
ATOM     61  C   UNL A   1      44.691  35.061  29.949  1.00  0.00     0.131 A 
ATOM     62  C   UNL A   1      44.830  33.281  27.833  1.00  0.00     0.055 A 
ATOM     63  C   UNL A   1      45.784  35.102  29.079  1.00  0.00     0.041 A 
ATOM     64  F   UNL A   1      44.761  35.835  31.043  1.00  0.00    -0.206 F 
ATOM     65  C   UNL A   1      45.868  34.196  28.027  1.00  0.00     0.022 A 
BRANCH  62  66
ATOM     66  S   UNL A   1      45.068  31.951  26.629  1.00  0.00     0.124 S 
ATOM     67  O   UNL A   1      44.941  32.656  25.357  1.00  0.00    -0.237 OA
ATOM     68  O   UNL A   1      46.412  31.480  26.958  1.00  0.00    -0.237 OA
ATOM     69  O   UNL A   1      43.995  31.007  26.932  1.00  0.00    -0.744 OA
ENDBRANCH  62  66
ENDBRANCH  36  59
ENDBRANCH  10  11
ENDBRANCH   3   5
ENDBRANCH   2   3
ENDBRANCH   1   2
BRANCH   1  70
ATOM     70  C   UNL A   1      36.541  23.606  25.990  1.00  0.00     0.274 C 
BRANCH  70  71
ATOM     71  O   UNL A   1      35.715  24.551  25.267  1.00  0.00    -0.460 OA
BRANCH  71  72
ATOM     72  C   UNL A   1      34.387  24.515  25.538  1.00  0.00     0.332 C 
ATOM     73  O   UNL A   1      33.956  24.046  26.592  1.00  0.00    -0.249 OA
BRANCH  72  74
ATOM     74  C   UNL A   1      33.431  24.938  24.368  1.00  0.00     0.154 C 
ATOM     75  C   UNL A   1      31.918  24.610  24.234  1.00  0.00     0.102 C 
ATOM     76  C   UNL A   1      34.055  24.287  23.094  1.00  0.00     0.102 C 
ATOM     77  C   UNL A   1      31.454  23.234  23.741  1.00  0.00     0.265 C 
ATOM     78  C   UNL A   1      33.800  22.764  23.058  1.00  0.00     0.265 C 
ATOM     79  N   UNL A   1      32.386  22.463  22.952  1.00  0.00    -0.331 N 
ATOM     80  H   UNL A   1      32.246  22.888  22.035  1.00  0.00     0.348 HD
BRANCH  74  81
ATOM     81  N   UNL A   1      33.486  26.427  24.400  1.00  0.00    -0.313 N 
ATOM     82  C   UNL A   1      33.943  27.254  23.412  1.00  0.00     0.201 A 
ATOM     83  C   UNL A   1      32.955  27.236  25.401  1.00  0.00     0.069 A 
ATOM     84  N   UNL A   1      33.689  28.517  23.664  1.00  0.00    -0.237 NA
ATOM     85  C   UNL A   1      33.048  28.526  24.881  1.00  0.00     0.088 A 
ATOM     86  C   UNL A   1      32.367  26.988  26.655  1.00  0.00     0.028 A 
ATOM     87  C   UNL A   1      32.502  29.601  25.600  1.00  0.00     0.030 A 
ATOM     88  C   UNL A   1      31.813  28.066  27.348  1.00  0.00     0.002 A 
ATOM     89  C   UNL A   1      31.869  29.352  26.824  1.00  0.00     0.002 A 
ENDBRANCH  74  81
BRANCH  79  90
ATOM     90  C   UNL A   1      32.003  21.061  22.708  1.00  0.00     0.301 C 
BRANCH  90  91
ATOM     91  C   UNL A   1      32.405  20.005  23.712  1.00  0.00     0.038 A 
ATOM     92  C   UNL A   1      32.322  20.199  25.121  1.00  0.00     0.012 A 
ATOM     93  C   UNL A   1      32.803  18.685  23.378  1.00  0.00     0.144 A 
ATOM     94  C   UNL A   1      32.681  19.221  26.096  1.00  0.00     0.003 A 
ATOM     95  C   UNL A   1      33.145  17.673  24.380  1.00  0.00     0.135 A 
ATOM     96  N   UNL A   1      32.915  18.115  22.168  1.00  0.00    -0.049 NA
ATOM     97  C   UNL A   1      33.117  17.928  25.762  1.00  0.00     0.034 A 
ATOM     98  N   UNL A   1      33.456  16.536  23.744  1.00  0.00    -0.050 NA
ATOM     99  O   UNL A   1      33.340  16.818  22.395  1.00  0.00    -0.243 OA
ENDBRANCH  90  91
ENDBRANCH  79  90
ENDBRANCH  72  74
ENDBRANCH  71  72
ENDBRANCH  70  71
ENDBRANCH   1  70
TORSDOF 17
ENDMDL
MODEL 3
REMARK VINA RESULT:     -12.8      2.714      6.685
REMARK SMILES O=C(OCCOC(=O)C1(n2cnc3ccccc32)CC[NH+](Cc2cccc3nonc23)CC1)c1ccc(-c2c3nc(c(-c4cc(S(=O)(=O)[O-])ccc4F)c4ccc([nH]4)c(-c4cc(S(=O)(=O)[O-])ccc4F)c4nc(c(-c5cc(S(=O)(=O)[O-])ccc5F)c5ccc2[nH]5)C=C4)C=C3)cc1
REMARK SMILES IDX 4 1 3 2 2 3 1 4 34 5 35 6 96 7 36 8 95 9 37 10 38 11 39 12
REMARK SMILES IDX 89 13 40 14 94 15 88 16 90 17 41 18 93 19 87 20 86 21 42 23
REMARK SMILES IDX 74 24 54 25 73 26 55 27 58 28 72 29 91 30 56 31 57 32 71 34
REMARK SMILES IDX 92 35 59 36 43 37 44 38 52 39 45 40 51 41 53 42 50 43 46 44
REMARK SMILES IDX 47 45 48 46 49 47 75 48 76 49 84 50 77 51 83 52 85 53 82 54
REMARK SMILES IDX 78 55 79 56 80 57 81 58 60 59 61 60 69 61 62 62 68 63 70 64
REMARK SMILES IDX 67 65 63 66 64 67 65 68 66 69 5 70 6 71 7 72 8 73 9 74 19 75
REMARK SMILES IDX 33 76 20 77 32 78 21 79 10 81 11 82 18 83 12 84 13 85 17 86
REMARK SMILES IDX 14 87 16 88 15 89 22 90 23 91 24 92 31 93 25 94 27 95 30 96
REMARK SMILES IDX 26 97 28 98 29 99
REMARK H PARENT 90 22 58 33 21 80
REMARK Flexibility Score: inf
ROOT
ATOM      1  C   UNL A   1      33.437  31.046  27.572  1.00  0.00     0.275 C 
ENDROOT
BRANCH   1   2
ATOM      2  O   UNL A   1      34.818  31.408  27.784  1.00  0.00    -0.458 OA
BRANCH   2   3
ATOM      3  C   UNL A   1      35.553  30.982  28.846  1.00  0.00     0.338 C 
ATOM      4  O   UNL A   1      35.520  31.545  29.931  1.00  0.00    -0.246 OA
BRANCH   3   5
ATOM      5  C   UNL A   1      36.578  29.975  28.534  1.00  0.00     0.060 A 
ATOM      6  C   UNL A   1      36.979  29.239  29.626  1.00  0.00     0.016 A 
ATOM      7  C   UNL A   1      37.315  29.940  27.352  1.00  0.00     0.016 A 
ATOM      8  C   UNL A   1      38.252  28.713  29.650  1.00  0.00     0.010 A 
ATOM      9  C   UNL A   1      38.592  29.361  27.370  1.00  0.00     0.010 A 
ATOM     10  C   UNL A   1      39.113  28.863  28.567  1.00  0.00    -0.014 A 
BRANCH  10  11
ATOM     11  C   UNL A   1      40.519  28.494  28.847  1.00  0.00     0.031 A 
ATOM     12  C   UNL A   1      40.996  27.226  28.205  1.00  0.00     0.074 A 
ATOM     13  C   UNL A   1      41.324  29.190  29.679  1.00  0.00     0.049 A 
ATOM     14  N   UNL A   1      41.614  26.222  28.752  1.00  0.00    -0.248 NA
ATOM     15  C   UNL A   1      40.573  26.985  26.813  1.00  0.00     0.031 C 
ATOM     16  C   UNL A   1      41.026  30.492  30.281  1.00  0.00     0.029 A 
ATOM     17  N   UNL A   1      42.627  28.961  30.052  1.00  0.00    -0.354 N 
ATOM     18  C   UNL A   1      41.809  25.302  27.719  1.00  0.00     0.074 A 
ATOM     19  C   UNL A   1      40.976  25.732  26.626  1.00  0.00     0.031 C 
ATOM     20  C   UNL A   1      42.183  31.067  30.661  1.00  0.00     0.029 A 
ATOM     21  C   UNL A   1      43.271  30.131  30.434  1.00  0.00     0.049 A 
ATOM     22  H   UNL A   1      43.054  28.073  30.048  1.00  0.00     0.167 HD
ATOM     23  C   UNL A   1      42.833  24.403  27.701  1.00  0.00     0.034 A 
ATOM     24  C   UNL A   1      44.597  30.400  30.386  1.00  0.00     0.034 A 
ATOM     25  C   UNL A   1      43.414  24.157  28.986  1.00  0.00     0.049 A 
ATOM     26  C   UNL A   1      45.394  29.157  30.399  1.00  0.00     0.074 A 
ATOM     27  C   UNL A   1      43.327  23.203  29.973  1.00  0.00     0.029 A 
ATOM     28  N   UNL A   1      44.193  25.167  29.466  1.00  0.00    -0.354 N 
ATOM     29  N   UNL A   1      45.550  28.399  31.446  1.00  0.00    -0.248 NA
ATOM     30  C   UNL A   1      45.847  28.579  29.136  1.00  0.00     0.031 C 
ATOM     31  C   UNL A   1      44.056  23.703  31.092  1.00  0.00     0.029 A 
ATOM     32  C   UNL A   1      44.573  24.953  30.764  1.00  0.00     0.049 A 
ATOM     33  H   UNL A   1      44.453  25.958  28.941  1.00  0.00     0.167 HD
ATOM     34  C   UNL A   1      45.690  27.133  30.921  1.00  0.00     0.074 A 
ATOM     35  C   UNL A   1      46.068  27.322  29.528  1.00  0.00     0.031 C 
ATOM     36  C   UNL A   1      45.136  26.048  31.530  1.00  0.00     0.034 A 
BRANCH  23  37
ATOM     37  C   UNL A   1      43.590  24.081  26.426  1.00  0.00     0.023 A 
ATOM     38  C   UNL A   1      44.817  24.700  26.118  1.00  0.00     0.031 A 
ATOM     39  C   UNL A   1      43.251  22.977  25.622  1.00  0.00     0.131 A 
ATOM     40  C   UNL A   1      45.620  24.287  25.052  1.00  0.00     0.055 A 
ATOM     41  C   UNL A   1      44.093  22.509  24.598  1.00  0.00     0.041 A 
ATOM     42  F   UNL A   1      42.120  22.286  25.832  1.00  0.00    -0.206 F 
ATOM     43  C   UNL A   1      45.282  23.169  24.303  1.00  0.00     0.022 A 
BRANCH  40  44
ATOM     44  S   UNL A   1      47.122  25.221  24.647  1.00  0.00     0.124 S 
ATOM     45  O   UNL A   1      46.588  26.554  24.399  1.00  0.00    -0.237 OA
ATOM     46  O   UNL A   1      47.909  25.064  25.868  1.00  0.00    -0.237 OA
ATOM     47  O   UNL A   1      47.653  24.520  23.480  1.00  0.00    -0.744 OA
ENDBRANCH  40  44
ENDBRANCH  23  37
BRANCH  24  48
ATOM     48  C   UNL A   1      45.165  31.670  29.877  1.00  0.00     0.023 A 
ATOM     49  C   UNL A   1      44.954  32.034  28.534  1.00  0.00     0.031 A 
ATOM     50  C   UNL A   1      46.135  32.385  30.594  1.00  0.00     0.131 A 
ATOM     51  C   UNL A   1      45.706  33.047  27.936  1.00  0.00     0.055 A 
ATOM     52  C   UNL A   1      46.889  33.402  29.997  1.00  0.00     0.041 A 
ATOM     53  F   UNL A   1      46.413  32.064  31.867  1.00  0.00    -0.206 F 
ATOM     54  C   UNL A   1      46.682  33.732  28.659  1.00  0.00     0.022 A 
BRANCH  51  55
ATOM     55  S   UNL A   1      45.455  33.435  26.185  1.00  0.00     0.124 S 
ATOM     56  O   UNL A   1      46.738  34.025  25.810  1.00  0.00    -0.237 OA
ATOM     57  O   UNL A   1      45.178  32.117  25.627  1.00  0.00    -0.237 OA
ATOM     58  O   UNL A   1      44.330  34.368  26.199  1.00  0.00    -0.744 OA
ENDBRANCH  51  55
ENDBRANCH  24  48
BRANCH  36  59
ATOM     59  C   UNL A   1      44.896  26.088  33.012  1.00  0.00     0.023 A 
ATOM     60  C   UNL A   1      43.615  26.474  33.448  1.00  0.00     0.031 A 
ATOM     61  C   UNL A   1      45.891  25.905  33.988  1.00  0.00     0.131 A 
ATOM     62  C   UNL A   1      43.375  26.722  34.803  1.00  0.00     0.055 A 
ATOM     63  C   UNL A   1      45.622  26.067  35.350  1.00  0.00     0.041 A 
ATOM     64  F   UNL A   1      47.168  25.667  33.651  1.00  0.00    -0.206 F 
ATOM     65  C   UNL A   1      44.365  26.497  35.763  1.00  0.00     0.022 A 
BRANCH  62  66
ATOM     66  S   UNL A   1      41.836  27.521  35.323  1.00  0.00     0.124 S 
ATOM     67  O   UNL A   1      40.985  26.379  35.640  1.00  0.00    -0.237 OA
ATOM     68  O   UNL A   1      42.278  28.315  36.467  1.00  0.00    -0.237 OA
ATOM     69  O   UNL A   1      41.432  28.299  34.155  1.00  0.00    -0.744 OA
ENDBRANCH  62  66
ENDBRANCH  36  59
ENDBRANCH  10  11
ENDBRANCH   3   5
ENDBRANCH   2   3
ENDBRANCH   1   2
BRANCH   1  70
ATOM     70  C   UNL A   1      33.167  29.575  27.203  1.00  0.00     0.274 C 
BRANCH  70  71
ATOM     71  O   UNL A   1      32.098  29.290  26.269  1.00  0.00    -0.460 OA
BRANCH  71  72
ATOM     72  C   UNL A   1      31.605  28.026  26.290  1.00  0.00     0.332 C 
ATOM     73  O   UNL A   1      31.190  27.514  27.330  1.00  0.00    -0.249 OA
BRANCH  72  74
ATOM     74  C   UNL A   1      31.756  27.203  24.964  1.00  0.00     0.154 C 
ATOM     75  C   UNL A   1      30.910  25.975  24.526  1.00  0.00     0.102 C 
ATOM     76  C   UNL A   1      33.210  26.638  25.014  1.00  0.00     0.102 C 
ATOM     77  C   UNL A   1      31.197  24.580  25.094  1.00  0.00     0.265 C 
ATOM     78  C   UNL A   1      33.327  25.473  26.021  1.00  0.00     0.265 C 
ATOM     79  N   UNL A   1      32.521  24.338  25.618  1.00  0.00    -0.331 N 
ATOM     80  H   UNL A   1      33.026  24.138  24.754  1.00  0.00     0.348 HD
BRANCH  74  81
ATOM     81  N   UNL A   1      31.516  28.217  23.899  1.00  0.00    -0.313 N 
ATOM     82  C   UNL A   1      32.455  28.804  23.096  1.00  0.00     0.201 A 
ATOM     83  C   UNL A   1      30.268  28.644  23.454  1.00  0.00     0.069 A 
ATOM     84  N   UNL A   1      31.911  29.514  22.135  1.00  0.00    -0.237 NA
ATOM     85  C   UNL A   1      30.553  29.403  22.319  1.00  0.00     0.088 A 
ATOM     86  C   UNL A   1      28.945  28.413  23.872  1.00  0.00     0.028 A 
ATOM     87  C   UNL A   1      29.497  29.914  21.547  1.00  0.00     0.030 A 
ATOM     88  C   UNL A   1      27.908  28.913  23.083  1.00  0.00     0.002 A 
ATOM     89  C   UNL A   1      28.179  29.643  21.931  1.00  0.00     0.002 A 
ENDBRANCH  74  81
BRANCH  79  90
ATOM     90  C   UNL A   1      32.685  23.081  26.372  1.00  0.00     0.301 C 
BRANCH  90  91
ATOM     91  C   UNL A   1      33.650  22.038  25.856  1.00  0.00     0.038 A 
ATOM     92  C   UNL A   1      35.065  22.172  25.951  1.00  0.00     0.012 A 
ATOM     93  C   UNL A   1      33.268  20.779  25.326  1.00  0.00     0.144 A 
ATOM     94  C   UNL A   1      36.004  21.203  25.487  1.00  0.00     0.003 A 
ATOM     95  C   UNL A   1      34.233  19.773  24.875  1.00  0.00     0.135 A 
ATOM     96  N   UNL A   1      32.039  20.267  25.161  1.00  0.00    -0.049 NA
ATOM     97  C   UNL A   1      35.623  19.975  24.921  1.00  0.00     0.034 A 
ATOM     98  N   UNL A   1      33.557  18.698  24.451  1.00  0.00    -0.050 NA
ATOM     99  O   UNL A   1      32.219  19.014  24.602  1.00  0.00    -0.243 OA
ENDBRANCH  90  91
ENDBRANCH  79  90
ENDBRANCH  72  74
ENDBRANCH  71  72
ENDBRANCH  70  71
ENDBRANCH   1  70
TORSDOF 17
ENDMDL
