MODEL 1
REMARK VINA RESULT:     -10.1      0.000      0.000
REMARK SMILES O=C(/C=C/c1c(Cl)cccc1Cl)NCC(=O)OCCOC(=O)c1ccc(-c2c3nc(c(-c4cc(S(=O)(=O)[O-])ccc4F)c4ccc([nH]4)c(-c4cc(S(=O)(=O)[O-])ccc4F)c4nc(c(-c5cc(S(=O)(=O)[O-])ccc5F)c5ccc2[nH]5)C=C4)C=C3)cc1
REMARK SMILES IDX 18 1 17 2 15 3 16 4 14 5 13 6 1 7 2 8 3 10 4 11 5 12 6 13
REMARK SMILES IDX 11 14 7 15 8 16 10 17 12 18 9 19 19 20 20 21 21 22 22 23
REMARK SMILES IDX 23 24 24 25 85 26 25 27 84 28 26 29 27 30 28 31 78 32 29 33
REMARK SMILES IDX 83 34 77 35 79 36 30 37 82 38 76 39 75 40 31 42 63 43 43 44
REMARK SMILES IDX 62 45 44 46 47 47 61 48 80 49 45 50 46 51 60 53 81 54 48 55
REMARK SMILES IDX 32 56 33 57 41 58 34 59 40 60 42 61 39 62 35 63 36 64 37 65
REMARK SMILES IDX 38 66 64 67 65 68 73 69 66 70 72 71 74 72 71 73 67 74 68 75
REMARK SMILES IDX 69 76 70 77 49 78 50 79 58 80 51 81 57 82 59 83 56 84 52 85
REMARK SMILES IDX 53 86 54 87 55 88
REMARK H PARENT 13 9 79 41 47 52
REMARK Flexibility Score: inf
ROOT
ATOM      1  C   UNL A   1      33.311  34.964  29.083  1.00  0.00     0.274 C 
ENDROOT
BRANCH   1   2
ATOM      2  O   UNL A   1      32.501  35.279  30.228  1.00  0.00    -0.461 OA
BRANCH   2   3
ATOM      3  C   UNL A   1      32.945  36.275  31.043  1.00  0.00     0.325 C 
ATOM      4  O   UNL A   1      32.868  37.471  30.788  1.00  0.00    -0.250 OA
BRANCH   3   5
ATOM      5  C   UNL A   1      33.575  35.736  32.324  1.00  0.00     0.239 C 
BRANCH   5   6
ATOM      6  N   UNL A   1      35.001  35.456  32.237  1.00  0.00    -0.342 N 
ATOM      7  O   UNL A   1      34.803  33.238  32.757  1.00  0.00    -0.270 OA
ATOM      8  C   UNL A   1      35.493  34.200  32.434  1.00  0.00     0.244 C 
ATOM      9  H   UNL A   1      35.624  36.190  32.030  1.00  0.00     0.164 HD
BRANCH   8  10
ATOM     10  C   UNL A   1      36.956  34.013  32.292  1.00  0.00     0.072 C 
ATOM     11  C   UNL A   1      37.866  34.955  32.000  1.00  0.00     0.017 C 
BRANCH  11  12
ATOM     12  C   UNL A   1      39.286  34.588  31.815  1.00  0.00     0.012 A 
ATOM     13  C   UNL A   1      39.818  34.291  30.542  1.00  0.00     0.049 A 
ATOM     14  C   UNL A   1      40.151  34.495  32.922  1.00  0.00     0.049 A 
ATOM     15  Cl  UNL A   1      38.875  34.410  29.093  1.00  0.00    -0.084 Cl
ATOM     16  C   UNL A   1      41.151  33.886  30.393  1.00  0.00     0.021 A 
ATOM     17  C   UNL A   1      41.485  34.095  32.766  1.00  0.00     0.021 A 
ATOM     18  Cl  UNL A   1      39.616  34.839  34.534  1.00  0.00    -0.084 Cl
ATOM     19  C   UNL A   1      41.983  33.783  31.502  1.00  0.00     0.003 A 
ENDBRANCH  11  12
ENDBRANCH   8  10
ENDBRANCH   5   6
ENDBRANCH   3   5
ENDBRANCH   2   3
ENDBRANCH   1   2
BRANCH   1  20
ATOM     20  C   UNL A   1      33.955  33.587  29.266  1.00  0.00     0.275 C 
BRANCH  20  21
ATOM     21  O   UNL A   1      34.416  33.039  28.016  1.00  0.00    -0.458 OA
BRANCH  21  22
ATOM     22  C   UNL A   1      34.333  31.691  27.899  1.00  0.00     0.338 C 
ATOM     23  O   UNL A   1      33.417  31.045  27.414  1.00  0.00    -0.246 OA
BRANCH  22  24
ATOM     24  C   UNL A   1      35.610  31.083  28.314  1.00  0.00     0.060 A 
ATOM     25  C   UNL A   1      35.556  29.853  28.975  1.00  0.00     0.016 A 
ATOM     26  C   UNL A   1      36.832  31.730  28.119  1.00  0.00     0.016 A 
ATOM     27  C   UNL A   1      36.723  29.268  29.457  1.00  0.00     0.010 A 
ATOM     28  C   UNL A   1      38.005  31.140  28.603  1.00  0.00     0.010 A 
ATOM     29  C   UNL A   1      37.956  29.912  29.286  1.00  0.00    -0.014 A 
BRANCH  29  30
ATOM     30  C   UNL A   1      39.178  29.315  29.879  1.00  0.00     0.031 A 
ATOM     31  C   UNL A   1      39.677  29.805  31.210  1.00  0.00     0.074 A 
ATOM     32  C   UNL A   1      39.812  28.315  29.241  1.00  0.00     0.049 A 
ATOM     33  N   UNL A   1      40.743  29.451  31.878  1.00  0.00    -0.248 NA
ATOM     34  C   UNL A   1      38.863  30.835  31.872  1.00  0.00     0.031 C 
ATOM     35  C   UNL A   1      39.393  27.730  27.967  1.00  0.00     0.029 A 
ATOM     36  N   UNL A   1      40.942  27.612  29.576  1.00  0.00    -0.354 N 
ATOM     37  C   UNL A   1      40.740  30.219  33.036  1.00  0.00     0.074 A 
ATOM     38  C   UNL A   1      39.578  31.083  32.960  1.00  0.00     0.031 C 
ATOM     39  C   UNL A   1      40.252  26.755  27.630  1.00  0.00     0.029 A 
ATOM     40  C   UNL A   1      41.308  26.678  28.635  1.00  0.00     0.049 A 
ATOM     41  H   UNL A   1      41.443  27.762  30.410  1.00  0.00     0.167 HD
ATOM     42  C   UNL A   1      41.622  30.201  34.067  1.00  0.00     0.034 A 
ATOM     43  C   UNL A   1      42.388  25.873  28.577  1.00  0.00     0.034 A 
ATOM     44  C   UNL A   1      42.775  29.335  34.121  1.00  0.00     0.049 A 
ATOM     45  C   UNL A   1      43.393  25.921  29.699  1.00  0.00     0.074 A 
ATOM     46  C   UNL A   1      43.728  29.226  35.120  1.00  0.00     0.029 A 
ATOM     47  N   UNL A   1      43.141  28.433  33.128  1.00  0.00    -0.354 N 
ATOM     48  N   UNL A   1      43.384  26.661  30.785  1.00  0.00    -0.248 NA
ATOM     49  C   UNL A   1      44.551  25.026  29.589  1.00  0.00     0.031 C 
ATOM     50  C   UNL A   1      44.700  28.309  34.704  1.00  0.00     0.029 A 
ATOM     51  C   UNL A   1      44.318  27.789  33.477  1.00  0.00     0.049 A 
ATOM     52  H   UNL A   1      42.636  28.275  32.297  1.00  0.00     0.167 HD
ATOM     53  C   UNL A   1      44.523  26.301  31.499  1.00  0.00     0.074 A 
ATOM     54  C   UNL A   1      45.187  25.270  30.727  1.00  0.00     0.031 C 
ATOM     55  C   UNL A   1      44.976  26.774  32.688  1.00  0.00     0.034 A 
BRANCH  42  56
ATOM     56  C   UNL A   1      41.397  31.191  35.186  1.00  0.00     0.023 A 
ATOM     57  C   UNL A   1      40.245  31.155  35.990  1.00  0.00     0.031 A 
ATOM     58  C   UNL A   1      42.336  32.210  35.427  1.00  0.00     0.131 A 
ATOM     59  C   UNL A   1      40.026  32.160  36.946  1.00  0.00     0.055 A 
ATOM     60  C   UNL A   1      42.149  33.161  36.431  1.00  0.00     0.041 A 
ATOM     61  F   UNL A   1      43.444  32.309  34.675  1.00  0.00    -0.206 F 
ATOM     62  C   UNL A   1      40.982  33.149  37.187  1.00  0.00     0.022 A 
BRANCH  59  63
ATOM     63  S   UNL A   1      38.410  32.243  37.765  1.00  0.00     0.124 S 
ATOM     64  O   UNL A   1      38.789  32.181  39.175  1.00  0.00    -0.237 OA
ATOM     65  O   UNL A   1      37.884  33.520  37.299  1.00  0.00    -0.237 OA
ATOM     66  O   UNL A   1      37.711  31.059  37.266  1.00  0.00    -0.744 OA
ENDBRANCH  59  63
ENDBRANCH  42  56
BRANCH  43  67
ATOM     67  C   UNL A   1      42.602  24.989  27.396  1.00  0.00     0.023 A 
ATOM     68  C   UNL A   1      42.076  23.689  27.353  1.00  0.00     0.031 A 
ATOM     69  C   UNL A   1      43.373  25.427  26.303  1.00  0.00     0.131 A 
ATOM     70  C   UNL A   1      42.358  22.857  26.258  1.00  0.00     0.055 A 
ATOM     71  C   UNL A   1      43.608  24.614  25.194  1.00  0.00     0.041 A 
ATOM     72  F   UNL A   1      43.900  26.661  26.295  1.00  0.00    -0.206 F 
ATOM     73  C   UNL A   1      43.108  23.316  25.172  1.00  0.00     0.022 A 
BRANCH  70  74
ATOM     74  S   UNL A   1      41.791  21.135  26.304  1.00  0.00     0.124 S 
ATOM     75  O   UNL A   1      40.409  21.264  25.858  1.00  0.00    -0.237 OA
ATOM     76  O   UNL A   1      42.710  20.489  25.372  1.00  0.00    -0.237 OA
ATOM     77  O   UNL A   1      41.962  20.759  27.706  1.00  0.00    -0.744 OA
ENDBRANCH  70  74
ENDBRANCH  43  67
BRANCH  55  78
ATOM     78  C   UNL A   1      46.232  26.144  33.239  1.00  0.00     0.023 A 
ATOM     79  C   UNL A   1      46.186  25.122  34.204  1.00  0.00     0.031 A 
ATOM     80  C   UNL A   1      47.493  26.586  32.800  1.00  0.00     0.131 A 
ATOM     81  C   UNL A   1      47.379  24.611  34.736  1.00  0.00     0.055 A 
ATOM     82  C   UNL A   1      48.676  26.035  33.293  1.00  0.00     0.041 A 
ATOM     83  F   UNL A   1      47.593  27.559  31.881  1.00  0.00    -0.206 F 
ATOM     84  C   UNL A   1      48.624  25.050  34.276  1.00  0.00     0.022 A 
BRANCH  81  85
ATOM     85  S   UNL A   1      47.287  23.419  36.100  1.00  0.00     0.124 S 
ATOM     86  O   UNL A   1      48.338  22.470  35.745  1.00  0.00    -0.237 OA
ATOM     87  O   UNL A   1      47.550  24.255  37.266  1.00  0.00    -0.237 OA
ATOM     88  O   UNL A   1      45.924  22.896  36.008  1.00  0.00    -0.744 OA
ENDBRANCH  81  85
ENDBRANCH  55  78
ENDBRANCH  29  30
ENDBRANCH  22  24
ENDBRANCH  21  22
ENDBRANCH  20  21
ENDBRANCH   1  20
TORSDOF 17
ENDMDL
MODEL 2
REMARK VINA RESULT:      -9.6      5.812      9.935
REMARK SMILES O=C(/C=C/c1c(Cl)cccc1Cl)NCC(=O)OCCOC(=O)c1ccc(-c2c3nc(c(-c4cc(S(=O)(=O)[O-])ccc4F)c4ccc([nH]4)c(-c4cc(S(=O)(=O)[O-])ccc4F)c4nc(c(-c5cc(S(=O)(=O)[O-])ccc5F)c5ccc2[nH]5)C=C4)C=C3)cc1
REMARK SMILES IDX 18 1 17 2 15 3 16 4 14 5 13 6 1 7 2 8 3 10 4 11 5 12 6 13
REMARK SMILES IDX 11 14 7 15 8 16 10 17 12 18 9 19 19 20 20 21 21 22 22 23
REMARK SMILES IDX 23 24 24 25 85 26 25 27 84 28 26 29 27 30 28 31 78 32 29 33
REMARK SMILES IDX 83 34 77 35 79 36 30 37 82 38 76 39 75 40 31 42 63 43 43 44
REMARK SMILES IDX 62 45 44 46 47 47 61 48 80 49 45 50 46 51 60 53 81 54 48 55
REMARK SMILES IDX 32 56 33 57 41 58 34 59 40 60 42 61 39 62 35 63 36 64 37 65
REMARK SMILES IDX 38 66 64 67 65 68 73 69 66 70 72 71 74 72 71 73 67 74 68 75
REMARK SMILES IDX 69 76 70 77 49 78 50 79 58 80 51 81 57 82 59 83 56 84 52 85
REMARK SMILES IDX 53 86 54 87 55 88
REMARK H PARENT 13 9 79 41 47 52
REMARK Flexibility Score: inf
ROOT
ATOM      1  C   UNL A   1      36.102  19.849  24.804  1.00  0.00     0.274 C 
ENDROOT
BRANCH   1   2
ATOM      2  O   UNL A   1      35.322  20.695  25.664  1.00  0.00    -0.461 OA
BRANCH   2   3
ATOM      3  C   UNL A   1      33.968  20.576  25.582  1.00  0.00     0.325 C 
ATOM      4  O   UNL A   1      33.380  19.807  24.832  1.00  0.00    -0.250 OA
BRANCH   3   5
ATOM      5  C   UNL A   1      33.245  21.529  26.531  1.00  0.00     0.239 C 
BRANCH   5   6
ATOM      6  N   UNL A   1      32.988  22.856  25.991  1.00  0.00    -0.342 N 
ATOM      7  O   UNL A   1      31.591  23.497  27.683  1.00  0.00    -0.270 OA
ATOM      8  C   UNL A   1      32.194  23.750  26.644  1.00  0.00     0.244 C 
ATOM      9  H   UNL A   1      33.399  23.115  25.133  1.00  0.00     0.164 HD
BRANCH   8  10
ATOM     10  C   UNL A   1      32.022  25.085  26.028  1.00  0.00     0.072 C 
ATOM     11  C   UNL A   1      31.052  25.977  26.289  1.00  0.00     0.017 C 
BRANCH  11  12
ATOM     12  C   UNL A   1      30.975  27.240  25.527  1.00  0.00     0.012 A 
ATOM     13  C   UNL A   1      30.282  27.329  24.300  1.00  0.00     0.049 A 
ATOM     14  C   UNL A   1      31.624  28.398  25.993  1.00  0.00     0.049 A 
ATOM     15  Cl  UNL A   1      29.403  25.991  23.635  1.00  0.00    -0.084 Cl
ATOM     16  C   UNL A   1      30.270  28.518  23.560  1.00  0.00     0.021 A 
ATOM     17  C   UNL A   1      31.605  29.588  25.252  1.00  0.00     0.021 A 
ATOM     18  Cl  UNL A   1      32.503  28.417  27.487  1.00  0.00    -0.084 Cl
ATOM     19  C   UNL A   1      30.934  29.646  24.032  1.00  0.00     0.003 A 
ENDBRANCH  11  12
ENDBRANCH   8  10
ENDBRANCH   5   6
ENDBRANCH   3   5
ENDBRANCH   2   3
ENDBRANCH   1   2
BRANCH   1  20
ATOM     20  C   UNL A   1      37.505  20.437  24.631  1.00  0.00     0.275 C 
BRANCH  20  21
ATOM     21  O   UNL A   1      37.920  21.187  25.789  1.00  0.00    -0.458 OA
BRANCH  21  22
ATOM     22  C   UNL A   1      39.190  20.968  26.207  1.00  0.00     0.338 C 
ATOM     23  O   UNL A   1      39.832  19.933  26.113  1.00  0.00    -0.246 OA
BRANCH  22  24
ATOM     24  C   UNL A   1      39.779  22.235  26.676  1.00  0.00     0.060 A 
ATOM     25  C   UNL A   1      39.289  23.422  26.123  1.00  0.00     0.016 A 
ATOM     26  C   UNL A   1      40.833  22.263  27.592  1.00  0.00     0.016 A 
ATOM     27  C   UNL A   1      39.858  24.642  26.473  1.00  0.00     0.010 A 
ATOM     28  C   UNL A   1      41.404  23.491  27.944  1.00  0.00     0.010 A 
ATOM     29  C   UNL A   1      40.928  24.687  27.376  1.00  0.00    -0.014 A 
BRANCH  29  30
ATOM     30  C   UNL A   1      41.577  25.987  27.673  1.00  0.00     0.031 A 
ATOM     31  C   UNL A   1      40.834  27.028  28.464  1.00  0.00     0.074 A 
ATOM     32  C   UNL A   1      42.840  26.215  27.266  1.00  0.00     0.049 A 
ATOM     33  N   UNL A   1      41.201  28.239  28.792  1.00  0.00    -0.248 NA
ATOM     34  C   UNL A   1      39.497  26.651  28.944  1.00  0.00     0.031 C 
ATOM     35  C   UNL A   1      43.671  25.261  26.531  1.00  0.00     0.029 A 
ATOM     36  N   UNL A   1      43.644  27.317  27.412  1.00  0.00    -0.354 N 
ATOM     37  C   UNL A   1      40.139  28.777  29.509  1.00  0.00     0.074 A 
ATOM     38  C   UNL A   1      39.101  27.767  29.538  1.00  0.00     0.031 C 
ATOM     39  C   UNL A   1      44.870  25.818  26.294  1.00  0.00     0.029 A 
ATOM     40  C   UNL A   1      44.875  27.182  26.815  1.00  0.00     0.049 A 
ATOM     41  H   UNL A   1      43.365  28.126  27.899  1.00  0.00     0.167 HD
ATOM     42  C   UNL A   1      40.043  29.999  30.092  1.00  0.00     0.034 A 
ATOM     43  C   UNL A   1      45.881  28.069  26.678  1.00  0.00     0.034 A 
ATOM     44  C   UNL A   1      41.089  30.993  30.048  1.00  0.00     0.049 A 
ATOM     45  C   UNL A   1      45.724  29.446  27.271  1.00  0.00     0.074 A 
ATOM     46  C   UNL A   1      41.103  32.258  30.611  1.00  0.00     0.029 A 
ATOM     47  N   UNL A   1      42.307  30.840  29.394  1.00  0.00    -0.354 N 
ATOM     48  N   UNL A   1      44.709  29.947  27.939  1.00  0.00    -0.248 NA
ATOM     49  C   UNL A   1      46.847  30.374  27.095  1.00  0.00     0.031 C 
ATOM     50  C   UNL A   1      42.297  32.890  30.245  1.00  0.00     0.029 A 
ATOM     51  C   UNL A   1      43.062  31.996  29.513  1.00  0.00     0.049 A 
ATOM     52  H   UNL A   1      42.590  30.027  28.915  1.00  0.00     0.167 HD
ATOM     53  C   UNL A   1      45.084  31.242  28.283  1.00  0.00     0.074 A 
ATOM     54  C   UNL A   1      46.421  31.439  27.761  1.00  0.00     0.031 C 
ATOM     55  C   UNL A   1      44.390  32.182  28.973  1.00  0.00     0.034 A 
BRANCH  42  56
ATOM     56  C   UNL A   1      38.739  30.340  30.772  1.00  0.00     0.023 A 
ATOM     57  C   UNL A   1      37.684  30.970  30.086  1.00  0.00     0.031 A 
ATOM     58  C   UNL A   1      38.561  30.063  32.139  1.00  0.00     0.131 A 
ATOM     59  C   UNL A   1      36.533  31.367  30.785  1.00  0.00     0.055 A 
ATOM     60  C   UNL A   1      37.382  30.390  32.810  1.00  0.00     0.041 A 
ATOM     61  F   UNL A   1      39.542  29.484  32.851  1.00  0.00    -0.206 F 
ATOM     62  C   UNL A   1      36.365  31.060  32.137  1.00  0.00     0.022 A 
BRANCH  59  63
ATOM     63  S   UNL A   1      35.322  32.418  29.937  1.00  0.00     0.124 S 
ATOM     64  O   UNL A   1      34.865  31.538  28.864  1.00  0.00    -0.237 OA
ATOM     65  O   UNL A   1      34.355  32.698  30.991  1.00  0.00    -0.237 OA
ATOM     66  O   UNL A   1      36.114  33.565  29.494  1.00  0.00    -0.744 OA
ENDBRANCH  59  63
ENDBRANCH  42  56
BRANCH  43  67
ATOM     67  C   UNL A   1      47.105  27.702  25.909  1.00  0.00     0.023 A 
ATOM     68  C   UNL A   1      47.204  27.955  24.533  1.00  0.00     0.031 A 
ATOM     69  C   UNL A   1      48.182  27.055  26.541  1.00  0.00     0.131 A 
ATOM     70  C   UNL A   1      48.339  27.530  23.825  1.00  0.00     0.055 A 
ATOM     71  C   UNL A   1      49.330  26.680  25.843  1.00  0.00     0.041 A 
ATOM     72  F   UNL A   1      48.136  26.787  27.856  1.00  0.00    -0.206 F 
ATOM     73  C   UNL A   1      49.408  26.908  24.473  1.00  0.00     0.022 A 
BRANCH  70  74
ATOM     74  S   UNL A   1      48.368  27.737  22.023  1.00  0.00     0.124 S 
ATOM     75  O   UNL A   1      47.049  28.302  21.766  1.00  0.00    -0.237 OA
ATOM     76  O   UNL A   1      49.500  28.639  21.840  1.00  0.00    -0.237 OA
ATOM     77  O   UNL A   1      48.572  26.377  21.528  1.00  0.00    -0.744 OA
ENDBRANCH  70  74
ENDBRANCH  43  67
BRANCH  55  78
ATOM     78  C   UNL A   1      45.089  33.493  29.235  1.00  0.00     0.023 A 
ATOM     79  C   UNL A   1      44.962  34.588  28.362  1.00  0.00     0.031 A 
ATOM     80  C   UNL A   1      45.908  33.640  30.368  1.00  0.00     0.131 A 
ATOM     81  C   UNL A   1      45.683  35.766  28.611  1.00  0.00     0.055 A 
ATOM     82  C   UNL A   1      46.580  34.833  30.640  1.00  0.00     0.041 A 
ATOM     83  F   UNL A   1      46.066  32.625  31.233  1.00  0.00    -0.206 F 
ATOM     84  C   UNL A   1      46.478  35.900  29.752  1.00  0.00     0.022 A 
BRANCH  81  85
ATOM     85  S   UNL A   1      45.631  37.096  27.380  1.00  0.00     0.124 S 
ATOM     86  O   UNL A   1      46.617  36.645  26.403  1.00  0.00    -0.237 OA
ATOM     87  O   UNL A   1      44.240  37.065  26.942  1.00  0.00    -0.237 OA
ATOM     88  O   UNL A   1      46.012  38.285  28.142  1.00  0.00    -0.744 OA
ENDBRANCH  81  85
ENDBRANCH  55  78
ENDBRANCH  29  30
ENDBRANCH  22  24
ENDBRANCH  21  22
ENDBRANCH  20  21
ENDBRANCH   1  20
TORSDOF 17
ENDMDL
MODEL 3
REMARK VINA RESULT:      -9.6      1.580      2.048
REMARK SMILES O=C(/C=C/c1c(Cl)cccc1Cl)NCC(=O)OCCOC(=O)c1ccc(-c2c3nc(c(-c4cc(S(=O)(=O)[O-])ccc4F)c4ccc([nH]4)c(-c4cc(S(=O)(=O)[O-])ccc4F)c4nc(c(-c5cc(S(=O)(=O)[O-])ccc5F)c5ccc2[nH]5)C=C4)C=C3)cc1
REMARK SMILES IDX 18 1 17 2 15 3 16 4 14 5 13 6 1 7 2 8 3 10 4 11 5 12 6 13
REMARK SMILES IDX 11 14 7 15 8 16 10 17 12 18 9 19 19 20 20 21 21 22 22 23
REMARK SMILES IDX 23 24 24 25 85 26 25 27 84 28 26 29 27 30 28 31 78 32 29 33
REMARK SMILES IDX 83 34 77 35 79 36 30 37 82 38 76 39 75 40 31 42 63 43 43 44
REMARK SMILES IDX 62 45 44 46 47 47 61 48 80 49 45 50 46 51 60 53 81 54 48 55
REMARK SMILES IDX 32 56 33 57 41 58 34 59 40 60 42 61 39 62 35 63 36 64 37 65
REMARK SMILES IDX 38 66 64 67 65 68 73 69 66 70 72 71 74 72 71 73 67 74 68 75
REMARK SMILES IDX 69 76 70 77 49 78 50 79 58 80 51 81 57 82 59 83 56 84 52 85
REMARK SMILES IDX 53 86 54 87 55 88
REMARK H PARENT 13 9 79 41 47 52
REMARK Flexibility Score: inf
ROOT
ATOM      1  C   UNL A   1      33.735  34.555  29.508  1.00  0.00     0.274 C 
ENDROOT
BRANCH   1   2
ATOM      2  O   UNL A   1      32.971  34.662  30.721  1.00  0.00    -0.461 OA
BRANCH   2   3
ATOM      3  C   UNL A   1      32.890  35.896  31.291  1.00  0.00     0.325 C 
ATOM      4  O   UNL A   1      32.202  36.816  30.867  1.00  0.00    -0.250 OA
BRANCH   3   5
ATOM      5  C   UNL A   1      33.774  36.019  32.529  1.00  0.00     0.239 C 
BRANCH   5   6
ATOM      6  N   UNL A   1      35.163  35.632  32.334  1.00  0.00    -0.342 N 
ATOM      7  O   UNL A   1      35.048  33.784  33.676  1.00  0.00    -0.270 OA
ATOM      8  C   UNL A   1      35.677  34.509  32.911  1.00  0.00     0.244 C 
ATOM      9  H   UNL A   1      35.745  36.194  31.771  1.00  0.00     0.164 HD
BRANCH   8  10
ATOM     10  C   UNL A   1      37.094  34.185  32.624  1.00  0.00     0.072 C 
ATOM     11  C   UNL A   1      37.981  34.949  31.968  1.00  0.00     0.017 C 
BRANCH  11  12
ATOM     12  C   UNL A   1      39.343  34.444  31.694  1.00  0.00     0.012 A 
ATOM     13  C   UNL A   1      40.347  34.437  32.685  1.00  0.00     0.049 A 
ATOM     14  C   UNL A   1      39.688  33.978  30.412  1.00  0.00     0.049 A 
ATOM     15  Cl  UNL A   1      40.044  34.942  34.315  1.00  0.00    -0.084 Cl
ATOM     16  C   UNL A   1      41.650  34.012  32.391  1.00  0.00     0.021 A 
ATOM     17  C   UNL A   1      40.991  33.548  30.124  1.00  0.00     0.021 A 
ATOM     18  Cl  UNL A   1      38.541  33.933  29.114  1.00  0.00    -0.084 Cl
ATOM     19  C   UNL A   1      41.974  33.572  31.112  1.00  0.00     0.003 A 
ENDBRANCH  11  12
ENDBRANCH   8  10
ENDBRANCH   5   6
ENDBRANCH   3   5
ENDBRANCH   2   3
ENDBRANCH   1   2
BRANCH   1  20
ATOM     20  C   UNL A   1      34.414  33.184  29.441  1.00  0.00     0.275 C 
BRANCH  20  21
ATOM     21  O   UNL A   1      34.626  32.755  28.082  1.00  0.00    -0.458 OA
BRANCH  21  22
ATOM     22  C   UNL A   1      34.516  31.422  27.863  1.00  0.00     0.338 C 
ATOM     23  O   UNL A   1      33.594  30.835  27.319  1.00  0.00    -0.246 OA
BRANCH  22  24
ATOM     24  C   UNL A   1      35.773  30.756  28.248  1.00  0.00     0.060 A 
ATOM     25  C   UNL A   1      35.711  29.787  29.254  1.00  0.00     0.016 A 
ATOM     26  C   UNL A   1      36.999  31.113  27.684  1.00  0.00     0.016 A 
ATOM     27  C   UNL A   1      36.876  29.179  29.710  1.00  0.00     0.010 A 
ATOM     28  C   UNL A   1      38.170  30.500  28.143  1.00  0.00     0.010 A 
ATOM     29  C   UNL A   1      38.117  29.539  29.168  1.00  0.00    -0.014 A 
BRANCH  29  30
ATOM     30  C   UNL A   1      39.356  28.942  29.724  1.00  0.00     0.031 A 
ATOM     31  C   UNL A   1      39.939  29.487  30.998  1.00  0.00     0.074 A 
ATOM     32  C   UNL A   1      39.930  27.893  29.107  1.00  0.00     0.049 A 
ATOM     33  N   UNL A   1      41.033  29.140  31.625  1.00  0.00    -0.248 NA
ATOM     34  C   UNL A   1      39.189  30.572  31.647  1.00  0.00     0.031 C 
ATOM     35  C   UNL A   1      39.427  27.255  27.891  1.00  0.00     0.029 A 
ATOM     36  N   UNL A   1      41.061  27.180  29.417  1.00  0.00    -0.354 N 
ATOM     37  C   UNL A   1      41.112  29.968  32.738  1.00  0.00     0.074 A 
ATOM     38  C   UNL A   1      39.969  30.856  32.680  1.00  0.00     0.031 C 
ATOM     39  C   UNL A   1      40.243  26.241  27.560  1.00  0.00     0.029 A 
ATOM     40  C   UNL A   1      41.351  26.189  28.509  1.00  0.00     0.049 A 
ATOM     41  H   UNL A   1      41.610  27.360  30.213  1.00  0.00     0.167 HD
ATOM     42  C   UNL A   1      42.050  29.981  33.720  1.00  0.00     0.034 A 
ATOM     43  C   UNL A   1      42.407  25.354  28.435  1.00  0.00     0.034 A 
ATOM     44  C   UNL A   1      43.184  29.088  33.757  1.00  0.00     0.049 A 
ATOM     45  C   UNL A   1      43.475  25.434  29.496  1.00  0.00     0.074 A 
ATOM     46  C   UNL A   1      44.188  29.006  34.707  1.00  0.00     0.029 A 
ATOM     47  N   UNL A   1      43.472  28.126  32.795  1.00  0.00    -0.354 N 
ATOM     48  N   UNL A   1      43.543  26.230  30.540  1.00  0.00    -0.248 NA
ATOM     49  C   UNL A   1      44.604  24.505  29.371  1.00  0.00     0.031 C 
ATOM     50  C   UNL A   1      45.114  28.044  34.288  1.00  0.00     0.029 A 
ATOM     51  C   UNL A   1      44.652  27.471  33.113  1.00  0.00     0.049 A 
ATOM     52  H   UNL A   1      42.918  27.939  32.003  1.00  0.00     0.167 HD
ATOM     53  C   UNL A   1      44.712  25.877  31.209  1.00  0.00     0.074 A 
ATOM     54  C   UNL A   1      45.307  24.791  30.458  1.00  0.00     0.031 C 
ATOM     55  C   UNL A   1      45.241  26.399  32.344  1.00  0.00     0.034 A 
BRANCH  42  56
ATOM     56  C   UNL A   1      41.911  31.032  34.794  1.00  0.00     0.023 A 
ATOM     57  C   UNL A   1      42.759  32.152  34.853  1.00  0.00     0.031 A 
ATOM     58  C   UNL A   1      40.937  30.892  35.799  1.00  0.00     0.131 A 
ATOM     59  C   UNL A   1      42.666  33.046  35.932  1.00  0.00     0.055 A 
ATOM     60  C   UNL A   1      40.797  31.827  36.826  1.00  0.00     0.041 A 
ATOM     61  F   UNL A   1      40.114  29.831  35.809  1.00  0.00    -0.206 F 
ATOM     62  C   UNL A   1      41.675  32.904  36.905  1.00  0.00     0.022 A 
BRANCH  59  63
ATOM     63  S   UNL A   1      43.949  34.314  36.123  1.00  0.00     0.124 S 
ATOM     64  O   UNL A   1      44.119  34.773  34.746  1.00  0.00    -0.237 OA
ATOM     65  O   UNL A   1      43.325  35.259  37.041  1.00  0.00    -0.237 OA
ATOM     66  O   UNL A   1      45.086  33.571  36.667  1.00  0.00    -0.744 OA
ENDBRANCH  59  63
ENDBRANCH  42  56
BRANCH  43  67
ATOM     67  C   UNL A   1      42.534  24.405  27.292  1.00  0.00     0.023 A 
ATOM     68  C   UNL A   1      41.971  23.121  27.345  1.00  0.00     0.031 A 
ATOM     69  C   UNL A   1      43.259  24.762  26.140  1.00  0.00     0.131 A 
ATOM     70  C   UNL A   1      42.172  22.226  26.282  1.00  0.00     0.055 A 
ATOM     71  C   UNL A   1      43.412  23.887  25.065  1.00  0.00     0.041 A 
ATOM     72  F   UNL A   1      43.819  25.978  26.040  1.00  0.00    -0.206 F 
ATOM     73  C   UNL A   1      42.876  22.605  25.137  1.00  0.00     0.022 A 
BRANCH  70  74
ATOM     74  S   UNL A   1      41.561  20.526  26.449  1.00  0.00     0.124 S 
ATOM     75  O   UNL A   1      40.135  20.697  26.200  1.00  0.00    -0.237 OA
ATOM     76  O   UNL A   1      42.316  19.830  25.412  1.00  0.00    -0.237 OA
ATOM     77  O   UNL A   1      41.917  20.169  27.821  1.00  0.00    -0.744 OA
ENDBRANCH  70  74
ENDBRANCH  43  67
BRANCH  55  78
ATOM     78  C   UNL A   1      46.511  25.766  32.859  1.00  0.00     0.023 A 
ATOM     79  C   UNL A   1      46.489  24.729  33.809  1.00  0.00     0.031 A 
ATOM     80  C   UNL A   1      47.760  26.221  32.401  1.00  0.00     0.131 A 
ATOM     81  C   UNL A   1      47.696  24.215  34.308  1.00  0.00     0.055 A 
ATOM     82  C   UNL A   1      48.956  25.668  32.861  1.00  0.00     0.041 A 
ATOM     83  F   UNL A   1      47.837  27.209  31.496  1.00  0.00    -0.206 F 
ATOM     84  C   UNL A   1      48.928  24.667  33.829  1.00  0.00     0.022 A 
BRANCH  81  85
ATOM     85  S   UNL A   1      47.636  23.001  35.653  1.00  0.00     0.124 S 
ATOM     86  O   UNL A   1      46.290  22.456  35.512  1.00  0.00    -0.237 OA
ATOM     87  O   UNL A   1      48.729  22.097  35.308  1.00  0.00    -0.237 OA
ATOM     88  O   UNL A   1      47.857  23.806  36.854  1.00  0.00    -0.744 OA
ENDBRANCH  81  85
ENDBRANCH  55  78
ENDBRANCH  29  30
ENDBRANCH  22  24
ENDBRANCH  21  22
ENDBRANCH  20  21
ENDBRANCH   1  20
TORSDOF 17
ENDMDL
