MODEL 1
REMARK VINA RESULT:     -13.1      0.000      0.000
REMARK SMILES O=C(OCCOC(=O)[C@H]1CSCN1C(=O)c1cnc2ccccn2c1=O)c1ccc(-c2c3nc(c(-c4cc(S(=O)(=O)[O-])ccc4F)c4ccc([nH]4)c(-c4cc(S(=O)(=O)[O-])ccc4F)c4nc(c(-c5cc(S(=O)(=O)[O-])ccc5F)c5ccc2[nH]5)C=C4)C=C3)cc1
REMARK SMILES IDX 4 1 3 2 2 3 1 4 27 5 28 6 89 7 29 8 88 9 30 10 31 11 32 12
REMARK SMILES IDX 82 13 33 14 87 15 81 16 83 17 34 18 86 19 80 20 79 21 35 23
REMARK SMILES IDX 67 24 47 25 66 26 48 27 51 28 65 29 84 30 49 31 50 32 64 34
REMARK SMILES IDX 85 35 52 36 36 37 37 38 45 39 38 40 44 41 46 42 43 43 39 44
REMARK SMILES IDX 40 45 41 46 42 47 68 48 69 49 77 50 70 51 76 52 78 53 75 54
REMARK SMILES IDX 71 55 72 56 73 57 74 58 53 59 54 60 62 61 55 62 61 63 63 64
REMARK SMILES IDX 60 65 56 66 57 67 58 68 59 69 5 70 6 71 7 72 8 73 9 74 10 75
REMARK SMILES IDX 13 76 11 77 12 78 14 79 15 80 16 81 17 82 25 83 18 84 24 85
REMARK SMILES IDX 26 86 19 87 23 88 20 89 22 90 21 91
REMARK H PARENT 83 22 51 33
REMARK Flexibility Score: inf
ROOT
ATOM      1  C   UNL A   1      48.681  24.292  37.956  1.00  0.00     0.275 C 
ENDROOT
BRANCH   1   2
ATOM      2  O   UNL A   1      47.311  24.496  38.356  1.00  0.00    -0.458 OA
BRANCH   2   3
ATOM      3  C   UNL A   1      46.620  25.656  38.491  1.00  0.00     0.338 C 
ATOM      4  O   UNL A   1      46.630  26.248  39.567  1.00  0.00    -0.246 OA
BRANCH   3   5
ATOM      5  C   UNL A   1      45.734  26.190  37.423  1.00  0.00     0.060 A 
ATOM      6  C   UNL A   1      43.969  25.744  37.222  1.00  0.00     0.016 A 
ATOM      7  C   UNL A   1      46.454  27.429  36.279  1.00  0.00     0.016 A 
ATOM      8  C   UNL A   1      42.957  26.521  35.934  1.00  0.00     0.010 A 
ATOM      9  C   UNL A   1      45.404  28.156  34.919  1.00  0.00     0.010 A 
ATOM     10  C   UNL A   1      43.655  27.693  34.790  1.00  0.00    -0.014 A 
BRANCH  10  11
ATOM     11  C   UNL A   1      42.741  28.181  33.729  1.00  0.00     0.031 A 
ATOM     12  C   UNL A   1      41.896  29.394  33.912  1.00  0.00     0.074 A 
ATOM     13  C   UNL A   1      42.836  27.783  32.452  1.00  0.00     0.049 A 
ATOM     14  N   UNL A   1      40.637  29.572  33.637  1.00  0.00    -0.248 NA
ATOM     15  C   UNL A   1      42.563  30.577  34.450  1.00  0.00     0.031 C 
ATOM     16  C   UNL A   1      43.859  26.910  31.893  1.00  0.00     0.029 A 
ATOM     17  N   UNL A   1      42.046  28.116  31.384  1.00  0.00    -0.354 N 
ATOM     18  C   UNL A   1      40.295  30.772  34.267  1.00  0.00     0.074 A 
ATOM     19  C   UNL A   1      41.521  31.338  34.768  1.00  0.00     0.031 C 
ATOM     20  C   UNL A   1      43.618  26.752  30.580  1.00  0.00     0.029 A 
ATOM     21  C   UNL A   1      42.376  27.441  30.239  1.00  0.00     0.049 A 
ATOM     22  H   UNL A   1      41.316  28.773  31.434  1.00  0.00     0.167 HD
ATOM     23  C   UNL A   1      39.030  31.243  34.403  1.00  0.00     0.034 A 
ATOM     24  C   UNL A   1      41.693  27.350  29.082  1.00  0.00     0.034 A 
ATOM     25  C   UNL A   1      38.104  31.021  33.306  1.00  0.00     0.049 A 
ATOM     26  C   UNL A   1      40.376  28.081  28.978  1.00  0.00     0.074 A 
ATOM     27  C   UNL A   1      36.836  31.526  33.087  1.00  0.00     0.029 A 
ATOM     28  N   UNL A   1      38.452  30.324  32.149  1.00  0.00    -0.354 N 
ATOM     29  N   UNL A   1      39.734  28.759  29.908  1.00  0.00    -0.248 NA
ATOM     30  C   UNL A   1      39.688  28.041  27.684  1.00  0.00     0.031 C 
ATOM     31  C   UNL A   1      36.421  31.126  31.808  1.00  0.00     0.029 A 
ATOM     32  C   UNL A   1      37.465  30.446  31.196  1.00  0.00     0.049 A 
ATOM     33  H   UNL A   1      39.287  29.816  32.029  1.00  0.00     0.167 HD
ATOM     34  C   UNL A   1      38.575  29.240  29.305  1.00  0.00     0.074 A 
ATOM     35  C   UNL A   1      38.614  28.782  27.928  1.00  0.00     0.031 C 
ATOM     36  C   UNL A   1      37.570  29.988  29.830  1.00  0.00     0.034 A 
BRANCH  23  37
ATOM     37  C   UNL A   1      38.566  31.883  35.710  1.00  0.00     0.023 A 
ATOM     38  C   UNL A   1      38.164  31.207  36.874  1.00  0.00     0.031 A 
ATOM     39  C   UNL A   1      38.422  33.294  35.747  1.00  0.00     0.131 A 
ATOM     40  C   UNL A   1      37.576  31.900  37.954  1.00  0.00     0.055 A 
ATOM     41  C   UNL A   1      37.935  33.991  36.861  1.00  0.00     0.041 A 
ATOM     42  F   UNL A   1      38.688  34.045  34.666  1.00  0.00    -0.206 F 
ATOM     43  C   UNL A   1      37.482  33.291  37.966  1.00  0.00     0.022 A 
BRANCH  40  44
ATOM     44  S   UNL A   1      36.828  30.944  39.310  1.00  0.00     0.124 S 
ATOM     45  O   UNL A   1      35.449  31.417  39.299  1.00  0.00    -0.237 OA
ATOM     46  O   UNL A   1      37.032  29.569  38.868  1.00  0.00    -0.237 OA
ATOM     47  O   UNL A   1      37.608  31.343  40.481  1.00  0.00    -0.744 OA
ENDBRANCH  40  44
ENDBRANCH  23  37
BRANCH  24  48
ATOM     48  C   UNL A   1      42.221  26.484  27.994  1.00  0.00     0.023 A 
ATOM     49  C   UNL A   1      41.873  25.129  27.903  1.00  0.00     0.031 A 
ATOM     50  C   UNL A   1      43.038  27.025  26.982  1.00  0.00     0.131 A 
ATOM     51  C   UNL A   1      42.342  24.359  26.827  1.00  0.00     0.055 A 
ATOM     52  C   UNL A   1      43.464  26.267  25.891  1.00  0.00     0.041 A 
ATOM     53  F   UNL A   1      43.389  28.320  27.014  1.00  0.00    -0.206 F 
ATOM     54  C   UNL A   1      43.119  24.923  25.812  1.00  0.00     0.022 A 
BRANCH  51  55
ATOM     55  S   UNL A   1      41.944  22.591  26.784  1.00  0.00     0.124 S 
ATOM     56  O   UNL A   1      42.096  22.286  25.365  1.00  0.00    -0.237 OA
ATOM     57  O   UNL A   1      42.958  22.032  27.672  1.00  0.00    -0.237 OA
ATOM     58  O   UNL A   1      40.575  22.537  27.293  1.00  0.00    -0.744 OA
ENDBRANCH  51  55
ENDBRANCH  24  48
BRANCH  36  59
ATOM     59  C   UNL A   1      36.482  30.436  28.895  1.00  0.00     0.023 A 
ATOM     60  C   UNL A   1      35.548  29.535  28.367  1.00  0.00     0.031 A 
ATOM     61  C   UNL A   1      36.345  31.803  28.593  1.00  0.00     0.131 A 
ATOM     62  C   UNL A   1      34.526  30.009  27.534  1.00  0.00     0.055 A 
ATOM     63  C   UNL A   1      35.298  32.275  27.805  1.00  0.00     0.041 A 
ATOM     64  F   UNL A   1      37.216  32.701  29.082  1.00  0.00    -0.206 F 
ATOM     65  C   UNL A   1      34.383  31.375  27.266  1.00  0.00     0.022 A 
BRANCH  62  66
ATOM     66  S   UNL A   1      33.408  28.807  26.767  1.00  0.00     0.124 S 
ATOM     67  O   UNL A   1      34.315  27.705  26.463  1.00  0.00    -0.237 OA
ATOM     68  O   UNL A   1      32.437  28.562  27.828  1.00  0.00    -0.237 OA
ATOM     69  O   UNL A   1      32.887  29.521  25.603  1.00  0.00    -0.744 OA
ENDBRANCH  62  66
ENDBRANCH  36  59
ENDBRANCH  10  11
ENDBRANCH   3   5
ENDBRANCH   2   3
ENDBRANCH   1   2
BRANCH   1  70
ATOM     70  C   UNL A   1      48.988  22.841  37.507  1.00  0.00     0.274 C 
BRANCH  70  71
ATOM     71  O   UNL A   1      48.400  21.806  38.324  1.00  0.00    -0.461 OA
BRANCH  71  72
ATOM     72  C   UNL A   1      48.166  20.606  37.708  1.00  0.00     0.329 C 
ATOM     73  O   UNL A   1      49.055  19.814  37.432  1.00  0.00    -0.250 OA
BRANCH  72  74
ATOM     74  C   UNL A   1      46.604  20.370  37.542  1.00  0.00     0.206 C 
ATOM     75  C   UNL A   1      46.422  20.899  36.087  1.00  0.00     0.108 C 
ATOM     76  N   UNL A   1      45.802  18.777  37.749  1.00  0.00    -0.314 N 
ATOM     77  S   UNL A   1      46.362  19.479  35.034  1.00  0.00    -0.138 SA
ATOM     78  C   UNL A   1      45.207  18.693  36.146  1.00  0.00     0.191 C 
BRANCH  76  79
ATOM     79  C   UNL A   1      45.702  17.494  39.271  1.00  0.00     0.262 C 
ATOM     80  O   UNL A   1      46.594  17.042  40.086  1.00  0.00    -0.269 OA
BRANCH  79  81
ATOM     81  C   UNL A   1      44.391  16.563  39.931  1.00  0.00     0.124 A 
ATOM     82  C   UNL A   1      43.623  15.949  39.024  1.00  0.00     0.133 A 
ATOM     83  C   UNL A   1      43.749  16.546  41.287  1.00  0.00     0.270 A 
ATOM     84  N   UNL A   1      42.793  14.899  39.259  1.00  0.00    -0.237 NA
ATOM     85  N   UNL A   1      42.934  15.439  41.546  1.00  0.00    -0.267 N 
ATOM     86  O   UNL A   1      43.895  17.465  42.094  1.00  0.00    -0.268 OA
ATOM     87  C   UNL A   1      42.525  14.637  40.494  1.00  0.00     0.139 A 
ATOM     88  C   UNL A   1      42.427  15.221  42.823  1.00  0.00     0.096 A 
ATOM     89  C   UNL A   1      41.758  13.413  40.821  1.00  0.00     0.048 A 
ATOM     90  C   UNL A   1      41.649  14.166  43.101  1.00  0.00     0.019 A 
ATOM     91  C   UNL A   1      41.354  13.198  42.077  1.00  0.00     0.005 A 
ENDBRANCH  79  81
ENDBRANCH  76  79
ENDBRANCH  72  74
ENDBRANCH  71  72
ENDBRANCH  70  71
ENDBRANCH   1  70
TORSDOF 16
ENDMDL
MODEL 2
REMARK VINA RESULT:     -13.1      9.662     18.790
REMARK SMILES O=C(OCCOC(=O)[C@H]1CSCN1C(=O)c1cnc2ccccn2c1=O)c1ccc(-c2c3nc(c(-c4cc(S(=O)(=O)[O-])ccc4F)c4ccc([nH]4)c(-c4cc(S(=O)(=O)[O-])ccc4F)c4nc(c(-c5cc(S(=O)(=O)[O-])ccc5F)c5ccc2[nH]5)C=C4)C=C3)cc1
REMARK SMILES IDX 4 1 3 2 2 3 1 4 27 5 28 6 89 7 29 8 88 9 30 10 31 11 32 12
REMARK SMILES IDX 82 13 33 14 87 15 81 16 83 17 34 18 86 19 80 20 79 21 35 23
REMARK SMILES IDX 67 24 47 25 66 26 48 27 51 28 65 29 84 30 49 31 50 32 64 34
REMARK SMILES IDX 85 35 52 36 36 37 37 38 45 39 38 40 44 41 46 42 43 43 39 44
REMARK SMILES IDX 40 45 41 46 42 47 68 48 69 49 77 50 70 51 76 52 78 53 75 54
REMARK SMILES IDX 71 55 72 56 73 57 74 58 53 59 54 60 62 61 55 62 61 63 63 64
REMARK SMILES IDX 60 65 56 66 57 67 58 68 59 69 5 70 6 71 7 72 8 73 9 74 10 75
REMARK SMILES IDX 13 76 11 77 12 78 14 79 15 80 16 81 17 82 25 83 18 84 24 85
REMARK SMILES IDX 26 86 19 87 23 88 20 89 22 90 21 91
REMARK H PARENT 83 22 51 33
REMARK Flexibility Score: inf
ROOT
ATOM      1  C   UNL A   1      44.484  38.820  28.198  1.00  0.00     0.275 C 
ENDROOT
BRANCH   1   2
ATOM      2  O   UNL A   1      45.892  38.657  27.937  1.00  0.00    -0.458 OA
BRANCH   2   3
ATOM      3  C   UNL A   1      46.625  37.517  27.864  1.00  0.00     0.338 C 
ATOM      4  O   UNL A   1      47.823  37.580  27.601  1.00  0.00    -0.246 OA
BRANCH   3   5
ATOM      5  C   UNL A   1      46.015  36.164  27.960  1.00  0.00     0.060 A 
ATOM      6  C   UNL A   1      45.020  35.380  26.637  1.00  0.00     0.016 A 
ATOM      7  C   UNL A   1      46.345  35.203  29.486  1.00  0.00     0.016 A 
ATOM      8  C   UNL A   1      44.394  33.689  26.826  1.00  0.00     0.010 A 
ATOM      9  C   UNL A   1      45.625  33.493  29.679  1.00  0.00     0.010 A 
ATOM     10  C   UNL A   1      44.672  32.762  28.321  1.00  0.00    -0.014 A 
BRANCH  10  11
ATOM     11  C   UNL A   1      44.026  31.427  28.382  1.00  0.00     0.031 A 
ATOM     12  C   UNL A   1      44.765  30.177  28.051  1.00  0.00     0.074 A 
ATOM     13  C   UNL A   1      42.871  31.212  29.026  1.00  0.00     0.049 A 
ATOM     14  N   UNL A   1      44.400  29.173  27.308  1.00  0.00    -0.248 NA
ATOM     15  C   UNL A   1      46.083  30.019  28.662  1.00  0.00     0.031 C 
ATOM     16  C   UNL A   1      42.127  32.183  29.816  1.00  0.00     0.029 A 
ATOM     17  N   UNL A   1      42.146  30.055  29.132  1.00  0.00    -0.354 N 
ATOM     18  C   UNL A   1      45.565  28.428  27.108  1.00  0.00     0.074 A 
ATOM     19  C   UNL A   1      46.576  29.008  27.953  1.00  0.00     0.031 C 
ATOM     20  C   UNL A   1      41.027  31.586  30.308  1.00  0.00     0.029 A 
ATOM     21  C   UNL A   1      40.955  30.222  29.788  1.00  0.00     0.049 A 
ATOM     22  H   UNL A   1      42.450  29.190  28.773  1.00  0.00     0.167 HD
ATOM     23  C   UNL A   1      45.685  27.399  26.232  1.00  0.00     0.034 A 
ATOM     24  C   UNL A   1      39.911  29.377  29.880  1.00  0.00     0.034 A 
ATOM     25  C   UNL A   1      44.542  26.519  26.062  1.00  0.00     0.049 A 
ATOM     26  C   UNL A   1      40.020  28.040  29.187  1.00  0.00     0.074 A 
ATOM     27  C   UNL A   1      44.430  25.314  25.392  1.00  0.00     0.029 A 
ATOM     28  N   UNL A   1      43.333  26.708  26.730  1.00  0.00    -0.354 N 
ATOM     29  N   UNL A   1      40.986  27.589  28.414  1.00  0.00    -0.248 NA
ATOM     30  C   UNL A   1      38.910  27.100  29.368  1.00  0.00     0.031 C 
ATOM     31  C   UNL A   1      43.156  24.788  25.651  1.00  0.00     0.029 A 
ATOM     32  C   UNL A   1      42.506  25.621  26.551  1.00  0.00     0.049 A 
ATOM     33  H   UNL A   1      43.102  27.506  27.257  1.00  0.00     0.167 HD
ATOM     34  C   UNL A   1      40.609  26.304  28.033  1.00  0.00     0.074 A 
ATOM     35  C   UNL A   1      39.329  26.051  28.670  1.00  0.00     0.031 C 
ATOM     36  C   UNL A   1      41.250  25.412  27.232  1.00  0.00     0.034 A 
BRANCH  23  37
ATOM     37  C   UNL A   1      46.938  27.241  25.373  1.00  0.00     0.023 A 
ATOM     38  C   UNL A   1      47.128  27.741  24.074  1.00  0.00     0.031 A 
ATOM     39  C   UNL A   1      47.990  26.430  25.871  1.00  0.00     0.131 A 
ATOM     40  C   UNL A   1      48.254  27.371  23.307  1.00  0.00     0.055 A 
ATOM     41  C   UNL A   1      49.156  26.147  25.147  1.00  0.00     0.041 A 
ATOM     42  F   UNL A   1      47.888  25.819  27.063  1.00  0.00    -0.206 F 
ATOM     43  C   UNL A   1      49.282  26.598  23.844  1.00  0.00     0.022 A 
BRANCH  40  44
ATOM     44  S   UNL A   1      48.307  27.826  21.546  1.00  0.00     0.124 S 
ATOM     45  O   UNL A   1      48.459  26.529  20.895  1.00  0.00    -0.237 OA
ATOM     46  O   UNL A   1      47.019  28.484  21.358  1.00  0.00    -0.237 OA
ATOM     47  O   UNL A   1      49.473  28.703  21.453  1.00  0.00    -0.744 OA
ENDBRANCH  40  44
ENDBRANCH  23  37
BRANCH  24  48
ATOM     48  C   UNL A   1      38.681  29.819  30.589  1.00  0.00     0.023 A 
ATOM     49  C   UNL A   1      37.736  30.648  29.969  1.00  0.00     0.031 A 
ATOM     50  C   UNL A   1      38.400  29.356  31.890  1.00  0.00     0.131 A 
ATOM     51  C   UNL A   1      36.557  30.993  30.649  1.00  0.00     0.055 A 
ATOM     52  C   UNL A   1      37.207  29.665  32.544  1.00  0.00     0.041 A 
ATOM     53  F   UNL A   1      39.266  28.549  32.524  1.00  0.00    -0.206 F 
ATOM     54  C   UNL A   1      36.278  30.492  31.924  1.00  0.00     0.022 A 
BRANCH  51  55
ATOM     55  S   UNL A   1      35.395  32.134  29.853  1.00  0.00     0.124 S 
ATOM     56  O   UNL A   1      34.483  32.443  30.949  1.00  0.00    -0.237 OA
ATOM     57  O   UNL A   1      36.279  33.216  29.430  1.00  0.00    -0.237 OA
ATOM     58  O   UNL A   1      34.825  31.338  28.769  1.00  0.00    -0.744 OA
ENDBRANCH  51  55
ENDBRANCH  24  48
BRANCH  36  59
ATOM     59  C   UNL A   1      40.628  24.053  27.078  1.00  0.00     0.023 A 
ATOM     60  C   UNL A   1      39.489  23.851  26.287  1.00  0.00     0.031 A 
ATOM     61  C   UNL A   1      41.239  22.937  27.678  1.00  0.00     0.131 A 
ATOM     62  C   UNL A   1      38.974  22.556  26.139  1.00  0.00     0.055 A 
ATOM     63  C   UNL A   1      40.751  21.647  27.487  1.00  0.00     0.041 A 
ATOM     64  F   UNL A   1      42.335  23.087  28.440  1.00  0.00    -0.206 F 
ATOM     65  C   UNL A   1      39.608  21.452  26.717  1.00  0.00     0.022 A 
BRANCH  62  66
ATOM     66  S   UNL A   1      37.431  22.341  25.215  1.00  0.00     0.124 S 
ATOM     67  O   UNL A   1      37.647  21.053  24.564  1.00  0.00    -0.237 OA
ATOM     68  O   UNL A   1      36.427  22.361  26.273  1.00  0.00    -0.237 OA
ATOM     69  O   UNL A   1      37.407  23.494  24.317  1.00  0.00    -0.744 OA
ENDBRANCH  62  66
ENDBRANCH  36  59
ENDBRANCH  10  11
ENDBRANCH   3   5
ENDBRANCH   2   3
ENDBRANCH   1   2
BRANCH   1  70
ATOM     70  C   UNL A   1      43.851  40.026  27.460  1.00  0.00     0.274 C 
BRANCH  70  71
ATOM     71  O   UNL A   1      44.370  40.281  26.138  1.00  0.00    -0.461 OA
BRANCH  71  72
ATOM     72  C   UNL A   1      45.319  41.264  26.038  1.00  0.00     0.329 C 
ATOM     73  O   UNL A   1      46.517  41.046  26.140  1.00  0.00    -0.250 OA
BRANCH  72  74
ATOM     74  C   UNL A   1      44.637  42.646  25.652  1.00  0.00     0.206 C 
ATOM     75  C   UNL A   1      45.120  43.511  26.857  1.00  0.00     0.108 C 
ATOM     76  N   UNL A   1      44.915  43.502  24.099  1.00  0.00    -0.314 N 
ATOM     77  S   UNL A   1      46.495  44.463  26.280  1.00  0.00    -0.138 SA
ATOM     78  C   UNL A   1      45.580  44.908  24.812  1.00  0.00     0.191 C 
BRANCH  76  79
ATOM     79  C   UNL A   1      44.639  42.985  22.194  1.00  0.00     0.262 C 
ATOM     80  O   UNL A   1      45.068  41.990  21.494  1.00  0.00    -0.269 OA
BRANCH  79  81
ATOM     81  C   UNL A   1      43.773  43.741  20.890  1.00  0.00     0.124 A 
ATOM     82  C   UNL A   1      44.393  44.789  20.336  1.00  0.00     0.133 A 
ATOM     83  C   UNL A   1      42.341  43.662  20.451  1.00  0.00     0.270 A 
ATOM     84  N   UNL A   1      44.133  45.314  19.110  1.00  0.00    -0.237 NA
ATOM     85  N   UNL A   1      42.083  44.158  19.168  1.00  0.00    -0.267 N 
ATOM     86  O   UNL A   1      41.452  43.233  21.187  1.00  0.00    -0.268 OA
ATOM     87  C   UNL A   1      43.036  44.943  18.541  1.00  0.00     0.139 A 
ATOM     88  C   UNL A   1      40.834  43.980  18.582  1.00  0.00     0.096 A 
ATOM     89  C   UNL A   1      42.774  45.354  17.143  1.00  0.00     0.048 A 
ATOM     90  C   UNL A   1      40.562  44.439  17.353  1.00  0.00     0.019 A 
ATOM     91  C   UNL A   1      41.586  45.097  16.585  1.00  0.00     0.005 A 
ENDBRANCH  79  81
ENDBRANCH  76  79
ENDBRANCH  72  74
ENDBRANCH  71  72
ENDBRANCH  70  71
ENDBRANCH   1  70
TORSDOF 16
ENDMDL
MODEL 3
REMARK VINA RESULT:     -12.9      1.221      1.591
REMARK SMILES O=C(OCCOC(=O)[C@H]1CSCN1C(=O)c1cnc2ccccn2c1=O)c1ccc(-c2c3nc(c(-c4cc(S(=O)(=O)[O-])ccc4F)c4ccc([nH]4)c(-c4cc(S(=O)(=O)[O-])ccc4F)c4nc(c(-c5cc(S(=O)(=O)[O-])ccc5F)c5ccc2[nH]5)C=C4)C=C3)cc1
REMARK SMILES IDX 4 1 3 2 2 3 1 4 27 5 28 6 89 7 29 8 88 9 30 10 31 11 32 12
REMARK SMILES IDX 82 13 33 14 87 15 81 16 83 17 34 18 86 19 80 20 79 21 35 23
REMARK SMILES IDX 67 24 47 25 66 26 48 27 51 28 65 29 84 30 49 31 50 32 64 34
REMARK SMILES IDX 85 35 52 36 36 37 37 38 45 39 38 40 44 41 46 42 43 43 39 44
REMARK SMILES IDX 40 45 41 46 42 47 68 48 69 49 77 50 70 51 76 52 78 53 75 54
REMARK SMILES IDX 71 55 72 56 73 57 74 58 53 59 54 60 62 61 55 62 61 63 63 64
REMARK SMILES IDX 60 65 56 66 57 67 58 68 59 69 5 70 6 71 7 72 8 73 9 74 10 75
REMARK SMILES IDX 13 76 11 77 12 78 14 79 15 80 16 81 17 82 25 83 18 84 24 85
REMARK SMILES IDX 26 86 19 87 23 88 20 89 22 90 21 91
REMARK H PARENT 83 22 51 33
REMARK Flexibility Score: inf
ROOT
ATOM      1  C   UNL A   1      48.445  23.811  38.550  1.00  0.00     0.275 C 
ENDROOT
BRANCH   1   2
ATOM      2  O   UNL A   1      47.175  24.108  37.936  1.00  0.00    -0.458 OA
BRANCH   2   3
ATOM      3  C   UNL A   1      46.284  25.086  38.237  1.00  0.00     0.338 C 
ATOM      4  O   UNL A   1      46.086  25.388  39.411  1.00  0.00    -0.246 OA
BRANCH   3   5
ATOM      5  C   UNL A   1      45.427  25.734  37.209  1.00  0.00     0.060 A 
ATOM      6  C   UNL A   1      43.660  25.340  36.934  1.00  0.00     0.016 A 
ATOM      7  C   UNL A   1      46.189  27.063  36.200  1.00  0.00     0.016 A 
ATOM      8  C   UNL A   1      42.686  26.252  35.707  1.00  0.00     0.010 A 
ATOM      9  C   UNL A   1      45.179  27.933  34.897  1.00  0.00     0.010 A 
ATOM     10  C   UNL A   1      43.426  27.515  34.693  1.00  0.00    -0.014 A 
BRANCH  10  11
ATOM     11  C   UNL A   1      42.541  28.118  33.665  1.00  0.00     0.031 A 
ATOM     12  C   UNL A   1      41.752  29.354  33.930  1.00  0.00     0.074 A 
ATOM     13  C   UNL A   1      42.623  27.804  32.365  1.00  0.00     0.049 A 
ATOM     14  N   UNL A   1      40.504  29.610  33.666  1.00  0.00    -0.248 NA
ATOM     15  C   UNL A   1      42.471  30.464  34.550  1.00  0.00     0.031 C 
ATOM     16  C   UNL A   1      43.606  26.925  31.749  1.00  0.00     0.029 A 
ATOM     17  N   UNL A   1      41.855  28.246  31.321  1.00  0.00    -0.354 N 
ATOM     18  C   UNL A   1      40.216  30.778  34.377  1.00  0.00     0.074 A 
ATOM     19  C   UNL A   1      41.464  31.250  34.918  1.00  0.00     0.031 C 
ATOM     20  C   UNL A   1      43.365  26.869  30.427  1.00  0.00     0.029 A 
ATOM     21  C   UNL A   1      42.158  27.637  30.132  1.00  0.00     0.049 A 
ATOM     22  H   UNL A   1      41.156  28.933  31.415  1.00  0.00     0.167 HD
ATOM     23  C   UNL A   1      38.973  31.297  34.542  1.00  0.00     0.034 A 
ATOM     24  C   UNL A   1      41.478  27.658  28.971  1.00  0.00     0.034 A 
ATOM     25  C   UNL A   1      38.044  31.194  33.431  1.00  0.00     0.049 A 
ATOM     26  C   UNL A   1      40.197  28.456  28.915  1.00  0.00     0.074 A 
ATOM     27  C   UNL A   1      36.801  31.772  33.245  1.00  0.00     0.029 A 
ATOM     28  N   UNL A   1      38.364  30.563  32.229  1.00  0.00    -0.354 N 
ATOM     29  N   UNL A   1      39.583  29.097  29.888  1.00  0.00    -0.248 NA
ATOM     30  C   UNL A   1      39.514  28.537  27.620  1.00  0.00     0.031 C 
ATOM     31  C   UNL A   1      36.375  31.482  31.941  1.00  0.00     0.029 A 
ATOM     32  C   UNL A   1      37.389  30.796  31.286  1.00  0.00     0.049 A 
ATOM     33  H   UNL A   1      39.175  30.026  32.077  1.00  0.00     0.167 HD
ATOM     34  C   UNL A   1      38.451  29.673  29.317  1.00  0.00     0.074 A 
ATOM     35  C   UNL A   1      38.475  29.309  27.912  1.00  0.00     0.031 C 
ATOM     36  C   UNL A   1      37.479  30.430  29.892  1.00  0.00     0.034 A 
BRANCH  23  37
ATOM     37  C   UNL A   1      38.533  31.867  35.890  1.00  0.00     0.023 A 
ATOM     38  C   UNL A   1      37.989  31.144  36.964  1.00  0.00     0.031 A 
ATOM     39  C   UNL A   1      38.574  33.274  36.063  1.00  0.00     0.131 A 
ATOM     40  C   UNL A   1      37.444  31.804  38.087  1.00  0.00     0.055 A 
ATOM     41  C   UNL A   1      38.128  33.922  37.223  1.00  0.00     0.041 A 
ATOM     42  F   UNL A   1      38.988  34.082  35.074  1.00  0.00    -0.206 F 
ATOM     43  C   UNL A   1      37.533  33.187  38.235  1.00  0.00     0.022 A 
BRANCH  40  44
ATOM     44  S   UNL A   1      36.512  30.834  39.311  1.00  0.00     0.124 S 
ATOM     45  O   UNL A   1      37.465  30.723  40.410  1.00  0.00    -0.237 OA
ATOM     46  O   UNL A   1      35.352  31.683  39.561  1.00  0.00    -0.237 OA
ATOM     47  O   UNL A   1      36.227  29.582  38.612  1.00  0.00    -0.744 OA
ENDBRANCH  40  44
ENDBRANCH  23  37
BRANCH  24  48
ATOM     48  C   UNL A   1      41.970  26.845  27.827  1.00  0.00     0.023 A 
ATOM     49  C   UNL A   1      41.686  25.476  27.726  1.00  0.00     0.031 A 
ATOM     50  C   UNL A   1      42.684  27.451  26.774  1.00  0.00     0.131 A 
ATOM     51  C   UNL A   1      42.116  24.756  26.600  1.00  0.00     0.055 A 
ATOM     52  C   UNL A   1      43.069  26.740  25.637  1.00  0.00     0.041 A 
ATOM     53  F   UNL A   1      42.970  28.761  26.815  1.00  0.00    -0.206 F 
ATOM     54  C   UNL A   1      42.789  25.382  25.547  1.00  0.00     0.022 A 
BRANCH  51  55
ATOM     55  S   UNL A   1      41.806  22.970  26.540  1.00  0.00     0.124 S 
ATOM     56  O   UNL A   1      42.604  22.569  25.386  1.00  0.00    -0.237 OA
ATOM     57  O   UNL A   1      42.300  22.535  27.843  1.00  0.00    -0.237 OA
ATOM     58  O   UNL A   1      40.359  22.881  26.363  1.00  0.00    -0.744 OA
ENDBRANCH  51  55
ENDBRANCH  24  48
BRANCH  36  59
ATOM     59  C   UNL A   1      36.418  30.991  28.987  1.00  0.00     0.023 A 
ATOM     60  C   UNL A   1      35.367  30.200  28.507  1.00  0.00     0.031 A 
ATOM     61  C   UNL A   1      36.431  32.361  28.668  1.00  0.00     0.131 A 
ATOM     62  C   UNL A   1      34.377  30.782  27.703  1.00  0.00     0.055 A 
ATOM     63  C   UNL A   1      35.419  32.944  27.910  1.00  0.00     0.041 A 
ATOM     64  F   UNL A   1      37.418  33.156  29.113  1.00  0.00    -0.206 F 
ATOM     65  C   UNL A   1      34.386  32.151  27.418  1.00  0.00     0.022 A 
BRANCH  62  66
ATOM     66  S   UNL A   1      33.099  29.711  26.993  1.00  0.00     0.124 S 
ATOM     67  O   UNL A   1      31.939  30.595  26.981  1.00  0.00    -0.237 OA
ATOM     68  O   UNL A   1      33.661  29.375  25.689  1.00  0.00    -0.237 OA
ATOM     69  O   UNL A   1      33.022  28.599  27.940  1.00  0.00    -0.744 OA
ENDBRANCH  62  66
ENDBRANCH  36  59
ENDBRANCH  10  11
ENDBRANCH   3   5
ENDBRANCH   2   3
ENDBRANCH   1   2
BRANCH   1  70
ATOM     70  C   UNL A   1      48.874  22.329  38.405  1.00  0.00     0.274 C 
BRANCH  70  71
ATOM     71  O   UNL A   1      47.791  21.384  38.277  1.00  0.00    -0.461 OA
BRANCH  71  72
ATOM     72  C   UNL A   1      47.430  20.715  39.416  1.00  0.00     0.329 C 
ATOM     73  O   UNL A   1      46.762  21.224  40.304  1.00  0.00    -0.250 OA
BRANCH  72  74
ATOM     74  C   UNL A   1      47.893  19.198  39.331  1.00  0.00     0.206 C 
ATOM     75  C   UNL A   1      49.192  19.282  40.189  1.00  0.00     0.108 C 
ATOM     76  N   UNL A   1      46.877  17.809  39.842  1.00  0.00    -0.314 N 
ATOM     77  S   UNL A   1      48.779  18.669  41.796  1.00  0.00    -0.138 SA
ATOM     78  C   UNL A   1      47.953  17.268  41.059  1.00  0.00     0.191 C 
BRANCH  76  79
ATOM     79  C   UNL A   1      45.082  17.157  39.273  1.00  0.00     0.262 C 
ATOM     80  O   UNL A   1      44.395  17.334  38.195  1.00  0.00    -0.269 OA
BRANCH  79  81
ATOM     81  C   UNL A   1      43.881  16.189  40.075  1.00  0.00     0.124 A 
ATOM     82  C   UNL A   1      43.056  15.525  39.258  1.00  0.00     0.133 A 
ATOM     83  C   UNL A   1      43.375  16.176  41.488  1.00  0.00     0.270 A 
ATOM     84  N   UNL A   1      42.297  14.448  39.593  1.00  0.00    -0.237 NA
ATOM     85  N   UNL A   1      42.636  15.044  41.845  1.00  0.00    -0.267 N 
ATOM     86  O   UNL A   1      43.560  17.118  42.259  1.00  0.00    -0.268 OA
ATOM     87  C   UNL A   1      42.161  14.203  40.852  1.00  0.00     0.139 A 
ATOM     88  C   UNL A   1      42.265  14.833  43.169  1.00  0.00     0.096 A 
ATOM     89  C   UNL A   1      41.481  12.957  41.274  1.00  0.00     0.048 A 
ATOM     90  C   UNL A   1      41.561  13.755  43.540  1.00  0.00     0.019 A 
ATOM     91  C   UNL A   1      41.209  12.754  42.567  1.00  0.00     0.005 A 
ENDBRANCH  79  81
ENDBRANCH  76  79
ENDBRANCH  72  74
ENDBRANCH  71  72
ENDBRANCH  70  71
ENDBRANCH   1  70
TORSDOF 16
ENDMDL
