MODEL 1
REMARK VINA RESULT:     -13.3      0.000      0.000
REMARK SMILES COc1ccc(/C=C2/C(=O)N(c3ccccc3)C(=O)N=C2OCCOC(=O)c2ccc(-c3c4nc(c(-c5cc(S(=O)(=O)[O-])ccc5F)c5ccc([nH]5)c(-c5cc(S(=O)(=O)[O-])ccc5F)c5nc(c(-c6cc(S(=O)(=O)[O-])ccc6F)c6ccc3[nH]6)C=C5)C=C4)cc2)cc1C(=O)[O-]
REMARK SMILES IDX 24 1 23 2 22 3 21 4 7 5 8 6 9 7 10 8 11 9 20 10 18 11 19 12
REMARK SMILES IDX 6 13 3 14 4 15 92 16 5 17 91 18 2 19 1 20 93 21 94 22 95 23
REMARK SMILES IDX 12 24 13 25 17 26 14 27 16 28 15 29 25 30 26 31 27 32 28 33
REMARK SMILES IDX 29 34 90 35 30 36 89 37 31 38 32 39 33 40 83 41 34 42 88 43
REMARK SMILES IDX 82 44 84 45 35 46 87 47 81 48 80 49 36 51 68 52 48 53 67 54
REMARK SMILES IDX 49 55 52 56 66 57 85 58 50 59 51 60 65 62 86 63 53 64 37 65
REMARK SMILES IDX 38 66 46 67 39 68 45 69 47 70 44 71 40 72 41 73 42 74 43 75
REMARK SMILES IDX 69 76 70 77 78 78 71 79 77 80 79 81 76 82 72 83 73 84 74 85
REMARK SMILES IDX 75 86 54 87 55 88 63 89 56 90 62 91 64 92 61 93 57 94 58 95
REMARK SMILES IDX 59 96 60 97
REMARK H PARENT 84 50 52 61
REMARK Flexibility Score: inf
ROOT
ATOM      1  C   UNL A   1      35.957  21.716  24.532  1.00  0.00     0.274 C 
ENDROOT
BRANCH   1   2
ATOM      2  C   UNL A   1      35.168  23.026  24.465  1.00  0.00     0.273 C 
BRANCH   2   3
ATOM      3  O   UNL A   1      34.310  23.165  25.624  1.00  0.00    -0.473 OA
BRANCH   3   4
ATOM      4  C   UNL A   1      33.141  23.836  25.534  1.00  0.00     0.231 C 
ATOM      5  C   UNL A   1      32.044  22.180  23.952  1.00  0.00     0.027 C 
ATOM      6  C   UNL A   1      32.319  23.422  24.400  1.00  0.00     0.103 C 
ATOM      7  C   UNL A   1      31.603  24.567  23.755  1.00  0.00     0.272 C 
ATOM      8  O   UNL A   1      31.172  24.459  22.609  1.00  0.00    -0.268 OA
ATOM      9  N   UNL A   1      31.425  25.662  24.600  1.00  0.00    -0.226 N 
ATOM     10  N   UNL A   1      32.831  24.818  26.302  1.00  0.00    -0.156 NA
ATOM     11  C   UNL A   1      31.693  25.527  25.971  1.00  0.00     0.358 C 
ATOM     12  O   UNL A   1      31.015  26.020  26.866  1.00  0.00    -0.245 OA
BRANCH   5  13
ATOM     13  C   UNL A   1      32.439  20.824  24.401  1.00  0.00    -0.024 A 
ATOM     14  C   UNL A   1      33.181  18.156  25.064  1.00  0.00     0.127 A 
ATOM     15  C   UNL A   1      32.934  19.101  26.060  1.00  0.00     0.048 A 
ATOM     16  C   UNL A   1      32.979  18.521  23.731  1.00  0.00     0.040 A 
ATOM     17  C   UNL A   1      32.532  20.404  25.730  1.00  0.00     0.012 A 
ATOM     18  C   UNL A   1      32.641  19.850  23.409  1.00  0.00     0.022 A 
BRANCH  14  19
ATOM     19  O   UNL A   1      33.428  16.883  25.494  1.00  0.00    -0.496 OA
ATOM     20  C   UNL A   1      32.238  16.145  25.781  1.00  0.00     0.278 C 
ENDBRANCH  14  19
BRANCH  16  21
ATOM     21  C   UNL A   1      32.921  17.556  22.620  1.00  0.00     0.075 C 
ATOM     22  O   UNL A   1      32.123  17.598  21.701  1.00  0.00    -0.545 OA
ATOM     23  O   UNL A   1      33.917  16.659  22.632  1.00  0.00    -0.545 OA
ENDBRANCH  16  21
ENDBRANCH   5  13
BRANCH   9  24
ATOM     24  C   UNL A   1      30.908  26.897  24.065  1.00  0.00     0.054 A 
ATOM     25  C   UNL A   1      29.516  27.033  23.879  1.00  0.00     0.027 A 
ATOM     26  C   UNL A   1      31.732  27.916  23.568  1.00  0.00     0.027 A 
ATOM     27  C   UNL A   1      28.982  28.105  23.154  1.00  0.00     0.002 A 
ATOM     28  C   UNL A   1      31.192  29.010  22.882  1.00  0.00     0.002 A 
ATOM     29  C   UNL A   1      29.823  29.091  22.649  1.00  0.00     0.000 A 
ENDBRANCH   9  24
ENDBRANCH   3   4
ENDBRANCH   2   3
ENDBRANCH   1   2
BRANCH   1  30
ATOM     30  O   UNL A   1      37.365  21.999  24.447  1.00  0.00    -0.458 OA
BRANCH  30  31
ATOM     31  C   UNL A   1      38.133  21.388  25.377  1.00  0.00     0.338 C 
ATOM     32  O   UNL A   1      38.378  20.199  25.470  1.00  0.00    -0.246 OA
BRANCH  31  33
ATOM     33  C   UNL A   1      38.874  22.430  26.099  1.00  0.00     0.060 A 
ATOM     34  C   UNL A   1      38.362  23.716  25.984  1.00  0.00     0.016 A 
ATOM     35  C   UNL A   1      40.054  22.200  26.805  1.00  0.00     0.016 A 
ATOM     36  C   UNL A   1      39.037  24.790  26.541  1.00  0.00     0.010 A 
ATOM     37  C   UNL A   1      40.740  23.295  27.361  1.00  0.00     0.010 A 
ATOM     38  C   UNL A   1      40.254  24.607  27.199  1.00  0.00    -0.014 A 
BRANCH  38  39
ATOM     39  C   UNL A   1      41.060  25.825  27.506  1.00  0.00     0.031 A 
ATOM     40  C   UNL A   1      40.488  26.849  28.453  1.00  0.00     0.074 A 
ATOM     41  C   UNL A   1      42.346  25.934  27.113  1.00  0.00     0.049 A 
ATOM     42  N   UNL A   1      40.962  28.018  28.798  1.00  0.00    -0.248 NA
ATOM     43  C   UNL A   1      39.215  26.506  29.107  1.00  0.00     0.031 C 
ATOM     44  C   UNL A   1      43.079  24.934  26.334  1.00  0.00     0.029 A 
ATOM     45  N   UNL A   1      43.284  26.909  27.357  1.00  0.00    -0.354 N 
ATOM     46  C   UNL A   1      40.010  28.581  29.642  1.00  0.00     0.074 A 
ATOM     47  C   UNL A   1      38.945  27.612  29.782  1.00  0.00     0.031 C 
ATOM     48  C   UNL A   1      44.362  25.315  26.223  1.00  0.00     0.029 A 
ATOM     49  C   UNL A   1      44.526  26.634  26.826  1.00  0.00     0.049 A 
ATOM     50  H   UNL A   1      43.086  27.728  27.866  1.00  0.00     0.167 HD
ATOM     51  C   UNL A   1      40.018  29.803  30.226  1.00  0.00     0.034 A 
ATOM     52  C   UNL A   1      45.653  27.378  26.795  1.00  0.00     0.034 A 
ATOM     53  C   UNL A   1      41.119  30.730  30.130  1.00  0.00     0.049 A 
ATOM     54  C   UNL A   1      45.616  28.759  27.412  1.00  0.00     0.074 A 
ATOM     55  C   UNL A   1      41.212  32.015  30.633  1.00  0.00     0.029 A 
ATOM     56  N   UNL A   1      42.328  30.461  29.504  1.00  0.00    -0.354 N 
ATOM     57  N   UNL A   1      44.652  29.340  28.089  1.00  0.00    -0.248 NA
ATOM     58  C   UNL A   1      46.815  29.591  27.241  1.00  0.00     0.031 C 
ATOM     59  C   UNL A   1      42.454  32.543  30.265  1.00  0.00     0.029 A 
ATOM     60  C   UNL A   1      43.166  31.561  29.594  1.00  0.00     0.049 A 
ATOM     61  H   UNL A   1      42.558  29.613  29.061  1.00  0.00     0.167 HD
ATOM     62  C   UNL A   1      45.136  30.600  28.431  1.00  0.00     0.074 A 
ATOM     63  C   UNL A   1      46.493  30.674  27.931  1.00  0.00     0.031 C 
ATOM     64  C   UNL A   1      44.515  31.617  29.084  1.00  0.00     0.034 A 
BRANCH  51  65
ATOM     65  C   UNL A   1      38.754  30.252  30.916  1.00  0.00     0.023 A 
ATOM     66  C   UNL A   1      37.717  30.928  30.251  1.00  0.00     0.031 A 
ATOM     67  C   UNL A   1      38.607  30.005  32.294  1.00  0.00     0.131 A 
ATOM     68  C   UNL A   1      36.600  31.373  30.979  1.00  0.00     0.055 A 
ATOM     69  C   UNL A   1      37.465  30.390  32.996  1.00  0.00     0.041 A 
ATOM     70  F   UNL A   1      39.581  29.391  32.984  1.00  0.00    -0.206 F 
ATOM     71  C   UNL A   1      36.457  31.086  32.340  1.00  0.00     0.022 A 
BRANCH  68  72
ATOM     72  S   UNL A   1      35.381  32.430  30.150  1.00  0.00     0.124 S 
ATOM     73  O   UNL A   1      36.184  33.605  29.822  1.00  0.00    -0.237 OA
ATOM     74  O   UNL A   1      34.962  31.606  29.023  1.00  0.00    -0.237 OA
ATOM     75  O   UNL A   1      34.362  32.648  31.176  1.00  0.00    -0.744 OA
ENDBRANCH  68  72
ENDBRANCH  51  65
BRANCH  52  76
ATOM     76  C   UNL A   1      46.885  26.900  26.090  1.00  0.00     0.023 A 
ATOM     77  C   UNL A   1      47.909  26.231  26.781  1.00  0.00     0.031 A 
ATOM     78  C   UNL A   1      47.110  27.205  24.733  1.00  0.00     0.131 A 
ATOM     79  C   UNL A   1      49.126  25.947  26.137  1.00  0.00     0.055 A 
ATOM     80  C   UNL A   1      48.289  26.849  24.076  1.00  0.00     0.041 A 
ATOM     81  F   UNL A   1      46.184  27.868  24.021  1.00  0.00    -0.206 F 
ATOM     82  C   UNL A   1      49.314  26.234  24.784  1.00  0.00     0.022 A 
BRANCH  79  83
ATOM     83  S   UNL A   1      50.516  25.334  27.130  1.00  0.00     0.124 S 
ATOM     84  O   UNL A   1      51.450  24.899  26.097  1.00  0.00    -0.237 OA
ATOM     85  O   UNL A   1      50.899  26.525  27.881  1.00  0.00    -0.237 OA
ATOM     86  O   UNL A   1      49.921  24.261  27.924  1.00  0.00    -0.744 OA
ENDBRANCH  79  83
ENDBRANCH  52  76
BRANCH  64  87
ATOM     87  C   UNL A   1      45.322  32.871  29.318  1.00  0.00     0.023 A 
ATOM     88  C   UNL A   1      45.352  33.913  28.374  1.00  0.00     0.031 A 
ATOM     89  C   UNL A   1      46.097  33.010  30.482  1.00  0.00     0.131 A 
ATOM     90  C   UNL A   1      46.197  35.014  28.575  1.00  0.00     0.055 A 
ATOM     91  C   UNL A   1      46.886  34.138  30.708  1.00  0.00     0.041 A 
ATOM     92  F   UNL A   1      46.104  32.048  31.418  1.00  0.00    -0.206 F 
ATOM     93  C   UNL A   1      46.954  35.140  29.743  1.00  0.00     0.022 A 
BRANCH  90  94
ATOM     94  S   UNL A   1      46.387  36.221  27.234  1.00  0.00     0.124 S 
ATOM     95  O   UNL A   1      46.250  35.383  26.047  1.00  0.00    -0.237 OA
ATOM     96  O   UNL A   1      45.287  37.145  27.491  1.00  0.00    -0.237 OA
ATOM     97  O   UNL A   1      47.722  36.771  27.454  1.00  0.00    -0.744 OA
ENDBRANCH  90  94
ENDBRANCH  64  87
ENDBRANCH  38  39
ENDBRANCH  31  33
ENDBRANCH  30  31
ENDBRANCH   1  30
TORSDOF 17
ENDMDL
MODEL 2
REMARK VINA RESULT:     -13.0      4.928      9.409
REMARK SMILES COc1ccc(/C=C2/C(=O)N(c3ccccc3)C(=O)N=C2OCCOC(=O)c2ccc(-c3c4nc(c(-c5cc(S(=O)(=O)[O-])ccc5F)c5ccc([nH]5)c(-c5cc(S(=O)(=O)[O-])ccc5F)c5nc(c(-c6cc(S(=O)(=O)[O-])ccc6F)c6ccc3[nH]6)C=C5)C=C4)cc2)cc1C(=O)[O-]
REMARK SMILES IDX 24 1 23 2 22 3 21 4 7 5 8 6 9 7 10 8 11 9 20 10 18 11 19 12
REMARK SMILES IDX 6 13 3 14 4 15 92 16 5 17 91 18 2 19 1 20 93 21 94 22 95 23
REMARK SMILES IDX 12 24 13 25 17 26 14 27 16 28 15 29 25 30 26 31 27 32 28 33
REMARK SMILES IDX 29 34 90 35 30 36 89 37 31 38 32 39 33 40 83 41 34 42 88 43
REMARK SMILES IDX 82 44 84 45 35 46 87 47 81 48 80 49 36 51 68 52 48 53 67 54
REMARK SMILES IDX 49 55 52 56 66 57 85 58 50 59 51 60 65 62 86 63 53 64 37 65
REMARK SMILES IDX 38 66 46 67 39 68 45 69 47 70 44 71 40 72 41 73 42 74 43 75
REMARK SMILES IDX 69 76 70 77 78 78 71 79 77 80 79 81 76 82 72 83 73 84 74 85
REMARK SMILES IDX 75 86 54 87 55 88 63 89 56 90 62 91 64 92 61 93 57 94 58 95
REMARK SMILES IDX 59 96 60 97
REMARK H PARENT 84 50 52 61
REMARK Flexibility Score: inf
ROOT
ATOM      1  C   UNL A   1      31.805  28.478  26.755  1.00  0.00     0.274 C 
ENDROOT
BRANCH   1   2
ATOM      2  C   UNL A   1      32.331  27.047  26.614  1.00  0.00     0.273 C 
BRANCH   2   3
ATOM      3  O   UNL A   1      31.415  26.242  25.832  1.00  0.00    -0.473 OA
BRANCH   3   4
ATOM      4  C   UNL A   1      30.797  26.765  24.751  1.00  0.00     0.231 C 
ATOM      5  C   UNL A   1      32.793  26.517  23.200  1.00  0.00     0.027 C 
ATOM      6  C   UNL A   1      31.720  27.168  23.693  1.00  0.00     0.103 C 
ATOM      7  C   UNL A   1      31.296  28.428  23.005  1.00  0.00     0.272 C 
ATOM      8  O   UNL A   1      32.112  29.084  22.362  1.00  0.00    -0.268 OA
ATOM      9  N   UNL A   1      29.931  28.690  23.111  1.00  0.00    -0.226 N 
ATOM     10  N   UNL A   1      29.533  26.987  24.701  1.00  0.00    -0.156 NA
ATOM     11  C   UNL A   1      29.073  27.698  23.610  1.00  0.00     0.358 C 
ATOM     12  O   UNL A   1      27.954  27.457  23.168  1.00  0.00    -0.245 OA
BRANCH   5  13
ATOM     13  C   UNL A   1      33.428  25.216  23.515  1.00  0.00    -0.024 A 
ATOM     14  C   UNL A   1      34.476  22.622  24.046  1.00  0.00     0.127 A 
ATOM     15  C   UNL A   1      35.130  23.767  24.501  1.00  0.00     0.048 A 
ATOM     16  C   UNL A   1      33.252  22.767  23.391  1.00  0.00     0.040 A 
ATOM     17  C   UNL A   1      34.590  25.041  24.271  1.00  0.00     0.012 A 
ATOM     18  C   UNL A   1      32.754  24.053  23.106  1.00  0.00     0.022 A 
BRANCH  14  19
ATOM     19  O   UNL A   1      35.010  21.429  24.445  1.00  0.00    -0.496 OA
ATOM     20  C   UNL A   1      35.539  21.465  25.772  1.00  0.00     0.278 C 
ENDBRANCH  14  19
BRANCH  16  21
ATOM     21  C   UNL A   1      32.332  21.648  23.123  1.00  0.00     0.075 C 
ATOM     22  O   UNL A   1      32.006  21.264  22.015  1.00  0.00    -0.545 OA
ATOM     23  O   UNL A   1      31.954  20.985  24.225  1.00  0.00    -0.545 OA
ENDBRANCH  16  21
ENDBRANCH   5  13
BRANCH   9  24
ATOM     24  C   UNL A   1      29.411  29.953  22.648  1.00  0.00     0.054 A 
ATOM     25  C   UNL A   1      29.154  30.974  23.588  1.00  0.00     0.027 A 
ATOM     26  C   UNL A   1      28.997  30.169  21.327  1.00  0.00     0.027 A 
ATOM     27  C   UNL A   1      28.438  32.124  23.234  1.00  0.00     0.002 A 
ATOM     28  C   UNL A   1      28.320  31.340  20.964  1.00  0.00     0.002 A 
ATOM     29  C   UNL A   1      28.015  32.302  21.921  1.00  0.00     0.000 A 
ENDBRANCH   9  24
ENDBRANCH   3   4
ENDBRANCH   2   3
ENDBRANCH   1   2
BRANCH   1  30
ATOM     30  O   UNL A   1      32.750  29.396  26.176  1.00  0.00    -0.458 OA
BRANCH  30  31
ATOM     31  C   UNL A   1      32.879  30.575  26.825  1.00  0.00     0.338 C 
ATOM     32  O   UNL A   1      32.005  31.390  27.063  1.00  0.00    -0.246 OA
BRANCH  31  33
ATOM     33  C   UNL A   1      34.201  30.592  27.464  1.00  0.00     0.060 A 
ATOM     34  C   UNL A   1      34.949  29.430  27.318  1.00  0.00     0.016 A 
ATOM     35  C   UNL A   1      34.682  31.650  28.232  1.00  0.00     0.016 A 
ATOM     36  C   UNL A   1      36.168  29.298  27.963  1.00  0.00     0.010 A 
ATOM     37  C   UNL A   1      35.916  31.508  28.893  1.00  0.00     0.010 A 
ATOM     38  C   UNL A   1      36.653  30.312  28.792  1.00  0.00    -0.014 A 
BRANCH  38  39
ATOM     39  C   UNL A   1      37.808  29.982  29.677  1.00  0.00     0.031 A 
ATOM     40  C   UNL A   1      38.974  29.227  29.091  1.00  0.00     0.074 A 
ATOM     41  C   UNL A   1      37.915  30.504  30.917  1.00  0.00     0.049 A 
ATOM     42  N   UNL A   1      40.041  28.756  29.683  1.00  0.00    -0.248 NA
ATOM     43  C   UNL A   1      38.937  28.977  27.641  1.00  0.00     0.031 C 
ATOM     44  C   UNL A   1      36.937  31.393  31.546  1.00  0.00     0.029 A 
ATOM     45  N   UNL A   1      38.919  30.409  31.851  1.00  0.00    -0.354 N 
ATOM     46  C   UNL A   1      40.759  28.087  28.696  1.00  0.00     0.074 A 
ATOM     47  C   UNL A   1      40.021  28.239  27.461  1.00  0.00     0.031 C 
ATOM     48  C   UNL A   1      37.418  31.811  32.729  1.00  0.00     0.029 A 
ATOM     49  C   UNL A   1      38.687  31.141  32.997  1.00  0.00     0.049 A 
ATOM     50  H   UNL A   1      39.729  29.868  31.715  1.00  0.00     0.167 HD
ATOM     51  C   UNL A   1      41.915  27.392  28.819  1.00  0.00     0.034 A 
ATOM     52  C   UNL A   1      39.396  31.229  34.142  1.00  0.00     0.034 A 
ATOM     53  C   UNL A   1      42.672  27.307  30.044  1.00  0.00     0.049 A 
ATOM     54  C   UNL A   1      40.656  30.402  34.270  1.00  0.00     0.074 A 
ATOM     55  C   UNL A   1      43.826  26.586  30.298  1.00  0.00     0.029 A 
ATOM     56  N   UNL A   1      42.361  27.983  31.216  1.00  0.00    -0.354 N 
ATOM     57  N   UNL A   1      41.252  29.655  33.369  1.00  0.00    -0.248 NA
ATOM     58  C   UNL A   1      41.328  30.418  35.576  1.00  0.00     0.031 C 
ATOM     59  C   UNL A   1      44.181  26.782  31.637  1.00  0.00     0.029 A 
ATOM     60  C   UNL A   1      43.291  27.684  32.199  1.00  0.00     0.049 A 
ATOM     61  H   UNL A   1      41.593  28.588  31.332  1.00  0.00     0.167 HD
ATOM     62  C   UNL A   1      42.373  29.121  34.002  1.00  0.00     0.074 A 
ATOM     63  C   UNL A   1      42.396  29.672  35.340  1.00  0.00     0.031 C 
ATOM     64  C   UNL A   1      43.294  28.241  33.531  1.00  0.00     0.034 A 
BRANCH  51  65
ATOM     65  C   UNL A   1      42.364  26.574  27.634  1.00  0.00     0.023 A 
ATOM     66  C   UNL A   1      41.976  25.239  27.434  1.00  0.00     0.031 A 
ATOM     67  C   UNL A   1      43.229  27.161  26.691  1.00  0.00     0.131 A 
ATOM     68  C   UNL A   1      42.491  24.523  26.340  1.00  0.00     0.055 A 
ATOM     69  C   UNL A   1      43.682  26.465  25.571  1.00  0.00     0.041 A 
ATOM     70  F   UNL A   1      43.656  28.424  26.851  1.00  0.00    -0.206 F 
ATOM     71  C   UNL A   1      43.320  25.134  25.395  1.00  0.00     0.022 A 
BRANCH  68  72
ATOM     72  S   UNL A   1      42.153  22.744  26.221  1.00  0.00     0.124 S 
ATOM     73  O   UNL A   1      42.712  22.425  24.910  1.00  0.00    -0.237 OA
ATOM     74  O   UNL A   1      42.873  22.208  27.371  1.00  0.00    -0.237 OA
ATOM     75  O   UNL A   1      40.696  22.665  26.306  1.00  0.00    -0.744 OA
ENDBRANCH  68  72
ENDBRANCH  51  65
BRANCH  52  76
ATOM     76  C   UNL A   1      38.909  32.044  35.301  1.00  0.00     0.023 A 
ATOM     77  C   UNL A   1      38.431  31.434  36.474  1.00  0.00     0.031 A 
ATOM     78  C   UNL A   1      38.809  33.446  35.212  1.00  0.00     0.131 A 
ATOM     79  C   UNL A   1      37.823  32.211  37.475  1.00  0.00     0.055 A 
ATOM     80  C   UNL A   1      38.276  34.221  36.244  1.00  0.00     0.041 A 
ATOM     81  F   UNL A   1      39.221  34.091  34.108  1.00  0.00    -0.206 F 
ATOM     82  C   UNL A   1      37.761  33.602  37.375  1.00  0.00     0.022 A 
BRANCH  79  83
ATOM     83  S   UNL A   1      36.977  31.366  38.840  1.00  0.00     0.124 S 
ATOM     84  O   UNL A   1      36.835  30.014  38.312  1.00  0.00    -0.237 OA
ATOM     85  O   UNL A   1      37.928  31.532  39.933  1.00  0.00    -0.237 OA
ATOM     86  O   UNL A   1      35.729  32.114  38.982  1.00  0.00    -0.744 OA
ENDBRANCH  79  83
ENDBRANCH  52  76
BRANCH  64  87
ATOM     87  C   UNL A   1      44.414  27.859  34.468  1.00  0.00     0.023 A 
ATOM     88  C   UNL A   1      44.211  26.959  35.529  1.00  0.00     0.031 A 
ATOM     89  C   UNL A   1      45.690  28.429  34.318  1.00  0.00     0.131 A 
ATOM     90  C   UNL A   1      45.246  26.713  36.444  1.00  0.00     0.055 A 
ATOM     91  C   UNL A   1      46.735  28.130  35.193  1.00  0.00     0.041 A 
ATOM     92  F   UNL A   1      45.941  29.293  33.321  1.00  0.00    -0.206 F 
ATOM     93  C   UNL A   1      46.511  27.282  36.274  1.00  0.00     0.022 A 
BRANCH  90  94
ATOM     94  S   UNL A   1      44.881  25.734  37.927  1.00  0.00     0.124 S 
ATOM     95  O   UNL A   1      43.636  26.338  38.393  1.00  0.00    -0.237 OA
ATOM     96  O   UNL A   1      44.769  24.382  37.387  1.00  0.00    -0.237 OA
ATOM     97  O   UNL A   1      46.041  25.964  38.784  1.00  0.00    -0.744 OA
ENDBRANCH  90  94
ENDBRANCH  64  87
ENDBRANCH  38  39
ENDBRANCH  31  33
ENDBRANCH  30  31
ENDBRANCH   1  30
TORSDOF 17
ENDMDL
MODEL 3
REMARK VINA RESULT:     -12.6      4.224      8.924
REMARK SMILES COc1ccc(/C=C2/C(=O)N(c3ccccc3)C(=O)N=C2OCCOC(=O)c2ccc(-c3c4nc(c(-c5cc(S(=O)(=O)[O-])ccc5F)c5ccc([nH]5)c(-c5cc(S(=O)(=O)[O-])ccc5F)c5nc(c(-c6cc(S(=O)(=O)[O-])ccc6F)c6ccc3[nH]6)C=C5)C=C4)cc2)cc1C(=O)[O-]
REMARK SMILES IDX 24 1 23 2 22 3 21 4 7 5 8 6 9 7 10 8 11 9 20 10 18 11 19 12
REMARK SMILES IDX 6 13 3 14 4 15 92 16 5 17 91 18 2 19 1 20 93 21 94 22 95 23
REMARK SMILES IDX 12 24 13 25 17 26 14 27 16 28 15 29 25 30 26 31 27 32 28 33
REMARK SMILES IDX 29 34 90 35 30 36 89 37 31 38 32 39 33 40 83 41 34 42 88 43
REMARK SMILES IDX 82 44 84 45 35 46 87 47 81 48 80 49 36 51 68 52 48 53 67 54
REMARK SMILES IDX 49 55 52 56 66 57 85 58 50 59 51 60 65 62 86 63 53 64 37 65
REMARK SMILES IDX 38 66 46 67 39 68 45 69 47 70 44 71 40 72 41 73 42 74 43 75
REMARK SMILES IDX 69 76 70 77 78 78 71 79 77 80 79 81 76 82 72 83 73 84 74 85
REMARK SMILES IDX 75 86 54 87 55 88 63 89 56 90 62 91 64 92 61 93 57 94 58 95
REMARK SMILES IDX 59 96 60 97
REMARK H PARENT 84 50 52 61
REMARK Flexibility Score: inf
ROOT
ATOM      1  C   UNL A   1      32.063  28.487  26.876  1.00  0.00     0.274 C 
ENDROOT
BRANCH   1   2
ATOM      2  C   UNL A   1      32.613  27.067  26.711  1.00  0.00     0.273 C 
BRANCH   2   3
ATOM      3  O   UNL A   1      31.677  26.240  25.976  1.00  0.00    -0.473 OA
BRANCH   3   4
ATOM      4  C   UNL A   1      31.021  26.736  24.905  1.00  0.00     0.231 C 
ATOM      5  C   UNL A   1      32.963  26.456  23.293  1.00  0.00     0.027 C 
ATOM      6  C   UNL A   1      31.906  27.116  23.806  1.00  0.00     0.103 C 
ATOM      7  C   UNL A   1      31.455  28.359  23.104  1.00  0.00     0.272 C 
ATOM      8  O   UNL A   1      32.246  29.002  22.418  1.00  0.00    -0.268 OA
ATOM      9  N   UNL A   1      30.094  28.622  23.251  1.00  0.00    -0.226 N 
ATOM     10  N   UNL A   1      29.756  26.956  24.893  1.00  0.00    -0.156 NA
ATOM     11  C   UNL A   1      29.256  27.639  23.802  1.00  0.00     0.358 C 
ATOM     12  O   UNL A   1      28.124  27.386  23.405  1.00  0.00    -0.245 OA
BRANCH   5  13
ATOM     13  C   UNL A   1      33.612  25.164  23.615  1.00  0.00    -0.024 A 
ATOM     14  C   UNL A   1      34.686  22.585  24.166  1.00  0.00     0.127 A 
ATOM     15  C   UNL A   1      35.339  23.741  24.596  1.00  0.00     0.048 A 
ATOM     16  C   UNL A   1      33.451  22.712  23.528  1.00  0.00     0.040 A 
ATOM     17  C   UNL A   1      34.786  25.008  24.356  1.00  0.00     0.012 A 
ATOM     18  C   UNL A   1      32.940  23.991  23.233  1.00  0.00     0.022 A 
BRANCH  14  19
ATOM     19  O   UNL A   1      35.234  21.401  24.573  1.00  0.00    -0.496 OA
ATOM     20  C   UNL A   1      36.148  21.550  25.662  1.00  0.00     0.278 C 
ENDBRANCH  14  19
BRANCH  16  21
ATOM     21  C   UNL A   1      32.536  21.584  23.289  1.00  0.00     0.075 C 
ATOM     22  O   UNL A   1      32.079  20.860  24.155  1.00  0.00    -0.545 OA
ATOM     23  O   UNL A   1      32.135  21.474  22.014  1.00  0.00    -0.545 OA
ENDBRANCH  16  21
ENDBRANCH   5  13
BRANCH   9  24
ATOM     24  C   UNL A   1      29.555  29.872  22.777  1.00  0.00     0.054 A 
ATOM     25  C   UNL A   1      29.273  30.894  23.709  1.00  0.00     0.027 A 
ATOM     26  C   UNL A   1      29.146  30.073  21.452  1.00  0.00     0.027 A 
ATOM     27  C   UNL A   1      28.539  32.029  23.343  1.00  0.00     0.002 A 
ATOM     28  C   UNL A   1      28.451  31.229  21.078  1.00  0.00     0.002 A 
ATOM     29  C   UNL A   1      28.123  32.192  22.026  1.00  0.00     0.000 A 
ENDBRANCH   9  24
ENDBRANCH   3   4
ENDBRANCH   2   3
ENDBRANCH   1   2
BRANCH   1  30
ATOM     30  O   UNL A   1      32.926  29.418  26.201  1.00  0.00    -0.458 OA
BRANCH  30  31
ATOM     31  C   UNL A   1      33.091  30.607  26.823  1.00  0.00     0.338 C 
ATOM     32  O   UNL A   1      32.229  31.417  27.113  1.00  0.00    -0.246 OA
BRANCH  31  33
ATOM     33  C   UNL A   1      34.456  30.642  27.366  1.00  0.00     0.060 A 
ATOM     34  C   UNL A   1      35.104  29.416  27.430  1.00  0.00     0.016 A 
ATOM     35  C   UNL A   1      35.068  31.792  27.859  1.00  0.00     0.016 A 
ATOM     36  C   UNL A   1      36.356  29.317  28.017  1.00  0.00     0.010 A 
ATOM     37  C   UNL A   1      36.335  31.686  28.462  1.00  0.00     0.010 A 
ATOM     38  C   UNL A   1      36.973  30.436  28.579  1.00  0.00    -0.014 A 
BRANCH  38  39
ATOM     39  C   UNL A   1      38.165  30.201  29.446  1.00  0.00     0.031 A 
ATOM     40  C   UNL A   1      39.354  29.483  28.859  1.00  0.00     0.074 A 
ATOM     41  C   UNL A   1      38.275  30.775  30.661  1.00  0.00     0.049 A 
ATOM     42  N   UNL A   1      40.458  29.090  29.440  1.00  0.00    -0.248 NA
ATOM     43  C   UNL A   1      39.294  29.174  27.421  1.00  0.00     0.031 C 
ATOM     44  C   UNL A   1      37.268  31.639  31.281  1.00  0.00     0.029 A 
ATOM     45  N   UNL A   1      39.304  30.768  31.572  1.00  0.00    -0.354 N 
ATOM     46  C   UNL A   1      41.185  28.419  28.461  1.00  0.00     0.074 A 
ATOM     47  C   UNL A   1      40.411  28.485  27.241  1.00  0.00     0.031 C 
ATOM     48  C   UNL A   1      37.755  32.127  32.434  1.00  0.00     0.029 A 
ATOM     49  C   UNL A   1      39.062  31.533  32.694  1.00  0.00     0.049 A 
ATOM     50  H   UNL A   1      40.138  30.264  31.436  1.00  0.00     0.167 HD
ATOM     51  C   UNL A   1      42.378  27.789  28.581  1.00  0.00     0.034 A 
ATOM     52  C   UNL A   1      39.793  31.701  33.817  1.00  0.00     0.034 A 
ATOM     53  C   UNL A   1      43.168  27.791  29.788  1.00  0.00     0.049 A 
ATOM     54  C   UNL A   1      41.098  30.946  33.943  1.00  0.00     0.074 A 
ATOM     55  C   UNL A   1      44.363  27.140  30.039  1.00  0.00     0.029 A 
ATOM     56  N   UNL A   1      42.851  28.497  30.941  1.00  0.00    -0.354 N 
ATOM     57  N   UNL A   1      41.709  30.194  33.056  1.00  0.00    -0.248 NA
ATOM     58  C   UNL A   1      41.799  31.046  35.230  1.00  0.00     0.031 C 
ATOM     59  C   UNL A   1      44.739  27.407  31.359  1.00  0.00     0.029 A 
ATOM     60  C   UNL A   1      43.818  28.284  31.910  1.00  0.00     0.049 A 
ATOM     61  H   UNL A   1      42.056  29.066  31.053  1.00  0.00     0.167 HD
ATOM     62  C   UNL A   1      42.871  29.743  33.679  1.00  0.00     0.074 A 
ATOM     63  C   UNL A   1      42.898  30.347  34.994  1.00  0.00     0.031 C 
ATOM     64  C   UNL A   1      43.825  28.892  33.218  1.00  0.00     0.034 A 
BRANCH  51  65
ATOM     65  C   UNL A   1      42.840  26.949  27.416  1.00  0.00     0.023 A 
ATOM     66  C   UNL A   1      42.620  25.564  27.337  1.00  0.00     0.031 A 
ATOM     67  C   UNL A   1      43.543  27.569  26.367  1.00  0.00     0.131 A 
ATOM     68  C   UNL A   1      43.141  24.839  26.251  1.00  0.00     0.055 A 
ATOM     69  C   UNL A   1      43.998  26.855  25.258  1.00  0.00     0.041 A 
ATOM     70  F   UNL A   1      43.807  28.885  26.407  1.00  0.00    -0.206 F 
ATOM     71  C   UNL A   1      43.805  25.479  25.201  1.00  0.00     0.022 A 
BRANCH  68  72
ATOM     72  S   UNL A   1      43.037  23.028  26.277  1.00  0.00     0.124 S 
ATOM     73  O   UNL A   1      42.844  22.724  24.862  1.00  0.00    -0.237 OA
ATOM     74  O   UNL A   1      44.325  22.645  26.844  1.00  0.00    -0.237 OA
ATOM     75  O   UNL A   1      41.878  22.763  27.128  1.00  0.00    -0.744 OA
ENDBRANCH  68  72
ENDBRANCH  51  65
BRANCH  52  76
ATOM     76  C   UNL A   1      39.294  32.536  34.956  1.00  0.00     0.023 A 
ATOM     77  C   UNL A   1      39.743  33.855  35.146  1.00  0.00     0.031 A 
ATOM     78  C   UNL A   1      38.444  31.992  35.938  1.00  0.00     0.131 A 
ATOM     79  C   UNL A   1      39.394  34.556  36.313  1.00  0.00     0.055 A 
ATOM     80  C   UNL A   1      38.037  32.722  37.057  1.00  0.00     0.041 A 
ATOM     81  F   UNL A   1      38.002  30.728  35.833  1.00  0.00    -0.206 F 
ATOM     82  C   UNL A   1      38.528  34.005  37.259  1.00  0.00     0.022 A 
BRANCH  79  83
ATOM     83  S   UNL A   1      40.209  36.142  36.654  1.00  0.00     0.124 S 
ATOM     84  O   UNL A   1      39.487  36.599  37.836  1.00  0.00    -0.237 OA
ATOM     85  O   UNL A   1      41.592  35.732  36.865  1.00  0.00    -0.237 OA
ATOM     86  O   UNL A   1      39.967  36.917  35.438  1.00  0.00    -0.744 OA
ENDBRANCH  79  83
ENDBRANCH  52  76
BRANCH  64  87
ATOM     87  C   UNL A   1      44.985  28.605  34.140  1.00  0.00     0.023 A 
ATOM     88  C   UNL A   1      46.081  29.481  34.237  1.00  0.00     0.031 A 
ATOM     89  C   UNL A   1      45.011  27.425  34.904  1.00  0.00     0.131 A 
ATOM     90  C   UNL A   1      47.190  29.128  35.021  1.00  0.00     0.055 A 
ATOM     91  C   UNL A   1      46.088  27.111  35.732  1.00  0.00     0.041 A 
ATOM     92  F   UNL A   1      43.990  26.555  34.852  1.00  0.00    -0.206 F 
ATOM     93  C   UNL A   1      47.194  27.955  35.780  1.00  0.00     0.022 A 
BRANCH  90  94
ATOM     94  S   UNL A   1      48.677  30.164  34.940  1.00  0.00     0.124 S 
ATOM     95  O   UNL A   1      48.160  31.396  34.350  1.00  0.00    -0.237 OA
ATOM     96  O   UNL A   1      49.074  30.248  36.342  1.00  0.00    -0.237 OA
ATOM     97  O   UNL A   1      49.581  29.399  34.084  1.00  0.00    -0.744 OA
ENDBRANCH  90  94
ENDBRANCH  64  87
ENDBRANCH  38  39
ENDBRANCH  31  33
ENDBRANCH  30  31
ENDBRANCH   1  30
TORSDOF 17
ENDMDL
