MODEL 1
REMARK VINA RESULT:     -10.9      0.000      0.000
REMARK SMILES C[C@H]1[NH2+]CC[C@@H]1C(=O)N[C@@H](CC(=O)OCCOC(=O)c1ccc(-c2c3nc(c(-c4cc(S(=O)(=O)[O-])ccc4F)c4ccc([nH]4)c(-c4cc(S(=O)(=O)[O-])ccc4F)c4nc(c(-c5cc(S(=O)(=O)[O-])ccc5F)c5ccc2[nH]5)C=C4)C=C3)cc1)c1cccs1
REMARK SMILES IDX 15 1 14 2 12 3 13 4 11 5 10 6 9 7 7 8 8 9 6 11 1 12 2 13
REMARK SMILES IDX 3 14 4 15 5 18 83 19 84 20 87 21 85 22 86 23 16 24 17 25
REMARK SMILES IDX 18 26 19 27 20 28 21 29 82 30 22 31 81 32 23 33 24 34 25 35
REMARK SMILES IDX 75 36 26 37 80 38 74 39 76 40 27 41 79 42 73 43 72 44 28 46
REMARK SMILES IDX 60 47 40 48 59 49 41 50 44 51 58 52 77 53 42 54 43 55 57 57
REMARK SMILES IDX 78 58 45 59 29 60 30 61 38 62 31 63 37 64 39 65 36 66 32 67
REMARK SMILES IDX 33 68 34 69 35 70 61 71 62 72 70 73 63 74 69 75 71 76 68 77
REMARK SMILES IDX 64 78 65 79 66 80 67 81 46 82 47 83 55 84 48 85 54 86 56 87
REMARK SMILES IDX 53 88 49 89 50 90 51 91 52 92
REMARK H PARENT 9 10 3 16 3 17 76 45 44 56
REMARK Flexibility Score: inf
ROOT
ATOM      1  C   UNL A   1      34.776  21.583  24.959  1.00  0.00     0.274 C 
ENDROOT
BRANCH   1   2
ATOM      2  O   UNL A   1      33.944  21.804  26.118  1.00  0.00    -0.462 OA
BRANCH   2   3
ATOM      3  C   UNL A   1      33.414  23.050  26.198  1.00  0.00     0.308 C 
ATOM      4  O   UNL A   1      32.268  23.295  26.563  1.00  0.00    -0.252 OA
BRANCH   3   5
ATOM      5  C   UNL A   1      34.317  24.149  25.714  1.00  0.00     0.153 C 
BRANCH   5   6
ATOM      6  C   UNL A   1      33.734  25.488  25.280  1.00  0.00     0.133 C 
BRANCH   6   7
ATOM      7  N   UNL A   1      32.772  26.023  26.228  1.00  0.00    -0.347 N 
ATOM      8  C   UNL A   1      32.573  27.296  26.669  1.00  0.00     0.229 C 
ATOM      9  O   UNL A   1      31.628  27.462  27.445  1.00  0.00    -0.275 OA
ATOM     10  H   UNL A   1      32.163  25.354  26.614  1.00  0.00     0.164 HD
BRANCH   8  11
ATOM     11  C   UNL A   1      33.562  28.418  26.315  1.00  0.00     0.142 C 
ATOM     12  C   UNL A   1      35.617  29.363  27.474  1.00  0.00     0.076 C 
ATOM     13  C   UNL A   1      34.109  29.117  27.579  1.00  0.00     0.192 C 
ATOM     14  N   UNL A   1      33.417  30.422  27.699  1.00  0.00    -0.343 N 
ATOM     15  C   UNL A   1      32.432  30.492  26.620  1.00  0.00     0.261 C 
ATOM     16  H   UNL A   1      34.089  31.184  27.609  1.00  0.00     0.346 HD
ATOM     17  H   UNL A   1      32.962  30.507  28.609  1.00  0.00     0.346 HD
ATOM     18  C   UNL A   1      32.985  29.594  25.541  1.00  0.00     0.081 C 
ENDBRANCH   8  11
ENDBRANCH   6   7
BRANCH   6  19
ATOM     19  C   UNL A   1      33.188  25.541  23.866  1.00  0.00     0.027 A 
ATOM     20  C   UNL A   1      33.825  26.048  22.744  1.00  0.00     0.017 A 
ATOM     21  S   UNL A   1      31.574  25.077  23.479  1.00  0.00    -0.147 S 
ATOM     22  C   UNL A   1      32.975  26.109  21.602  1.00  0.00     0.012 A 
ATOM     23  C   UNL A   1      31.713  25.635  21.873  1.00  0.00     0.065 A 
ENDBRANCH   6  19
ENDBRANCH   5   6
ENDBRANCH   3   5
ENDBRANCH   2   3
ENDBRANCH   1   2
BRANCH   1  24
ATOM     24  C   UNL A   1      36.040  20.804  25.325  1.00  0.00     0.275 C 
BRANCH  24  25
ATOM     25  O   UNL A   1      37.203  21.549  24.932  1.00  0.00    -0.458 OA
BRANCH  25  26
ATOM     26  C   UNL A   1      38.356  21.182  25.539  1.00  0.00     0.338 C 
ATOM     27  O   UNL A   1      38.780  20.046  25.665  1.00  0.00    -0.246 OA
BRANCH  26  28
ATOM     28  C   UNL A   1      39.031  22.371  26.104  1.00  0.00     0.060 A 
ATOM     29  C   UNL A   1      38.509  23.661  25.961  1.00  0.00     0.016 A 
ATOM     30  C   UNL A   1      40.257  22.185  26.745  1.00  0.00     0.016 A 
ATOM     31  C   UNL A   1      39.236  24.766  26.410  1.00  0.00     0.010 A 
ATOM     32  C   UNL A   1      40.947  23.284  27.257  1.00  0.00     0.010 A 
ATOM     33  C   UNL A   1      40.456  24.588  27.077  1.00  0.00    -0.014 A 
BRANCH  33  34
ATOM     34  C   UNL A   1      41.234  25.743  27.598  1.00  0.00     0.031 A 
ATOM     35  C   UNL A   1      40.548  26.813  28.403  1.00  0.00     0.074 A 
ATOM     36  C   UNL A   1      42.542  25.860  27.300  1.00  0.00     0.049 A 
ATOM     37  N   UNL A   1      40.991  27.986  28.776  1.00  0.00    -0.248 NA
ATOM     38  C   UNL A   1      39.170  26.527  28.833  1.00  0.00     0.031 C 
ATOM     39  C   UNL A   1      43.330  24.881  26.549  1.00  0.00     0.029 A 
ATOM     40  N   UNL A   1      43.436  26.865  27.573  1.00  0.00    -0.354 N 
ATOM     41  C   UNL A   1      39.941  28.595  29.455  1.00  0.00     0.074 A 
ATOM     42  C   UNL A   1      38.831  27.663  29.426  1.00  0.00     0.031 C 
ATOM     43  C   UNL A   1      44.587  25.330  26.424  1.00  0.00     0.029 A 
ATOM     44  C   UNL A   1      44.678  26.660  27.018  1.00  0.00     0.049 A 
ATOM     45  H   UNL A   1      43.211  27.657  28.113  1.00  0.00     0.167 HD
ATOM     46  C   UNL A   1      39.907  29.816  30.044  1.00  0.00     0.034 A 
ATOM     47  C   UNL A   1      45.753  27.468  26.948  1.00  0.00     0.034 A 
ATOM     48  C   UNL A   1      41.024  30.731  30.068  1.00  0.00     0.049 A 
ATOM     49  C   UNL A   1      45.674  28.842  27.556  1.00  0.00     0.074 A 
ATOM     50  C   UNL A   1      41.106  31.982  30.654  1.00  0.00     0.029 A 
ATOM     51  N   UNL A   1      42.258  30.494  29.473  1.00  0.00    -0.354 N 
ATOM     52  N   UNL A   1      44.665  29.416  28.169  1.00  0.00    -0.248 NA
ATOM     53  C   UNL A   1      46.877  29.679  27.453  1.00  0.00     0.031 C 
ATOM     54  C   UNL A   1      42.365  32.525  30.366  1.00  0.00     0.029 A 
ATOM     55  C   UNL A   1      43.095  31.585  29.655  1.00  0.00     0.049 A 
ATOM     56  H   UNL A   1      42.503  29.671  28.993  1.00  0.00     0.167 HD
ATOM     57  C   UNL A   1      45.117  30.681  28.536  1.00  0.00     0.074 A 
ATOM     58  C   UNL A   1      46.495  30.774  28.093  1.00  0.00     0.031 C 
ATOM     59  C   UNL A   1      44.456  31.674  29.182  1.00  0.00     0.034 A 
BRANCH  46  60
ATOM     60  C   UNL A   1      38.600  30.252  30.662  1.00  0.00     0.023 A 
ATOM     61  C   UNL A   1      37.715  31.118  29.996  1.00  0.00     0.031 A 
ATOM     62  C   UNL A   1      38.246  29.815  31.952  1.00  0.00     0.131 A 
ATOM     63  C   UNL A   1      36.557  31.572  30.646  1.00  0.00     0.055 A 
ATOM     64  C   UNL A   1      37.056  30.212  32.565  1.00  0.00     0.041 A 
ATOM     65  F   UNL A   1      39.060  29.004  32.645  1.00  0.00    -0.206 F 
ATOM     66  C   UNL A   1      36.210  31.108  31.917  1.00  0.00     0.022 A 
BRANCH  63  67
ATOM     67  S   UNL A   1      35.580  32.882  29.860  1.00  0.00     0.124 S 
ATOM     68  O   UNL A   1      34.338  32.828  30.630  1.00  0.00    -0.237 OA
ATOM     69  O   UNL A   1      36.409  34.063  30.069  1.00  0.00    -0.237 OA
ATOM     70  O   UNL A   1      35.462  32.439  28.472  1.00  0.00    -0.744 OA
ENDBRANCH  63  67
ENDBRANCH  46  60
BRANCH  47  71
ATOM     71  C   UNL A   1      46.977  27.023  26.224  1.00  0.00     0.023 A 
ATOM     72  C   UNL A   1      48.030  26.394  26.904  1.00  0.00     0.031 A 
ATOM     73  C   UNL A   1      47.114  27.237  24.840  1.00  0.00     0.131 A 
ATOM     74  C   UNL A   1      49.189  26.026  26.204  1.00  0.00     0.055 A 
ATOM     75  C   UNL A   1      48.248  26.828  24.141  1.00  0.00     0.041 A 
ATOM     76  F   UNL A   1      46.130  27.832  24.145  1.00  0.00    -0.206 F 
ATOM     77  C   UNL A   1      49.300  26.226  24.825  1.00  0.00     0.022 A 
BRANCH  74  78
ATOM     78  S   UNL A   1      50.580  25.331  27.136  1.00  0.00     0.124 S 
ATOM     79  O   UNL A   1      49.945  24.221  27.837  1.00  0.00    -0.237 OA
ATOM     80  O   UNL A   1      51.508  24.968  26.068  1.00  0.00    -0.237 OA
ATOM     81  O   UNL A   1      51.012  26.440  27.981  1.00  0.00    -0.744 OA
ENDBRANCH  74  78
ENDBRANCH  47  71
BRANCH  59  82
ATOM     82  C   UNL A   1      45.239  32.931  29.465  1.00  0.00     0.023 A 
ATOM     83  C   UNL A   1      45.246  34.010  28.564  1.00  0.00     0.031 A 
ATOM     84  C   UNL A   1      46.017  33.031  30.630  1.00  0.00     0.131 A 
ATOM     85  C   UNL A   1      46.064  35.121  28.815  1.00  0.00     0.055 A 
ATOM     86  C   UNL A   1      46.789  34.163  30.900  1.00  0.00     0.041 A 
ATOM     87  F   UNL A   1      46.048  32.027  31.520  1.00  0.00    -0.206 F 
ATOM     88  C   UNL A   1      46.825  35.210  29.984  1.00  0.00     0.022 A 
BRANCH  85  89
ATOM     89  S   UNL A   1      46.193  36.412  27.547  1.00  0.00     0.124 S 
ATOM     90  O   UNL A   1      44.795  36.789  27.354  1.00  0.00    -0.237 OA
ATOM     91  O   UNL A   1      47.037  37.408  28.200  1.00  0.00    -0.237 OA
ATOM     92  O   UNL A   1      46.810  35.722  26.416  1.00  0.00    -0.744 OA
ENDBRANCH  85  89
ENDBRANCH  59  82
ENDBRANCH  33  34
ENDBRANCH  26  28
ENDBRANCH  25  26
ENDBRANCH  24  25
ENDBRANCH   1  24
TORSDOF 18
ENDMDL
MODEL 2
REMARK VINA RESULT:     -10.6      4.642      9.926
REMARK SMILES C[C@H]1[NH2+]CC[C@@H]1C(=O)N[C@@H](CC(=O)OCCOC(=O)c1ccc(-c2c3nc(c(-c4cc(S(=O)(=O)[O-])ccc4F)c4ccc([nH]4)c(-c4cc(S(=O)(=O)[O-])ccc4F)c4nc(c(-c5cc(S(=O)(=O)[O-])ccc5F)c5ccc2[nH]5)C=C4)C=C3)cc1)c1cccs1
REMARK SMILES IDX 15 1 14 2 12 3 13 4 11 5 10 6 9 7 7 8 8 9 6 11 1 12 2 13
REMARK SMILES IDX 3 14 4 15 5 18 83 19 84 20 87 21 85 22 86 23 16 24 17 25
REMARK SMILES IDX 18 26 19 27 20 28 21 29 82 30 22 31 81 32 23 33 24 34 25 35
REMARK SMILES IDX 75 36 26 37 80 38 74 39 76 40 27 41 79 42 73 43 72 44 28 46
REMARK SMILES IDX 60 47 40 48 59 49 41 50 44 51 58 52 77 53 42 54 43 55 57 57
REMARK SMILES IDX 78 58 45 59 29 60 30 61 38 62 31 63 37 64 39 65 36 66 32 67
REMARK SMILES IDX 33 68 34 69 35 70 61 71 62 72 70 73 63 74 69 75 71 76 68 77
REMARK SMILES IDX 64 78 65 79 66 80 67 81 46 82 47 83 55 84 48 85 54 86 56 87
REMARK SMILES IDX 53 88 49 89 50 90 51 91 52 92
REMARK H PARENT 9 10 3 16 3 17 76 45 44 56
REMARK Flexibility Score: inf
ROOT
ATOM      1  C   UNL A   1      31.330  28.860  24.931  1.00  0.00     0.274 C 
ENDROOT
BRANCH   1   2
ATOM      2  O   UNL A   1      32.133  27.932  25.693  1.00  0.00    -0.462 OA
BRANCH   2   3
ATOM      3  C   UNL A   1      31.437  27.202  26.599  1.00  0.00     0.308 C 
ATOM      4  O   UNL A   1      31.295  27.511  27.779  1.00  0.00    -0.252 OA
BRANCH   3   5
ATOM      5  C   UNL A   1      30.899  25.899  26.078  1.00  0.00     0.153 C 
BRANCH   5   6
ATOM      6  C   UNL A   1      31.833  24.886  25.428  1.00  0.00     0.133 C 
BRANCH   6   7
ATOM      7  N   UNL A   1      32.913  24.466  26.304  1.00  0.00    -0.347 N 
ATOM      8  C   UNL A   1      33.758  23.400  26.224  1.00  0.00     0.229 C 
ATOM      9  O   UNL A   1      34.629  23.329  27.095  1.00  0.00    -0.275 OA
ATOM     10  H   UNL A   1      33.060  25.049  27.083  1.00  0.00     0.164 HD
BRANCH   8  11
ATOM     11  C   UNL A   1      33.535  22.293  25.182  1.00  0.00     0.142 C 
ATOM     12  C   UNL A   1      32.586  19.939  25.312  1.00  0.00     0.076 C 
ATOM     13  C   UNL A   1      33.685  20.887  25.802  1.00  0.00     0.192 C 
ATOM     14  N   UNL A   1      35.002  20.354  25.381  1.00  0.00    -0.343 N 
ATOM     15  C   UNL A   1      35.671  21.404  24.614  1.00  0.00     0.261 C 
ATOM     16  H   UNL A   1      34.875  19.525  24.800  1.00  0.00     0.346 HD
ATOM     17  H   UNL A   1      35.561  20.088  26.193  1.00  0.00     0.346 HD
ATOM     18  C   UNL A   1      34.546  22.235  24.046  1.00  0.00     0.081 C 
ENDBRANCH   8  11
ENDBRANCH   6   7
BRANCH   6  19
ATOM     19  C   UNL A   1      32.363  25.264  24.058  1.00  0.00     0.027 A 
ATOM     20  C   UNL A   1      33.588  25.843  23.768  1.00  0.00     0.017 A 
ATOM     21  S   UNL A   1      31.407  25.140  22.630  1.00  0.00    -0.147 S 
ATOM     22  C   UNL A   1      33.710  26.234  22.403  1.00  0.00     0.012 A 
ATOM     23  C   UNL A   1      32.581  25.931  21.678  1.00  0.00     0.065 A 
ENDBRANCH   6  19
ENDBRANCH   5   6
ENDBRANCH   3   5
ENDBRANCH   2   3
ENDBRANCH   1   2
BRANCH   1  24
ATOM     24  C   UNL A   1      31.556  30.299  25.394  1.00  0.00     0.275 C 
BRANCH  24  25
ATOM     25  O   UNL A   1      32.862  30.424  25.978  1.00  0.00    -0.458 OA
BRANCH  25  26
ATOM     26  C   UNL A   1      33.001  31.433  26.870  1.00  0.00     0.338 C 
ATOM     27  O   UNL A   1      32.269  32.400  26.991  1.00  0.00    -0.246 OA
BRANCH  26  28
ATOM     28  C   UNL A   1      34.232  31.238  27.667  1.00  0.00     0.060 A 
ATOM     29  C   UNL A   1      35.074  32.302  28.007  1.00  0.00     0.016 A 
ATOM     30  C   UNL A   1      34.577  29.936  28.031  1.00  0.00     0.016 A 
ATOM     31  C   UNL A   1      36.284  32.058  28.661  1.00  0.00     0.010 A 
ATOM     32  C   UNL A   1      35.751  29.702  28.749  1.00  0.00     0.010 A 
ATOM     33  C   UNL A   1      36.628  30.756  29.053  1.00  0.00    -0.014 A 
BRANCH  33  34
ATOM     34  C   UNL A   1      37.892  30.472  29.783  1.00  0.00     0.031 A 
ATOM     35  C   UNL A   1      38.904  29.524  29.198  1.00  0.00     0.074 A 
ATOM     36  C   UNL A   1      38.103  31.018  30.995  1.00  0.00     0.049 A 
ATOM     37  N   UNL A   1      39.962  28.992  29.753  1.00  0.00    -0.248 NA
ATOM     38  C   UNL A   1      38.684  29.110  27.803  1.00  0.00     0.031 C 
ATOM     39  C   UNL A   1      37.213  31.970  31.662  1.00  0.00     0.029 A 
ATOM     40  N   UNL A   1      39.124  30.835  31.895  1.00  0.00    -0.354 N 
ATOM     41  C   UNL A   1      40.519  28.155  28.793  1.00  0.00     0.074 A 
ATOM     42  C   UNL A   1      39.667  28.239  27.623  1.00  0.00     0.031 C 
ATOM     43  C   UNL A   1      37.725  32.288  32.860  1.00  0.00     0.029 A 
ATOM     44  C   UNL A   1      38.939  31.510  33.078  1.00  0.00     0.049 A 
ATOM     45  H   UNL A   1      39.912  30.274  31.710  1.00  0.00     0.167 HD
ATOM     46  C   UNL A   1      41.634  27.387  28.880  1.00  0.00     0.034 A 
ATOM     47  C   UNL A   1      39.637  31.469  34.230  1.00  0.00     0.034 A 
ATOM     48  C   UNL A   1      42.475  27.319  30.052  1.00  0.00     0.049 A 
ATOM     49  C   UNL A   1      40.836  30.566  34.327  1.00  0.00     0.074 A 
ATOM     50  C   UNL A   1      43.639  26.593  30.241  1.00  0.00     0.029 A 
ATOM     51  N   UNL A   1      42.240  28.001  31.240  1.00  0.00    -0.354 N 
ATOM     52  N   UNL A   1      41.334  29.757  33.420  1.00  0.00    -0.248 NA
ATOM     53  C   UNL A   1      41.560  30.564  35.604  1.00  0.00     0.031 C 
ATOM     54  C   UNL A   1      44.073  26.789  31.558  1.00  0.00     0.029 A 
ATOM     55  C   UNL A   1      43.219  27.690  32.172  1.00  0.00     0.049 A 
ATOM     56  H   UNL A   1      41.488  28.615  31.397  1.00  0.00     0.167 HD
ATOM     57  C   UNL A   1      42.440  29.158  34.017  1.00  0.00     0.074 A 
ATOM     58  C   UNL A   1      42.545  29.715  35.351  1.00  0.00     0.031 C 
ATOM     59  C   UNL A   1      43.293  28.233  33.508  1.00  0.00     0.034 A 
BRANCH  46  60
ATOM     60  C   UNL A   1      41.974  26.520  27.692  1.00  0.00     0.023 A 
ATOM     61  C   UNL A   1      41.636  25.157  27.647  1.00  0.00     0.031 A 
ATOM     62  C   UNL A   1      42.673  27.061  26.597  1.00  0.00     0.131 A 
ATOM     63  C   UNL A   1      42.055  24.366  26.565  1.00  0.00     0.055 A 
ATOM     64  C   UNL A   1      43.023  26.285  25.489  1.00  0.00     0.041 A 
ATOM     65  F   UNL A   1      43.041  28.351  26.592  1.00  0.00    -0.206 F 
ATOM     66  C   UNL A   1      42.727  24.926  25.476  1.00  0.00     0.022 A 
BRANCH  63  67
ATOM     67  S   UNL A   1      41.827  22.569  26.665  1.00  0.00     0.124 S 
ATOM     68  O   UNL A   1      42.727  22.217  27.762  1.00  0.00    -0.237 OA
ATOM     69  O   UNL A   1      40.401  22.447  26.945  1.00  0.00    -0.237 OA
ATOM     70  O   UNL A   1      42.248  22.095  25.348  1.00  0.00    -0.744 OA
ENDBRANCH  63  67
ENDBRANCH  46  60
BRANCH  47  71
ATOM     71  C   UNL A   1      39.183  32.264  35.406  1.00  0.00     0.023 A 
ATOM     72  C   UNL A   1      39.667  33.561  35.632  1.00  0.00     0.031 A 
ATOM     73  C   UNL A   1      38.270  31.726  36.331  1.00  0.00     0.131 A 
ATOM     74  C   UNL A   1      39.256  34.268  36.771  1.00  0.00     0.055 A 
ATOM     75  C   UNL A   1      37.830  32.451  37.438  1.00  0.00     0.041 A 
ATOM     76  F   UNL A   1      37.776  30.489  36.157  1.00  0.00    -0.206 F 
ATOM     77  C   UNL A   1      38.332  33.728  37.669  1.00  0.00     0.022 A 
BRANCH  74  78
ATOM     78  S   UNL A   1      39.997  35.891  37.098  1.00  0.00     0.124 S 
ATOM     79  O   UNL A   1      39.679  36.615  35.873  1.00  0.00    -0.237 OA
ATOM     80  O   UNL A   1      39.280  36.315  38.297  1.00  0.00    -0.237 OA
ATOM     81  O   UNL A   1      41.412  35.586  37.296  1.00  0.00    -0.744 OA
ENDBRANCH  74  78
ENDBRANCH  47  71
BRANCH  59  82
ATOM     82  C   UNL A   1      44.425  27.797  34.403  1.00  0.00     0.023 A 
ATOM     83  C   UNL A   1      44.310  26.673  35.240  1.00  0.00     0.031 A 
ATOM     84  C   UNL A   1      45.616  28.541  34.448  1.00  0.00     0.131 A 
ATOM     85  C   UNL A   1      45.347  26.357  36.129  1.00  0.00     0.055 A 
ATOM     86  C   UNL A   1      46.667  28.191  35.299  1.00  0.00     0.041 A 
ATOM     87  F   UNL A   1      45.775  29.625  33.673  1.00  0.00    -0.206 F 
ATOM     88  C   UNL A   1      46.530  27.102  36.154  1.00  0.00     0.022 A 
BRANCH  85  89
ATOM     89  S   UNL A   1      45.093  25.014  37.322  1.00  0.00     0.124 S 
ATOM     90  O   UNL A   1      46.370  24.994  38.030  1.00  0.00    -0.237 OA
ATOM     91  O   UNL A   1      43.946  25.491  38.088  1.00  0.00    -0.237 OA
ATOM     92  O   UNL A   1      44.834  23.849  36.478  1.00  0.00    -0.744 OA
ENDBRANCH  85  89
ENDBRANCH  59  82
ENDBRANCH  33  34
ENDBRANCH  26  28
ENDBRANCH  25  26
ENDBRANCH  24  25
ENDBRANCH   1  24
TORSDOF 18
ENDMDL
MODEL 3
REMARK VINA RESULT:     -10.2      4.654      9.785
REMARK SMILES C[C@H]1[NH2+]CC[C@@H]1C(=O)N[C@@H](CC(=O)OCCOC(=O)c1ccc(-c2c3nc(c(-c4cc(S(=O)(=O)[O-])ccc4F)c4ccc([nH]4)c(-c4cc(S(=O)(=O)[O-])ccc4F)c4nc(c(-c5cc(S(=O)(=O)[O-])ccc5F)c5ccc2[nH]5)C=C4)C=C3)cc1)c1cccs1
REMARK SMILES IDX 15 1 14 2 12 3 13 4 11 5 10 6 9 7 7 8 8 9 6 11 1 12 2 13
REMARK SMILES IDX 3 14 4 15 5 18 83 19 84 20 87 21 85 22 86 23 16 24 17 25
REMARK SMILES IDX 18 26 19 27 20 28 21 29 82 30 22 31 81 32 23 33 24 34 25 35
REMARK SMILES IDX 75 36 26 37 80 38 74 39 76 40 27 41 79 42 73 43 72 44 28 46
REMARK SMILES IDX 60 47 40 48 59 49 41 50 44 51 58 52 77 53 42 54 43 55 57 57
REMARK SMILES IDX 78 58 45 59 29 60 30 61 38 62 31 63 37 64 39 65 36 66 32 67
REMARK SMILES IDX 33 68 34 69 35 70 61 71 62 72 70 73 63 74 69 75 71 76 68 77
REMARK SMILES IDX 64 78 65 79 66 80 67 81 46 82 47 83 55 84 48 85 54 86 56 87
REMARK SMILES IDX 53 88 49 89 50 90 51 91 52 92
REMARK H PARENT 9 10 3 16 3 17 76 45 44 56
REMARK Flexibility Score: inf
ROOT
ATOM      1  C   UNL A   1      32.568  29.295  23.994  1.00  0.00     0.274 C 
ENDROOT
BRANCH   1   2
ATOM      2  O   UNL A   1      33.609  28.356  24.340  1.00  0.00    -0.462 OA
BRANCH   2   3
ATOM      3  C   UNL A   1      33.630  27.236  23.576  1.00  0.00     0.308 C 
ATOM      4  O   UNL A   1      33.238  27.179  22.414  1.00  0.00    -0.252 OA
BRANCH   3   5
ATOM      5  C   UNL A   1      34.100  25.998  24.288  1.00  0.00     0.153 C 
BRANCH   5   6
ATOM      6  C   UNL A   1      34.114  24.656  23.568  1.00  0.00     0.133 C 
BRANCH   6   7
ATOM      7  N   UNL A   1      32.784  24.131  23.317  1.00  0.00    -0.347 N 
ATOM      8  C   UNL A   1      31.738  23.918  24.165  1.00  0.00     0.229 C 
ATOM      9  O   UNL A   1      30.694  23.509  23.650  1.00  0.00    -0.275 OA
ATOM     10  H   UNL A   1      32.608  23.890  22.380  1.00  0.00     0.164 HD
BRANCH   8  11
ATOM     11  C   UNL A   1      31.915  24.055  25.685  1.00  0.00     0.142 C 
ATOM     12  C   UNL A   1      33.144  22.678  27.432  1.00  0.00     0.076 C 
ATOM     13  C   UNL A   1      32.037  22.678  26.373  1.00  0.00     0.192 C 
ATOM     14  N   UNL A   1      30.741  22.394  27.033  1.00  0.00    -0.343 N 
ATOM     15  C   UNL A   1      29.835  23.493  26.701  1.00  0.00     0.261 C 
ATOM     16  H   UNL A   1      30.867  22.339  28.043  1.00  0.00     0.346 HD
ATOM     17  H   UNL A   1      30.360  21.503  26.712  1.00  0.00     0.346 HD
ATOM     18  C   UNL A   1      30.743  24.670  26.438  1.00  0.00     0.081 C 
ENDBRANCH   8  11
ENDBRANCH   6   7
BRANCH   6  19
ATOM     19  C   UNL A   1      35.010  23.593  24.177  1.00  0.00     0.027 A 
ATOM     20  C   UNL A   1      34.969  22.229  23.934  1.00  0.00     0.017 A 
ATOM     21  S   UNL A   1      36.160  23.947  25.410  1.00  0.00    -0.147 S 
ATOM     22  C   UNL A   1      35.827  21.485  24.795  1.00  0.00     0.012 A 
ATOM     23  C   UNL A   1      36.514  22.298  25.665  1.00  0.00     0.065 A 
ENDBRANCH   6  19
ENDBRANCH   5   6
ENDBRANCH   3   5
ENDBRANCH   2   3
ENDBRANCH   1   2
BRANCH   1  24
ATOM     24  C   UNL A   1      31.922  29.892  25.244  1.00  0.00     0.275 C 
BRANCH  24  25
ATOM     25  O   UNL A   1      32.830  29.802  26.353  1.00  0.00    -0.458 OA
BRANCH  25  26
ATOM     26  C   UNL A   1      33.113  30.976  26.965  1.00  0.00     0.338 C 
ATOM     27  O   UNL A   1      32.474  32.011  26.879  1.00  0.00    -0.246 OA
BRANCH  26  28
ATOM     28  C   UNL A   1      34.373  30.857  27.730  1.00  0.00     0.060 A 
ATOM     29  C   UNL A   1      35.296  31.906  27.810  1.00  0.00     0.016 A 
ATOM     30  C   UNL A   1      34.659  29.633  28.335  1.00  0.00     0.016 A 
ATOM     31  C   UNL A   1      36.524  31.712  28.446  1.00  0.00     0.010 A 
ATOM     32  C   UNL A   1      35.855  29.465  29.033  1.00  0.00     0.010 A 
ATOM     33  C   UNL A   1      36.810  30.494  29.078  1.00  0.00    -0.014 A 
BRANCH  33  34
ATOM     34  C   UNL A   1      38.095  30.272  29.795  1.00  0.00     0.031 A 
ATOM     35  C   UNL A   1      39.122  29.330  29.228  1.00  0.00     0.074 A 
ATOM     36  C   UNL A   1      38.313  30.871  30.981  1.00  0.00     0.049 A 
ATOM     37  N   UNL A   1      40.204  28.849  29.783  1.00  0.00    -0.248 NA
ATOM     38  C   UNL A   1      38.889  28.856  27.854  1.00  0.00     0.031 C 
ATOM     39  C   UNL A   1      37.408  31.824  31.627  1.00  0.00     0.029 A 
ATOM     40  N   UNL A   1      39.354  30.750  31.867  1.00  0.00    -0.354 N 
ATOM     41  C   UNL A   1      40.767  27.990  28.845  1.00  0.00     0.074 A 
ATOM     42  C   UNL A   1      39.892  28.005  27.689  1.00  0.00     0.031 C 
ATOM     43  C   UNL A   1      37.933  32.202  32.802  1.00  0.00     0.029 A 
ATOM     44  C   UNL A   1      39.172  31.466  33.027  1.00  0.00     0.049 A 
ATOM     45  H   UNL A   1      40.154  30.204  31.689  1.00  0.00     0.167 HD
ATOM     46  C   UNL A   1      41.904  27.257  28.940  1.00  0.00     0.034 A 
ATOM     47  C   UNL A   1      39.891  31.489  34.166  1.00  0.00     0.034 A 
ATOM     48  C   UNL A   1      42.767  27.257  30.098  1.00  0.00     0.049 A 
ATOM     49  C   UNL A   1      41.116  30.622  34.275  1.00  0.00     0.074 A 
ATOM     50  C   UNL A   1      43.954  26.570  30.293  1.00  0.00     0.029 A 
ATOM     51  N   UNL A   1      42.534  27.978  31.263  1.00  0.00    -0.354 N 
ATOM     52  N   UNL A   1      41.620  29.793  33.391  1.00  0.00    -0.248 NA
ATOM     53  C   UNL A   1      41.862  30.690  35.537  1.00  0.00     0.031 C 
ATOM     54  C   UNL A   1      44.406  26.829  31.593  1.00  0.00     0.029 A 
ATOM     55  C   UNL A   1      43.538  27.730  32.188  1.00  0.00     0.049 A 
ATOM     56  H   UNL A   1      41.769  28.577  31.410  1.00  0.00     0.167 HD
ATOM     57  C   UNL A   1      42.752  29.247  33.989  1.00  0.00     0.074 A 
ATOM     58  C   UNL A   1      42.865  29.859  35.299  1.00  0.00     0.031 C 
ATOM     59  C   UNL A   1      43.621  28.326  33.500  1.00  0.00     0.034 A 
BRANCH  46  60
ATOM     60  C   UNL A   1      42.247  26.353  27.780  1.00  0.00     0.023 A 
ATOM     61  C   UNL A   1      41.754  25.040  27.691  1.00  0.00     0.031 A 
ATOM     62  C   UNL A   1      43.103  26.804  26.760  1.00  0.00     0.131 A 
ATOM     63  C   UNL A   1      42.173  24.203  26.645  1.00  0.00     0.055 A 
ATOM     64  C   UNL A   1      43.459  25.991  25.682  1.00  0.00     0.041 A 
ATOM     65  F   UNL A   1      43.622  28.041  26.802  1.00  0.00    -0.206 F 
ATOM     66  C   UNL A   1      43.005  24.677  25.628  1.00  0.00     0.022 A 
BRANCH  63  67
ATOM     67  S   UNL A   1      41.724  22.447  26.706  1.00  0.00     0.124 S 
ATOM     68  O   UNL A   1      42.736  21.852  25.835  1.00  0.00    -0.237 OA
ATOM     69  O   UNL A   1      41.844  22.139  28.126  1.00  0.00    -0.237 OA
ATOM     70  O   UNL A   1      40.363  22.421  26.174  1.00  0.00    -0.744 OA
ENDBRANCH  63  67
ENDBRANCH  46  60
BRANCH  47  71
ATOM     71  C   UNL A   1      39.437  32.316  35.319  1.00  0.00     0.023 A 
ATOM     72  C   UNL A   1      39.869  33.642  35.472  1.00  0.00     0.031 A 
ATOM     73  C   UNL A   1      38.575  31.783  36.295  1.00  0.00     0.131 A 
ATOM     74  C   UNL A   1      39.461  34.383  36.591  1.00  0.00     0.055 A 
ATOM     75  C   UNL A   1      38.135  32.538  37.381  1.00  0.00     0.041 A 
ATOM     76  F   UNL A   1      38.131  30.519  36.190  1.00  0.00    -0.206 F 
ATOM     77  C   UNL A   1      38.587  33.845  37.540  1.00  0.00     0.022 A 
BRANCH  74  78
ATOM     78  S   UNL A   1      40.138  36.049  36.822  1.00  0.00     0.124 S 
ATOM     79  O   UNL A   1      39.448  36.485  38.031  1.00  0.00    -0.237 OA
ATOM     80  O   UNL A   1      41.566  35.778  36.961  1.00  0.00    -0.237 OA
ATOM     81  O   UNL A   1      39.755  36.745  35.597  1.00  0.00    -0.744 OA
ENDBRANCH  74  78
ENDBRANCH  47  71
BRANCH  59  82
ATOM     82  C   UNL A   1      44.781  27.957  34.390  1.00  0.00     0.023 A 
ATOM     83  C   UNL A   1      44.697  26.888  35.300  1.00  0.00     0.031 A 
ATOM     84  C   UNL A   1      45.967  28.709  34.354  1.00  0.00     0.131 A 
ATOM     85  C   UNL A   1      45.761  26.637  36.179  1.00  0.00     0.055 A 
ATOM     86  C   UNL A   1      47.043  28.421  35.196  1.00  0.00     0.041 A 
ATOM     87  F   UNL A   1      46.096  29.741  33.506  1.00  0.00    -0.206 F 
ATOM     88  C   UNL A   1      46.938  27.389  36.123  1.00  0.00     0.022 A 
BRANCH  85  89
ATOM     89  S   UNL A   1      45.551  25.373  37.462  1.00  0.00     0.124 S 
ATOM     90  O   UNL A   1      44.770  24.357  36.762  1.00  0.00    -0.237 OA
ATOM     91  O   UNL A   1      46.930  25.014  37.776  1.00  0.00    -0.237 OA
ATOM     92  O   UNL A   1      44.837  26.078  38.526  1.00  0.00    -0.744 OA
ENDBRANCH  85  89
ENDBRANCH  59  82
ENDBRANCH  33  34
ENDBRANCH  26  28
ENDBRANCH  25  26
ENDBRANCH  24  25
ENDBRANCH   1  24
TORSDOF 18
ENDMDL
