MODEL 1
REMARK VINA RESULT:     -10.9      0.000      0.000
REMARK SMILES CC[C@H]1CCCC[C@@H]1Sc1csc(C(=O)OCCOC(=O)c2ccc(-c3c4nc(c(-c5cc(S(=O)(=O)[O-])ccc5F)c5ccc([nH]5)c(-c5cc(S(=O)(=O)[O-])ccc5F)c5nc(c(-c6cc(S(=O)(=O)[O-])ccc6F)c6ccc3[nH]6)C=C5)C=C4)cc2)c1
REMARK SMILES IDX 17 1 16 2 14 3 15 4 13 5 10 6 11 7 85 8 12 9 9 10 8 11 3 12
REMARK SMILES IDX 4 13 5 14 7 15 6 16 2 17 1 18 18 19 19 20 20 21 21 22 22 23
REMARK SMILES IDX 23 24 84 25 24 26 83 27 25 28 26 29 27 30 77 31 28 32 82 33
REMARK SMILES IDX 76 34 78 35 29 36 81 37 75 38 74 39 30 41 62 42 42 43 61 44
REMARK SMILES IDX 43 45 46 46 60 47 79 48 44 49 45 50 59 52 80 53 47 54 31 55
REMARK SMILES IDX 32 56 40 57 33 58 39 59 41 60 38 61 34 62 35 63 36 64 37 65
REMARK SMILES IDX 63 66 64 67 72 68 65 69 71 70 73 71 70 72 66 73 67 74 68 75
REMARK SMILES IDX 69 76 48 77 49 78 57 79 50 80 56 81 58 82 55 83 51 84 52 85
REMARK SMILES IDX 53 86 54 87
REMARK H PARENT 78 40 46 51
REMARK Flexibility Score: inf
ROOT
ATOM      1  C   UNL A   1      33.135  29.016  24.569  1.00  0.00     0.275 C 
ENDROOT
BRANCH   1   2
ATOM      2  O   UNL A   1      32.551  28.670  23.297  1.00  0.00    -0.458 OA
BRANCH   2   3
ATOM      3  C   UNL A   1      33.276  27.801  22.527  1.00  0.00     0.348 C 
ATOM      4  O   UNL A   1      34.137  28.152  21.733  1.00  0.00    -0.245 OA
BRANCH   3   5
ATOM      5  C   UNL A   1      32.902  26.428  22.821  1.00  0.00     0.113 A 
ATOM      6  C   UNL A   1      32.906  24.116  23.189  1.00  0.00     0.019 A 
ATOM      7  C   UNL A   1      31.562  24.391  23.251  1.00  0.00     0.080 A 
ATOM      8  C   UNL A   1      33.674  25.283  22.889  1.00  0.00     0.042 A 
ATOM      9  S   UNL A   1      31.258  26.069  23.180  1.00  0.00    -0.136 S 
BRANCH   6  10
ATOM     10  S   UNL A   1      33.698  22.576  23.450  1.00  0.00    -0.122 SA
BRANCH  10  11
ATOM     11  C   UNL A   1      34.579  22.740  25.060  1.00  0.00     0.055 C 
ATOM     12  C   UNL A   1      35.975  23.376  24.799  1.00  0.00     0.002 C 
ATOM     13  C   UNL A   1      36.886  22.404  24.018  1.00  0.00     0.005 C 
ATOM     14  C   UNL A   1      36.989  21.022  24.664  1.00  0.00     0.000 C 
ATOM     15  C   UNL A   1      34.721  21.378  25.755  1.00  0.00     0.015 C 
ATOM     16  C   UNL A   1      35.631  20.410  25.000  1.00  0.00     0.001 C 
BRANCH  12  17
ATOM     17  C   UNL A   1      36.628  23.842  26.124  1.00  0.00     0.001 C 
ATOM     18  C   UNL A   1      38.152  23.832  26.075  1.00  0.00     0.004 C 
ENDBRANCH  12  17
ENDBRANCH  10  11
ENDBRANCH   6  10
ENDBRANCH   3   5
ENDBRANCH   2   3
ENDBRANCH   1   2
BRANCH   1  19
ATOM     19  C   UNL A   1      32.251  29.973  25.373  1.00  0.00     0.275 C 
BRANCH  19  20
ATOM     20  O   UNL A   1      32.643  30.027  26.756  1.00  0.00    -0.458 OA
BRANCH  20  21
ATOM     21  C   UNL A   1      33.175  31.207  27.157  1.00  0.00     0.338 C 
ATOM     22  O   UNL A   1      32.630  32.299  27.145  1.00  0.00    -0.246 OA
BRANCH  21  23
ATOM     23  C   UNL A   1      34.497  30.982  27.757  1.00  0.00     0.060 A 
ATOM     24  C   UNL A   1      34.783  29.694  28.196  1.00  0.00     0.016 A 
ATOM     25  C   UNL A   1      35.393  32.019  28.003  1.00  0.00     0.016 A 
ATOM     26  C   UNL A   1      35.944  29.427  28.910  1.00  0.00     0.010 A 
ATOM     27  C   UNL A   1      36.594  31.741  28.674  1.00  0.00     0.010 A 
ATOM     28  C   UNL A   1      36.879  30.442  29.140  1.00  0.00    -0.014 A 
BRANCH  28  29
ATOM     29  C   UNL A   1      38.139  30.125  29.868  1.00  0.00     0.031 A 
ATOM     30  C   UNL A   1      39.148  29.183  29.272  1.00  0.00     0.074 A 
ATOM     31  C   UNL A   1      38.389  30.715  31.056  1.00  0.00     0.049 A 
ATOM     32  N   UNL A   1      40.235  28.687  29.805  1.00  0.00    -0.248 NA
ATOM     33  C   UNL A   1      38.898  28.737  27.893  1.00  0.00     0.031 C 
ATOM     34  C   UNL A   1      37.522  31.701  31.707  1.00  0.00     0.029 A 
ATOM     35  N   UNL A   1      39.444  30.581  31.925  1.00  0.00    -0.354 N 
ATOM     36  C   UNL A   1      40.783  27.843  28.844  1.00  0.00     0.074 A 
ATOM     37  C   UNL A   1      39.894  27.884  27.701  1.00  0.00     0.031 C 
ATOM     38  C   UNL A   1      38.090  32.097  32.855  1.00  0.00     0.029 A 
ATOM     39  C   UNL A   1      39.308  31.326  33.075  1.00  0.00     0.049 A 
ATOM     40  H   UNL A   1      40.223  30.007  31.743  1.00  0.00     0.167 HD
ATOM     41  C   UNL A   1      41.921  27.107  28.915  1.00  0.00     0.034 A 
ATOM     42  C   UNL A   1      40.044  31.348  34.203  1.00  0.00     0.034 A 
ATOM     43  C   UNL A   1      42.799  27.095  30.063  1.00  0.00     0.049 A 
ATOM     44  C   UNL A   1      41.244  30.442  34.298  1.00  0.00     0.074 A 
ATOM     45  C   UNL A   1      43.983  26.399  30.236  1.00  0.00     0.029 A 
ATOM     46  N   UNL A   1      42.586  27.807  31.239  1.00  0.00    -0.354 N 
ATOM     47  N   UNL A   1      41.734  29.623  33.396  1.00  0.00    -0.248 NA
ATOM     48  C   UNL A   1      41.983  30.455  35.566  1.00  0.00     0.031 C 
ATOM     49  C   UNL A   1      44.439  26.622  31.539  1.00  0.00     0.029 A 
ATOM     50  C   UNL A   1      43.590  27.529  32.154  1.00  0.00     0.049 A 
ATOM     51  H   UNL A   1      41.831  28.420  31.398  1.00  0.00     0.167 HD
ATOM     52  C   UNL A   1      42.850  29.035  33.984  1.00  0.00     0.074 A 
ATOM     53  C   UNL A   1      42.975  29.616  35.305  1.00  0.00     0.031 C 
ATOM     54  C   UNL A   1      43.692  28.099  33.478  1.00  0.00     0.034 A 
BRANCH  41  55
ATOM     55  C   UNL A   1      42.244  26.202  27.748  1.00  0.00     0.023 A 
ATOM     56  C   UNL A   1      41.869  24.848  27.722  1.00  0.00     0.031 A 
ATOM     57  C   UNL A   1      42.961  26.706  26.646  1.00  0.00     0.131 A 
ATOM     58  C   UNL A   1      42.269  24.031  26.652  1.00  0.00     0.055 A 
ATOM     59  C   UNL A   1      43.284  25.908  25.547  1.00  0.00     0.041 A 
ATOM     60  F   UNL A   1      43.368  27.985  26.623  1.00  0.00    -0.206 F 
ATOM     61  C   UNL A   1      42.951  24.558  25.552  1.00  0.00     0.022 A 
BRANCH  58  62
ATOM     62  S   UNL A   1      42.011  22.241  26.782  1.00  0.00     0.124 S 
ATOM     63  O   UNL A   1      41.913  21.853  25.376  1.00  0.00    -0.237 OA
ATOM     64  O   UNL A   1      43.210  21.799  27.484  1.00  0.00    -0.237 OA
ATOM     65  O   UNL A   1      40.766  22.127  27.539  1.00  0.00    -0.744 OA
ENDBRANCH  58  62
ENDBRANCH  41  55
BRANCH  42  66
ATOM     66  C   UNL A   1      39.625  32.189  35.364  1.00  0.00     0.023 A 
ATOM     67  C   UNL A   1      38.850  31.657  36.406  1.00  0.00     0.031 A 
ATOM     68  C   UNL A   1      39.954  33.557  35.423  1.00  0.00     0.131 A 
ATOM     69  C   UNL A   1      38.395  32.495  37.437  1.00  0.00     0.055 A 
ATOM     70  C   UNL A   1      39.557  34.369  36.485  1.00  0.00     0.041 A 
ATOM     71  F   UNL A   1      40.684  34.124  34.448  1.00  0.00    -0.206 F 
ATOM     72  C   UNL A   1      38.760  33.842  37.494  1.00  0.00     0.022 A 
BRANCH  69  73
ATOM     73  S   UNL A   1      37.232  31.820  38.654  1.00  0.00     0.124 S 
ATOM     74  O   UNL A   1      37.030  30.466  38.152  1.00  0.00    -0.237 OA
ATOM     75  O   UNL A   1      37.989  31.937  39.896  1.00  0.00    -0.237 OA
ATOM     76  O   UNL A   1      36.074  32.705  38.546  1.00  0.00    -0.744 OA
ENDBRANCH  69  73
ENDBRANCH  42  66
BRANCH  54  77
ATOM     77  C   UNL A   1      44.843  27.673  34.358  1.00  0.00     0.023 A 
ATOM     78  C   UNL A   1      44.740  26.571  35.226  1.00  0.00     0.031 A 
ATOM     79  C   UNL A   1      46.053  28.390  34.342  1.00  0.00     0.131 A 
ATOM     80  C   UNL A   1      45.802  26.256  36.085  1.00  0.00     0.055 A 
ATOM     81  C   UNL A   1      47.132  28.029  35.150  1.00  0.00     0.041 A 
ATOM     82  F   UNL A   1      46.206  29.455  33.538  1.00  0.00    -0.206 F 
ATOM     83  C   UNL A   1      47.005  26.965  36.038  1.00  0.00     0.022 A 
BRANCH  80  84
ATOM     84  S   UNL A   1      45.555  24.970  37.340  1.00  0.00     0.124 S 
ATOM     85  O   UNL A   1      45.213  23.811  36.522  1.00  0.00    -0.237 OA
ATOM     86  O   UNL A   1      46.855  24.923  38.001  1.00  0.00    -0.237 OA
ATOM     87  O   UNL A   1      44.463  25.494  38.158  1.00  0.00    -0.744 OA
ENDBRANCH  80  84
ENDBRANCH  54  77
ENDBRANCH  28  29
ENDBRANCH  21  23
ENDBRANCH  20  21
ENDBRANCH  19  20
ENDBRANCH   1  19
TORSDOF 17
ENDMDL
MODEL 2
REMARK VINA RESULT:     -10.9      1.677      2.129
REMARK SMILES CC[C@H]1CCCC[C@@H]1Sc1csc(C(=O)OCCOC(=O)c2ccc(-c3c4nc(c(-c5cc(S(=O)(=O)[O-])ccc5F)c5ccc([nH]5)c(-c5cc(S(=O)(=O)[O-])ccc5F)c5nc(c(-c6cc(S(=O)(=O)[O-])ccc6F)c6ccc3[nH]6)C=C5)C=C4)cc2)c1
REMARK SMILES IDX 17 1 16 2 14 3 15 4 13 5 10 6 11 7 85 8 12 9 9 10 8 11 3 12
REMARK SMILES IDX 4 13 5 14 7 15 6 16 2 17 1 18 18 19 19 20 20 21 21 22 22 23
REMARK SMILES IDX 23 24 84 25 24 26 83 27 25 28 26 29 27 30 77 31 28 32 82 33
REMARK SMILES IDX 76 34 78 35 29 36 81 37 75 38 74 39 30 41 62 42 42 43 61 44
REMARK SMILES IDX 43 45 46 46 60 47 79 48 44 49 45 50 59 52 80 53 47 54 31 55
REMARK SMILES IDX 32 56 40 57 33 58 39 59 41 60 38 61 34 62 35 63 36 64 37 65
REMARK SMILES IDX 63 66 64 67 72 68 65 69 71 70 73 71 70 72 66 73 67 74 68 75
REMARK SMILES IDX 69 76 48 77 49 78 57 79 50 80 56 81 58 82 55 83 51 84 52 85
REMARK SMILES IDX 53 86 54 87
REMARK H PARENT 78 40 46 51
REMARK Flexibility Score: inf
ROOT
ATOM      1  C   UNL A   1      31.679  29.635  24.205  1.00  0.00     0.275 C 
ENDROOT
BRANCH   1   2
ATOM      2  O   UNL A   1      30.545  28.821  23.846  1.00  0.00    -0.458 OA
BRANCH   2   3
ATOM      3  C   UNL A   1      30.837  27.631  23.235  1.00  0.00     0.348 C 
ATOM      4  O   UNL A   1      30.621  27.403  22.054  1.00  0.00    -0.245 OA
BRANCH   3   5
ATOM      5  C   UNL A   1      31.465  26.719  24.175  1.00  0.00     0.113 A 
ATOM      6  C   UNL A   1      32.920  25.234  25.251  1.00  0.00     0.019 A 
ATOM      7  C   UNL A   1      31.835  25.194  26.091  1.00  0.00     0.080 A 
ATOM      8  C   UNL A   1      32.686  26.073  24.118  1.00  0.00     0.042 A 
ATOM      9  S   UNL A   1      30.647  26.333  25.638  1.00  0.00    -0.136 S 
BRANCH   6  10
ATOM     10  S   UNL A   1      34.459  24.422  25.449  1.00  0.00    -0.122 SA
BRANCH  10  11
ATOM     11  C   UNL A   1      34.316  22.851  24.497  1.00  0.00     0.055 C 
ATOM     12  C   UNL A   1      34.757  21.673  25.413  1.00  0.00     0.002 C 
ATOM     13  C   UNL A   1      36.270  21.745  25.712  1.00  0.00     0.005 C 
ATOM     14  C   UNL A   1      37.130  21.855  24.453  1.00  0.00     0.000 C 
ATOM     15  C   UNL A   1      35.168  22.898  23.219  1.00  0.00     0.015 C 
ATOM     16  C   UNL A   1      36.669  22.955  23.501  1.00  0.00     0.001 C 
BRANCH  12  17
ATOM     17  C   UNL A   1      34.353  20.310  24.797  1.00  0.00     0.001 C 
ATOM     18  C   UNL A   1      32.845  20.156  24.628  1.00  0.00     0.004 C 
ENDBRANCH  12  17
ENDBRANCH  10  11
ENDBRANCH   6  10
ENDBRANCH   3   5
ENDBRANCH   2   3
ENDBRANCH   1   2
BRANCH   1  19
ATOM     19  C   UNL A   1      31.559  30.205  25.621  1.00  0.00     0.275 C 
BRANCH  19  20
ATOM     20  O   UNL A   1      32.807  30.129  26.334  1.00  0.00    -0.458 OA
BRANCH  20  21
ATOM     21  C   UNL A   1      33.186  31.274  26.951  1.00  0.00     0.338 C 
ATOM     22  O   UNL A   1      32.535  32.300  27.060  1.00  0.00    -0.246 OA
BRANCH  21  23
ATOM     23  C   UNL A   1      34.482  31.077  27.617  1.00  0.00     0.060 A 
ATOM     24  C   UNL A   1      34.791  29.786  28.033  1.00  0.00     0.016 A 
ATOM     25  C   UNL A   1      35.323  32.137  27.944  1.00  0.00     0.016 A 
ATOM     26  C   UNL A   1      35.920  29.539  28.802  1.00  0.00     0.010 A 
ATOM     27  C   UNL A   1      36.496  31.881  28.672  1.00  0.00     0.010 A 
ATOM     28  C   UNL A   1      36.803  30.579  29.114  1.00  0.00    -0.014 A 
BRANCH  28  29
ATOM     29  C   UNL A   1      38.032  30.284  29.901  1.00  0.00     0.031 A 
ATOM     30  C   UNL A   1      39.080  29.351  29.359  1.00  0.00     0.074 A 
ATOM     31  C   UNL A   1      38.220  30.886  31.094  1.00  0.00     0.049 A 
ATOM     32  N   UNL A   1      40.148  28.874  29.945  1.00  0.00    -0.248 NA
ATOM     33  C   UNL A   1      38.899  28.892  27.974  1.00  0.00     0.031 C 
ATOM     34  C   UNL A   1      37.312  31.865  31.697  1.00  0.00     0.029 A 
ATOM     35  N   UNL A   1      39.236  30.773  32.012  1.00  0.00    -0.354 N 
ATOM     36  C   UNL A   1      40.750  28.030  29.017  1.00  0.00     0.074 A 
ATOM     37  C   UNL A   1      39.914  28.051  27.834  1.00  0.00     0.031 C 
ATOM     38  C   UNL A   1      37.821  32.277  32.867  1.00  0.00     0.029 A 
ATOM     39  C   UNL A   1      39.037  31.523  33.148  1.00  0.00     0.049 A 
ATOM     40  H   UNL A   1      40.030  30.207  31.870  1.00  0.00     0.167 HD
ATOM     41  C   UNL A   1      41.893  27.310  29.146  1.00  0.00     0.034 A 
ATOM     42  C   UNL A   1      39.721  31.564  34.309  1.00  0.00     0.034 A 
ATOM     43  C   UNL A   1      42.717  27.319  30.333  1.00  0.00     0.049 A 
ATOM     44  C   UNL A   1      40.927  30.674  34.466  1.00  0.00     0.074 A 
ATOM     45  C   UNL A   1      43.901  26.639  30.565  1.00  0.00     0.029 A 
ATOM     46  N   UNL A   1      42.441  28.036  31.492  1.00  0.00    -0.354 N 
ATOM     47  N   UNL A   1      41.468  29.856  33.593  1.00  0.00    -0.248 NA
ATOM     48  C   UNL A   1      41.607  30.707  35.766  1.00  0.00     0.031 C 
ATOM     49  C   UNL A   1      44.294  26.877  31.886  1.00  0.00     0.029 A 
ATOM     50  C   UNL A   1      43.407  27.778  32.454  1.00  0.00     0.049 A 
ATOM     51  H   UNL A   1      41.673  28.639  31.611  1.00  0.00     0.167 HD
ATOM     52  C   UNL A   1      42.564  29.287  34.236  1.00  0.00     0.074 A 
ATOM     53  C   UNL A   1      42.620  29.879  35.557  1.00  0.00     0.031 C 
ATOM     54  C   UNL A   1      43.440  28.359  33.777  1.00  0.00     0.034 A 
BRANCH  41  55
ATOM     55  C   UNL A   1      42.281  26.402  28.002  1.00  0.00     0.023 A 
ATOM     56  C   UNL A   1      41.764  25.102  27.867  1.00  0.00     0.031 A 
ATOM     57  C   UNL A   1      43.205  26.843  27.035  1.00  0.00     0.131 A 
ATOM     58  C   UNL A   1      42.223  24.269  26.833  1.00  0.00     0.055 A 
ATOM     59  C   UNL A   1      43.595  26.039  25.963  1.00  0.00     0.041 A 
ATOM     60  F   UNL A   1      43.752  28.066  27.123  1.00  0.00    -0.206 F 
ATOM     61  C   UNL A   1      43.114  24.738  25.866  1.00  0.00     0.022 A 
BRANCH  58  62
ATOM     62  S   UNL A   1      41.748  22.518  26.853  1.00  0.00     0.124 S 
ATOM     63  O   UNL A   1      42.647  21.957  25.846  1.00  0.00    -0.237 OA
ATOM     64  O   UNL A   1      42.017  22.133  28.233  1.00  0.00    -0.237 OA
ATOM     65  O   UNL A   1      40.337  22.540  26.474  1.00  0.00    -0.744 OA
ENDBRANCH  58  62
ENDBRANCH  41  55
BRANCH  42  66
ATOM     66  C   UNL A   1      39.238  32.407  35.443  1.00  0.00     0.023 A 
ATOM     67  C   UNL A   1      39.694  33.722  35.617  1.00  0.00     0.031 A 
ATOM     68  C   UNL A   1      38.348  31.888  36.403  1.00  0.00     0.131 A 
ATOM     69  C   UNL A   1      39.292  34.459  36.744  1.00  0.00     0.055 A 
ATOM     70  C   UNL A   1      37.899  32.647  37.483  1.00  0.00     0.041 A 
ATOM     71  F   UNL A   1      37.888  30.631  36.294  1.00  0.00    -0.206 F 
ATOM     72  C   UNL A   1      38.382  33.937  37.667  1.00  0.00     0.022 A 
BRANCH  69  73
ATOM     73  S   UNL A   1      40.056  36.076  37.042  1.00  0.00     0.124 S 
ATOM     74  O   UNL A   1      39.890  36.725  35.747  1.00  0.00    -0.237 OA
ATOM     75  O   UNL A   1      39.240  36.602  38.132  1.00  0.00    -0.237 OA
ATOM     76  O   UNL A   1      41.433  35.742  37.401  1.00  0.00    -0.744 OA
ENDBRANCH  69  73
ENDBRANCH  42  66
BRANCH  54  77
ATOM     77  C   UNL A   1      44.555  27.954  34.712  1.00  0.00     0.023 A 
ATOM     78  C   UNL A   1      44.351  27.020  35.742  1.00  0.00     0.031 A 
ATOM     79  C   UNL A   1      45.834  28.525  34.581  1.00  0.00     0.131 A 
ATOM     80  C   UNL A   1      45.390  26.731  36.640  1.00  0.00     0.055 A 
ATOM     81  C   UNL A   1      46.883  28.181  35.435  1.00  0.00     0.041 A 
ATOM     82  F   UNL A   1      46.085  29.428  33.619  1.00  0.00    -0.206 F 
ATOM     83  C   UNL A   1      46.660  27.290  36.480  1.00  0.00     0.022 A 
BRANCH  80  84
ATOM     84  S   UNL A   1      45.030  25.692  38.082  1.00  0.00     0.124 S 
ATOM     85  O   UNL A   1      43.975  26.451  38.746  1.00  0.00    -0.237 OA
ATOM     86  O   UNL A   1      44.621  24.433  37.468  1.00  0.00    -0.237 OA
ATOM     87  O   UNL A   1      46.304  25.646  38.798  1.00  0.00    -0.744 OA
ENDBRANCH  80  84
ENDBRANCH  54  77
ENDBRANCH  28  29
ENDBRANCH  21  23
ENDBRANCH  20  21
ENDBRANCH  19  20
ENDBRANCH   1  19
TORSDOF 17
ENDMDL
MODEL 3
REMARK VINA RESULT:     -10.7      5.180     10.179
REMARK SMILES CC[C@H]1CCCC[C@@H]1Sc1csc(C(=O)OCCOC(=O)c2ccc(-c3c4nc(c(-c5cc(S(=O)(=O)[O-])ccc5F)c5ccc([nH]5)c(-c5cc(S(=O)(=O)[O-])ccc5F)c5nc(c(-c6cc(S(=O)(=O)[O-])ccc6F)c6ccc3[nH]6)C=C5)C=C4)cc2)c1
REMARK SMILES IDX 17 1 16 2 14 3 15 4 13 5 10 6 11 7 85 8 12 9 9 10 8 11 3 12
REMARK SMILES IDX 4 13 5 14 7 15 6 16 2 17 1 18 18 19 19 20 20 21 21 22 22 23
REMARK SMILES IDX 23 24 84 25 24 26 83 27 25 28 26 29 27 30 77 31 28 32 82 33
REMARK SMILES IDX 76 34 78 35 29 36 81 37 75 38 74 39 30 41 62 42 42 43 61 44
REMARK SMILES IDX 43 45 46 46 60 47 79 48 44 49 45 50 59 52 80 53 47 54 31 55
REMARK SMILES IDX 32 56 40 57 33 58 39 59 41 60 38 61 34 62 35 63 36 64 37 65
REMARK SMILES IDX 63 66 64 67 72 68 65 69 71 70 73 71 70 72 66 73 67 74 68 75
REMARK SMILES IDX 69 76 48 77 49 78 57 79 50 80 56 81 58 82 55 83 51 84 52 85
REMARK SMILES IDX 53 86 54 87
REMARK H PARENT 78 40 46 51
REMARK Flexibility Score: inf
ROOT
ATOM      1  C   UNL A   1      34.921  21.491  24.782  1.00  0.00     0.275 C 
ENDROOT
BRANCH   1   2
ATOM      2  O   UNL A   1      34.808  22.611  25.684  1.00  0.00    -0.458 OA
BRANCH   2   3
ATOM      3  C   UNL A   1      33.935  22.447  26.726  1.00  0.00     0.348 C 
ATOM      4  O   UNL A   1      34.168  21.752  27.704  1.00  0.00    -0.245 OA
BRANCH   3   5
ATOM      5  C   UNL A   1      32.736  23.240  26.514  1.00  0.00     0.113 A 
ATOM      6  C   UNL A   1      31.217  24.986  26.167  1.00  0.00     0.019 A 
ATOM      7  C   UNL A   1      30.363  23.927  26.349  1.00  0.00     0.080 A 
ATOM      8  C   UNL A   1      32.585  24.599  26.313  1.00  0.00     0.042 A 
ATOM      9  S   UNL A   1      31.210  22.449  26.464  1.00  0.00    -0.136 S 
BRANCH   6  10
ATOM     10  S   UNL A   1      30.801  26.642  25.775  1.00  0.00    -0.122 SA
BRANCH  10  11
ATOM     11  C   UNL A   1      32.400  27.478  25.399  1.00  0.00     0.055 C 
ATOM     12  C   UNL A   1      32.941  28.125  26.706  1.00  0.00     0.002 C 
ATOM     13  C   UNL A   1      32.046  29.302  27.149  1.00  0.00     0.005 C 
ATOM     14  C   UNL A   1      31.813  30.333  26.044  1.00  0.00     0.000 C 
ATOM     15  C   UNL A   1      32.227  28.534  24.297  1.00  0.00     0.015 C 
ATOM     16  C   UNL A   1      31.354  29.712  24.727  1.00  0.00     0.001 C 
BRANCH  12  17
ATOM     17  C   UNL A   1      34.421  28.553  26.541  1.00  0.00     0.001 C 
ATOM     18  C   UNL A   1      34.971  29.280  27.763  1.00  0.00     0.004 C 
ENDBRANCH  12  17
ENDBRANCH  10  11
ENDBRANCH   6  10
ENDBRANCH   3   5
ENDBRANCH   2   3
ENDBRANCH   1   2
BRANCH   1  19
ATOM     19  C   UNL A   1      36.221  20.709  24.989  1.00  0.00     0.275 C 
BRANCH  19  20
ATOM     20  O   UNL A   1      37.371  21.574  24.981  1.00  0.00    -0.458 OA
BRANCH  20  21
ATOM     21  C   UNL A   1      38.432  21.125  25.694  1.00  0.00     0.338 C 
ATOM     22  O   UNL A   1      38.831  19.975  25.771  1.00  0.00    -0.246 OA
BRANCH  21  23
ATOM     23  C   UNL A   1      39.155  22.261  26.283  1.00  0.00     0.060 A 
ATOM     24  C   UNL A   1      38.765  23.536  25.886  1.00  0.00     0.016 A 
ATOM     25  C   UNL A   1      40.266  22.094  27.105  1.00  0.00     0.016 A 
ATOM     26  C   UNL A   1      39.490  24.654  26.274  1.00  0.00     0.010 A 
ATOM     27  C   UNL A   1      40.967  23.228  27.546  1.00  0.00     0.010 A 
ATOM     28  C   UNL A   1      40.589  24.520  27.129  1.00  0.00    -0.014 A 
BRANCH  28  29
ATOM     29  C   UNL A   1      41.326  25.737  27.570  1.00  0.00     0.031 A 
ATOM     30  C   UNL A   1      40.635  26.791  28.390  1.00  0.00     0.074 A 
ATOM     31  C   UNL A   1      42.632  25.875  27.259  1.00  0.00     0.049 A 
ATOM     32  N   UNL A   1      41.067  27.971  28.757  1.00  0.00    -0.248 NA
ATOM     33  C   UNL A   1      39.276  26.478  28.856  1.00  0.00     0.031 C 
ATOM     34  C   UNL A   1      43.433  24.889  26.529  1.00  0.00     0.029 A 
ATOM     35  N   UNL A   1      43.519  26.891  27.519  1.00  0.00    -0.354 N 
ATOM     36  C   UNL A   1      40.024  28.558  29.467  1.00  0.00     0.074 A 
ATOM     37  C   UNL A   1      38.932  27.606  29.460  1.00  0.00     0.031 C 
ATOM     38  C   UNL A   1      44.693  25.337  26.422  1.00  0.00     0.029 A 
ATOM     39  C   UNL A   1      44.769  26.680  26.984  1.00  0.00     0.049 A 
ATOM     40  H   UNL A   1      43.282  27.693  28.039  1.00  0.00     0.167 HD
ATOM     41  C   UNL A   1      39.988  29.776  30.064  1.00  0.00     0.034 A 
ATOM     42  C   UNL A   1      45.841  27.493  26.901  1.00  0.00     0.034 A 
ATOM     43  C   UNL A   1      41.098  30.701  30.067  1.00  0.00     0.049 A 
ATOM     44  C   UNL A   1      45.739  28.881  27.480  1.00  0.00     0.074 A 
ATOM     45  C   UNL A   1      41.175  31.953  30.653  1.00  0.00     0.029 A 
ATOM     46  N   UNL A   1      42.323  30.481  29.448  1.00  0.00    -0.354 N 
ATOM     47  N   UNL A   1      44.736  29.437  28.119  1.00  0.00    -0.248 NA
ATOM     48  C   UNL A   1      46.909  29.752  27.317  1.00  0.00     0.031 C 
ATOM     49  C   UNL A   1      42.408  32.521  30.319  1.00  0.00     0.029 A 
ATOM     50  C   UNL A   1      43.142  31.591  29.600  1.00  0.00     0.049 A 
ATOM     51  H   UNL A   1      42.574  29.656  28.972  1.00  0.00     0.167 HD
ATOM     52  C   UNL A   1      45.162  30.720  28.449  1.00  0.00     0.074 A 
ATOM     53  C   UNL A   1      46.521  30.842  27.962  1.00  0.00     0.031 C 
ATOM     54  C   UNL A   1      44.489  31.708  29.091  1.00  0.00     0.034 A 
BRANCH  41  55
ATOM     55  C   UNL A   1      38.687  30.204  30.702  1.00  0.00     0.023 A 
ATOM     56  C   UNL A   1      37.818  31.125  30.091  1.00  0.00     0.031 A 
ATOM     57  C   UNL A   1      38.319  29.692  31.961  1.00  0.00     0.131 A 
ATOM     58  C   UNL A   1      36.664  31.554  30.767  1.00  0.00     0.055 A 
ATOM     59  C   UNL A   1      37.129  30.060  32.590  1.00  0.00     0.041 A 
ATOM     60  F   UNL A   1      39.118  28.827  32.606  1.00  0.00    -0.206 F 
ATOM     61  C   UNL A   1      36.300  31.007  32.000  1.00  0.00     0.022 A 
BRANCH  58  62
ATOM     62  S   UNL A   1      35.718  32.940  30.077  1.00  0.00     0.124 S 
ATOM     63  O   UNL A   1      34.710  32.243  29.281  1.00  0.00    -0.237 OA
ATOM     64  O   UNL A   1      35.231  33.616  31.273  1.00  0.00    -0.237 OA
ATOM     65  O   UNL A   1      36.711  33.681  29.301  1.00  0.00    -0.744 OA
ENDBRANCH  58  62
ENDBRANCH  41  55
BRANCH  42  66
ATOM     66  C   UNL A   1      47.070  27.055  26.174  1.00  0.00     0.023 A 
ATOM     67  C   UNL A   1      48.110  26.389  26.838  1.00  0.00     0.031 A 
ATOM     68  C   UNL A   1      47.242  27.343  24.806  1.00  0.00     0.131 A 
ATOM     69  C   UNL A   1      49.291  26.071  26.148  1.00  0.00     0.055 A 
ATOM     70  C   UNL A   1      48.389  26.964  24.108  1.00  0.00     0.041 A 
ATOM     71  F   UNL A   1      46.284  27.989  24.121  1.00  0.00    -0.206 F 
ATOM     72  C   UNL A   1      49.429  26.336  24.783  1.00  0.00     0.022 A 
BRANCH  69  73
ATOM     73  S   UNL A   1      50.690  25.395  27.083  1.00  0.00     0.124 S 
ATOM     74  O   UNL A   1      51.596  24.996  26.013  1.00  0.00    -0.237 OA
ATOM     75  O   UNL A   1      51.106  26.544  27.881  1.00  0.00    -0.237 OA
ATOM     76  O   UNL A   1      50.094  24.295  27.839  1.00  0.00    -0.744 OA
ENDBRANCH  69  73
ENDBRANCH  42  66
BRANCH  54  77
ATOM     77  C   UNL A   1      45.238  32.998  29.329  1.00  0.00     0.023 A 
ATOM     78  C   UNL A   1      45.131  34.086  28.445  1.00  0.00     0.031 A 
ATOM     79  C   UNL A   1      46.083  33.133  30.445  1.00  0.00     0.131 A 
ATOM     80  C   UNL A   1      45.905  35.237  28.657  1.00  0.00     0.055 A 
ATOM     81  C   UNL A   1      46.797  34.308  30.687  1.00  0.00     0.041 A 
ATOM     82  F   UNL A   1      46.228  32.125  31.319  1.00  0.00    -0.206 F 
ATOM     83  C   UNL A   1      46.721  35.363  29.783  1.00  0.00     0.022 A 
BRANCH  80  84
ATOM     84  S   UNL A   1      45.909  36.530  27.384  1.00  0.00     0.124 S 
ATOM     85  O   UNL A   1      47.026  36.119  26.539  1.00  0.00    -0.237 OA
ATOM     86  O   UNL A   1      44.580  36.394  26.796  1.00  0.00    -0.237 OA
ATOM     87  O   UNL A   1      46.127  37.759  28.144  1.00  0.00    -0.744 OA
ENDBRANCH  80  84
ENDBRANCH  54  77
ENDBRANCH  28  29
ENDBRANCH  21  23
ENDBRANCH  20  21
ENDBRANCH  19  20
ENDBRANCH   1  19
TORSDOF 17
ENDMDL
