MODEL 1
REMARK VINA RESULT:     -11.1      0.000      0.000
REMARK SMILES CC[C@@H](O)C[NH+]1CC(n2cc(C(=O)OCCOC(=O)c3ccc(-c4c5nc(c(-c6cc(S(=O)(=O)[O-])ccc6F)c6ccc([nH]6)c(-c6cc(S(=O)(=O)[O-])ccc6F)c6nc(c(-c7cc(S(=O)(=O)[O-])ccc7F)c7ccc4[nH]7)C=C6)C=C5)cc3)nn2)C1
REMARK SMILES IDX 15 1 14 2 12 3 13 4 11 5 9 6 10 7 84 8 83 9 8 10 6 11 7 12
REMARK SMILES IDX 85 13 5 15 3 16 2 17 1 18 4 19 16 21 17 22 18 23 19 24 20 25
REMARK SMILES IDX 21 26 82 27 22 28 81 29 23 30 24 31 25 32 75 33 26 34 80 35
REMARK SMILES IDX 74 36 76 37 27 38 79 39 73 40 72 41 28 43 60 44 40 45 59 46
REMARK SMILES IDX 41 47 44 48 58 49 77 50 42 51 43 52 57 54 78 55 45 56 29 57
REMARK SMILES IDX 30 58 38 59 31 60 37 61 39 62 36 63 32 64 33 65 34 66 35 67
REMARK SMILES IDX 61 68 62 69 70 70 63 71 69 72 71 73 68 74 64 75 65 76 66 77
REMARK SMILES IDX 67 78 46 79 47 80 55 81 48 82 54 83 56 84 53 85 49 86 50 87
REMARK SMILES IDX 51 88 52 89
REMARK H PARENT 6 14 4 20 76 42 44 53
REMARK Flexibility Score: inf
ROOT
ATOM      1  C   UNL A   1      38.251  21.463  25.256  1.00  0.00     0.275 C 
ENDROOT
BRANCH   1   2
ATOM      2  O   UNL A   1      36.980  21.797  25.834  1.00  0.00    -0.457 OA
BRANCH   2   3
ATOM      3  C   UNL A   1      35.936  20.969  25.512  1.00  0.00     0.360 C 
ATOM      4  O   UNL A   1      36.072  19.872  24.973  1.00  0.00    -0.244 OA
BRANCH   3   5
ATOM      5  C   UNL A   1      34.651  21.523  25.901  1.00  0.00     0.190 A 
ATOM      6  N   UNL A   1      32.632  22.305  25.947  1.00  0.00    -0.237 N 
ATOM      7  C   UNL A   1      33.566  21.800  25.092  1.00  0.00     0.147 A 
ATOM      8  N   UNL A   1      33.095  22.345  27.207  1.00  0.00    -0.066 NA
ATOM      9  N   UNL A   1      34.341  21.887  27.191  1.00  0.00    -0.123 NA
BRANCH   6  10
ATOM     10  C   UNL A   1      31.287  22.602  25.564  1.00  0.00     0.218 C 
ATOM     11  N   UNL A   1      30.242  24.237  24.761  1.00  0.00    -0.329 N 
ATOM     12  C   UNL A   1      31.082  23.183  24.152  1.00  0.00     0.296 C 
ATOM     13  C   UNL A   1      30.856  23.995  26.076  1.00  0.00     0.296 C 
ATOM     14  H   UNL A   1      29.227  24.207  24.669  1.00  0.00     0.348 HD
BRANCH  11  15
ATOM     15  C   UNL A   1      30.473  25.578  24.202  1.00  0.00     0.294 C 
BRANCH  15  16
ATOM     16  C   UNL A   1      29.424  26.726  24.264  1.00  0.00     0.169 C 
BRANCH  16  17
ATOM     17  C   UNL A   1      29.711  27.903  23.327  1.00  0.00     0.034 C 
ATOM     18  C   UNL A   1      28.446  28.628  22.882  1.00  0.00     0.007 C 
ENDBRANCH  16  17
BRANCH  16  19
ATOM     19  O   UNL A   1      28.149  26.161  23.918  1.00  0.00    -0.387 OA
ATOM     20  H   UNL A   1      28.059  26.132  22.952  1.00  0.00     0.211 HD
ENDBRANCH  16  19
ENDBRANCH  15  16
ENDBRANCH  11  15
ENDBRANCH   6  10
ENDBRANCH   3   5
ENDBRANCH   2   3
ENDBRANCH   1   2
BRANCH   1  21
ATOM     21  C   UNL A   1      39.381  21.778  26.223  1.00  0.00     0.275 C 
BRANCH  21  22
ATOM     22  O   UNL A   1      39.418  23.171  26.528  1.00  0.00    -0.458 OA
BRANCH  22  23
ATOM     23  C   UNL A   1      40.630  23.643  26.907  1.00  0.00     0.338 C 
ATOM     24  O   UNL A   1      41.709  23.109  26.721  1.00  0.00    -0.246 OA
BRANCH  23  25
ATOM     25  C   UNL A   1      40.432  24.786  27.803  1.00  0.00     0.060 A 
ATOM     26  C   UNL A   1      39.295  25.576  27.610  1.00  0.00     0.016 A 
ATOM     27  C   UNL A   1      41.511  25.220  28.587  1.00  0.00     0.016 A 
ATOM     28  C   UNL A   1      39.319  26.881  28.059  1.00  0.00     0.010 A 
ATOM     29  C   UNL A   1      41.544  26.526  29.005  1.00  0.00     0.010 A 
ATOM     30  C   UNL A   1      40.482  27.360  28.671  1.00  0.00    -0.014 A 
BRANCH  30  31
ATOM     31  C   UNL A   1      40.536  28.738  29.112  1.00  0.00     0.031 A 
ATOM     32  C   UNL A   1      41.691  29.457  28.529  1.00  0.00     0.074 A 
ATOM     33  C   UNL A   1      39.541  29.310  29.821  1.00  0.00     0.049 A 
ATOM     34  N   UNL A   1      42.758  29.852  29.138  1.00  0.00    -0.248 NA
ATOM     35  C   UNL A   1      41.785  29.535  27.059  1.00  0.00     0.031 C 
ATOM     36  C   UNL A   1      38.250  28.729  30.197  1.00  0.00     0.029 A 
ATOM     37  N   UNL A   1      39.436  30.586  30.273  1.00  0.00    -0.354 N 
ATOM     38  C   UNL A   1      43.529  30.473  28.163  1.00  0.00     0.074 A 
ATOM     39  C   UNL A   1      43.021  30.007  26.905  1.00  0.00     0.031 C 
ATOM     40  C   UNL A   1      37.415  29.717  30.602  1.00  0.00     0.029 A 
ATOM     41  C   UNL A   1      38.146  30.974  30.633  1.00  0.00     0.049 A 
ATOM     42  H   UNL A   1      40.210  31.191  30.340  1.00  0.00     0.167 HD
ATOM     43  C   UNL A   1      44.301  31.550  28.473  1.00  0.00     0.034 A 
ATOM     44  C   UNL A   1      37.708  32.245  30.868  1.00  0.00     0.034 A 
ATOM     45  C   UNL A   1      44.499  31.635  29.906  1.00  0.00     0.049 A 
ATOM     46  C   UNL A   1      38.917  33.062  31.157  1.00  0.00     0.074 A 
ATOM     47  C   UNL A   1      45.041  30.790  30.855  1.00  0.00     0.029 A 
ATOM     48  N   UNL A   1      43.734  32.543  30.608  1.00  0.00    -0.354 N 
ATOM     49  N   UNL A   1      39.663  32.873  32.214  1.00  0.00    -0.248 NA
ATOM     50  C   UNL A   1      39.595  33.702  30.036  1.00  0.00     0.031 C 
ATOM     51  C   UNL A   1      44.190  30.923  31.993  1.00  0.00     0.029 A 
ATOM     52  C   UNL A   1      43.238  31.907  31.721  1.00  0.00     0.049 A 
ATOM     53  H   UNL A   1      43.573  33.481  30.357  1.00  0.00     0.167 HD
ATOM     54  C   UNL A   1      40.970  32.948  31.753  1.00  0.00     0.074 A 
ATOM     55  C   UNL A   1      40.866  33.552  30.424  1.00  0.00     0.031 C 
ATOM     56  C   UNL A   1      41.975  32.242  32.354  1.00  0.00     0.034 A 
BRANCH  43  57
ATOM     57  C   UNL A   1      44.503  32.745  27.561  1.00  0.00     0.023 A 
ATOM     58  C   UNL A   1      43.877  33.941  27.957  1.00  0.00     0.031 A 
ATOM     59  C   UNL A   1      44.982  32.722  26.229  1.00  0.00     0.131 A 
ATOM     60  C   UNL A   1      43.610  34.959  27.029  1.00  0.00     0.055 A 
ATOM     61  C   UNL A   1      44.773  33.769  25.327  1.00  0.00     0.041 A 
ATOM     62  F   UNL A   1      45.605  31.672  25.688  1.00  0.00    -0.206 F 
ATOM     63  C   UNL A   1      44.046  34.879  25.711  1.00  0.00     0.022 A 
BRANCH  60  64
ATOM     64  S   UNL A   1      42.501  36.296  27.535  1.00  0.00     0.124 S 
ATOM     65  O   UNL A   1      41.195  35.679  27.332  1.00  0.00    -0.237 OA
ATOM     66  O   UNL A   1      42.906  36.511  28.920  1.00  0.00    -0.237 OA
ATOM     67  O   UNL A   1      42.833  37.377  26.610  1.00  0.00    -0.744 OA
ENDBRANCH  60  64
ENDBRANCH  43  57
BRANCH  44  68
ATOM     68  C   UNL A   1      36.387  32.826  30.468  1.00  0.00     0.023 A 
ATOM     69  C   UNL A   1      35.600  33.661  31.298  1.00  0.00     0.031 A 
ATOM     70  C   UNL A   1      35.983  32.730  29.116  1.00  0.00     0.131 A 
ATOM     71  C   UNL A   1      34.469  34.339  30.767  1.00  0.00     0.055 A 
ATOM     72  C   UNL A   1      34.870  33.399  28.601  1.00  0.00     0.041 A 
ATOM     73  F   UNL A   1      36.709  32.042  28.222  1.00  0.00    -0.206 F 
ATOM     74  C   UNL A   1      34.111  34.212  29.423  1.00  0.00     0.022 A 
BRANCH  71  75
ATOM     75  S   UNL A   1      33.461  35.456  31.805  1.00  0.00     0.124 S 
ATOM     76  O   UNL A   1      34.471  36.280  32.456  1.00  0.00    -0.237 OA
ATOM     77  O   UNL A   1      32.616  36.122  30.820  1.00  0.00    -0.237 OA
ATOM     78  O   UNL A   1      32.748  34.544  32.701  1.00  0.00    -0.744 OA
ENDBRANCH  71  75
ENDBRANCH  44  68
BRANCH  56  79
ATOM     79  C   UNL A   1      41.699  31.600  33.702  1.00  0.00     0.023 A 
ATOM     80  C   UNL A   1      41.754  32.263  34.951  1.00  0.00     0.031 A 
ATOM     81  C   UNL A   1      41.231  30.274  33.688  1.00  0.00     0.131 A 
ATOM     82  C   UNL A   1      41.354  31.589  36.124  1.00  0.00     0.055 A 
ATOM     83  C   UNL A   1      40.813  29.622  34.846  1.00  0.00     0.041 A 
ATOM     84  F   UNL A   1      41.130  29.600  32.531  1.00  0.00    -0.206 F 
ATOM     85  C   UNL A   1      40.878  30.275  36.070  1.00  0.00     0.022 A 
BRANCH  82  86
ATOM     86  S   UNL A   1      41.461  32.399  37.755  1.00  0.00     0.124 S 
ATOM     87  O   UNL A   1      42.060  33.694  37.455  1.00  0.00    -0.237 OA
ATOM     88  O   UNL A   1      40.066  32.425  38.188  1.00  0.00    -0.237 OA
ATOM     89  O   UNL A   1      42.317  31.498  38.528  1.00  0.00    -0.744 OA
ENDBRANCH  82  86
ENDBRANCH  56  79
ENDBRANCH  30  31
ENDBRANCH  23  25
ENDBRANCH  22  23
ENDBRANCH  21  22
ENDBRANCH   1  21
TORSDOF 19
ENDMDL
MODEL 2
REMARK VINA RESULT:     -11.0      4.580      9.377
REMARK SMILES CC[C@@H](O)C[NH+]1CC(n2cc(C(=O)OCCOC(=O)c3ccc(-c4c5nc(c(-c6cc(S(=O)(=O)[O-])ccc6F)c6ccc([nH]6)c(-c6cc(S(=O)(=O)[O-])ccc6F)c6nc(c(-c7cc(S(=O)(=O)[O-])ccc7F)c7ccc4[nH]7)C=C6)C=C5)cc3)nn2)C1
REMARK SMILES IDX 15 1 14 2 12 3 13 4 11 5 9 6 10 7 84 8 83 9 8 10 6 11 7 12
REMARK SMILES IDX 85 13 5 15 3 16 2 17 1 18 4 19 16 21 17 22 18 23 19 24 20 25
REMARK SMILES IDX 21 26 82 27 22 28 81 29 23 30 24 31 25 32 75 33 26 34 80 35
REMARK SMILES IDX 74 36 76 37 27 38 79 39 73 40 72 41 28 43 60 44 40 45 59 46
REMARK SMILES IDX 41 47 44 48 58 49 77 50 42 51 43 52 57 54 78 55 45 56 29 57
REMARK SMILES IDX 30 58 38 59 31 60 37 61 39 62 36 63 32 64 33 65 34 66 35 67
REMARK SMILES IDX 61 68 62 69 70 70 63 71 69 72 71 73 68 74 64 75 65 76 66 77
REMARK SMILES IDX 67 78 46 79 47 80 55 81 48 82 54 83 56 84 53 85 49 86 50 87
REMARK SMILES IDX 51 88 52 89
REMARK H PARENT 6 14 4 20 76 42 44 53
REMARK Flexibility Score: inf
ROOT
ATOM      1  C   UNL A   1      35.723  33.258  30.052  1.00  0.00     0.275 C 
ENDROOT
BRANCH   1   2
ATOM      2  O   UNL A   1      35.633  32.893  28.667  1.00  0.00    -0.457 OA
BRANCH   2   3
ATOM      3  C   UNL A   1      34.378  32.596  28.203  1.00  0.00     0.360 C 
ATOM      4  O   UNL A   1      33.420  33.364  28.274  1.00  0.00    -0.244 OA
BRANCH   3   5
ATOM      5  C   UNL A   1      34.312  31.278  27.595  1.00  0.00     0.190 A 
ATOM      6  N   UNL A   1      33.694  29.456  26.599  1.00  0.00    -0.237 N 
ATOM      7  C   UNL A   1      33.225  30.675  26.992  1.00  0.00     0.147 A 
ATOM      8  N   UNL A   1      34.986  29.301  26.931  1.00  0.00    -0.066 NA
ATOM      9  N   UNL A   1      35.373  30.404  27.561  1.00  0.00    -0.123 NA
BRANCH   6  10
ATOM     10  C   UNL A   1      32.943  28.540  25.800  1.00  0.00     0.218 C 
ATOM     11  N   UNL A   1      31.361  28.640  24.422  1.00  0.00    -0.329 N 
ATOM     12  C   UNL A   1      32.817  28.870  24.301  1.00  0.00     0.296 C 
ATOM     13  C   UNL A   1      31.429  28.844  25.878  1.00  0.00     0.296 C 
ATOM     14  H   UNL A   1      30.940  27.786  24.056  1.00  0.00     0.348 HD
BRANCH  11  15
ATOM     15  C   UNL A   1      30.541  29.619  23.692  1.00  0.00     0.294 C 
BRANCH  15  16
ATOM     16  C   UNL A   1      29.816  29.303  22.353  1.00  0.00     0.169 C 
BRANCH  16  17
ATOM     17  C   UNL A   1      28.345  29.726  22.308  1.00  0.00     0.034 C 
ATOM     18  C   UNL A   1      27.989  30.746  23.383  1.00  0.00     0.007 C 
ENDBRANCH  16  17
BRANCH  16  19
ATOM     19  O   UNL A   1      30.525  29.990  21.308  1.00  0.00    -0.387 OA
ATOM     20  H   UNL A   1      30.168  29.725  20.446  1.00  0.00     0.211 HD
ENDBRANCH  16  19
ENDBRANCH  15  16
ENDBRANCH  11  15
ENDBRANCH   6  10
ENDBRANCH   3   5
ENDBRANCH   2   3
ENDBRANCH   1   2
BRANCH   1  21
ATOM     21  C   UNL A   1      36.066  32.047  30.905  1.00  0.00     0.275 C 
BRANCH  21  22
ATOM     22  O   UNL A   1      36.955  31.171  30.215  1.00  0.00    -0.458 OA
BRANCH  22  23
ATOM     23  C   UNL A   1      36.885  29.871  30.588  1.00  0.00     0.338 C 
ATOM     24  O   UNL A   1      36.183  29.403  31.468  1.00  0.00    -0.246 OA
BRANCH  23  25
ATOM     25  C   UNL A   1      37.972  29.133  29.939  1.00  0.00     0.060 A 
ATOM     26  C   UNL A   1      38.495  28.022  30.607  1.00  0.00     0.016 A 
ATOM     27  C   UNL A   1      38.640  29.731  28.861  1.00  0.00     0.016 A 
ATOM     28  C   UNL A   1      39.781  27.621  30.307  1.00  0.00     0.010 A 
ATOM     29  C   UNL A   1      39.929  29.351  28.586  1.00  0.00     0.010 A 
ATOM     30  C   UNL A   1      40.509  28.352  29.362  1.00  0.00    -0.014 A 
BRANCH  30  31
ATOM     31  C   UNL A   1      41.873  27.967  29.065  1.00  0.00     0.031 A 
ATOM     32  C   UNL A   1      41.933  26.701  28.298  1.00  0.00     0.074 A 
ATOM     33  C   UNL A   1      42.923  28.775  29.314  1.00  0.00     0.049 A 
ATOM     34  N   UNL A   1      42.337  25.549  28.716  1.00  0.00    -0.248 NA
ATOM     35  C   UNL A   1      41.242  26.651  26.996  1.00  0.00     0.031 C 
ATOM     36  C   UNL A   1      42.905  30.150  29.821  1.00  0.00     0.029 A 
ATOM     37  N   UNL A   1      44.242  28.569  29.063  1.00  0.00    -0.354 N 
ATOM     38  C   UNL A   1      42.202  24.696  27.628  1.00  0.00     0.074 A 
ATOM     39  C   UNL A   1      41.292  25.346  26.730  1.00  0.00     0.031 C 
ATOM     40  C   UNL A   1      44.116  30.720  29.614  1.00  0.00     0.029 A 
ATOM     41  C   UNL A   1      45.027  29.720  29.078  1.00  0.00     0.049 A 
ATOM     42  H   UNL A   1      44.614  27.675  28.885  1.00  0.00     0.167 HD
ATOM     43  C   UNL A   1      43.093  23.687  27.424  1.00  0.00     0.034 A 
ATOM     44  C   UNL A   1      46.305  29.847  28.616  1.00  0.00     0.034 A 
ATOM     45  C   UNL A   1      43.838  23.419  28.638  1.00  0.00     0.049 A 
ATOM     46  C   UNL A   1      46.871  28.473  28.560  1.00  0.00     0.074 A 
ATOM     47  C   UNL A   1      43.487  23.047  29.922  1.00  0.00     0.029 A 
ATOM     48  N   UNL A   1      45.116  23.928  28.733  1.00  0.00    -0.354 N 
ATOM     49  N   UNL A   1      47.080  27.749  29.628  1.00  0.00    -0.248 NA
ATOM     50  C   UNL A   1      46.700  27.712  27.328  1.00  0.00     0.031 C 
ATOM     51  C   UNL A   1      44.352  23.799  30.770  1.00  0.00     0.029 A 
ATOM     52  C   UNL A   1      45.248  24.511  29.970  1.00  0.00     0.049 A 
ATOM     53  H   UNL A   1      45.812  23.880  28.038  1.00  0.00     0.167 HD
ATOM     54  C   UNL A   1      46.629  26.479  29.298  1.00  0.00     0.074 A 
ATOM     55  C   UNL A   1      46.492  26.494  27.841  1.00  0.00     0.031 C 
ATOM     56  C   UNL A   1      46.120  25.638  30.249  1.00  0.00     0.034 A 
BRANCH  43  57
ATOM     57  C   UNL A   1      43.594  23.253  26.060  1.00  0.00     0.023 A 
ATOM     58  C   UNL A   1      43.437  21.892  25.745  1.00  0.00     0.031 A 
ATOM     59  C   UNL A   1      44.460  23.979  25.208  1.00  0.00     0.131 A 
ATOM     60  C   UNL A   1      44.223  21.283  24.755  1.00  0.00     0.055 A 
ATOM     61  C   UNL A   1      45.191  23.380  24.177  1.00  0.00     0.041 A 
ATOM     62  F   UNL A   1      44.722  25.281  25.356  1.00  0.00    -0.206 F 
ATOM     63  C   UNL A   1      45.109  22.016  23.973  1.00  0.00     0.022 A 
BRANCH  60  64
ATOM     64  S   UNL A   1      44.211  19.477  24.656  1.00  0.00     0.124 S 
ATOM     65  O   UNL A   1      42.861  19.172  25.115  1.00  0.00    -0.237 OA
ATOM     66  O   UNL A   1      44.478  19.255  23.238  1.00  0.00    -0.237 OA
ATOM     67  O   UNL A   1      45.286  19.083  25.564  1.00  0.00    -0.744 OA
ENDBRANCH  60  64
ENDBRANCH  43  57
BRANCH  44  68
ATOM     68  C   UNL A   1      46.878  31.015  27.875  1.00  0.00     0.023 A 
ATOM     69  C   UNL A   1      46.105  31.964  27.163  1.00  0.00     0.031 A 
ATOM     70  C   UNL A   1      48.244  31.335  28.060  1.00  0.00     0.131 A 
ATOM     71  C   UNL A   1      46.706  33.154  26.670  1.00  0.00     0.055 A 
ATOM     72  C   UNL A   1      48.829  32.506  27.572  1.00  0.00     0.041 A 
ATOM     73  F   UNL A   1      49.046  30.552  28.799  1.00  0.00    -0.206 F 
ATOM     74  C   UNL A   1      48.060  33.425  26.879  1.00  0.00     0.022 A 
BRANCH  71  75
ATOM     75  S   UNL A   1      45.723  34.416  25.786  1.00  0.00     0.124 S 
ATOM     76  O   UNL A   1      46.544  34.693  24.614  1.00  0.00    -0.237 OA
ATOM     77  O   UNL A   1      44.463  33.722  25.548  1.00  0.00    -0.237 OA
ATOM     78  O   UNL A   1      45.639  35.520  26.745  1.00  0.00    -0.744 OA
ENDBRANCH  71  75
ENDBRANCH  44  68
BRANCH  56  79
ATOM     79  C   UNL A   1      46.316  26.000  31.711  1.00  0.00     0.023 A 
ATOM     80  C   UNL A   1      45.304  26.478  32.578  1.00  0.00     0.031 A 
ATOM     81  C   UNL A   1      47.573  25.717  32.272  1.00  0.00     0.131 A 
ATOM     82  C   UNL A   1      45.580  26.661  33.949  1.00  0.00     0.055 A 
ATOM     83  C   UNL A   1      47.834  25.875  33.631  1.00  0.00     0.041 A 
ATOM     84  F   UNL A   1      48.567  25.235  31.506  1.00  0.00    -0.206 F 
ATOM     85  C   UNL A   1      46.840  26.353  34.474  1.00  0.00     0.022 A 
BRANCH  82  86
ATOM     86  S   UNL A   1      44.313  27.323  35.082  1.00  0.00     0.124 S 
ATOM     87  O   UNL A   1      43.079  27.220  34.312  1.00  0.00    -0.237 OA
ATOM     88  O   UNL A   1      44.423  26.433  36.235  1.00  0.00    -0.237 OA
ATOM     89  O   UNL A   1      44.762  28.695  35.331  1.00  0.00    -0.744 OA
ENDBRANCH  82  86
ENDBRANCH  56  79
ENDBRANCH  30  31
ENDBRANCH  23  25
ENDBRANCH  22  23
ENDBRANCH  21  22
ENDBRANCH   1  21
TORSDOF 19
ENDMDL
MODEL 3
REMARK VINA RESULT:     -10.9      5.330     11.725
REMARK SMILES CC[C@@H](O)C[NH+]1CC(n2cc(C(=O)OCCOC(=O)c3ccc(-c4c5nc(c(-c6cc(S(=O)(=O)[O-])ccc6F)c6ccc([nH]6)c(-c6cc(S(=O)(=O)[O-])ccc6F)c6nc(c(-c7cc(S(=O)(=O)[O-])ccc7F)c7ccc4[nH]7)C=C6)C=C5)cc3)nn2)C1
REMARK SMILES IDX 15 1 14 2 12 3 13 4 11 5 9 6 10 7 84 8 83 9 8 10 6 11 7 12
REMARK SMILES IDX 85 13 5 15 3 16 2 17 1 18 4 19 16 21 17 22 18 23 19 24 20 25
REMARK SMILES IDX 21 26 82 27 22 28 81 29 23 30 24 31 25 32 75 33 26 34 80 35
REMARK SMILES IDX 74 36 76 37 27 38 79 39 73 40 72 41 28 43 60 44 40 45 59 46
REMARK SMILES IDX 41 47 44 48 58 49 77 50 42 51 43 52 57 54 78 55 45 56 29 57
REMARK SMILES IDX 30 58 38 59 31 60 37 61 39 62 36 63 32 64 33 65 34 66 35 67
REMARK SMILES IDX 61 68 62 69 70 70 63 71 69 72 71 73 68 74 64 75 65 76 66 77
REMARK SMILES IDX 67 78 46 79 47 80 55 81 48 82 54 83 56 84 53 85 49 86 50 87
REMARK SMILES IDX 51 88 52 89
REMARK H PARENT 6 14 4 20 76 42 44 53
REMARK Flexibility Score: inf
ROOT
ATOM      1  C   UNL A   1      34.497  34.066  30.208  1.00  0.00     0.275 C 
ENDROOT
BRANCH   1   2
ATOM      2  O   UNL A   1      35.487  33.563  31.117  1.00  0.00    -0.457 OA
BRANCH   2   3
ATOM      3  C   UNL A   1      35.017  32.827  32.173  1.00  0.00     0.360 C 
ATOM      4  O   UNL A   1      33.830  32.766  32.492  1.00  0.00    -0.244 OA
BRANCH   3   5
ATOM      5  C   UNL A   1      36.075  32.107  32.860  1.00  0.00     0.190 A 
ATOM      6  N   UNL A   1      37.664  31.483  34.193  1.00  0.00    -0.237 N 
ATOM      7  C   UNL A   1      36.808  32.517  33.957  1.00  0.00     0.147 A 
ATOM      8  N   UNL A   1      37.484  30.489  33.307  1.00  0.00    -0.066 NA
ATOM      9  N   UNL A   1      36.526  30.867  32.470  1.00  0.00    -0.123 NA
BRANCH   6  10
ATOM     10  C   UNL A   1      38.524  31.412  35.332  1.00  0.00     0.218 C 
ATOM     11  N   UNL A   1      38.418  31.906  37.371  1.00  0.00    -0.329 N 
ATOM     12  C   UNL A   1      37.948  30.739  36.593  1.00  0.00     0.296 C 
ATOM     13  C   UNL A   1      38.475  32.724  36.149  1.00  0.00     0.296 C 
ATOM     14  H   UNL A   1      39.245  31.834  37.964  1.00  0.00     0.348 HD
BRANCH  11  15
ATOM     15  C   UNL A   1      37.460  32.369  38.387  1.00  0.00     0.294 C 
BRANCH  15  16
ATOM     16  C   UNL A   1      37.035  31.517  39.617  1.00  0.00     0.169 C 
BRANCH  16  17
ATOM     17  C   UNL A   1      36.840  32.315  40.910  1.00  0.00     0.034 C 
ATOM     18  C   UNL A   1      35.395  32.314  41.394  1.00  0.00     0.007 C 
ENDBRANCH  16  17
BRANCH  16  19
ATOM     19  O   UNL A   1      35.796  30.869  39.283  1.00  0.00    -0.387 OA
ATOM     20  H   UNL A   1      35.881  29.913  39.428  1.00  0.00     0.211 HD
ENDBRANCH  16  19
ENDBRANCH  15  16
ENDBRANCH  11  15
ENDBRANCH   6  10
ENDBRANCH   3   5
ENDBRANCH   2   3
ENDBRANCH   1   2
BRANCH   1  21
ATOM     21  C   UNL A   1      34.461  33.233  28.937  1.00  0.00     0.275 C 
BRANCH  21  22
ATOM     22  O   UNL A   1      35.768  32.787  28.582  1.00  0.00    -0.458 OA
BRANCH  22  23
ATOM     23  C   UNL A   1      35.846  31.493  28.187  1.00  0.00     0.338 C 
ATOM     24  O   UNL A   1      35.064  30.906  27.459  1.00  0.00    -0.246 OA
BRANCH  23  25
ATOM     25  C   UNL A   1      36.887  30.822  28.971  1.00  0.00     0.060 A 
ATOM     26  C   UNL A   1      38.044  31.546  29.271  1.00  0.00     0.016 A 
ATOM     27  C   UNL A   1      36.827  29.428  29.113  1.00  0.00     0.016 A 
ATOM     28  C   UNL A   1      39.203  30.848  29.544  1.00  0.00     0.010 A 
ATOM     29  C   UNL A   1      37.986  28.736  29.354  1.00  0.00     0.010 A 
ATOM     30  C   UNL A   1      39.172  29.450  29.493  1.00  0.00    -0.014 A 
BRANCH  30  31
ATOM     31  C   UNL A   1      40.389  28.705  29.738  1.00  0.00     0.031 A 
ATOM     32  C   UNL A   1      40.676  28.582  31.186  1.00  0.00     0.074 A 
ATOM     33  C   UNL A   1      41.055  28.064  28.757  1.00  0.00     0.049 A 
ATOM     34  N   UNL A   1      41.614  29.166  31.852  1.00  0.00    -0.248 NA
ATOM     35  C   UNL A   1      39.663  27.928  32.036  1.00  0.00     0.031 C 
ATOM     36  C   UNL A   1      40.674  27.922  27.349  1.00  0.00     0.029 A 
ATOM     37  N   UNL A   1      42.179  27.306  28.837  1.00  0.00    -0.354 N 
ATOM     38  C   UNL A   1      41.464  28.725  33.161  1.00  0.00     0.074 A 
ATOM     39  C   UNL A   1      40.127  28.214  33.253  1.00  0.00     0.031 C 
ATOM     40  C   UNL A   1      41.417  26.942  26.780  1.00  0.00     0.029 A 
ATOM     41  C   UNL A   1      42.406  26.476  27.741  1.00  0.00     0.049 A 
ATOM     42  H   UNL A   1      42.788  27.340  29.611  1.00  0.00     0.167 HD
ATOM     43  C   UNL A   1      42.552  28.531  33.956  1.00  0.00     0.034 A 
ATOM     44  C   UNL A   1      43.293  25.442  27.664  1.00  0.00     0.034 A 
ATOM     45  C   UNL A   1      43.706  29.216  33.409  1.00  0.00     0.049 A 
ATOM     46  C   UNL A   1      44.296  25.666  28.738  1.00  0.00     0.074 A 
ATOM     47  C   UNL A   1      43.986  30.532  33.095  1.00  0.00     0.029 A 
ATOM     48  N   UNL A   1      44.632  28.463  32.718  1.00  0.00    -0.354 N 
ATOM     49  N   UNL A   1      45.120  26.681  28.737  1.00  0.00    -0.248 NA
ATOM     50  C   UNL A   1      44.030  25.096  30.053  1.00  0.00     0.031 C 
ATOM     51  C   UNL A   1      44.720  30.469  31.873  1.00  0.00     0.029 A 
ATOM     52  C   UNL A   1      44.936  29.127  31.555  1.00  0.00     0.049 A 
ATOM     53  H   UNL A   1      45.011  27.601  33.009  1.00  0.00     0.167 HD
ATOM     54  C   UNL A   1      45.119  27.149  30.044  1.00  0.00     0.074 A 
ATOM     55  C   UNL A   1      44.502  26.078  30.828  1.00  0.00     0.031 C 
ATOM     56  C   UNL A   1      45.336  28.470  30.323  1.00  0.00     0.034 A 
BRANCH  43  57
ATOM     57  C   UNL A   1      42.688  27.398  34.955  1.00  0.00     0.023 A 
ATOM     58  C   UNL A   1      43.513  26.327  34.570  1.00  0.00     0.031 A 
ATOM     59  C   UNL A   1      41.858  27.154  36.075  1.00  0.00     0.131 A 
ATOM     60  C   UNL A   1      43.383  25.063  35.165  1.00  0.00     0.055 A 
ATOM     61  C   UNL A   1      41.781  25.910  36.709  1.00  0.00     0.041 A 
ATOM     62  F   UNL A   1      41.015  28.059  36.580  1.00  0.00    -0.206 F 
ATOM     63  C   UNL A   1      42.514  24.842  36.228  1.00  0.00     0.022 A 
BRANCH  60  64
ATOM     64  S   UNL A   1      44.224  23.666  34.380  1.00  0.00     0.124 S 
ATOM     65  O   UNL A   1      45.546  24.231  34.128  1.00  0.00    -0.237 OA
ATOM     66  O   UNL A   1      44.144  22.647  35.422  1.00  0.00    -0.237 OA
ATOM     67  O   UNL A   1      43.414  23.412  33.191  1.00  0.00    -0.744 OA
ENDBRANCH  60  64
ENDBRANCH  43  57
BRANCH  44  68
ATOM     68  C   UNL A   1      43.075  24.122  26.990  1.00  0.00     0.023 A 
ATOM     69  C   UNL A   1      43.945  23.571  26.019  1.00  0.00     0.031 A 
ATOM     70  C   UNL A   1      42.070  23.261  27.489  1.00  0.00     0.131 A 
ATOM     71  C   UNL A   1      43.780  22.226  25.589  1.00  0.00     0.055 A 
ATOM     72  C   UNL A   1      41.912  21.941  27.061  1.00  0.00     0.041 A 
ATOM     73  F   UNL A   1      41.250  23.651  28.477  1.00  0.00    -0.206 F 
ATOM     74  C   UNL A   1      42.771  21.414  26.113  1.00  0.00     0.022 A 
BRANCH  71  75
ATOM     75  S   UNL A   1      44.916  21.475  24.370  1.00  0.00     0.124 S 
ATOM     76  O   UNL A   1      46.219  21.672  24.988  1.00  0.00    -0.237 OA
ATOM     77  O   UNL A   1      44.432  20.100  24.296  1.00  0.00    -0.237 OA
ATOM     78  O   UNL A   1      44.690  22.265  23.157  1.00  0.00    -0.744 OA
ENDBRANCH  71  75
ENDBRANCH  44  68
BRANCH  56  79
ATOM     79  C   UNL A   1      45.857  29.366  29.213  1.00  0.00     0.023 A 
ATOM     80  C   UNL A   1      45.072  30.263  28.450  1.00  0.00     0.031 A 
ATOM     81  C   UNL A   1      47.249  29.393  29.021  1.00  0.00     0.131 A 
ATOM     82  C   UNL A   1      45.693  31.135  27.531  1.00  0.00     0.055 A 
ATOM     83  C   UNL A   1      47.860  30.273  28.131  1.00  0.00     0.041 A 
ATOM     84  F   UNL A   1      48.050  28.585  29.735  1.00  0.00    -0.206 F 
ATOM     85  C   UNL A   1      47.084  31.144  27.377  1.00  0.00     0.022 A 
BRANCH  82  86
ATOM     86  S   UNL A   1      44.705  32.267  26.496  1.00  0.00     0.124 S 
ATOM     87  O   UNL A   1      43.663  31.407  25.949  1.00  0.00    -0.237 OA
ATOM     88  O   UNL A   1      44.265  33.273  27.458  1.00  0.00    -0.237 OA
ATOM     89  O   UNL A   1      45.670  32.755  25.508  1.00  0.00    -0.744 OA
ENDBRANCH  82  86
ENDBRANCH  56  79
ENDBRANCH  30  31
ENDBRANCH  23  25
ENDBRANCH  22  23
ENDBRANCH  21  22
ENDBRANCH   1  21
TORSDOF 19
ENDMDL
