MODEL 1
REMARK VINA RESULT:     -10.5      0.000      0.000
REMARK SMILES CC(C)[C@@H](NC(=O)[C@H]1CCCO1)C(=O)OCCOC(=O)c1ccc(-c2c3nc(c(-c4cc(S(=O)(=O)[O-])ccc4F)c4ccc([nH]4)c(-c4cc(S(=O)(=O)[O-])ccc4F)c4nc(c(-c5cc(S(=O)(=O)[O-])ccc5F)c5ccc2[nH]5)C=C4)C=C3)cc1
REMARK SMILES IDX 17 1 16 2 15 3 13 4 14 5 4 6 2 7 1 8 3 9 5 10 6 11 7 13 8 14
REMARK SMILES IDX 9 15 12 16 10 17 11 18 18 19 19 20 20 21 21 22 22 23 83 24
REMARK SMILES IDX 23 25 82 26 24 27 25 28 26 29 76 30 27 31 81 32 75 33 77 34
REMARK SMILES IDX 28 35 80 36 74 37 73 38 29 40 61 41 41 42 60 43 42 44 45 45
REMARK SMILES IDX 59 46 78 47 43 48 44 49 58 51 79 52 46 53 30 54 31 55 39 56
REMARK SMILES IDX 32 57 38 58 40 59 37 60 33 61 34 62 35 63 36 64 62 65 63 66
REMARK SMILES IDX 71 67 64 68 70 69 72 70 69 71 65 72 66 73 67 74 68 75 47 76
REMARK SMILES IDX 48 77 56 78 49 79 55 80 57 81 54 82 50 83 51 84 52 85 53 86
REMARK H PARENT 5 12 77 39 45 50
REMARK Flexibility Score: inf
ROOT
ATOM      1  C   UNL A   1      37.170  21.416  24.268  1.00  0.00     0.275 C 
ENDROOT
BRANCH   1   2
ATOM      2  C   UNL A   1      36.791  22.673  23.475  1.00  0.00     0.274 C 
BRANCH   2   3
ATOM      3  O   UNL A   1      35.369  22.895  23.351  1.00  0.00    -0.461 OA
BRANCH   3   4
ATOM      4  C   UNL A   1      34.811  23.585  24.379  1.00  0.00     0.329 C 
ATOM      5  O   UNL A   1      35.374  24.505  24.965  1.00  0.00    -0.250 OA
BRANCH   4   6
ATOM      6  C   UNL A   1      33.498  23.000  24.909  1.00  0.00     0.194 C 
BRANCH   6   7
ATOM      7  C   UNL A   1      33.594  21.534  25.431  1.00  0.00     0.017 C 
ATOM      8  C   UNL A   1      33.916  21.511  26.936  1.00  0.00     0.010 C 
ATOM      9  C   UNL A   1      32.324  20.702  25.228  1.00  0.00     0.010 C 
ENDBRANCH   6   7
BRANCH   6  10
ATOM     10  N   UNL A   1      32.821  23.857  25.916  1.00  0.00    -0.340 N 
ATOM     11  C   UNL A   1      31.733  24.684  25.800  1.00  0.00     0.249 C 
ATOM     12  H   UNL A   1      33.220  23.826  26.816  1.00  0.00     0.164 HD
ATOM     13  O   UNL A   1      30.951  24.717  26.754  1.00  0.00    -0.272 OA
BRANCH  11  14
ATOM     14  C   UNL A   1      31.607  25.646  24.603  1.00  0.00     0.207 C 
ATOM     15  C   UNL A   1      30.496  25.255  23.638  1.00  0.00     0.044 C 
ATOM     16  O   UNL A   1      31.330  26.993  25.040  1.00  0.00    -0.368 OA
ATOM     17  C   UNL A   1      29.415  26.274  23.893  1.00  0.00     0.032 C 
ATOM     18  C   UNL A   1      30.217  27.487  24.291  1.00  0.00     0.161 C 
ENDBRANCH  11  14
ENDBRANCH   6  10
ENDBRANCH   4   6
ENDBRANCH   3   4
ENDBRANCH   2   3
ENDBRANCH   1   2
BRANCH   1  19
ATOM     19  O   UNL A   1      37.492  21.710  25.640  1.00  0.00    -0.458 OA
BRANCH  19  20
ATOM     20  C   UNL A   1      38.781  21.488  25.985  1.00  0.00     0.338 C 
ATOM     21  O   UNL A   1      39.440  20.492  25.739  1.00  0.00    -0.246 OA
BRANCH  20  22
ATOM     22  C   UNL A   1      39.366  22.684  26.611  1.00  0.00     0.060 A 
ATOM     23  C   UNL A   1      38.902  23.937  26.198  1.00  0.00     0.016 A 
ATOM     24  C   UNL A   1      40.461  22.585  27.470  1.00  0.00     0.016 A 
ATOM     25  C   UNL A   1      39.544  25.098  26.612  1.00  0.00     0.010 A 
ATOM     26  C   UNL A   1      41.109  23.754  27.887  1.00  0.00     0.010 A 
ATOM     27  C   UNL A   1      40.671  25.013  27.435  1.00  0.00    -0.014 A 
BRANCH  27  28
ATOM     28  C   UNL A   1      41.456  26.238  27.711  1.00  0.00     0.031 A 
ATOM     29  C   UNL A   1      40.842  27.325  28.549  1.00  0.00     0.074 A 
ATOM     30  C   UNL A   1      42.719  26.350  27.267  1.00  0.00     0.049 A 
ATOM     31  N   UNL A   1      41.313  28.507  28.852  1.00  0.00    -0.248 NA
ATOM     32  C   UNL A   1      39.518  27.037  29.119  1.00  0.00     0.031 C 
ATOM     33  C   UNL A   1      43.441  25.325  26.513  1.00  0.00     0.029 A 
ATOM     34  N   UNL A   1      43.621  27.376  27.387  1.00  0.00    -0.354 N 
ATOM     35  C   UNL A   1      40.338  29.112  29.638  1.00  0.00     0.074 A 
ATOM     36  C   UNL A   1      39.240  28.172  29.743  1.00  0.00     0.031 C 
ATOM     37  C   UNL A   1      44.673  25.779  26.229  1.00  0.00     0.029 A 
ATOM     38  C   UNL A   1      44.811  27.141  26.740  1.00  0.00     0.049 A 
ATOM     39  H   UNL A   1      43.434  28.202  27.890  1.00  0.00     0.167 HD
ATOM     40  C   UNL A   1      40.358  30.340  30.216  1.00  0.00     0.034 A 
ATOM     41  C   UNL A   1      45.874  27.947  26.556  1.00  0.00     0.034 A 
ATOM     42  C   UNL A   1      41.457  31.267  30.087  1.00  0.00     0.049 A 
ATOM     43  C   UNL A   1      45.844  29.335  27.141  1.00  0.00     0.074 A 
ATOM     44  C   UNL A   1      41.575  32.547  30.599  1.00  0.00     0.029 A 
ATOM     45  N   UNL A   1      42.631  31.013  29.388  1.00  0.00    -0.354 N 
ATOM     46  N   UNL A   1      44.896  29.918  27.840  1.00  0.00    -0.248 NA
ATOM     47  C   UNL A   1      47.027  30.173  26.914  1.00  0.00     0.031 C 
ATOM     48  C   UNL A   1      42.794  33.084  30.166  1.00  0.00     0.029 A 
ATOM     49  C   UNL A   1      43.468  32.117  29.438  1.00  0.00     0.049 A 
ATOM     50  H   UNL A   1      42.838  30.169  28.924  1.00  0.00     0.167 HD
ATOM     51  C   UNL A   1      45.379  31.186  28.150  1.00  0.00     0.074 A 
ATOM     52  C   UNL A   1      46.709  31.273  27.581  1.00  0.00     0.031 C 
ATOM     53  C   UNL A   1      44.782  32.189  28.844  1.00  0.00     0.034 A 
BRANCH  40  54
ATOM     54  C   UNL A   1      39.121  30.761  30.972  1.00  0.00     0.023 A 
ATOM     55  C   UNL A   1      38.099  31.512  30.364  1.00  0.00     0.031 A 
ATOM     56  C   UNL A   1      38.992  30.458  32.339  1.00  0.00     0.131 A 
ATOM     57  C   UNL A   1      37.031  31.996  31.137  1.00  0.00     0.055 A 
ATOM     58  C   UNL A   1      37.890  30.878  33.085  1.00  0.00     0.041 A 
ATOM     59  F   UNL A   1      39.947  29.766  32.978  1.00  0.00    -0.206 F 
ATOM     60  C   UNL A   1      36.909  31.665  32.489  1.00  0.00     0.022 A 
BRANCH  57  61
ATOM     61  S   UNL A   1      35.885  33.184  30.388  1.00  0.00     0.124 S 
ATOM     62  O   UNL A   1      35.885  34.260  31.377  1.00  0.00    -0.237 OA
ATOM     63  O   UNL A   1      36.529  33.485  29.115  1.00  0.00    -0.237 OA
ATOM     64  O   UNL A   1      34.631  32.438  30.292  1.00  0.00    -0.744 OA
ENDBRANCH  57  61
ENDBRANCH  40  54
BRANCH  41  65
ATOM     65  C   UNL A   1      47.031  27.490  25.735  1.00  0.00     0.023 A 
ATOM     66  C   UNL A   1      47.167  27.873  24.392  1.00  0.00     0.031 A 
ATOM     67  C   UNL A   1      47.995  26.622  26.276  1.00  0.00     0.131 A 
ATOM     68  C   UNL A   1      48.223  27.358  23.624  1.00  0.00     0.055 A 
ATOM     69  C   UNL A   1      49.070  26.151  25.522  1.00  0.00     0.041 A 
ATOM     70  F   UNL A   1      47.910  26.226  27.557  1.00  0.00    -0.206 F 
ATOM     71  C   UNL A   1      49.182  26.510  24.183  1.00  0.00     0.022 A 
BRANCH  68  72
ATOM     72  S   UNL A   1      48.289  27.760  21.857  1.00  0.00     0.124 S 
ATOM     73  O   UNL A   1      48.523  26.449  21.261  1.00  0.00    -0.237 OA
ATOM     74  O   UNL A   1      46.972  28.343  21.629  1.00  0.00    -0.237 OA
ATOM     75  O   UNL A   1      49.408  28.696  21.762  1.00  0.00    -0.744 OA
ENDBRANCH  68  72
ENDBRANCH  41  65
BRANCH  53  76
ATOM     76  C   UNL A   1      45.593  33.446  29.044  1.00  0.00     0.023 A 
ATOM     77  C   UNL A   1      45.569  34.496  28.109  1.00  0.00     0.031 A 
ATOM     78  C   UNL A   1      46.429  33.576  30.167  1.00  0.00     0.131 A 
ATOM     79  C   UNL A   1      46.414  35.602  28.279  1.00  0.00     0.055 A 
ATOM     80  C   UNL A   1      47.226  34.705  30.360  1.00  0.00     0.041 A 
ATOM     81  F   UNL A   1      46.490  32.603  31.089  1.00  0.00    -0.206 F 
ATOM     82  C   UNL A   1      47.234  35.719  29.406  1.00  0.00     0.022 A 
BRANCH  79  83
ATOM     83  S   UNL A   1      46.509  36.838  26.956  1.00  0.00     0.124 S 
ATOM     84  O   UNL A   1      47.795  37.474  27.223  1.00  0.00    -0.237 OA
ATOM     85  O   UNL A   1      46.444  36.012  25.753  1.00  0.00    -0.237 OA
ATOM     86  O   UNL A   1      45.339  37.682  27.190  1.00  0.00    -0.744 OA
ENDBRANCH  79  83
ENDBRANCH  53  76
ENDBRANCH  27  28
ENDBRANCH  20  22
ENDBRANCH  19  20
ENDBRANCH   1  19
TORSDOF 17
ENDMDL
MODEL 2
REMARK VINA RESULT:     -10.3      5.310     10.427
REMARK SMILES CC(C)[C@@H](NC(=O)[C@H]1CCCO1)C(=O)OCCOC(=O)c1ccc(-c2c3nc(c(-c4cc(S(=O)(=O)[O-])ccc4F)c4ccc([nH]4)c(-c4cc(S(=O)(=O)[O-])ccc4F)c4nc(c(-c5cc(S(=O)(=O)[O-])ccc5F)c5ccc2[nH]5)C=C4)C=C3)cc1
REMARK SMILES IDX 17 1 16 2 15 3 13 4 14 5 4 6 2 7 1 8 3 9 5 10 6 11 7 13 8 14
REMARK SMILES IDX 9 15 12 16 10 17 11 18 18 19 19 20 20 21 21 22 22 23 83 24
REMARK SMILES IDX 23 25 82 26 24 27 25 28 26 29 76 30 27 31 81 32 75 33 77 34
REMARK SMILES IDX 28 35 80 36 74 37 73 38 29 40 61 41 41 42 60 43 42 44 45 45
REMARK SMILES IDX 59 46 78 47 43 48 44 49 58 51 79 52 46 53 30 54 31 55 39 56
REMARK SMILES IDX 32 57 38 58 40 59 37 60 33 61 34 62 35 63 36 64 62 65 63 66
REMARK SMILES IDX 71 67 64 68 70 69 72 70 69 71 65 72 66 73 67 74 68 75 47 76
REMARK SMILES IDX 48 77 56 78 49 79 55 80 57 81 54 82 50 83 51 84 52 85 53 86
REMARK H PARENT 5 12 77 39 45 50
REMARK Flexibility Score: inf
ROOT
ATOM      1  C   UNL A   1      32.412  30.642  26.121  1.00  0.00     0.275 C 
ENDROOT
BRANCH   1   2
ATOM      2  C   UNL A   1      32.005  29.176  25.925  1.00  0.00     0.274 C 
BRANCH   2   3
ATOM      3  O   UNL A   1      31.049  28.958  24.864  1.00  0.00    -0.461 OA
BRANCH   3   4
ATOM      4  C   UNL A   1      30.844  27.655  24.544  1.00  0.00     0.329 C 
ATOM      5  O   UNL A   1      30.911  26.737  25.357  1.00  0.00    -0.250 OA
BRANCH   4   6
ATOM      6  C   UNL A   1      30.725  27.370  23.044  1.00  0.00     0.194 C 
BRANCH   6   7
ATOM      7  C   UNL A   1      29.748  28.308  22.272  1.00  0.00     0.017 C 
ATOM      8  C   UNL A   1      28.431  28.482  23.048  1.00  0.00     0.010 C 
ATOM      9  C   UNL A   1      30.299  29.710  21.996  1.00  0.00     0.010 C 
ENDBRANCH   6   7
BRANCH   6  10
ATOM     10  N   UNL A   1      32.031  27.302  22.340  1.00  0.00    -0.340 N 
ATOM     11  C   UNL A   1      32.820  26.226  22.022  1.00  0.00     0.249 C 
ATOM     12  H   UNL A   1      32.389  28.173  22.053  1.00  0.00     0.164 HD
ATOM     13  O   UNL A   1      33.396  26.257  20.930  1.00  0.00    -0.272 OA
BRANCH  11  14
ATOM     14  C   UNL A   1      33.099  25.126  23.064  1.00  0.00     0.207 C 
ATOM     15  C   UNL A   1      32.107  23.973  22.994  1.00  0.00     0.044 C 
ATOM     16  O   UNL A   1      34.414  24.560  22.890  1.00  0.00    -0.368 OA
ATOM     17  C   UNL A   1      32.897  22.848  22.376  1.00  0.00     0.032 C 
ATOM     18  C   UNL A   1      34.291  23.136  22.871  1.00  0.00     0.161 C 
ENDBRANCH  11  14
ENDBRANCH   6  10
ENDBRANCH   4   6
ENDBRANCH   3   4
ENDBRANCH   2   3
ENDBRANCH   1   2
BRANCH   1  19
ATOM     19  O   UNL A   1      32.803  30.925  27.477  1.00  0.00    -0.458 OA
BRANCH  19  20
ATOM     20  C   UNL A   1      33.643  31.976  27.621  1.00  0.00     0.338 C 
ATOM     21  O   UNL A   1      33.348  33.158  27.564  1.00  0.00    -0.246 OA
BRANCH  20  22
ATOM     22  C   UNL A   1      34.991  31.519  27.993  1.00  0.00     0.060 A 
ATOM     23  C   UNL A   1      35.147  30.187  28.391  1.00  0.00     0.016 A 
ATOM     24  C   UNL A   1      36.053  32.417  28.104  1.00  0.00     0.016 A 
ATOM     25  C   UNL A   1      36.350  29.750  28.932  1.00  0.00     0.010 A 
ATOM     26  C   UNL A   1      37.265  31.978  28.649  1.00  0.00     0.010 A 
ATOM     27  C   UNL A   1      37.408  30.650  29.092  1.00  0.00    -0.014 A 
BRANCH  27  28
ATOM     28  C   UNL A   1      38.612  30.221  29.841  1.00  0.00     0.031 A 
ATOM     29  C   UNL A   1      39.549  29.228  29.212  1.00  0.00     0.074 A 
ATOM     30  C   UNL A   1      38.891  30.757  31.042  1.00  0.00     0.049 A 
ATOM     31  N   UNL A   1      40.614  28.659  29.711  1.00  0.00    -0.248 NA
ATOM     32  C   UNL A   1      39.237  28.826  27.832  1.00  0.00     0.031 C 
ATOM     33  C   UNL A   1      38.095  31.785  31.712  1.00  0.00     0.029 A 
ATOM     34  N   UNL A   1      39.924  30.512  31.910  1.00  0.00    -0.354 N 
ATOM     35  C   UNL A   1      41.096  27.817  28.713  1.00  0.00     0.074 A 
ATOM     36  C   UNL A   1      40.189  27.937  27.590  1.00  0.00     0.031 C 
ATOM     37  C   UNL A   1      38.664  32.076  32.893  1.00  0.00     0.029 A 
ATOM     38  C   UNL A   1      39.836  31.225  33.083  1.00  0.00     0.049 A 
ATOM     39  H   UNL A   1      40.658  29.886  31.713  1.00  0.00     0.167 HD
ATOM     40  C   UNL A   1      42.193  27.018  28.736  1.00  0.00     0.034 A 
ATOM     41  C   UNL A   1      40.597  31.170  34.192  1.00  0.00     0.034 A 
ATOM     42  C   UNL A   1      43.075  26.903  29.873  1.00  0.00     0.049 A 
ATOM     43  C   UNL A   1      41.766  30.218  34.226  1.00  0.00     0.074 A 
ATOM     44  C   UNL A   1      44.195  26.105  30.022  1.00  0.00     0.029 A 
ATOM     45  N   UNL A   1      42.933  27.609  31.062  1.00  0.00    -0.354 N 
ATOM     46  N   UNL A   1      42.184  29.389  33.296  1.00  0.00    -0.248 NA
ATOM     47  C   UNL A   1      42.565  30.198  35.457  1.00  0.00     0.031 C 
ATOM     48  C   UNL A   1      44.697  26.287  31.318  1.00  0.00     0.029 A 
ATOM     49  C   UNL A   1      43.931  27.249  31.955  1.00  0.00     0.049 A 
ATOM     50  H   UNL A   1      42.226  28.270  31.243  1.00  0.00     0.167 HD
ATOM     51  C   UNL A   1      43.308  28.762  33.827  1.00  0.00     0.074 A 
ATOM     52  C   UNL A   1      43.512  29.324  35.147  1.00  0.00     0.031 C 
ATOM     53  C   UNL A   1      44.102  27.808  33.276  1.00  0.00     0.034 A 
BRANCH  40  54
ATOM     54  C   UNL A   1      42.440  26.162  27.519  1.00  0.00     0.023 A 
ATOM     55  C   UNL A   1      41.955  24.844  27.426  1.00  0.00     0.031 A 
ATOM     56  C   UNL A   1      43.227  26.649  26.460  1.00  0.00     0.131 A 
ATOM     57  C   UNL A   1      42.321  24.039  26.336  1.00  0.00     0.055 A 
ATOM     58  C   UNL A   1      43.525  25.867  25.343  1.00  0.00     0.041 A 
ATOM     59  F   UNL A   1      43.739  27.889  26.505  1.00  0.00    -0.206 F 
ATOM     60  C   UNL A   1      43.085  24.548  25.284  1.00  0.00     0.022 A 
BRANCH  57  61
ATOM     61  S   UNL A   1      41.909  22.273  26.385  1.00  0.00     0.124 S 
ATOM     62  O   UNL A   1      40.452  22.305  26.280  1.00  0.00    -0.237 OA
ATOM     63  O   UNL A   1      42.622  21.750  25.226  1.00  0.00    -0.237 OA
ATOM     64  O   UNL A   1      42.422  21.837  27.683  1.00  0.00    -0.744 OA
ENDBRANCH  57  61
ENDBRANCH  40  54
BRANCH  41  65
ATOM     65  C   UNL A   1      40.249  31.992  35.385  1.00  0.00     0.023 A 
ATOM     66  C   UNL A   1      39.264  31.577  36.294  1.00  0.00     0.031 A 
ATOM     67  C   UNL A   1      40.871  33.233  35.606  1.00  0.00     0.131 A 
ATOM     68  C   UNL A   1      38.902  32.414  37.361  1.00  0.00     0.055 A 
ATOM     69  C   UNL A   1      40.542  34.041  36.695  1.00  0.00     0.041 A 
ATOM     70  F   UNL A   1      41.822  33.676  34.766  1.00  0.00    -0.206 F 
ATOM     71  C   UNL A   1      39.543  33.637  37.574  1.00  0.00     0.022 A 
BRANCH  68  72
ATOM     72  S   UNL A   1      37.527  31.912  38.432  1.00  0.00     0.124 S 
ATOM     73  O   UNL A   1      38.127  32.019  39.757  1.00  0.00    -0.237 OA
ATOM     74  O   UNL A   1      36.511  32.906  38.106  1.00  0.00    -0.237 OA
ATOM     75  O   UNL A   1      37.230  30.551  37.990  1.00  0.00    -0.744 OA
ENDBRANCH  68  72
ENDBRANCH  41  65
BRANCH  53  76
ATOM     76  C   UNL A   1      45.279  27.350  34.102  1.00  0.00     0.023 A 
ATOM     77  C   UNL A   1      45.193  26.237  34.956  1.00  0.00     0.031 A 
ATOM     78  C   UNL A   1      46.490  28.064  34.060  1.00  0.00     0.131 A 
ATOM     79  C   UNL A   1      46.276  25.907  35.783  1.00  0.00     0.055 A 
ATOM     80  C   UNL A   1      47.584  27.696  34.845  1.00  0.00     0.041 A 
ATOM     81  F   UNL A   1      46.625  29.134  33.262  1.00  0.00    -0.206 F 
ATOM     82  C   UNL A   1      47.477  26.622  35.724  1.00  0.00     0.022 A 
BRANCH  79  83
ATOM     83  S   UNL A   1      46.062  24.595  37.017  1.00  0.00     0.124 S 
ATOM     84  O   UNL A   1      45.224  23.638  36.303  1.00  0.00    -0.237 OA
ATOM     85  O   UNL A   1      47.438  24.175  37.266  1.00  0.00    -0.237 OA
ATOM     86  O   UNL A   1      45.411  25.276  38.134  1.00  0.00    -0.744 OA
ENDBRANCH  79  83
ENDBRANCH  53  76
ENDBRANCH  27  28
ENDBRANCH  20  22
ENDBRANCH  19  20
ENDBRANCH   1  19
TORSDOF 17
ENDMDL
MODEL 3
REMARK VINA RESULT:     -10.3      5.420      7.715
REMARK SMILES CC(C)[C@@H](NC(=O)[C@H]1CCCO1)C(=O)OCCOC(=O)c1ccc(-c2c3nc(c(-c4cc(S(=O)(=O)[O-])ccc4F)c4ccc([nH]4)c(-c4cc(S(=O)(=O)[O-])ccc4F)c4nc(c(-c5cc(S(=O)(=O)[O-])ccc5F)c5ccc2[nH]5)C=C4)C=C3)cc1
REMARK SMILES IDX 17 1 16 2 15 3 13 4 14 5 4 6 2 7 1 8 3 9 5 10 6 11 7 13 8 14
REMARK SMILES IDX 9 15 12 16 10 17 11 18 18 19 19 20 20 21 21 22 22 23 83 24
REMARK SMILES IDX 23 25 82 26 24 27 25 28 26 29 76 30 27 31 81 32 75 33 77 34
REMARK SMILES IDX 28 35 80 36 74 37 73 38 29 40 61 41 41 42 60 43 42 44 45 45
REMARK SMILES IDX 59 46 78 47 43 48 44 49 58 51 79 52 46 53 30 54 31 55 39 56
REMARK SMILES IDX 32 57 38 58 40 59 37 60 33 61 34 62 35 63 36 64 62 65 63 66
REMARK SMILES IDX 71 67 64 68 70 69 72 70 69 71 65 72 66 73 67 74 68 75 47 76
REMARK SMILES IDX 48 77 56 78 49 79 55 80 57 81 54 82 50 83 51 84 52 85 53 86
REMARK H PARENT 5 12 77 39 45 50
REMARK Flexibility Score: inf
ROOT
ATOM      1  C   UNL A   1      32.086  31.540  26.660  1.00  0.00     0.275 C 
ENDROOT
BRANCH   1   2
ATOM      2  C   UNL A   1      31.760  30.211  25.967  1.00  0.00     0.274 C 
BRANCH   2   3
ATOM      3  O   UNL A   1      32.727  29.801  24.976  1.00  0.00    -0.461 OA
BRANCH   3   4
ATOM      4  C   UNL A   1      32.884  28.458  24.857  1.00  0.00     0.329 C 
ATOM      5  O   UNL A   1      33.701  27.809  25.504  1.00  0.00    -0.250 OA
BRANCH   4   6
ATOM      6  C   UNL A   1      32.111  27.819  23.699  1.00  0.00     0.194 C 
BRANCH   6   7
ATOM      7  C   UNL A   1      32.652  26.433  23.233  1.00  0.00     0.017 C 
ATOM      8  C   UNL A   1      31.653  25.313  23.577  1.00  0.00     0.010 C 
ATOM      9  C   UNL A   1      32.940  26.335  21.732  1.00  0.00     0.010 C 
ENDBRANCH   6   7
BRANCH   6  10
ATOM     10  N   UNL A   1      30.644  27.746  23.922  1.00  0.00    -0.340 N 
ATOM     11  C   UNL A   1      29.609  28.369  23.275  1.00  0.00     0.249 C 
ATOM     12  H   UNL A   1      30.370  27.150  24.657  1.00  0.00     0.164 HD
ATOM     13  O   UNL A   1      28.580  27.710  23.100  1.00  0.00    -0.272 OA
BRANCH  11  14
ATOM     14  C   UNL A   1      29.685  29.873  22.947  1.00  0.00     0.207 C 
ATOM     15  C   UNL A   1      29.422  30.178  21.478  1.00  0.00     0.044 C 
ATOM     16  O   UNL A   1      28.721  30.626  23.711  1.00  0.00    -0.368 OA
ATOM     17  C   UNL A   1      28.043  30.786  21.473  1.00  0.00     0.032 C 
ATOM     18  C   UNL A   1      27.999  31.472  22.814  1.00  0.00     0.161 C 
ENDBRANCH  11  14
ENDBRANCH   6  10
ENDBRANCH   4   6
ENDBRANCH   3   4
ENDBRANCH   2   3
ENDBRANCH   1   2
BRANCH   1  19
ATOM     19  O   UNL A   1      32.994  31.373  27.765  1.00  0.00    -0.458 OA
BRANCH  19  20
ATOM     20  C   UNL A   1      33.960  32.316  27.857  1.00  0.00     0.338 C 
ATOM     21  O   UNL A   1      33.804  33.524  27.826  1.00  0.00    -0.246 OA
BRANCH  20  22
ATOM     22  C   UNL A   1      35.266  31.697  28.135  1.00  0.00     0.060 A 
ATOM     23  C   UNL A   1      35.294  30.336  28.459  1.00  0.00     0.016 A 
ATOM     24  C   UNL A   1      36.423  32.469  28.234  1.00  0.00     0.016 A 
ATOM     25  C   UNL A   1      36.465  29.744  28.914  1.00  0.00     0.010 A 
ATOM     26  C   UNL A   1      37.604  31.874  28.693  1.00  0.00     0.010 A 
ATOM     27  C   UNL A   1      37.622  30.516  29.062  1.00  0.00    -0.014 A 
BRANCH  27  28
ATOM     28  C   UNL A   1      38.805  29.921  29.725  1.00  0.00     0.031 A 
ATOM     29  C   UNL A   1      39.180  30.385  31.105  1.00  0.00     0.074 A 
ATOM     30  C   UNL A   1      39.499  28.939  29.123  1.00  0.00     0.049 A 
ATOM     31  N   UNL A   1      40.211  30.060  31.839  1.00  0.00    -0.248 NA
ATOM     32  C   UNL A   1      38.264  31.345  31.739  1.00  0.00     0.031 C 
ATOM     33  C   UNL A   1      39.178  28.358  27.820  1.00  0.00     0.029 A 
ATOM     34  N   UNL A   1      40.616  28.256  29.531  1.00  0.00    -0.354 N 
ATOM     35  C   UNL A   1      40.080  30.787  33.019  1.00  0.00     0.074 A 
ATOM     36  C   UNL A   1      38.878  31.585  32.887  1.00  0.00     0.031 C 
ATOM     37  C   UNL A   1      40.086  27.411  27.530  1.00  0.00     0.029 A 
ATOM     38  C   UNL A   1      41.075  27.351  28.604  1.00  0.00     0.049 A 
ATOM     39  H   UNL A   1      41.048  28.400  30.404  1.00  0.00     0.167 HD
ATOM     40  C   UNL A   1      40.889  30.787  34.108  1.00  0.00     0.034 A 
ATOM     41  C   UNL A   1      42.184  26.587  28.609  1.00  0.00     0.034 A 
ATOM     42  C   UNL A   1      42.090  29.993  34.212  1.00  0.00     0.049 A 
ATOM     43  C   UNL A   1      43.110  26.660  29.796  1.00  0.00     0.074 A 
ATOM     44  C   UNL A   1      43.003  29.936  35.251  1.00  0.00     0.029 A 
ATOM     45  N   UNL A   1      42.549  29.117  33.236  1.00  0.00    -0.354 N 
ATOM     46  N   UNL A   1      43.004  27.388  30.885  1.00  0.00    -0.248 NA
ATOM     47  C   UNL A   1      44.304  25.807  29.755  1.00  0.00     0.031 C 
ATOM     48  C   UNL A   1      44.039  29.068  34.880  1.00  0.00     0.029 A 
ATOM     49  C   UNL A   1      43.740  28.532  33.638  1.00  0.00     0.049 A 
ATOM     50  H   UNL A   1      42.093  28.938  32.382  1.00  0.00     0.167 HD
ATOM     51  C   UNL A   1      44.111  27.065  31.665  1.00  0.00     0.074 A 
ATOM     52  C   UNL A   1      44.857  26.063  30.931  1.00  0.00     0.031 C 
ATOM     53  C   UNL A   1      44.479  27.550  32.880  1.00  0.00     0.034 A 
BRANCH  40  54
ATOM     54  C   UNL A   1      40.527  31.730  35.229  1.00  0.00     0.023 A 
ATOM     55  C   UNL A   1      39.538  31.412  36.178  1.00  0.00     0.031 A 
ATOM     56  C   UNL A   1      41.138  32.994  35.313  1.00  0.00     0.131 A 
ATOM     57  C   UNL A   1      39.140  32.372  37.122  1.00  0.00     0.055 A 
ATOM     58  C   UNL A   1      40.789  33.916  36.302  1.00  0.00     0.041 A 
ATOM     59  F   UNL A   1      42.070  33.363  34.421  1.00  0.00    -0.206 F 
ATOM     60  C   UNL A   1      39.774  33.614  37.204  1.00  0.00     0.022 A 
BRANCH  57  61
ATOM     61  S   UNL A   1      37.681  32.030  38.145  1.00  0.00     0.124 S 
ATOM     62  O   UNL A   1      37.358  30.660  37.752  1.00  0.00    -0.237 OA
ATOM     63  O   UNL A   1      38.195  32.203  39.498  1.00  0.00    -0.237 OA
ATOM     64  O   UNL A   1      36.714  33.038  37.711  1.00  0.00    -0.744 OA
ENDBRANCH  57  61
ENDBRANCH  40  54
BRANCH  41  65
ATOM     65  C   UNL A   1      42.516  25.734  27.434  1.00  0.00     0.023 A 
ATOM     66  C   UNL A   1      42.098  24.396  27.364  1.00  0.00     0.031 A 
ATOM     67  C   UNL A   1      43.300  26.237  26.381  1.00  0.00     0.131 A 
ATOM     68  C   UNL A   1      42.498  23.596  26.283  1.00  0.00     0.055 A 
ATOM     69  C   UNL A   1      43.655  25.451  25.284  1.00  0.00     0.041 A 
ATOM     70  F   UNL A   1      43.725  27.511  26.400  1.00  0.00    -0.206 F 
ATOM     71  C   UNL A   1      43.263  24.118  25.237  1.00  0.00     0.022 A 
BRANCH  68  72
ATOM     72  S   UNL A   1      42.060  21.836  26.294  1.00  0.00     0.124 S 
ATOM     73  O   UNL A   1      42.931  21.305  25.252  1.00  0.00    -0.237 OA
ATOM     74  O   UNL A   1      42.389  21.451  27.663  1.00  0.00    -0.237 OA
ATOM     75  O   UNL A   1      40.634  21.837  25.975  1.00  0.00    -0.744 OA
ENDBRANCH  68  72
ENDBRANCH  41  65
BRANCH  53  76
ATOM     76  C   UNL A   1      45.729  26.964  33.488  1.00  0.00     0.023 A 
ATOM     77  C   UNL A   1      45.693  25.792  34.264  1.00  0.00     0.031 A 
ATOM     78  C   UNL A   1      46.966  27.612  33.321  1.00  0.00     0.131 A 
ATOM     79  C   UNL A   1      46.860  25.338  34.897  1.00  0.00     0.055 A 
ATOM     80  C   UNL A   1      48.134  27.123  33.907  1.00  0.00     0.041 A 
ATOM     81  F   UNL A   1      47.055  28.735  32.591  1.00  0.00    -0.206 F 
ATOM     82  C   UNL A   1      48.084  25.990  34.713  1.00  0.00     0.022 A 
BRANCH  79  83
ATOM     83  S   UNL A   1      46.738  23.944  36.050  1.00  0.00     0.124 S 
ATOM     84  O   UNL A   1      47.483  22.903  35.351  1.00  0.00    -0.237 OA
ATOM     85  O   UNL A   1      47.369  24.480  37.253  1.00  0.00    -0.237 OA
ATOM     86  O   UNL A   1      45.300  23.711  36.159  1.00  0.00    -0.744 OA
ENDBRANCH  79  83
ENDBRANCH  53  76
ENDBRANCH  27  28
ENDBRANCH  20  22
ENDBRANCH  19  20
ENDBRANCH   1  19
TORSDOF 17
ENDMDL
