MODEL 1
REMARK VINA RESULT:     -12.4      0.000      0.000
REMARK SMILES Cc1cc(N2N=C(C(=O)OCCOC(=O)c3ccc(-c4c5nc(c(-c6cc(S(=O)(=O)[O-])ccc6F)c6ccc([nH]6)c(-c6cc(S(=O)(=O)[O-])ccc6F)c6nc(c(-c7cc(S(=O)(=O)[O-])ccc7F)c7ccc4[nH]7)C=C6)C=C5)cc3)C[C@H]2c2ccccc2)c([N+](=O)[O-])cc1C
REMARK SMILES IDX 12 1 11 2 10 3 8 4 9 5 7 6 5 7 6 8 80 9 79 10 4 11 1 12 2 13
REMARK SMILES IDX 3 14 92 15 91 16 93 17 87 18 88 19 89 20 90 21 81 22 82 23
REMARK SMILES IDX 86 24 83 25 85 26 84 27 13 28 14 29 15 30 16 31 17 32 78 33
REMARK SMILES IDX 18 34 77 35 19 36 20 37 21 38 71 39 22 40 76 41 70 42 72 43
REMARK SMILES IDX 23 44 75 45 69 46 68 47 24 49 56 50 36 51 55 52 37 53 40 54
REMARK SMILES IDX 54 55 73 56 38 57 39 58 53 60 74 61 41 62 25 63 26 64 34 65
REMARK SMILES IDX 27 66 33 67 35 68 32 69 28 70 29 71 30 72 31 73 57 74 58 75
REMARK SMILES IDX 66 76 59 77 65 78 67 79 64 80 60 81 61 82 62 83 63 84 42 85
REMARK SMILES IDX 43 86 51 87 44 88 50 89 52 90 49 91 45 92 46 93 47 94 48 95
REMARK H PARENT 72 48 40 59
REMARK Flexibility Score: inf
ROOT
ATOM      1  C   UNL A   1      36.635  20.303  25.027  1.00  0.00     0.275 C 
ENDROOT
BRANCH   1   2
ATOM      2  C   UNL A   1      35.218  20.731  25.423  1.00  0.00     0.275 C 
BRANCH   2   3
ATOM      3  O   UNL A   1      35.262  21.577  26.586  1.00  0.00    -0.458 OA
BRANCH   3   4
ATOM      4  C   UNL A   1      34.127  22.240  26.879  1.00  0.00     0.354 C 
ATOM      5  O   UNL A   1      33.189  21.850  27.550  1.00  0.00    -0.245 OA
BRANCH   4   6
ATOM      6  C   UNL A   1      34.160  23.612  26.254  1.00  0.00     0.148 C 
ATOM      7  N   UNL A   1      33.642  25.601  25.772  1.00  0.00    -0.250 N 
ATOM      8  N   UNL A   1      33.298  24.541  26.547  1.00  0.00    -0.169 NA
ATOM      9  C   UNL A   1      34.607  25.267  24.721  1.00  0.00     0.144 C 
ATOM     10  C   UNL A   1      35.247  23.997  25.301  1.00  0.00     0.098 C 
BRANCH   7  11
ATOM     11  C   UNL A   1      33.167  26.874  26.047  1.00  0.00     0.138 A 
ATOM     12  C   UNL A   1      34.730  30.127  27.310  1.00  0.00     0.045 C 
ATOM     13  C   UNL A   1      33.685  29.166  26.809  1.00  0.00    -0.046 A 
ATOM     14  C   UNL A   1      34.078  27.854  26.475  1.00  0.00     0.039 A 
ATOM     15  C   UNL A   1      32.337  29.539  26.670  1.00  0.00    -0.041 A 
ATOM     16  C   UNL A   1      31.416  28.587  26.208  1.00  0.00     0.091 A 
ATOM     17  C   UNL A   1      31.833  30.931  26.948  1.00  0.00     0.045 C 
ATOM     18  C   UNL A   1      31.829  27.273  25.924  1.00  0.00     0.294 A 
BRANCH  18  19
ATOM     19  N   UNL A   1      30.796  26.328  25.521  1.00  0.00     0.065 N 
ATOM     20  O   UNL A   1      30.207  25.708  26.418  1.00  0.00    -0.258 OA
ATOM     21  O   UNL A   1      30.613  26.150  24.306  1.00  0.00    -0.258 OA
ENDBRANCH  18  19
ENDBRANCH   7  11
BRANCH   9  22
ATOM     22  C   UNL A   1      33.872  25.094  23.394  1.00  0.00    -0.023 A 
ATOM     23  C   UNL A   1      33.464  26.170  22.590  1.00  0.00     0.006 A 
ATOM     24  C   UNL A   1      33.681  23.790  22.897  1.00  0.00     0.006 A 
ATOM     25  C   UNL A   1      32.887  25.953  21.337  1.00  0.00     0.000 A 
ATOM     26  C   UNL A   1      33.125  23.574  21.636  1.00  0.00     0.000 A 
ATOM     27  C   UNL A   1      32.725  24.656  20.857  1.00  0.00     0.000 A 
ENDBRANCH   9  22
ENDBRANCH   4   6
ENDBRANCH   3   4
ENDBRANCH   2   3
ENDBRANCH   1   2
BRANCH   1  28
ATOM     28  O   UNL A   1      37.563  21.394  25.177  1.00  0.00    -0.458 OA
BRANCH  28  29
ATOM     29  C   UNL A   1      38.709  21.071  25.826  1.00  0.00     0.338 C 
ATOM     30  O   UNL A   1      39.250  19.978  25.846  1.00  0.00    -0.246 OA
BRANCH  29  31
ATOM     31  C   UNL A   1      39.325  22.289  26.376  1.00  0.00     0.060 A 
ATOM     32  C   UNL A   1      38.736  23.504  26.038  1.00  0.00     0.016 A 
ATOM     33  C   UNL A   1      40.498  22.265  27.128  1.00  0.00     0.016 A 
ATOM     34  C   UNL A   1      39.317  24.706  26.421  1.00  0.00     0.010 A 
ATOM     35  C   UNL A   1      41.084  23.478  27.522  1.00  0.00     0.010 A 
ATOM     36  C   UNL A   1      40.507  24.709  27.155  1.00  0.00    -0.014 A 
BRANCH  36  37
ATOM     37  C   UNL A   1      41.151  26.010  27.474  1.00  0.00     0.031 A 
ATOM     38  C   UNL A   1      42.495  26.351  26.889  1.00  0.00     0.074 A 
ATOM     39  C   UNL A   1      40.501  26.907  28.243  1.00  0.00     0.049 A 
ATOM     40  N   UNL A   1      43.246  27.402  27.101  1.00  0.00    -0.248 NA
ATOM     41  C   UNL A   1      43.072  25.379  25.948  1.00  0.00     0.031 C 
ATOM     42  C   UNL A   1      39.169  26.712  28.820  1.00  0.00     0.029 A 
ATOM     43  N   UNL A   1      40.865  28.161  28.664  1.00  0.00    -0.354 N 
ATOM     44  C   UNL A   1      44.403  27.200  26.357  1.00  0.00     0.074 A 
ATOM     45  C   UNL A   1      44.254  25.923  25.689  1.00  0.00     0.031 C 
ATOM     46  C   UNL A   1      38.824  27.812  29.508  1.00  0.00     0.029 A 
ATOM     47  C   UNL A   1      39.928  28.766  29.470  1.00  0.00     0.049 A 
ATOM     48  H   UNL A   1      41.715  28.589  28.411  1.00  0.00     0.167 HD
ATOM     49  C   UNL A   1      45.487  28.007  26.245  1.00  0.00     0.034 A 
ATOM     50  C   UNL A   1      39.966  29.941  30.130  1.00  0.00     0.034 A 
ATOM     51  C   UNL A   1      45.599  29.302  26.874  1.00  0.00     0.049 A 
ATOM     52  C   UNL A   1      41.193  30.807  30.001  1.00  0.00     0.074 A 
ATOM     53  C   UNL A   1      46.633  30.218  26.779  1.00  0.00     0.029 A 
ATOM     54  N   UNL A   1      44.647  29.866  27.712  1.00  0.00    -0.354 N 
ATOM     55  N   UNL A   1      42.284  30.596  29.303  1.00  0.00    -0.248 NA
ATOM     56  C   UNL A   1      41.193  32.069  30.751  1.00  0.00     0.031 C 
ATOM     57  C   UNL A   1      46.331  31.310  27.602  1.00  0.00     0.029 A 
ATOM     58  C   UNL A   1      45.082  31.103  28.164  1.00  0.00     0.049 A 
ATOM     59  H   UNL A   1      43.787  29.448  27.949  1.00  0.00     0.167 HD
ATOM     60  C   UNL A   1      43.093  31.707  29.519  1.00  0.00     0.074 A 
ATOM     61  C   UNL A   1      42.354  32.596  30.390  1.00  0.00     0.031 C 
ATOM     62  C   UNL A   1      44.337  31.970  29.044  1.00  0.00     0.034 A 
BRANCH  49  63
ATOM     63  C   UNL A   1      46.668  27.489  25.464  1.00  0.00     0.023 A 
ATOM     64  C   UNL A   1      46.931  27.888  24.143  1.00  0.00     0.031 A 
ATOM     65  C   UNL A   1      47.555  26.581  26.071  1.00  0.00     0.131 A 
ATOM     66  C   UNL A   1      48.030  27.345  23.457  1.00  0.00     0.055 A 
ATOM     67  C   UNL A   1      48.678  26.089  25.403  1.00  0.00     0.041 A 
ATOM     68  F   UNL A   1      47.342  26.154  27.326  1.00  0.00    -0.206 F 
ATOM     69  C   UNL A   1      48.916  26.466  24.086  1.00  0.00     0.022 A 
BRANCH  66  70
ATOM     70  S   UNL A   1      48.250  27.743  21.701  1.00  0.00     0.124 S 
ATOM     71  O   UNL A   1      49.348  28.705  21.750  1.00  0.00    -0.237 OA
ATOM     72  O   UNL A   1      48.565  26.444  21.118  1.00  0.00    -0.237 OA
ATOM     73  O   UNL A   1      46.956  28.303  21.311  1.00  0.00    -0.744 OA
ENDBRANCH  66  70
ENDBRANCH  49  63
BRANCH  50  74
ATOM     74  C   UNL A   1      38.843  30.347  31.022  1.00  0.00     0.023 A 
ATOM     75  C   UNL A   1      37.827  31.206  30.572  1.00  0.00     0.031 A 
ATOM     76  C   UNL A   1      38.808  29.933  32.366  1.00  0.00     0.131 A 
ATOM     77  C   UNL A   1      36.849  31.663  31.469  1.00  0.00     0.055 A 
ATOM     78  C   UNL A   1      37.802  30.346  33.240  1.00  0.00     0.041 A 
ATOM     79  F   UNL A   1      39.757  29.116  32.850  1.00  0.00    -0.206 F 
ATOM     80  C   UNL A   1      36.823  31.228  32.797  1.00  0.00     0.022 A 
BRANCH  77  81
ATOM     81  S   UNL A   1      35.671  32.923  30.905  1.00  0.00     0.124 S 
ATOM     82  O   UNL A   1      36.251  34.144  31.455  1.00  0.00    -0.237 OA
ATOM     83  O   UNL A   1      35.742  32.775  29.455  1.00  0.00    -0.237 OA
ATOM     84  O   UNL A   1      34.410  32.504  31.512  1.00  0.00    -0.744 OA
ENDBRANCH  77  81
ENDBRANCH  50  74
BRANCH  62  85
ATOM     85  C   UNL A   1      44.946  33.290  29.441  1.00  0.00     0.023 A 
ATOM     86  C   UNL A   1      44.759  34.448  28.667  1.00  0.00     0.031 A 
ATOM     87  C   UNL A   1      45.753  33.381  30.588  1.00  0.00     0.131 A 
ATOM     88  C   UNL A   1      45.418  35.636  29.017  1.00  0.00     0.055 A 
ATOM     89  C   UNL A   1      46.365  34.579  30.961  1.00  0.00     0.041 A 
ATOM     90  F   UNL A   1      45.966  32.305  31.361  1.00  0.00    -0.206 F 
ATOM     91  C   UNL A   1      46.210  35.712  30.166  1.00  0.00     0.022 A 
BRANCH  88  92
ATOM     92  S   UNL A   1      45.302  37.060  27.898  1.00  0.00     0.124 S 
ATOM     93  O   UNL A   1      45.703  38.163  28.765  1.00  0.00    -0.237 OA
ATOM     94  O   UNL A   1      46.245  36.705  26.841  1.00  0.00    -0.237 OA
ATOM     95  O   UNL A   1      43.897  37.066  27.495  1.00  0.00    -0.744 OA
ENDBRANCH  88  92
ENDBRANCH  62  85
ENDBRANCH  36  37
ENDBRANCH  29  31
ENDBRANCH  28  29
ENDBRANCH   1  28
TORSDOF 17
ENDMDL
MODEL 2
REMARK VINA RESULT:     -12.2      0.495      7.332
REMARK SMILES Cc1cc(N2N=C(C(=O)OCCOC(=O)c3ccc(-c4c5nc(c(-c6cc(S(=O)(=O)[O-])ccc6F)c6ccc([nH]6)c(-c6cc(S(=O)(=O)[O-])ccc6F)c6nc(c(-c7cc(S(=O)(=O)[O-])ccc7F)c7ccc4[nH]7)C=C6)C=C5)cc3)C[C@H]2c2ccccc2)c([N+](=O)[O-])cc1C
REMARK SMILES IDX 12 1 11 2 10 3 8 4 9 5 7 6 5 7 6 8 80 9 79 10 4 11 1 12 2 13
REMARK SMILES IDX 3 14 92 15 91 16 93 17 87 18 88 19 89 20 90 21 81 22 82 23
REMARK SMILES IDX 86 24 83 25 85 26 84 27 13 28 14 29 15 30 16 31 17 32 78 33
REMARK SMILES IDX 18 34 77 35 19 36 20 37 21 38 71 39 22 40 76 41 70 42 72 43
REMARK SMILES IDX 23 44 75 45 69 46 68 47 24 49 56 50 36 51 55 52 37 53 40 54
REMARK SMILES IDX 54 55 73 56 38 57 39 58 53 60 74 61 41 62 25 63 26 64 34 65
REMARK SMILES IDX 27 66 33 67 35 68 32 69 28 70 29 71 30 72 31 73 57 74 58 75
REMARK SMILES IDX 66 76 59 77 65 78 67 79 64 80 60 81 61 82 62 83 63 84 42 85
REMARK SMILES IDX 43 86 51 87 44 88 50 89 52 90 49 91 45 92 46 93 47 94 48 95
REMARK H PARENT 72 48 40 59
REMARK Flexibility Score: inf
ROOT
ATOM      1  C   UNL A   1      36.554  20.354  25.000  1.00  0.00     0.275 C 
ENDROOT
BRANCH   1   2
ATOM      2  C   UNL A   1      35.108  20.634  25.420  1.00  0.00     0.275 C 
BRANCH   2   3
ATOM      3  O   UNL A   1      35.083  21.513  26.559  1.00  0.00    -0.458 OA
BRANCH   3   4
ATOM      4  C   UNL A   1      33.932  22.180  26.766  1.00  0.00     0.354 C 
ATOM      5  O   UNL A   1      32.931  21.781  27.331  1.00  0.00    -0.245 OA
BRANCH   4   6
ATOM      6  C   UNL A   1      34.037  23.572  26.193  1.00  0.00     0.148 C 
ATOM      7  N   UNL A   1      33.599  25.589  25.752  1.00  0.00    -0.250 N 
ATOM      8  N   UNL A   1      33.181  24.513  26.466  1.00  0.00    -0.169 NA
ATOM      9  C   UNL A   1      34.619  25.266  24.751  1.00  0.00     0.144 C 
ATOM     10  C   UNL A   1      35.190  23.960  25.323  1.00  0.00     0.098 C 
BRANCH   7  11
ATOM     11  C   UNL A   1      33.139  26.864  26.043  1.00  0.00     0.138 A 
ATOM     12  C   UNL A   1      34.754  30.104  27.272  1.00  0.00     0.045 C 
ATOM     13  C   UNL A   1      33.691  29.152  26.796  1.00  0.00    -0.046 A 
ATOM     14  C   UNL A   1      34.067  27.838  26.449  1.00  0.00     0.039 A 
ATOM     15  C   UNL A   1      32.342  29.533  26.695  1.00  0.00    -0.041 A 
ATOM     16  C   UNL A   1      31.403  28.587  26.255  1.00  0.00     0.091 A 
ATOM     17  C   UNL A   1      31.854  30.927  26.989  1.00  0.00     0.045 C 
ATOM     18  C   UNL A   1      31.800  27.272  25.957  1.00  0.00     0.294 A 
BRANCH  18  19
ATOM     19  N   UNL A   1      30.752  26.333  25.579  1.00  0.00     0.065 N 
ATOM     20  O   UNL A   1      30.133  25.770  26.494  1.00  0.00    -0.258 OA
ATOM     21  O   UNL A   1      30.584  26.104  24.371  1.00  0.00    -0.258 OA
ENDBRANCH  18  19
ENDBRANCH   7  11
BRANCH   9  22
ATOM     22  C   UNL A   1      33.963  25.158  23.376  1.00  0.00    -0.023 A 
ATOM     23  C   UNL A   1      33.593  23.936  22.791  1.00  0.00     0.006 A 
ATOM     24  C   UNL A   1      33.616  26.344  22.701  1.00  0.00     0.006 A 
ATOM     25  C   UNL A   1      32.904  23.900  21.576  1.00  0.00     0.000 A 
ATOM     26  C   UNL A   1      32.907  26.308  21.500  1.00  0.00     0.000 A 
ATOM     27  C   UNL A   1      32.554  25.086  20.936  1.00  0.00     0.000 A 
ENDBRANCH   9  22
ENDBRANCH   4   6
ENDBRANCH   3   4
ENDBRANCH   2   3
ENDBRANCH   1   2
BRANCH   1  28
ATOM     28  O   UNL A   1      37.409  21.468  25.325  1.00  0.00    -0.458 OA
BRANCH  28  29
ATOM     29  C   UNL A   1      38.614  21.119  25.840  1.00  0.00     0.338 C 
ATOM     30  O   UNL A   1      39.154  20.030  25.754  1.00  0.00    -0.246 OA
BRANCH  29  31
ATOM     31  C   UNL A   1      39.280  22.313  26.386  1.00  0.00     0.060 A 
ATOM     32  C   UNL A   1      38.782  23.551  25.993  1.00  0.00     0.016 A 
ATOM     33  C   UNL A   1      40.417  22.238  27.188  1.00  0.00     0.016 A 
ATOM     34  C   UNL A   1      39.420  24.726  26.370  1.00  0.00     0.010 A 
ATOM     35  C   UNL A   1      41.060  23.423  27.578  1.00  0.00     0.010 A 
ATOM     36  C   UNL A   1      40.576  24.676  27.155  1.00  0.00    -0.014 A 
BRANCH  36  37
ATOM     37  C   UNL A   1      41.286  25.944  27.469  1.00  0.00     0.031 A 
ATOM     38  C   UNL A   1      40.611  27.000  28.302  1.00  0.00     0.074 A 
ATOM     39  C   UNL A   1      42.556  26.120  27.053  1.00  0.00     0.049 A 
ATOM     40  N   UNL A   1      41.038  28.194  28.626  1.00  0.00    -0.248 NA
ATOM     41  C   UNL A   1      39.281  26.672  28.836  1.00  0.00     0.031 C 
ATOM     42  C   UNL A   1      43.334  25.143  26.288  1.00  0.00     0.029 A 
ATOM     43  N   UNL A   1      43.420  27.173  27.222  1.00  0.00    -0.354 N 
ATOM     44  C   UNL A   1      40.013  28.779  29.362  1.00  0.00     0.074 A 
ATOM     45  C   UNL A   1      38.942  27.806  29.435  1.00  0.00     0.031 C 
ATOM     46  C   UNL A   1      44.562  25.638  26.065  1.00  0.00     0.029 A 
ATOM     47  C   UNL A   1      44.642  26.986  26.619  1.00  0.00     0.049 A 
ATOM     48  H   UNL A   1      43.187  27.985  27.728  1.00  0.00     0.167 HD
ATOM     49  C   UNL A   1      39.972  30.013  29.922  1.00  0.00     0.034 A 
ATOM     50  C   UNL A   1      45.697  27.817  26.499  1.00  0.00     0.034 A 
ATOM     51  C   UNL A   1      41.068  30.952  29.887  1.00  0.00     0.049 A 
ATOM     52  C   UNL A   1      45.614  29.190  27.116  1.00  0.00     0.074 A 
ATOM     53  C   UNL A   1      41.146  32.207  30.469  1.00  0.00     0.029 A 
ATOM     54  N   UNL A   1      42.277  30.743  29.237  1.00  0.00    -0.354 N 
ATOM     55  N   UNL A   1      44.633  29.732  27.798  1.00  0.00    -0.248 NA
ATOM     56  C   UNL A   1      46.782  30.064  26.944  1.00  0.00     0.031 C 
ATOM     57  C   UNL A   1      42.377  32.777  30.126  1.00  0.00     0.029 A 
ATOM     58  C   UNL A   1      43.094  31.856  29.379  1.00  0.00     0.049 A 
ATOM     59  H   UNL A   1      42.519  29.924  28.748  1.00  0.00     0.167 HD
ATOM     60  C   UNL A   1      45.073  31.004  28.149  1.00  0.00     0.074 A 
ATOM     61  C   UNL A   1      46.417  31.138  27.627  1.00  0.00     0.031 C 
ATOM     62  C   UNL A   1      44.426  31.977  28.839  1.00  0.00     0.034 A 
BRANCH  49  63
ATOM     63  C   UNL A   1      38.680  30.448  30.566  1.00  0.00     0.023 A 
ATOM     64  C   UNL A   1      37.781  31.323  29.934  1.00  0.00     0.031 A 
ATOM     65  C   UNL A   1      38.345  29.961  31.842  1.00  0.00     0.131 A 
ATOM     66  C   UNL A   1      36.608  31.716  30.599  1.00  0.00     0.055 A 
ATOM     67  C   UNL A   1      37.150  30.311  32.474  1.00  0.00     0.041 A 
ATOM     68  F   UNL A   1      39.177  29.136  32.498  1.00  0.00    -0.206 F 
ATOM     69  C   UNL A   1      36.278  31.199  31.855  1.00  0.00     0.022 A 
BRANCH  66  70
ATOM     70  S   UNL A   1      35.549  32.975  29.836  1.00  0.00     0.124 S 
ATOM     71  O   UNL A   1      35.678  34.083  30.778  1.00  0.00    -0.237 OA
ATOM     72  O   UNL A   1      36.174  33.169  28.532  1.00  0.00    -0.237 OA
ATOM     73  O   UNL A   1      34.230  32.342  29.805  1.00  0.00    -0.744 OA
ENDBRANCH  66  70
ENDBRANCH  49  63
BRANCH  50  74
ATOM     74  C   UNL A   1      46.898  27.410  25.716  1.00  0.00     0.023 A 
ATOM     75  C   UNL A   1      47.100  27.861  24.402  1.00  0.00     0.031 A 
ATOM     76  C   UNL A   1      47.831  26.502  26.252  1.00  0.00     0.131 A 
ATOM     77  C   UNL A   1      48.177  27.366  23.650  1.00  0.00     0.055 A 
ATOM     78  C   UNL A   1      48.932  26.057  25.519  1.00  0.00     0.041 A 
ATOM     79  F   UNL A   1      47.684  26.035  27.502  1.00  0.00    -0.206 F 
ATOM     80  C   UNL A   1      49.102  26.477  24.205  1.00  0.00     0.022 A 
BRANCH  77  81
ATOM     81  S   UNL A   1      48.296  27.818  21.896  1.00  0.00     0.124 S 
ATOM     82  O   UNL A   1      49.540  28.579  21.866  1.00  0.00    -0.237 OA
ATOM     83  O   UNL A   1      48.328  26.510  21.249  1.00  0.00    -0.237 OA
ATOM     84  O   UNL A   1      47.083  28.597  21.663  1.00  0.00    -0.744 OA
ENDBRANCH  77  81
ENDBRANCH  50  74
BRANCH  62  85
ATOM     85  C   UNL A   1      45.190  33.253  29.086  1.00  0.00     0.023 A 
ATOM     86  C   UNL A   1      45.135  34.328  28.183  1.00  0.00     0.031 A 
ATOM     87  C   UNL A   1      46.011  33.379  30.219  1.00  0.00     0.131 A 
ATOM     88  C   UNL A   1      45.933  35.462  28.398  1.00  0.00     0.055 A 
ATOM     89  C   UNL A   1      46.762  34.531  30.456  1.00  0.00     0.041 A 
ATOM     90  F   UNL A   1      46.101  32.380  31.112  1.00  0.00    -0.206 F 
ATOM     91  C   UNL A   1      46.736  35.575  29.536  1.00  0.00     0.022 A 
BRANCH  88  92
ATOM     92  S   UNL A   1      45.977  36.752  27.123  1.00  0.00     0.124 S 
ATOM     93  O   UNL A   1      46.836  37.759  27.737  1.00  0.00    -0.237 OA
ATOM     94  O   UNL A   1      46.544  36.043  25.980  1.00  0.00    -0.237 OA
ATOM     95  O   UNL A   1      44.575  37.138  26.977  1.00  0.00    -0.744 OA
ENDBRANCH  88  92
ENDBRANCH  62  85
ENDBRANCH  36  37
ENDBRANCH  29  31
ENDBRANCH  28  29
ENDBRANCH   1  28
TORSDOF 17
ENDMDL
MODEL 3
REMARK VINA RESULT:     -12.0      5.195      8.417
REMARK SMILES Cc1cc(N2N=C(C(=O)OCCOC(=O)c3ccc(-c4c5nc(c(-c6cc(S(=O)(=O)[O-])ccc6F)c6ccc([nH]6)c(-c6cc(S(=O)(=O)[O-])ccc6F)c6nc(c(-c7cc(S(=O)(=O)[O-])ccc7F)c7ccc4[nH]7)C=C6)C=C5)cc3)C[C@H]2c2ccccc2)c([N+](=O)[O-])cc1C
REMARK SMILES IDX 12 1 11 2 10 3 8 4 9 5 7 6 5 7 6 8 80 9 79 10 4 11 1 12 2 13
REMARK SMILES IDX 3 14 92 15 91 16 93 17 87 18 88 19 89 20 90 21 81 22 82 23
REMARK SMILES IDX 86 24 83 25 85 26 84 27 13 28 14 29 15 30 16 31 17 32 78 33
REMARK SMILES IDX 18 34 77 35 19 36 20 37 21 38 71 39 22 40 76 41 70 42 72 43
REMARK SMILES IDX 23 44 75 45 69 46 68 47 24 49 56 50 36 51 55 52 37 53 40 54
REMARK SMILES IDX 54 55 73 56 38 57 39 58 53 60 74 61 41 62 25 63 26 64 34 65
REMARK SMILES IDX 27 66 33 67 35 68 32 69 28 70 29 71 30 72 31 73 57 74 58 75
REMARK SMILES IDX 66 76 59 77 65 78 67 79 64 80 60 81 61 82 62 83 63 84 42 85
REMARK SMILES IDX 43 86 51 87 44 88 50 89 52 90 49 91 45 92 46 93 47 94 48 95
REMARK H PARENT 72 48 40 59
REMARK Flexibility Score: inf
ROOT
ATOM      1  C   UNL A   1      32.282  33.433  27.109  1.00  0.00     0.275 C 
ENDROOT
BRANCH   1   2
ATOM      2  C   UNL A   1      32.043  31.943  26.848  1.00  0.00     0.275 C 
BRANCH   2   3
ATOM      3  O   UNL A   1      32.772  31.149  27.800  1.00  0.00    -0.458 OA
BRANCH   3   4
ATOM      4  C   UNL A   1      33.820  30.456  27.313  1.00  0.00     0.354 C 
ATOM      5  O   UNL A   1      34.986  30.800  27.275  1.00  0.00    -0.245 OA
BRANCH   4   6
ATOM      6  C   UNL A   1      33.354  29.115  26.804  1.00  0.00     0.148 C 
ATOM      7  N   UNL A   1      33.270  27.314  25.705  1.00  0.00    -0.250 N 
ATOM      8  N   UNL A   1      34.013  28.431  25.915  1.00  0.00    -0.169 NA
ATOM      9  C   UNL A   1      31.923  27.392  26.278  1.00  0.00     0.144 C 
ATOM     10  C   UNL A   1      32.124  28.467  27.357  1.00  0.00     0.098 C 
BRANCH   7  11
ATOM     11  C   UNL A   1      33.810  26.201  25.081  1.00  0.00     0.138 A 
ATOM     12  C   UNL A   1      35.640  23.060  26.267  1.00  0.00     0.045 C 
ATOM     13  C   UNL A   1      34.995  24.048  25.332  1.00  0.00    -0.046 A 
ATOM     14  C   UNL A   1      34.392  25.200  25.876  1.00  0.00     0.039 A 
ATOM     15  C   UNL A   1      34.982  23.855  23.939  1.00  0.00    -0.041 A 
ATOM     16  C   UNL A   1      34.373  24.824  23.128  1.00  0.00     0.091 A 
ATOM     17  C   UNL A   1      35.550  22.631  23.271  1.00  0.00     0.045 C 
ATOM     18  C   UNL A   1      33.818  25.984  23.696  1.00  0.00     0.294 A 
BRANCH  18  19
ATOM     19  N   UNL A   1      33.271  26.974  22.777  1.00  0.00     0.065 N 
ATOM     20  O   UNL A   1      32.309  26.631  22.074  1.00  0.00    -0.258 OA
ATOM     21  O   UNL A   1      33.838  28.076  22.705  1.00  0.00    -0.258 OA
ENDBRANCH  18  19
ENDBRANCH   7  11
BRANCH   9  22
ATOM     22  C   UNL A   1      30.922  27.736  25.178  1.00  0.00    -0.023 A 
ATOM     23  C   UNL A   1      30.889  28.979  24.524  1.00  0.00     0.006 A 
ATOM     24  C   UNL A   1      30.054  26.727  24.720  1.00  0.00     0.006 A 
ATOM     25  C   UNL A   1      30.021  29.205  23.453  1.00  0.00     0.000 A 
ATOM     26  C   UNL A   1      29.203  26.946  23.636  1.00  0.00     0.000 A 
ATOM     27  C   UNL A   1      29.185  28.187  23.005  1.00  0.00     0.000 A 
ENDBRANCH   9  22
ENDBRANCH   4   6
ENDBRANCH   3   4
ENDBRANCH   2   3
ENDBRANCH   1   2
BRANCH   1  28
ATOM     28  O   UNL A   1      32.374  33.699  28.522  1.00  0.00    -0.458 OA
BRANCH  28  29
ATOM     29  C   UNL A   1      33.299  34.633  28.858  1.00  0.00     0.338 C 
ATOM     30  O   UNL A   1      33.132  35.840  28.903  1.00  0.00    -0.246 OA
BRANCH  29  31
ATOM     31  C   UNL A   1      34.518  33.966  29.343  1.00  0.00     0.060 A 
ATOM     32  C   UNL A   1      34.351  32.919  30.245  1.00  0.00     0.016 A 
ATOM     33  C   UNL A   1      35.798  34.400  29.004  1.00  0.00     0.016 A 
ATOM     34  C   UNL A   1      35.450  32.310  30.838  1.00  0.00     0.010 A 
ATOM     35  C   UNL A   1      36.911  33.781  29.595  1.00  0.00     0.010 A 
ATOM     36  C   UNL A   1      36.743  32.743  30.532  1.00  0.00    -0.014 A 
BRANCH  36  37
ATOM     37  C   UNL A   1      37.894  32.131  31.247  1.00  0.00     0.031 A 
ATOM     38  C   UNL A   1      38.727  31.076  30.573  1.00  0.00     0.074 A 
ATOM     39  C   UNL A   1      38.222  32.567  32.480  1.00  0.00     0.049 A 
ATOM     40  N   UNL A   1      39.725  30.379  31.054  1.00  0.00    -0.248 NA
ATOM     41  C   UNL A   1      38.390  30.759  29.177  1.00  0.00     0.031 C 
ATOM     42  C   UNL A   1      37.524  33.625  33.213  1.00  0.00     0.029 A 
ATOM     43  N   UNL A   1      39.229  32.184  33.330  1.00  0.00    -0.354 N 
ATOM     44  C   UNL A   1      40.107  29.509  30.038  1.00  0.00     0.074 A 
ATOM     45  C   UNL A   1      39.231  29.767  28.914  1.00  0.00     0.031 C 
ATOM     46  C   UNL A   1      38.130  33.814  34.396  1.00  0.00     0.029 A 
ATOM     47  C   UNL A   1      39.222  32.856  34.531  1.00  0.00     0.049 A 
ATOM     48  H   UNL A   1      39.894  31.494  33.102  1.00  0.00     0.167 HD
ATOM     49  C   UNL A   1      41.097  28.582  30.047  1.00  0.00     0.034 A 
ATOM     50  C   UNL A   1      39.989  32.697  35.629  1.00  0.00     0.034 A 
ATOM     51  C   UNL A   1      41.998  28.373  31.156  1.00  0.00     0.049 A 
ATOM     52  C   UNL A   1      41.069  31.645  35.615  1.00  0.00     0.074 A 
ATOM     53  C   UNL A   1      43.066  27.497  31.243  1.00  0.00     0.029 A 
ATOM     54  N   UNL A   1      41.939  29.047  32.369  1.00  0.00    -0.354 N 
ATOM     55  N   UNL A   1      41.409  30.823  34.651  1.00  0.00    -0.248 NA
ATOM     56  C   UNL A   1      41.866  31.500  36.840  1.00  0.00     0.031 C 
ATOM     57  C   UNL A   1      43.618  27.600  32.526  1.00  0.00     0.029 A 
ATOM     58  C   UNL A   1      42.933  28.584  33.219  1.00  0.00     0.049 A 
ATOM     59  H   UNL A   1      41.287  29.751  32.591  1.00  0.00     0.167 HD
ATOM     60  C   UNL A   1      42.471  30.074  35.150  1.00  0.00     0.074 A 
ATOM     61  C   UNL A   1      42.730  30.560  36.488  1.00  0.00     0.031 C 
ATOM     62  C   UNL A   1      43.168  29.071  34.557  1.00  0.00     0.034 A 
BRANCH  49  63
ATOM     63  C   UNL A   1      41.221  27.678  28.847  1.00  0.00     0.023 A 
ATOM     64  C   UNL A   1      42.196  27.874  27.855  1.00  0.00     0.031 A 
ATOM     65  C   UNL A   1      40.343  26.587  28.708  1.00  0.00     0.131 A 
ATOM     66  C   UNL A   1      42.241  27.015  26.744  1.00  0.00     0.055 A 
ATOM     67  C   UNL A   1      40.430  25.704  27.631  1.00  0.00     0.041 A 
ATOM     68  F   UNL A   1      39.383  26.364  29.620  1.00  0.00    -0.206 F 
ATOM     69  C   UNL A   1      41.378  25.920  26.637  1.00  0.00     0.022 A 
BRANCH  66  70
ATOM     70  S   UNL A   1      43.393  27.389  25.394  1.00  0.00     0.124 S 
ATOM     71  O   UNL A   1      44.003  26.084  25.155  1.00  0.00    -0.237 OA
ATOM     72  O   UNL A   1      42.506  27.881  24.346  1.00  0.00    -0.237 OA
ATOM     73  O   UNL A   1      44.287  28.391  25.973  1.00  0.00    -0.744 OA
ENDBRANCH  66  70
ENDBRANCH  49  63
BRANCH  50  74
ATOM     74  C   UNL A   1      39.732  33.503  36.856  1.00  0.00     0.023 A 
ATOM     75  C   UNL A   1      39.059  32.956  37.961  1.00  0.00     0.031 A 
ATOM     76  C   UNL A   1      40.097  34.860  36.913  1.00  0.00     0.131 A 
ATOM     77  C   UNL A   1      38.728  33.773  39.053  1.00  0.00     0.055 A 
ATOM     78  C   UNL A   1      39.815  35.655  38.026  1.00  0.00     0.041 A 
ATOM     79  F   UNL A   1      40.738  35.436  35.884  1.00  0.00    -0.206 F 
ATOM     80  C   UNL A   1      39.114  35.115  39.098  1.00  0.00     0.022 A 
BRANCH  77  81
ATOM     81  S   UNL A   1      37.690  33.085  40.373  1.00  0.00     0.124 S 
ATOM     82  O   UNL A   1      38.544  32.028  40.905  1.00  0.00    -0.237 OA
ATOM     83  O   UNL A   1      37.491  34.244  41.236  1.00  0.00    -0.237 OA
ATOM     84  O   UNL A   1      36.499  32.625  39.664  1.00  0.00    -0.744 OA
ENDBRANCH  77  81
ENDBRANCH  50  74
BRANCH  62  85
ATOM     85  C   UNL A   1      44.295  28.468  35.356  1.00  0.00     0.023 A 
ATOM     86  C   UNL A   1      44.097  27.336  36.165  1.00  0.00     0.031 A 
ATOM     87  C   UNL A   1      45.571  29.055  35.336  1.00  0.00     0.131 A 
ATOM     88  C   UNL A   1      45.146  26.859  36.966  1.00  0.00     0.055 A 
ATOM     89  C   UNL A   1      46.625  28.545  36.095  1.00  0.00     0.041 A 
ATOM     90  F   UNL A   1      45.813  30.140  34.581  1.00  0.00    -0.206 F 
ATOM     91  C   UNL A   1      46.412  27.449  36.927  1.00  0.00     0.022 A 
BRANCH  88  92
ATOM     92  S   UNL A   1      44.808  25.511  38.133  1.00  0.00     0.124 S 
ATOM     93  O   UNL A   1      43.568  24.953  37.603  1.00  0.00    -0.237 OA
ATOM     94  O   UNL A   1      45.995  24.672  37.994  1.00  0.00    -0.237 OA
ATOM     95  O   UNL A   1      44.681  26.194  39.419  1.00  0.00    -0.744 OA
ENDBRANCH  88  92
ENDBRANCH  62  85
ENDBRANCH  36  37
ENDBRANCH  29  31
ENDBRANCH  28  29
ENDBRANCH   1  28
TORSDOF 17
ENDMDL
