MODEL 1
REMARK VINA RESULT:     -12.8      0.000      0.000
REMARK SMILES C[C@@H]1CC[C@H](C)[N@H+]1Cc1cc2c(cc1Cl)C=C(C(=O)OCCOC(=O)c1ccc(-c3c4nc(c(-c5cc(S(=O)(=O)[O-])ccc5F)c5ccc([nH]5)c(-c5cc(S(=O)(=O)[O-])ccc5F)c5nc(c(-c6cc(S(=O)(=O)[O-])ccc6F)c6ccc3[nH]6)C=C5)C=C4)cc1)[C@@H](C(F)(F)F)O2
REMARK SMILES IDX 22 1 21 2 20 3 18 4 19 5 17 6 9 7 10 8 14 9 11 10 13 11
REMARK SMILES IDX 15 12 12 13 94 14 16 15 89 16 8 17 7 18 6 19 5 20 4 21 3 22
REMARK SMILES IDX 2 23 1 25 90 26 91 27 92 28 93 29 23 30 24 31 25 32 26 33
REMARK SMILES IDX 27 34 88 35 28 36 87 37 29 38 30 39 31 40 81 41 32 42 86 43
REMARK SMILES IDX 80 44 82 45 33 46 85 47 79 48 78 49 34 51 66 52 46 53 65 54
REMARK SMILES IDX 47 55 50 56 64 57 83 58 48 59 49 60 63 62 84 63 51 64 35 65
REMARK SMILES IDX 36 66 44 67 37 68 43 69 45 70 42 71 38 72 39 73 40 74 41 75
REMARK SMILES IDX 67 76 68 77 76 78 69 79 75 80 77 81 74 82 70 83 71 84 72 85
REMARK SMILES IDX 73 86 52 87 53 88 61 89 54 90 60 91 62 92 59 93 55 94 56 95
REMARK SMILES IDX 57 96 58 97
REMARK H PARENT 7 24 82 50 50 61
REMARK Flexibility Score: inf
ROOT
ATOM      1  C   UNL A   1      31.381  30.691  25.963  1.00  0.00     0.275 C 
ENDROOT
BRANCH   1   2
ATOM      2  C   UNL A   1      31.558  29.827  24.711  1.00  0.00     0.275 C 
BRANCH   2   3
ATOM      3  O   UNL A   1      30.290  29.423  24.145  1.00  0.00    -0.459 OA
BRANCH   3   4
ATOM      4  C   UNL A   1      30.377  28.878  22.912  1.00  0.00     0.338 C 
ATOM      5  O   UNL A   1      30.217  29.469  21.853  1.00  0.00    -0.246 OA
BRANCH   4   6
ATOM      6  C   UNL A   1      30.725  27.449  22.963  1.00  0.00     0.087 C 
ATOM      7  C   UNL A   1      31.460  22.835  24.836  1.00  0.00     0.029 A 
ATOM      8  C   UNL A   1      31.874  23.482  23.641  1.00  0.00     0.058 A 
ATOM      9  C   UNL A   1      30.749  23.589  25.782  1.00  0.00     0.050 A 
ATOM     10  C   UNL A   1      31.501  24.801  23.369  1.00  0.00     0.128 A 
ATOM     11  C   UNL A   1      30.268  24.849  25.450  1.00  0.00     0.033 A 
ATOM     12  Cl  UNL A   1      30.533  23.109  27.426  1.00  0.00    -0.084 Cl
ATOM     13  C   UNL A   1      30.628  25.436  24.239  1.00  0.00     0.019 A 
ATOM     14  O   UNL A   1      31.982  25.415  22.240  1.00  0.00    -0.475 OA
ATOM     15  C   UNL A   1      30.127  26.749  23.928  1.00  0.00     0.027 C 
ATOM     16  C   UNL A   1      31.861  26.880  22.165  1.00  0.00     0.316 C 
BRANCH   7  17
ATOM     17  C   UNL A   1      31.767  21.360  25.038  1.00  0.00     0.301 C 
BRANCH  17  18
ATOM     18  N   UNL A   1      33.138  21.011  25.453  1.00  0.00    -0.327 N 
ATOM     19  C   UNL A   1      33.637  21.754  27.751  1.00  0.00     0.075 C 
ATOM     20  C   UNL A   1      33.852  22.007  26.266  1.00  0.00     0.181 C 
ATOM     21  C   UNL A   1      35.322  21.865  25.877  1.00  0.00     0.071 C 
ATOM     22  C   UNL A   1      35.244  21.459  24.422  1.00  0.00     0.071 C 
ATOM     23  C   UNL A   1      34.036  20.532  24.390  1.00  0.00     0.181 C 
ATOM     24  H   UNL A   1      32.915  20.221  26.058  1.00  0.00     0.348 HD
ATOM     25  C   UNL A   1      34.419  19.078  24.669  1.00  0.00     0.075 C 
ENDBRANCH  17  18
ENDBRANCH   7  17
BRANCH  16  26
ATOM     26  C   UNL A   1      33.186  27.555  22.558  1.00  0.00     0.430 C 
ATOM     27  F   UNL A   1      33.211  28.856  22.182  1.00  0.00    -0.167 F 
ATOM     28  F   UNL A   1      33.363  27.542  23.904  1.00  0.00    -0.167 F 
ATOM     29  F   UNL A   1      34.262  26.953  22.006  1.00  0.00    -0.167 F 
ENDBRANCH  16  26
ENDBRANCH   4   6
ENDBRANCH   3   4
ENDBRANCH   2   3
ENDBRANCH   1   2
BRANCH   1  30
ATOM     30  O   UNL A   1      32.457  30.490  26.898  1.00  0.00    -0.458 OA
BRANCH  30  31
ATOM     31  C   UNL A   1      33.113  31.616  27.262  1.00  0.00     0.338 C 
ATOM     32  O   UNL A   1      32.648  32.739  27.355  1.00  0.00    -0.246 OA
BRANCH  31  33
ATOM     33  C   UNL A   1      34.502  31.302  27.629  1.00  0.00     0.060 A 
ATOM     34  C   UNL A   1      35.423  32.307  27.894  1.00  0.00     0.016 A 
ATOM     35  C   UNL A   1      34.824  29.980  27.906  1.00  0.00     0.016 A 
ATOM     36  C   UNL A   1      36.666  31.964  28.441  1.00  0.00     0.010 A 
ATOM     37  C   UNL A   1      35.974  29.669  28.623  1.00  0.00     0.010 A 
ATOM     38  C   UNL A   1      36.942  30.647  28.868  1.00  0.00    -0.014 A 
BRANCH  38  39
ATOM     39  C   UNL A   1      38.223  30.307  29.563  1.00  0.00     0.031 A 
ATOM     40  C   UNL A   1      38.519  30.790  30.967  1.00  0.00     0.074 A 
ATOM     41  C   UNL A   1      39.153  29.570  28.916  1.00  0.00     0.049 A 
ATOM     42  N   UNL A   1      39.539  30.501  31.738  1.00  0.00    -0.248 NA
ATOM     43  C   UNL A   1      37.585  31.753  31.572  1.00  0.00     0.031 C 
ATOM     44  C   UNL A   1      39.070  29.161  27.514  1.00  0.00     0.029 A 
ATOM     45  N   UNL A   1      40.332  29.012  29.350  1.00  0.00    -0.354 N 
ATOM     46  C   UNL A   1      39.370  31.255  32.896  1.00  0.00     0.074 A 
ATOM     47  C   UNL A   1      38.213  32.090  32.687  1.00  0.00     0.031 C 
ATOM     48  C   UNL A   1      40.093  28.343  27.231  1.00  0.00     0.029 A 
ATOM     49  C   UNL A   1      40.935  28.200  28.415  1.00  0.00     0.049 A 
ATOM     50  H   UNL A   1      40.711  29.178  30.244  1.00  0.00     0.167 HD
ATOM     51  C   UNL A   1      40.071  31.213  34.055  1.00  0.00     0.034 A 
ATOM     52  C   UNL A   1      42.022  27.404  28.503  1.00  0.00     0.034 A 
ATOM     53  C   UNL A   1      41.191  30.337  34.274  1.00  0.00     0.049 A 
ATOM     54  C   UNL A   1      42.744  27.301  29.822  1.00  0.00     0.074 A 
ATOM     55  C   UNL A   1      41.915  30.149  35.437  1.00  0.00     0.029 A 
ATOM     56  N   UNL A   1      41.742  29.495  33.319  1.00  0.00    -0.354 N 
ATOM     57  N   UNL A   1      42.482  27.915  30.953  1.00  0.00    -0.248 NA
ATOM     58  C   UNL A   1      43.894  26.390  29.891  1.00  0.00     0.031 C 
ATOM     59  C   UNL A   1      42.936  29.234  35.172  1.00  0.00     0.029 A 
ATOM     60  C   UNL A   1      42.809  28.799  33.861  1.00  0.00     0.049 A 
ATOM     61  H   UNL A   1      41.422  29.407  32.392  1.00  0.00     0.167 HD
ATOM     62  C   UNL A   1      43.428  27.460  31.867  1.00  0.00     0.074 A 
ATOM     63  C   UNL A   1      44.243  26.486  31.168  1.00  0.00     0.031 C 
ATOM     64  C   UNL A   1      43.613  27.825  33.160  1.00  0.00     0.034 A 
BRANCH  51  65
ATOM     65  C   UNL A   1      39.616  32.083  35.207  1.00  0.00     0.023 A 
ATOM     66  C   UNL A   1      38.872  31.535  36.269  1.00  0.00     0.031 A 
ATOM     67  C   UNL A   1      39.824  33.477  35.196  1.00  0.00     0.131 A 
ATOM     68  C   UNL A   1      38.348  32.377  37.261  1.00  0.00     0.055 A 
ATOM     69  C   UNL A   1      39.345  34.302  36.213  1.00  0.00     0.041 A 
ATOM     70  F   UNL A   1      40.516  34.055  34.202  1.00  0.00    -0.206 F 
ATOM     71  C   UNL A   1      38.592  33.755  37.246  1.00  0.00     0.022 A 
BRANCH  68  72
ATOM     72  S   UNL A   1      37.273  31.736  38.573  1.00  0.00     0.124 S 
ATOM     73  O   UNL A   1      36.120  32.627  38.478  1.00  0.00    -0.237 OA
ATOM     74  O   UNL A   1      37.039  30.364  38.131  1.00  0.00    -0.237 OA
ATOM     75  O   UNL A   1      38.072  31.880  39.785  1.00  0.00    -0.744 OA
ENDBRANCH  68  72
ENDBRANCH  51  65
BRANCH  52  76
ATOM     76  C   UNL A   1      42.399  26.564  27.324  1.00  0.00     0.023 A 
ATOM     77  C   UNL A   1      41.966  25.230  27.215  1.00  0.00     0.031 A 
ATOM     78  C   UNL A   1      43.313  27.040  26.368  1.00  0.00     0.131 A 
ATOM     79  C   UNL A   1      42.510  24.399  26.226  1.00  0.00     0.055 A 
ATOM     80  C   UNL A   1      43.794  26.230  25.338  1.00  0.00     0.041 A 
ATOM     81  F   UNL A   1      43.770  28.300  26.438  1.00  0.00    -0.206 F 
ATOM     82  C   UNL A   1      43.409  24.895  25.277  1.00  0.00     0.022 A 
BRANCH  79  83
ATOM     83  S   UNL A   1      42.196  22.611  26.238  1.00  0.00     0.124 S 
ATOM     84  O   UNL A   1      42.795  22.187  24.978  1.00  0.00    -0.237 OA
ATOM     85  O   UNL A   1      42.904  22.193  27.447  1.00  0.00    -0.237 OA
ATOM     86  O   UNL A   1      40.742  22.518  26.310  1.00  0.00    -0.744 OA
ENDBRANCH  79  83
ENDBRANCH  52  76
BRANCH  64  87
ATOM     87  C   UNL A   1      44.750  27.202  33.934  1.00  0.00     0.023 A 
ATOM     88  C   UNL A   1      44.508  26.112  34.792  1.00  0.00     0.031 A 
ATOM     89  C   UNL A   1      46.026  27.791  33.949  1.00  0.00     0.131 A 
ATOM     90  C   UNL A   1      45.514  25.674  35.663  1.00  0.00     0.055 A 
ATOM     91  C   UNL A   1      47.040  27.319  34.784  1.00  0.00     0.041 A 
ATOM     92  F   UNL A   1      46.302  28.841  33.160  1.00  0.00    -0.206 F 
ATOM     93  C   UNL A   1      46.781  26.266  35.656  1.00  0.00     0.022 A 
BRANCH  90  94
ATOM     94  S   UNL A   1      45.187  24.390  36.902  1.00  0.00     0.124 S 
ATOM     95  O   UNL A   1      46.416  24.412  37.690  1.00  0.00    -0.237 OA
ATOM     96  O   UNL A   1      44.003  24.911  37.579  1.00  0.00    -0.237 OA
ATOM     97  O   UNL A   1      44.977  23.182  36.111  1.00  0.00    -0.744 OA
ENDBRANCH  90  94
ENDBRANCH  64  87
ENDBRANCH  38  39
ENDBRANCH  31  33
ENDBRANCH  30  31
ENDBRANCH   1  30
TORSDOF 17
ENDMDL
MODEL 2
REMARK VINA RESULT:     -12.8      1.534      2.275
REMARK SMILES C[C@@H]1CC[C@H](C)[N@H+]1Cc1cc2c(cc1Cl)C=C(C(=O)OCCOC(=O)c1ccc(-c3c4nc(c(-c5cc(S(=O)(=O)[O-])ccc5F)c5ccc([nH]5)c(-c5cc(S(=O)(=O)[O-])ccc5F)c5nc(c(-c6cc(S(=O)(=O)[O-])ccc6F)c6ccc3[nH]6)C=C5)C=C4)cc1)[C@@H](C(F)(F)F)O2
REMARK SMILES IDX 22 1 21 2 20 3 18 4 19 5 17 6 9 7 10 8 14 9 11 10 13 11
REMARK SMILES IDX 15 12 12 13 94 14 16 15 89 16 8 17 7 18 6 19 5 20 4 21 3 22
REMARK SMILES IDX 2 23 1 25 90 26 91 27 92 28 93 29 23 30 24 31 25 32 26 33
REMARK SMILES IDX 27 34 88 35 28 36 87 37 29 38 30 39 31 40 81 41 32 42 86 43
REMARK SMILES IDX 80 44 82 45 33 46 85 47 79 48 78 49 34 51 66 52 46 53 65 54
REMARK SMILES IDX 47 55 50 56 64 57 83 58 48 59 49 60 63 62 84 63 51 64 35 65
REMARK SMILES IDX 36 66 44 67 37 68 43 69 45 70 42 71 38 72 39 73 40 74 41 75
REMARK SMILES IDX 67 76 68 77 76 78 69 79 75 80 77 81 74 82 70 83 71 84 72 85
REMARK SMILES IDX 73 86 52 87 53 88 61 89 54 90 60 91 62 92 59 93 55 94 56 95
REMARK SMILES IDX 57 96 58 97
REMARK H PARENT 7 24 82 50 50 61
REMARK Flexibility Score: inf
ROOT
ATOM      1  C   UNL A   1      31.749  30.178  25.768  1.00  0.00     0.275 C 
ENDROOT
BRANCH   1   2
ATOM      2  C   UNL A   1      31.828  28.982  24.815  1.00  0.00     0.275 C 
BRANCH   2   3
ATOM      3  O   UNL A   1      32.285  27.783  25.483  1.00  0.00    -0.459 OA
BRANCH   3   4
ATOM      4  C   UNL A   1      32.918  26.902  24.677  1.00  0.00     0.338 C 
ATOM      5  O   UNL A   1      33.652  27.185  23.741  1.00  0.00    -0.246 OA
BRANCH   4   6
ATOM      6  C   UNL A   1      32.653  25.508  25.067  1.00  0.00     0.087 C 
ATOM      7  C   UNL A   1      33.399  20.578  25.755  1.00  0.00     0.029 A 
ATOM      8  C   UNL A   1      32.240  21.399  25.748  1.00  0.00     0.058 A 
ATOM      9  C   UNL A   1      34.631  21.173  25.446  1.00  0.00     0.050 A 
ATOM     10  C   UNL A   1      32.335  22.777  25.538  1.00  0.00     0.128 A 
ATOM     11  C   UNL A   1      34.738  22.556  25.373  1.00  0.00     0.033 A 
ATOM     12  Cl  UNL A   1      36.044  20.284  25.006  1.00  0.00    -0.084 Cl
ATOM     13  C   UNL A   1      33.595  23.348  25.442  1.00  0.00     0.019 A 
ATOM     14  O   UNL A   1      31.186  23.525  25.465  1.00  0.00    -0.475 OA
ATOM     15  C   UNL A   1      33.734  24.778  25.348  1.00  0.00     0.027 C 
ATOM     16  C   UNL A   1      31.300  24.882  24.905  1.00  0.00     0.316 C 
BRANCH   7  17
ATOM     17  C   UNL A   1      33.277  19.107  26.120  1.00  0.00     0.301 C 
BRANCH  17  18
ATOM     18  N   UNL A   1      32.951  18.170  25.031  1.00  0.00    -0.327 N 
ATOM     19  C   UNL A   1      32.151  15.996  25.875  1.00  0.00     0.075 C 
ATOM     20  C   UNL A   1      33.308  16.760  25.249  1.00  0.00     0.181 C 
ATOM     21  C   UNL A   1      33.661  16.215  23.866  1.00  0.00     0.071 C 
ATOM     22  C   UNL A   1      34.251  17.423  23.173  1.00  0.00     0.071 C 
ATOM     23  C   UNL A   1      33.384  18.567  23.681  1.00  0.00     0.181 C 
ATOM     24  H   UNL A   1      31.935  18.240  25.070  1.00  0.00     0.348 HD
ATOM     25  C   UNL A   1      32.154  18.791  22.801  1.00  0.00     0.075 C 
ENDBRANCH  17  18
ENDBRANCH   7  17
BRANCH  16  26
ATOM     26  C   UNL A   1      30.873  24.896  23.427  1.00  0.00     0.430 C 
ATOM     27  F   UNL A   1      30.339  26.090  23.076  1.00  0.00    -0.167 F 
ATOM     28  F   UNL A   1      31.937  24.697  22.608  1.00  0.00    -0.167 F 
ATOM     29  F   UNL A   1      29.961  23.942  23.138  1.00  0.00    -0.167 F 
ENDBRANCH  16  26
ENDBRANCH   4   6
ENDBRANCH   3   4
ENDBRANCH   2   3
ENDBRANCH   1   2
BRANCH   1  30
ATOM     30  O   UNL A   1      32.675  30.043  26.862  1.00  0.00    -0.458 OA
BRANCH  30  31
ATOM     31  C   UNL A   1      33.273  31.194  27.247  1.00  0.00     0.338 C 
ATOM     32  O   UNL A   1      32.754  32.292  27.350  1.00  0.00    -0.246 OA
BRANCH  31  33
ATOM     33  C   UNL A   1      34.673  30.942  27.621  1.00  0.00     0.060 A 
ATOM     34  C   UNL A   1      35.516  31.978  28.000  1.00  0.00     0.016 A 
ATOM     35  C   UNL A   1      35.079  29.624  27.787  1.00  0.00     0.016 A 
ATOM     36  C   UNL A   1      36.769  31.670  28.547  1.00  0.00     0.010 A 
ATOM     37  C   UNL A   1      36.233  29.327  28.505  1.00  0.00     0.010 A 
ATOM     38  C   UNL A   1      37.125  30.341  28.862  1.00  0.00    -0.014 A 
BRANCH  38  39
ATOM     39  C   UNL A   1      38.413  30.026  29.558  1.00  0.00     0.031 A 
ATOM     40  C   UNL A   1      38.717  30.551  30.945  1.00  0.00     0.074 A 
ATOM     41  C   UNL A   1      39.340  29.273  28.927  1.00  0.00     0.049 A 
ATOM     42  N   UNL A   1      39.743  30.289  31.717  1.00  0.00    -0.248 NA
ATOM     43  C   UNL A   1      37.784  31.530  31.527  1.00  0.00     0.031 C 
ATOM     44  C   UNL A   1      39.250  28.821  27.539  1.00  0.00     0.029 A 
ATOM     45  N   UNL A   1      40.525  28.731  29.370  1.00  0.00    -0.354 N 
ATOM     46  C   UNL A   1      39.579  31.076  32.853  1.00  0.00     0.074 A 
ATOM     47  C   UNL A   1      38.418  31.901  32.627  1.00  0.00     0.031 C 
ATOM     48  C   UNL A   1      40.272  27.998  27.273  1.00  0.00     0.029 A 
ATOM     49  C   UNL A   1      41.124  27.893  28.455  1.00  0.00     0.049 A 
ATOM     50  H   UNL A   1      40.908  28.925  30.256  1.00  0.00     0.167 HD
ATOM     51  C   UNL A   1      40.289  31.071  34.008  1.00  0.00     0.034 A 
ATOM     52  C   UNL A   1      42.213  27.103  28.559  1.00  0.00     0.034 A 
ATOM     53  C   UNL A   1      41.412  30.206  34.246  1.00  0.00     0.049 A 
ATOM     54  C   UNL A   1      42.944  27.042  29.876  1.00  0.00     0.074 A 
ATOM     55  C   UNL A   1      42.145  30.055  35.409  1.00  0.00     0.029 A 
ATOM     56  N   UNL A   1      41.960  29.337  33.313  1.00  0.00    -0.354 N 
ATOM     57  N   UNL A   1      42.688  27.689  30.990  1.00  0.00    -0.248 NA
ATOM     58  C   UNL A   1      44.098  26.136  29.964  1.00  0.00     0.031 C 
ATOM     59  C   UNL A   1      43.167  29.135  35.164  1.00  0.00     0.029 A 
ATOM     60  C   UNL A   1      43.032  28.661  33.868  1.00  0.00     0.049 A 
ATOM     61  H   UNL A   1      41.634  29.220  32.391  1.00  0.00     0.167 HD
ATOM     62  C   UNL A   1      43.642  27.264  31.910  1.00  0.00     0.074 A 
ATOM     63  C   UNL A   1      44.455  26.272  31.236  1.00  0.00     0.031 C 
ATOM     64  C   UNL A   1      43.835  27.669  33.191  1.00  0.00     0.034 A 
BRANCH  51  65
ATOM     65  C   UNL A   1      39.838  31.974  35.137  1.00  0.00     0.023 A 
ATOM     66  C   UNL A   1      39.032  31.474  36.177  1.00  0.00     0.031 A 
ATOM     67  C   UNL A   1      40.116  33.356  35.121  1.00  0.00     0.131 A 
ATOM     68  C   UNL A   1      38.518  32.351  37.143  1.00  0.00     0.055 A 
ATOM     69  C   UNL A   1      39.644  34.214  36.115  1.00  0.00     0.041 A 
ATOM     70  F   UNL A   1      40.869  33.890  34.147  1.00  0.00    -0.206 F 
ATOM     71  C   UNL A   1      38.831  33.715  37.125  1.00  0.00     0.022 A 
BRANCH  68  72
ATOM     72  S   UNL A   1      37.369  31.777  38.423  1.00  0.00     0.124 S 
ATOM     73  O   UNL A   1      38.160  31.953  39.638  1.00  0.00    -0.237 OA
ATOM     74  O   UNL A   1      36.251  32.704  38.267  1.00  0.00    -0.237 OA
ATOM     75  O   UNL A   1      37.095  30.393  38.055  1.00  0.00    -0.744 OA
ENDBRANCH  68  72
ENDBRANCH  51  65
BRANCH  52  76
ATOM     76  C   UNL A   1      42.585  26.230  27.404  1.00  0.00     0.023 A 
ATOM     77  C   UNL A   1      42.062  24.929  27.280  1.00  0.00     0.031 A 
ATOM     78  C   UNL A   1      43.576  26.631  26.491  1.00  0.00     0.131 A 
ATOM     79  C   UNL A   1      42.593  24.053  26.322  1.00  0.00     0.055 A 
ATOM     80  C   UNL A   1      44.045  25.781  25.489  1.00  0.00     0.041 A 
ATOM     81  F   UNL A   1      44.118  27.856  26.578  1.00  0.00    -0.206 F 
ATOM     82  C   UNL A   1      43.569  24.476  25.415  1.00  0.00     0.022 A 
BRANCH  79  83
ATOM     83  S   UNL A   1      42.150  22.293  26.326  1.00  0.00     0.124 S 
ATOM     84  O   UNL A   1      42.887  21.790  25.172  1.00  0.00    -0.237 OA
ATOM     85  O   UNL A   1      42.651  21.864  27.631  1.00  0.00    -0.237 OA
ATOM     86  O   UNL A   1      40.697  22.303  26.195  1.00  0.00    -0.744 OA
ENDBRANCH  79  83
ENDBRANCH  52  76
BRANCH  64  87
ATOM     87  C   UNL A   1      44.979  27.072  33.975  1.00  0.00     0.023 A 
ATOM     88  C   UNL A   1      44.763  25.950  34.798  1.00  0.00     0.031 A 
ATOM     89  C   UNL A   1      46.228  27.713  34.037  1.00  0.00     0.131 A 
ATOM     90  C   UNL A   1      45.766  25.530  35.681  1.00  0.00     0.055 A 
ATOM     91  C   UNL A   1      47.242  27.261  34.883  1.00  0.00     0.041 A 
ATOM     92  F   UNL A   1      46.477  28.795  33.284  1.00  0.00    -0.206 F 
ATOM     93  C   UNL A   1      47.007  26.174  35.721  1.00  0.00     0.022 A 
BRANCH  90  94
ATOM     94  S   UNL A   1      45.465  24.200  36.876  1.00  0.00     0.124 S 
ATOM     95  O   UNL A   1      46.807  23.955  37.398  1.00  0.00    -0.237 OA
ATOM     96  O   UNL A   1      44.538  24.830  37.812  1.00  0.00    -0.237 OA
ATOM     97  O   UNL A   1      44.905  23.120  36.070  1.00  0.00    -0.744 OA
ENDBRANCH  90  94
ENDBRANCH  64  87
ENDBRANCH  38  39
ENDBRANCH  31  33
ENDBRANCH  30  31
ENDBRANCH   1  30
TORSDOF 17
ENDMDL
MODEL 3
REMARK VINA RESULT:     -12.7      1.073      1.840
REMARK SMILES C[C@@H]1CC[C@H](C)[N@H+]1Cc1cc2c(cc1Cl)C=C(C(=O)OCCOC(=O)c1ccc(-c3c4nc(c(-c5cc(S(=O)(=O)[O-])ccc5F)c5ccc([nH]5)c(-c5cc(S(=O)(=O)[O-])ccc5F)c5nc(c(-c6cc(S(=O)(=O)[O-])ccc6F)c6ccc3[nH]6)C=C5)C=C4)cc1)[C@@H](C(F)(F)F)O2
REMARK SMILES IDX 22 1 21 2 20 3 18 4 19 5 17 6 9 7 10 8 14 9 11 10 13 11
REMARK SMILES IDX 15 12 12 13 94 14 16 15 89 16 8 17 7 18 6 19 5 20 4 21 3 22
REMARK SMILES IDX 2 23 1 25 90 26 91 27 92 28 93 29 23 30 24 31 25 32 26 33
REMARK SMILES IDX 27 34 88 35 28 36 87 37 29 38 30 39 31 40 81 41 32 42 86 43
REMARK SMILES IDX 80 44 82 45 33 46 85 47 79 48 78 49 34 51 66 52 46 53 65 54
REMARK SMILES IDX 47 55 50 56 64 57 83 58 48 59 49 60 63 62 84 63 51 64 35 65
REMARK SMILES IDX 36 66 44 67 37 68 43 69 45 70 42 71 38 72 39 73 40 74 41 75
REMARK SMILES IDX 67 76 68 77 76 78 69 79 75 80 77 81 74 82 70 83 71 84 72 85
REMARK SMILES IDX 73 86 52 87 53 88 61 89 54 90 60 91 62 92 59 93 55 94 56 95
REMARK SMILES IDX 57 96 58 97
REMARK H PARENT 7 24 82 50 50 61
REMARK Flexibility Score: inf
ROOT
ATOM      1  C   UNL A   1      32.137  30.352  25.827  1.00  0.00     0.275 C 
ENDROOT
BRANCH   1   2
ATOM      2  C   UNL A   1      32.710  29.180  25.025  1.00  0.00     0.275 C 
BRANCH   2   3
ATOM      3  O   UNL A   1      32.110  27.919  25.398  1.00  0.00    -0.459 OA
BRANCH   3   4
ATOM      4  C   UNL A   1      31.176  27.467  24.532  1.00  0.00     0.338 C 
ATOM      5  O   UNL A   1      30.410  28.159  23.877  1.00  0.00    -0.246 OA
BRANCH   4   6
ATOM      6  C   UNL A   1      31.187  25.999  24.424  1.00  0.00     0.087 C 
ATOM      7  C   UNL A   1      32.396  21.207  25.377  1.00  0.00     0.029 A 
ATOM      8  C   UNL A   1      31.757  21.855  24.286  1.00  0.00     0.058 A 
ATOM      9  C   UNL A   1      32.887  22.004  26.422  1.00  0.00     0.050 A 
ATOM     10  C   UNL A   1      31.535  23.234  24.298  1.00  0.00     0.128 A 
ATOM     11  C   UNL A   1      32.546  23.348  26.493  1.00  0.00     0.033 A 
ATOM     12  Cl  UNL A   1      34.029  21.453  27.595  1.00  0.00    -0.084 Cl
ATOM     13  C   UNL A   1      31.855  23.948  25.444  1.00  0.00     0.019 A 
ATOM     14  O   UNL A   1      30.982  23.834  23.194  1.00  0.00    -0.475 OA
ATOM     15  C   UNL A   1      31.528  25.347  25.537  1.00  0.00     0.027 C 
ATOM     16  C   UNL A   1      31.084  25.300  23.101  1.00  0.00     0.316 C 
BRANCH   7  17
ATOM     17  C   UNL A   1      32.500  19.690  25.394  1.00  0.00     0.301 C 
BRANCH  17  18
ATOM     18  N   UNL A   1      33.462  19.073  24.464  1.00  0.00    -0.327 N 
ATOM     19  C   UNL A   1      32.526  18.793  22.200  1.00  0.00     0.075 C 
ATOM     20  C   UNL A   1      32.916  18.106  23.500  1.00  0.00     0.181 C 
ATOM     21  C   UNL A   1      34.028  17.081  23.284  1.00  0.00     0.071 C 
ATOM     22  C   UNL A   1      34.718  17.050  24.630  1.00  0.00     0.071 C 
ATOM     23  C   UNL A   1      34.679  18.508  25.069  1.00  0.00     0.181 C 
ATOM     24  H   UNL A   1      33.727  19.910  23.944  1.00  0.00     0.348 HD
ATOM     25  C   UNL A   1      35.898  19.289  24.576  1.00  0.00     0.075 C 
ENDBRANCH  17  18
ENDBRANCH   7  17
BRANCH  16  26
ATOM     26  C   UNL A   1      32.251  25.705  22.185  1.00  0.00     0.430 C 
ATOM     27  F   UNL A   1      32.536  24.736  21.283  1.00  0.00    -0.167 F 
ATOM     28  F   UNL A   1      31.947  26.817  21.468  1.00  0.00    -0.167 F 
ATOM     29  F   UNL A   1      33.386  25.968  22.871  1.00  0.00    -0.167 F 
ENDBRANCH  16  26
ENDBRANCH   4   6
ENDBRANCH   3   4
ENDBRANCH   2   3
ENDBRANCH   1   2
BRANCH   1  30
ATOM     30  O   UNL A   1      32.699  30.411  27.150  1.00  0.00    -0.458 OA
BRANCH  30  31
ATOM     31  C   UNL A   1      33.410  31.530  27.418  1.00  0.00     0.338 C 
ATOM     32  O   UNL A   1      32.993  32.676  27.444  1.00  0.00    -0.246 OA
BRANCH  31  33
ATOM     33  C   UNL A   1      34.795  31.184  27.769  1.00  0.00     0.060 A 
ATOM     34  C   UNL A   1      35.750  32.168  27.991  1.00  0.00     0.016 A 
ATOM     35  C   UNL A   1      35.082  29.861  28.075  1.00  0.00     0.016 A 
ATOM     36  C   UNL A   1      36.993  31.802  28.526  1.00  0.00     0.010 A 
ATOM     37  C   UNL A   1      36.236  29.534  28.781  1.00  0.00     0.010 A 
ATOM     38  C   UNL A   1      37.236  30.488  28.983  1.00  0.00    -0.014 A 
BRANCH  38  39
ATOM     39  C   UNL A   1      38.519  30.128  29.664  1.00  0.00     0.031 A 
ATOM     40  C   UNL A   1      38.842  30.614  31.061  1.00  0.00     0.074 A 
ATOM     41  C   UNL A   1      39.426  29.369  29.012  1.00  0.00     0.049 A 
ATOM     42  N   UNL A   1      39.865  30.310  31.822  1.00  0.00    -0.248 NA
ATOM     43  C   UNL A   1      37.934  31.599  31.671  1.00  0.00     0.031 C 
ATOM     44  C   UNL A   1      39.319  28.952  27.613  1.00  0.00     0.029 A 
ATOM     45  N   UNL A   1      40.600  28.791  29.435  1.00  0.00    -0.354 N 
ATOM     46  C   UNL A   1      39.725  31.075  32.977  1.00  0.00     0.074 A 
ATOM     47  C   UNL A   1      38.582  31.931  32.776  1.00  0.00     0.031 C 
ATOM     48  C   UNL A   1      40.321  28.112  27.323  1.00  0.00     0.029 A 
ATOM     49  C   UNL A   1      41.176  27.961  28.498  1.00  0.00     0.049 A 
ATOM     50  H   UNL A   1      40.993  28.955  30.323  1.00  0.00     0.167 HD
ATOM     51  C   UNL A   1      40.440  31.027  34.128  1.00  0.00     0.034 A 
ATOM     52  C   UNL A   1      42.247  27.144  28.577  1.00  0.00     0.034 A 
ATOM     53  C   UNL A   1      41.545  30.130  34.339  1.00  0.00     0.049 A 
ATOM     54  C   UNL A   1      42.983  27.036  29.889  1.00  0.00     0.074 A 
ATOM     55  C   UNL A   1      42.280  29.936  35.494  1.00  0.00     0.029 A 
ATOM     56  N   UNL A   1      42.068  29.272  33.383  1.00  0.00    -0.354 N 
ATOM     57  N   UNL A   1      42.748  27.662  31.019  1.00  0.00    -0.248 NA
ATOM     58  C   UNL A   1      44.116  26.103  29.950  1.00  0.00     0.031 C 
ATOM     59  C   UNL A   1      43.279  29.000  35.222  1.00  0.00     0.029 A 
ATOM     60  C   UNL A   1      43.127  28.559  33.916  1.00  0.00     0.049 A 
ATOM     61  H   UNL A   1      41.735  29.184  32.461  1.00  0.00     0.167 HD
ATOM     62  C   UNL A   1      43.696  27.195  31.924  1.00  0.00     0.074 A 
ATOM     63  C   UNL A   1      44.483  26.201  31.222  1.00  0.00     0.031 C 
ATOM     64  C   UNL A   1      43.904  27.565  33.212  1.00  0.00     0.034 A 
BRANCH  51  65
ATOM     65  C   UNL A   1      40.016  31.913  35.279  1.00  0.00     0.023 A 
ATOM     66  C   UNL A   1      39.119  31.439  36.256  1.00  0.00     0.031 A 
ATOM     67  C   UNL A   1      40.413  33.263  35.346  1.00  0.00     0.131 A 
ATOM     68  C   UNL A   1      38.637  32.314  37.241  1.00  0.00     0.055 A 
ATOM     69  C   UNL A   1      39.971  34.114  36.360  1.00  0.00     0.041 A 
ATOM     70  F   UNL A   1      41.258  33.772  34.434  1.00  0.00    -0.206 F 
ATOM     71  C   UNL A   1      39.068  33.643  37.306  1.00  0.00     0.022 A 
BRANCH  68  72
ATOM     72  S   UNL A   1      37.380  31.786  38.438  1.00  0.00     0.124 S 
ATOM     73  O   UNL A   1      37.137  30.405  38.027  1.00  0.00    -0.237 OA
ATOM     74  O   UNL A   1      38.084  31.944  39.708  1.00  0.00    -0.237 OA
ATOM     75  O   UNL A   1      36.271  32.705  38.212  1.00  0.00    -0.744 OA
ENDBRANCH  68  72
ENDBRANCH  51  65
BRANCH  52  76
ATOM     76  C   UNL A   1      42.594  26.290  27.400  1.00  0.00     0.023 A 
ATOM     77  C   UNL A   1      42.089  24.982  27.279  1.00  0.00     0.031 A 
ATOM     78  C   UNL A   1      43.546  26.719  26.459  1.00  0.00     0.131 A 
ATOM     79  C   UNL A   1      42.601  24.126  26.294  1.00  0.00     0.055 A 
ATOM     80  C   UNL A   1      43.995  25.887  25.431  1.00  0.00     0.041 A 
ATOM     81  F   UNL A   1      44.070  27.951  26.541  1.00  0.00    -0.206 F 
ATOM     82  C   UNL A   1      43.538  24.576  25.359  1.00  0.00     0.022 A 
BRANCH  79  83
ATOM     83  S   UNL A   1      42.188  22.358  26.293  1.00  0.00     0.124 S 
ATOM     84  O   UNL A   1      42.918  21.874  27.460  1.00  0.00    -0.237 OA
ATOM     85  O   UNL A   1      40.733  22.393  26.430  1.00  0.00    -0.237 OA
ATOM     86  O   UNL A   1      42.677  21.891  25.001  1.00  0.00    -0.744 OA
ENDBRANCH  79  83
ENDBRANCH  52  76
BRANCH  64  87
ATOM     87  C   UNL A   1      45.038  26.924  33.976  1.00  0.00     0.023 A 
ATOM     88  C   UNL A   1      44.802  25.784  34.768  1.00  0.00     0.031 A 
ATOM     89  C   UNL A   1      46.300  27.540  34.053  1.00  0.00     0.131 A 
ATOM     90  C   UNL A   1      45.799  25.320  35.636  1.00  0.00     0.055 A 
ATOM     91  C   UNL A   1      47.306  27.044  34.883  1.00  0.00     0.041 A 
ATOM     92  F   UNL A   1      46.568  28.638  33.330  1.00  0.00    -0.206 F 
ATOM     93  C   UNL A   1      47.052  25.939  35.691  1.00  0.00     0.022 A 
BRANCH  90  94
ATOM     94  S   UNL A   1      45.476  23.963  36.794  1.00  0.00     0.124 S 
ATOM     95  O   UNL A   1      45.046  22.895  35.895  1.00  0.00    -0.237 OA
ATOM     96  O   UNL A   1      46.784  23.768  37.413  1.00  0.00    -0.237 OA
ATOM     97  O   UNL A   1      44.438  24.490  37.674  1.00  0.00    -0.744 OA
ENDBRANCH  90  94
ENDBRANCH  64  87
ENDBRANCH  38  39
ENDBRANCH  31  33
ENDBRANCH  30  31
ENDBRANCH   1  30
TORSDOF 17
ENDMDL
