MODEL 1
REMARK VINA RESULT:     -10.5      0.000      0.000
REMARK SMILES COc1cc([C@@H]2CC(=O)Nc3c(C(=O)OCCOC(=O)c4ccc(-c5c6nc(c(-c7cc(S(=O)(=O)[O-])ccc7F)c7ccc([nH]7)c(-c7cc(S(=O)(=O)[O-])ccc7F)c7nc(c(-c8cc(S(=O)(=O)[O-])ccc8F)c8ccc5[nH]8)C=C7)C=C6)cc4)cn(-c4ccccc4)c32)cc(OC)c1OC
REMARK SMILES IDX 17 1 16 2 15 3 13 4 14 5 12 6 6 7 7 8 92 9 8 10 11 11 85 12
REMARK SMILES IDX 9 13 10 14 84 15 5 17 3 18 4 19 97 20 94 21 93 22 2 23 1 24
REMARK SMILES IDX 98 25 99 26 95 27 96 28 86 29 87 30 91 31 88 32 90 33 89 34
REMARK SMILES IDX 18 35 19 36 20 37 21 38 22 39 83 40 23 41 82 42 24 43 25 44
REMARK SMILES IDX 26 45 76 46 27 47 81 48 75 49 77 50 28 51 80 52 74 53 73 54
REMARK SMILES IDX 29 56 61 57 41 58 60 59 42 60 45 61 59 62 78 63 43 64 44 65
REMARK SMILES IDX 58 67 79 68 46 69 30 70 31 71 39 72 32 73 38 74 40 75 37 76
REMARK SMILES IDX 33 77 34 78 35 79 36 80 62 81 63 82 71 83 64 84 70 85 72 86
REMARK SMILES IDX 69 87 65 88 66 89 67 90 68 91 47 92 48 93 56 94 49 95 55 96
REMARK SMILES IDX 57 97 54 98 50 99 51 100 52 101 53 102
REMARK H PARENT 10 16 77 55 45 66
REMARK Flexibility Score: inf
ROOT
ATOM      1  C   UNL A   1      41.362  20.435  26.233  1.00  0.00     0.275 C 
ENDROOT
BRANCH   1   2
ATOM      2  C   UNL A   1      42.831  20.061  26.071  1.00  0.00     0.275 C 
BRANCH   2   3
ATOM      3  O   UNL A   1      43.516  20.980  25.207  1.00  0.00    -0.458 OA
BRANCH   3   4
ATOM      4  C   UNL A   1      44.859  21.100  25.424  1.00  0.00     0.341 C 
ATOM      5  O   UNL A   1      45.660  20.169  25.348  1.00  0.00    -0.246 OA
BRANCH   4   6
ATOM      6  C   UNL A   1      45.254  22.460  25.743  1.00  0.00     0.102 A 
ATOM      7  C   UNL A   1      46.070  25.345  27.931  1.00  0.00     0.078 C 
ATOM      8  C   UNL A   1      45.043  25.058  29.048  1.00  0.00     0.115 C 
ATOM      9  C   UNL A   1      45.825  24.374  26.814  1.00  0.00     0.055 A 
ATOM     10  C   UNL A   1      44.798  23.572  29.308  1.00  0.00     0.225 C 
ATOM     11  C   UNL A   1      45.233  23.142  26.979  1.00  0.00     0.078 A 
ATOM     12  N   UNL A   1      46.084  24.542  25.471  1.00  0.00    -0.317 N 
ATOM     13  O   UNL A   1      44.504  23.148  30.427  1.00  0.00    -0.275 OA
ATOM     14  N   UNL A   1      44.805  22.733  28.220  1.00  0.00    -0.324 N 
ATOM     15  C   UNL A   1      45.708  23.390  24.816  1.00  0.00     0.109 A 
ATOM     16  H   UNL A   1      44.493  21.806  28.333  1.00  0.00     0.170 HD
BRANCH   7  17
ATOM     17  C   UNL A   1      47.491  25.275  28.489  1.00  0.00    -0.031 A 
ATOM     18  C   UNL A   1      49.899  24.953  28.188  1.00  0.00     0.164 A 
ATOM     19  C   UNL A   1      48.587  24.961  27.672  1.00  0.00     0.055 A 
ATOM     20  C   UNL A   1      50.152  25.282  29.534  1.00  0.00     0.203 A 
ATOM     21  C   UNL A   1      49.048  25.593  30.353  1.00  0.00     0.164 A 
ATOM     22  C   UNL A   1      47.749  25.572  29.831  1.00  0.00     0.055 A 
BRANCH  18  23
ATOM     23  O   UNL A   1      50.910  24.778  27.273  1.00  0.00    -0.493 OA
ATOM     24  C   UNL A   1      51.105  25.918  26.437  1.00  0.00     0.278 C 
ENDBRANCH  18  23
BRANCH  20  25
ATOM     25  O   UNL A   1      51.367  25.362  30.149  1.00  0.00    -0.490 OA
ATOM     26  C   UNL A   1      52.161  26.525  30.090  1.00  0.00     0.278 C 
ENDBRANCH  20  25
BRANCH  21  27
ATOM     27  O   UNL A   1      49.042  25.924  31.686  1.00  0.00    -0.493 OA
ATOM     28  C   UNL A   1      47.795  25.993  32.358  1.00  0.00     0.278 C 
ENDBRANCH  21  27
ENDBRANCH   7  17
BRANCH  12  29
ATOM     29  C   UNL A   1      46.679  25.659  24.856  1.00  0.00     0.045 A 
ATOM     30  C   UNL A   1      47.926  25.515  24.242  1.00  0.00     0.026 A 
ATOM     31  C   UNL A   1      46.023  26.891  24.868  1.00  0.00     0.026 A 
ATOM     32  C   UNL A   1      48.548  26.625  23.679  1.00  0.00     0.002 A 
ATOM     33  C   UNL A   1      46.663  28.003  24.319  1.00  0.00     0.002 A 
ATOM     34  C   UNL A   1      47.925  27.870  23.731  1.00  0.00     0.000 A 
ENDBRANCH  12  29
ENDBRANCH   4   6
ENDBRANCH   3   4
ENDBRANCH   2   3
ENDBRANCH   1   2
BRANCH   1  35
ATOM     35  O   UNL A   1      41.075  21.765  25.795  1.00  0.00    -0.458 OA
BRANCH  35  36
ATOM     36  C   UNL A   1      39.985  22.330  26.368  1.00  0.00     0.338 C 
ATOM     37  O   UNL A   1      38.840  21.911  26.319  1.00  0.00    -0.246 OA
BRANCH  36  38
ATOM     38  C   UNL A   1      40.331  23.668  26.874  1.00  0.00     0.060 A 
ATOM     39  C   UNL A   1      41.425  23.786  27.733  1.00  0.00     0.016 A 
ATOM     40  C   UNL A   1      39.449  24.741  26.672  1.00  0.00     0.016 A 
ATOM     41  C   UNL A   1      41.569  24.951  28.470  1.00  0.00     0.010 A 
ATOM     42  C   UNL A   1      39.589  25.897  27.418  1.00  0.00     0.010 A 
ATOM     43  C   UNL A   1      40.622  25.985  28.349  1.00  0.00    -0.014 A 
BRANCH  43  44
ATOM     44  C   UNL A   1      40.919  27.278  28.967  1.00  0.00     0.031 A 
ATOM     45  C   UNL A   1      42.072  27.902  28.273  1.00  0.00     0.074 A 
ATOM     46  C   UNL A   1      40.194  27.900  29.926  1.00  0.00     0.049 A 
ATOM     47  N   UNL A   1      43.299  27.913  28.678  1.00  0.00    -0.248 NA
ATOM     48  C   UNL A   1      41.919  28.303  26.861  1.00  0.00     0.031 C 
ATOM     49  C   UNL A   1      38.909  27.459  30.472  1.00  0.00     0.029 A 
ATOM     50  N   UNL A   1      40.397  29.095  30.575  1.00  0.00    -0.354 N 
ATOM     51  C   UNL A   1      43.967  28.686  27.738  1.00  0.00     0.074 A 
ATOM     52  C   UNL A   1      43.179  28.614  26.542  1.00  0.00     0.031 C 
ATOM     53  C   UNL A   1      38.347  28.463  31.188  1.00  0.00     0.029 A 
ATOM     54  C   UNL A   1      39.281  29.577  31.276  1.00  0.00     0.049 A 
ATOM     55  H   UNL A   1      41.257  29.573  30.551  1.00  0.00     0.167 HD
ATOM     56  C   UNL A   1      44.806  29.662  28.182  1.00  0.00     0.034 A 
ATOM     57  C   UNL A   1      39.126  30.788  31.891  1.00  0.00     0.034 A 
ATOM     58  C   UNL A   1      45.161  29.414  29.564  1.00  0.00     0.049 A 
ATOM     59  C   UNL A   1      40.480  31.278  32.224  1.00  0.00     0.074 A 
ATOM     60  C   UNL A   1      45.933  28.520  30.275  1.00  0.00     0.029 A 
ATOM     61  N   UNL A   1      44.282  29.977  30.453  1.00  0.00    -0.354 N 
ATOM     62  N   UNL A   1      41.240  30.688  33.104  1.00  0.00    -0.248 NA
ATOM     63  C   UNL A   1      41.169  32.183  31.309  1.00  0.00     0.031 C 
ATOM     64  C   UNL A   1      45.420  28.513  31.608  1.00  0.00     0.029 A 
ATOM     65  C   UNL A   1      44.393  29.448  31.707  1.00  0.00     0.049 A 
ATOM     66  H   UNL A   1      43.642  30.686  30.213  1.00  0.00     0.167 HD
ATOM     67  C   UNL A   1      42.510  30.790  32.577  1.00  0.00     0.074 A 
ATOM     68  C   UNL A   1      42.434  31.858  31.586  1.00  0.00     0.031 C 
ATOM     69  C   UNL A   1      43.402  29.766  32.719  1.00  0.00     0.034 A 
BRANCH  56  70
ATOM     70  C   UNL A   1      44.813  31.094  27.646  1.00  0.00     0.023 A 
ATOM     71  C   UNL A   1      46.042  31.570  27.142  1.00  0.00     0.031 A 
ATOM     72  C   UNL A   1      43.834  32.087  27.886  1.00  0.00     0.131 A 
ATOM     73  C   UNL A   1      46.288  32.949  27.004  1.00  0.00     0.055 A 
ATOM     74  C   UNL A   1      44.070  33.454  27.709  1.00  0.00     0.041 A 
ATOM     75  F   UNL A   1      42.622  31.822  28.381  1.00  0.00    -0.206 F 
ATOM     76  C   UNL A   1      45.311  33.895  27.292  1.00  0.00     0.022 A 
BRANCH  73  77
ATOM     77  S   UNL A   1      47.960  33.493  26.577  1.00  0.00     0.124 S 
ATOM     78  O   UNL A   1      47.716  34.261  25.361  1.00  0.00    -0.237 OA
ATOM     79  O   UNL A   1      48.338  34.256  27.762  1.00  0.00    -0.237 OA
ATOM     80  O   UNL A   1      48.684  32.238  26.391  1.00  0.00    -0.744 OA
ENDBRANCH  73  77
ENDBRANCH  56  70
BRANCH  57  81
ATOM     81  C   UNL A   1      37.913  31.663  32.010  1.00  0.00     0.023 A 
ATOM     82  C   UNL A   1      37.221  32.223  30.901  1.00  0.00     0.031 A 
ATOM     83  C   UNL A   1      37.242  31.718  33.251  1.00  0.00     0.131 A 
ATOM     84  C   UNL A   1      35.923  32.780  31.064  1.00  0.00     0.055 A 
ATOM     85  C   UNL A   1      35.960  32.255  33.401  1.00  0.00     0.041 A 
ATOM     86  F   UNL A   1      37.778  31.165  34.350  1.00  0.00    -0.206 F 
ATOM     87  C   UNL A   1      35.289  32.774  32.308  1.00  0.00     0.022 A 
BRANCH  84  88
ATOM     88  S   UNL A   1      34.978  33.458  29.648  1.00  0.00     0.124 S 
ATOM     89  O   UNL A   1      34.256  32.288  29.162  1.00  0.00    -0.237 OA
ATOM     90  O   UNL A   1      34.177  34.506  30.271  1.00  0.00    -0.237 OA
ATOM     91  O   UNL A   1      36.019  33.949  28.744  1.00  0.00    -0.744 OA
ENDBRANCH  84  88
ENDBRANCH  57  81
BRANCH  69  92
ATOM     92  C   UNL A   1      43.297  28.910  33.953  1.00  0.00     0.023 A 
ATOM     93  C   UNL A   1      43.992  29.113  35.164  1.00  0.00     0.031 A 
ATOM     94  C   UNL A   1      42.426  27.809  33.872  1.00  0.00     0.131 A 
ATOM     95  C   UNL A   1      43.806  28.214  36.235  1.00  0.00     0.055 A 
ATOM     96  C   UNL A   1      42.230  26.935  34.937  1.00  0.00     0.041 A 
ATOM     97  F   UNL A   1      41.738  27.564  32.745  1.00  0.00    -0.206 F 
ATOM     98  C   UNL A   1      42.928  27.131  36.122  1.00  0.00     0.022 A 
BRANCH  95  99
ATOM     99  S   UNL A   1      44.743  28.404  37.786  1.00  0.00     0.124 S 
ATOM    100  O   UNL A   1      44.359  29.729  38.259  1.00  0.00    -0.237 OA
ATOM    101  O   UNL A   1      44.259  27.277  38.581  1.00  0.00    -0.237 OA
ATOM    102  O   UNL A   1      46.138  28.289  37.356  1.00  0.00    -0.744 OA
ENDBRANCH  95  99
ENDBRANCH  69  92
ENDBRANCH  43  44
ENDBRANCH  36  38
ENDBRANCH  35  36
ENDBRANCH   1  35
TORSDOF 19
ENDMDL
MODEL 2
REMARK VINA RESULT:     -10.1      1.550      2.279
REMARK SMILES COc1cc([C@@H]2CC(=O)Nc3c(C(=O)OCCOC(=O)c4ccc(-c5c6nc(c(-c7cc(S(=O)(=O)[O-])ccc7F)c7ccc([nH]7)c(-c7cc(S(=O)(=O)[O-])ccc7F)c7nc(c(-c8cc(S(=O)(=O)[O-])ccc8F)c8ccc5[nH]8)C=C7)C=C6)cc4)cn(-c4ccccc4)c32)cc(OC)c1OC
REMARK SMILES IDX 17 1 16 2 15 3 13 4 14 5 12 6 6 7 7 8 92 9 8 10 11 11 85 12
REMARK SMILES IDX 9 13 10 14 84 15 5 17 3 18 4 19 97 20 94 21 93 22 2 23 1 24
REMARK SMILES IDX 98 25 99 26 95 27 96 28 86 29 87 30 91 31 88 32 90 33 89 34
REMARK SMILES IDX 18 35 19 36 20 37 21 38 22 39 83 40 23 41 82 42 24 43 25 44
REMARK SMILES IDX 26 45 76 46 27 47 81 48 75 49 77 50 28 51 80 52 74 53 73 54
REMARK SMILES IDX 29 56 61 57 41 58 60 59 42 60 45 61 59 62 78 63 43 64 44 65
REMARK SMILES IDX 58 67 79 68 46 69 30 70 31 71 39 72 32 73 38 74 40 75 37 76
REMARK SMILES IDX 33 77 34 78 35 79 36 80 62 81 63 82 71 83 64 84 70 85 72 86
REMARK SMILES IDX 69 87 65 88 66 89 67 90 68 91 47 92 48 93 56 94 49 95 55 96
REMARK SMILES IDX 57 97 54 98 50 99 51 100 52 101 53 102
REMARK H PARENT 10 16 77 55 45 66
REMARK Flexibility Score: inf
ROOT
ATOM      1  C   UNL A   1      41.969  20.310  26.384  1.00  0.00     0.275 C 
ENDROOT
BRANCH   1   2
ATOM      2  C   UNL A   1      43.224  19.788  25.693  1.00  0.00     0.275 C 
BRANCH   2   3
ATOM      3  O   UNL A   1      43.951  20.847  25.052  1.00  0.00    -0.458 OA
BRANCH   3   4
ATOM      4  C   UNL A   1      45.234  21.024  25.485  1.00  0.00     0.341 C 
ATOM      5  O   UNL A   1      46.055  20.116  25.608  1.00  0.00    -0.246 OA
BRANCH   4   6
ATOM      6  C   UNL A   1      45.539  22.413  25.774  1.00  0.00     0.102 A 
ATOM      7  C   UNL A   1      46.096  25.408  27.894  1.00  0.00     0.078 C 
ATOM      8  C   UNL A   1      45.035  25.100  28.974  1.00  0.00     0.115 C 
ATOM      9  C   UNL A   1      45.956  24.390  26.803  1.00  0.00     0.055 A 
ATOM     10  C   UNL A   1      44.858  23.612  29.275  1.00  0.00     0.225 C 
ATOM     11  C   UNL A   1      45.424  23.133  26.983  1.00  0.00     0.078 A 
ATOM     12  N   UNL A   1      46.268  24.528  25.468  1.00  0.00    -0.317 N 
ATOM     13  O   UNL A   1      44.536  23.209  30.393  1.00  0.00    -0.275 OA
ATOM     14  N   UNL A   1      44.961  22.740  28.217  1.00  0.00    -0.324 N 
ATOM     15  C   UNL A   1      45.985  23.337  24.836  1.00  0.00     0.109 A 
ATOM     16  H   UNL A   1      44.696  21.802  28.348  1.00  0.00     0.170 HD
BRANCH   7  17
ATOM     17  C   UNL A   1      47.491  25.435  28.518  1.00  0.00    -0.031 A 
ATOM     18  C   UNL A   1      48.973  25.746  30.443  1.00  0.00     0.164 A 
ATOM     19  C   UNL A   1      47.687  25.777  29.865  1.00  0.00     0.055 A 
ATOM     20  C   UNL A   1      50.097  25.348  29.692  1.00  0.00     0.203 A 
ATOM     21  C   UNL A   1      49.896  25.009  28.339  1.00  0.00     0.164 A 
ATOM     22  C   UNL A   1      48.616  25.070  27.774  1.00  0.00     0.055 A 
BRANCH  18  23
ATOM     23  O   UNL A   1      49.033  25.955  31.800  1.00  0.00    -0.493 OA
ATOM     24  C   UNL A   1      47.814  25.628  32.467  1.00  0.00     0.278 C 
ENDBRANCH  18  23
BRANCH  20  25
ATOM     25  O   UNL A   1      51.381  25.225  30.134  1.00  0.00    -0.490 OA
ATOM     26  C   UNL A   1      52.225  26.342  30.303  1.00  0.00     0.278 C 
ENDBRANCH  20  25
BRANCH  21  27
ATOM     27  O   UNL A   1      50.829  24.613  27.412  1.00  0.00    -0.493 OA
ATOM     28  C   UNL A   1      51.108  25.478  26.323  1.00  0.00     0.278 C 
ENDBRANCH  21  27
ENDBRANCH   7  17
BRANCH  12  29
ATOM     29  C   UNL A   1      46.829  25.656  24.841  1.00  0.00     0.045 A 
ATOM     30  C   UNL A   1      48.080  25.543  24.228  1.00  0.00     0.026 A 
ATOM     31  C   UNL A   1      46.138  26.869  24.841  1.00  0.00     0.026 A 
ATOM     32  C   UNL A   1      48.669  26.665  23.654  1.00  0.00     0.002 A 
ATOM     33  C   UNL A   1      46.745  27.993  24.281  1.00  0.00     0.002 A 
ATOM     34  C   UNL A   1      48.009  27.892  23.694  1.00  0.00     0.000 A 
ENDBRANCH  12  29
ENDBRANCH   4   6
ENDBRANCH   3   4
ENDBRANCH   2   3
ENDBRANCH   1   2
BRANCH   1  35
ATOM     35  O   UNL A   1      41.575  21.603  25.920  1.00  0.00    -0.458 OA
BRANCH  35  36
ATOM     36  C   UNL A   1      40.492  22.126  26.545  1.00  0.00     0.338 C 
ATOM     37  O   UNL A   1      39.369  21.650  26.570  1.00  0.00    -0.246 OA
BRANCH  36  38
ATOM     38  C   UNL A   1      40.798  23.489  27.005  1.00  0.00     0.060 A 
ATOM     39  C   UNL A   1      41.658  23.641  28.095  1.00  0.00     0.016 A 
ATOM     40  C   UNL A   1      40.070  24.577  26.502  1.00  0.00     0.016 A 
ATOM     41  C   UNL A   1      41.701  24.865  28.743  1.00  0.00     0.010 A 
ATOM     42  C   UNL A   1      40.106  25.794  27.158  1.00  0.00     0.010 A 
ATOM     43  C   UNL A   1      40.886  25.925  28.304  1.00  0.00    -0.014 A 
BRANCH  43  44
ATOM     44  C   UNL A   1      41.116  27.257  28.865  1.00  0.00     0.031 A 
ATOM     45  C   UNL A   1      42.324  27.853  28.243  1.00  0.00     0.074 A 
ATOM     46  C   UNL A   1      40.299  27.929  29.711  1.00  0.00     0.049 A 
ATOM     47  N   UNL A   1      43.507  27.904  28.759  1.00  0.00    -0.248 NA
ATOM     48  C   UNL A   1      42.302  28.163  26.801  1.00  0.00     0.031 C 
ATOM     49  C   UNL A   1      38.972  27.506  30.162  1.00  0.00     0.029 A 
ATOM     50  N   UNL A   1      40.432  29.164  30.300  1.00  0.00    -0.354 N 
ATOM     51  C   UNL A   1      44.256  28.626  27.839  1.00  0.00     0.074 A 
ATOM     52  C   UNL A   1      43.584  28.469  26.582  1.00  0.00     0.031 C 
ATOM     53  C   UNL A   1      38.338  28.545  30.758  1.00  0.00     0.029 A 
ATOM     54  C   UNL A   1      39.252  29.674  30.862  1.00  0.00     0.049 A 
ATOM     55  H   UNL A   1      41.287  29.651  30.326  1.00  0.00     0.167 HD
ATOM     56  C   UNL A   1      45.042  29.638  28.297  1.00  0.00     0.034 A 
ATOM     57  C   UNL A   1      39.032  30.920  31.383  1.00  0.00     0.034 A 
ATOM     58  C   UNL A   1      45.268  29.481  29.719  1.00  0.00     0.049 A 
ATOM     59  C   UNL A   1      40.345  31.446  31.808  1.00  0.00     0.074 A 
ATOM     60  C   UNL A   1      45.976  28.643  30.553  1.00  0.00     0.029 A 
ATOM     61  N   UNL A   1      44.306  30.086  30.485  1.00  0.00    -0.354 N 
ATOM     62  N   UNL A   1      41.024  30.922  32.791  1.00  0.00    -0.248 NA
ATOM     63  C   UNL A   1      41.111  32.302  30.907  1.00  0.00     0.031 C 
ATOM     64  C   UNL A   1      45.340  28.711  31.831  1.00  0.00     0.029 A 
ATOM     65  C   UNL A   1      44.303  29.638  31.775  1.00  0.00     0.049 A 
ATOM     66  H   UNL A   1      43.686  30.771  30.143  1.00  0.00     0.167 HD
ATOM     67  C   UNL A   1      42.337  31.007  32.379  1.00  0.00     0.074 A 
ATOM     68  C   UNL A   1      42.347  32.011  31.321  1.00  0.00     0.031 C 
ATOM     69  C   UNL A   1      43.219  30.005  32.667  1.00  0.00     0.034 A 
BRANCH  56  70
ATOM     70  C   UNL A   1      45.089  31.034  27.674  1.00  0.00     0.023 A 
ATOM     71  C   UNL A   1      46.371  31.549  27.383  1.00  0.00     0.031 A 
ATOM     72  C   UNL A   1      44.040  31.982  27.655  1.00  0.00     0.131 A 
ATOM     73  C   UNL A   1      46.577  32.929  27.200  1.00  0.00     0.055 A 
ATOM     74  C   UNL A   1      44.245  33.348  27.433  1.00  0.00     0.041 A 
ATOM     75  F   UNL A   1      42.767  31.678  27.927  1.00  0.00    -0.206 F 
ATOM     76  C   UNL A   1      45.522  33.833  27.231  1.00  0.00     0.022 A 
BRANCH  73  77
ATOM     77  S   UNL A   1      48.274  33.541  27.063  1.00  0.00     0.124 S 
ATOM     78  O   UNL A   1      48.905  32.917  28.220  1.00  0.00    -0.237 OA
ATOM     79  O   UNL A   1      48.671  33.031  25.754  1.00  0.00    -0.237 OA
ATOM     80  O   UNL A   1      48.116  34.991  27.141  1.00  0.00    -0.744 OA
ENDBRANCH  73  77
ENDBRANCH  56  70
BRANCH  57  81
ATOM     81  C   UNL A   1      37.807  31.784  31.333  1.00  0.00     0.023 A 
ATOM     82  C   UNL A   1      37.090  32.219  32.482  1.00  0.00     0.031 A 
ATOM     83  C   UNL A   1      37.494  32.438  30.122  1.00  0.00     0.131 A 
ATOM     84  C   UNL A   1      36.136  33.269  32.384  1.00  0.00     0.055 A 
ATOM     85  C   UNL A   1      36.564  33.479  30.037  1.00  0.00     0.041 A 
ATOM     86  F   UNL A   1      38.153  32.148  28.991  1.00  0.00    -0.206 F 
ATOM     87  C   UNL A   1      35.892  33.909  31.168  1.00  0.00     0.022 A 
BRANCH  84  88
ATOM     88  S   UNL A   1      35.236  33.895  33.853  1.00  0.00     0.124 S 
ATOM     89  O   UNL A   1      35.955  33.267  34.954  1.00  0.00    -0.237 OA
ATOM     90  O   UNL A   1      35.378  35.340  33.722  1.00  0.00    -0.237 OA
ATOM     91  O   UNL A   1      33.872  33.400  33.657  1.00  0.00    -0.744 OA
ENDBRANCH  84  88
ENDBRANCH  57  81
BRANCH  69  92
ATOM     92  C   UNL A   1      43.004  29.227  33.938  1.00  0.00     0.023 A 
ATOM     93  C   UNL A   1      42.708  27.850  34.027  1.00  0.00     0.031 A 
ATOM     94  C   UNL A   1      43.103  29.955  35.136  1.00  0.00     0.131 A 
ATOM     95  C   UNL A   1      42.512  27.258  35.292  1.00  0.00     0.055 A 
ATOM     96  C   UNL A   1      42.929  29.364  36.384  1.00  0.00     0.041 A 
ATOM     97  F   UNL A   1      43.381  31.269  35.116  1.00  0.00    -0.206 F 
ATOM     98  C   UNL A   1      42.624  28.012  36.465  1.00  0.00     0.022 A 
BRANCH  95  99
ATOM     99  S   UNL A   1      42.058  25.499  35.439  1.00  0.00     0.124 S 
ATOM    100  O   UNL A   1      42.548  25.128  36.762  1.00  0.00    -0.237 OA
ATOM    101  O   UNL A   1      40.606  25.539  35.284  1.00  0.00    -0.237 OA
ATOM    102  O   UNL A   1      42.771  24.870  34.326  1.00  0.00    -0.744 OA
ENDBRANCH  95  99
ENDBRANCH  69  92
ENDBRANCH  43  44
ENDBRANCH  36  38
ENDBRANCH  35  36
ENDBRANCH   1  35
TORSDOF 19
ENDMDL
MODEL 3
REMARK VINA RESULT:     -10.1      3.273     11.733
REMARK SMILES COc1cc([C@@H]2CC(=O)Nc3c(C(=O)OCCOC(=O)c4ccc(-c5c6nc(c(-c7cc(S(=O)(=O)[O-])ccc7F)c7ccc([nH]7)c(-c7cc(S(=O)(=O)[O-])ccc7F)c7nc(c(-c8cc(S(=O)(=O)[O-])ccc8F)c8ccc5[nH]8)C=C7)C=C6)cc4)cn(-c4ccccc4)c32)cc(OC)c1OC
REMARK SMILES IDX 17 1 16 2 15 3 13 4 14 5 12 6 6 7 7 8 92 9 8 10 11 11 85 12
REMARK SMILES IDX 9 13 10 14 84 15 5 17 3 18 4 19 97 20 94 21 93 22 2 23 1 24
REMARK SMILES IDX 98 25 99 26 95 27 96 28 86 29 87 30 91 31 88 32 90 33 89 34
REMARK SMILES IDX 18 35 19 36 20 37 21 38 22 39 83 40 23 41 82 42 24 43 25 44
REMARK SMILES IDX 26 45 76 46 27 47 81 48 75 49 77 50 28 51 80 52 74 53 73 54
REMARK SMILES IDX 29 56 61 57 41 58 60 59 42 60 45 61 59 62 78 63 43 64 44 65
REMARK SMILES IDX 58 67 79 68 46 69 30 70 31 71 39 72 32 73 38 74 40 75 37 76
REMARK SMILES IDX 33 77 34 78 35 79 36 80 62 81 63 82 71 83 64 84 70 85 72 86
REMARK SMILES IDX 69 87 65 88 66 89 67 90 68 91 47 92 48 93 56 94 49 95 55 96
REMARK SMILES IDX 57 97 54 98 50 99 51 100 52 101 53 102
REMARK H PARENT 10 16 77 55 45 66
REMARK Flexibility Score: inf
ROOT
ATOM      1  C   UNL A   1      34.707  32.477  29.546  1.00  0.00     0.275 C 
ENDROOT
BRANCH   1   2
ATOM      2  C   UNL A   1      34.249  33.504  30.576  1.00  0.00     0.275 C 
BRANCH   2   3
ATOM      3  O   UNL A   1      34.015  32.898  31.856  1.00  0.00    -0.458 OA
BRANCH   3   4
ATOM      4  C   UNL A   1      34.238  33.702  32.936  1.00  0.00     0.341 C 
ATOM      5  O   UNL A   1      33.500  34.627  33.276  1.00  0.00    -0.246 OA
BRANCH   4   6
ATOM      6  C   UNL A   1      35.442  33.342  33.662  1.00  0.00     0.102 A 
ATOM      7  C   UNL A   1      38.578  31.477  34.344  1.00  0.00     0.078 C 
ATOM      8  C   UNL A   1      38.124  30.102  33.807  1.00  0.00     0.115 C 
ATOM      9  C   UNL A   1      37.393  32.397  34.322  1.00  0.00     0.055 A 
ATOM     10  C   UNL A   1      37.180  30.176  32.607  1.00  0.00     0.225 C 
ATOM     11  C   UNL A   1      36.316  32.248  33.479  1.00  0.00     0.078 A 
ATOM     12  N   UNL A   1      37.145  33.480  35.137  1.00  0.00    -0.317 N 
ATOM     13  O   UNL A   1      37.164  29.304  31.738  1.00  0.00    -0.275 OA
ATOM     14  N   UNL A   1      36.262  31.199  32.591  1.00  0.00    -0.324 N 
ATOM     15  C   UNL A   1      35.944  34.036  34.756  1.00  0.00     0.109 A 
ATOM     16  H   UNL A   1      35.542  31.180  31.921  1.00  0.00     0.170 HD
BRANCH   7  17
ATOM     17  C   UNL A   1      39.761  31.998  33.527  1.00  0.00    -0.031 A 
ATOM     18  C   UNL A   1      42.152  32.039  33.006  1.00  0.00     0.164 A 
ATOM     19  C   UNL A   1      41.076  31.593  33.800  1.00  0.00     0.055 A 
ATOM     20  C   UNL A   1      41.937  32.885  31.900  1.00  0.00     0.203 A 
ATOM     21  C   UNL A   1      40.615  33.291  31.632  1.00  0.00     0.164 A 
ATOM     22  C   UNL A   1      39.561  32.860  32.446  1.00  0.00     0.055 A 
BRANCH  18  23
ATOM     23  O   UNL A   1      43.375  31.469  33.267  1.00  0.00    -0.493 OA
ATOM     24  C   UNL A   1      44.213  32.296  34.073  1.00  0.00     0.278 C 
ENDBRANCH  18  23
BRANCH  20  25
ATOM     25  O   UNL A   1      42.873  33.348  31.023  1.00  0.00    -0.490 OA
ATOM     26  C   UNL A   1      43.458  32.518  30.044  1.00  0.00     0.278 C 
ENDBRANCH  20  25
BRANCH  21  27
ATOM     27  O   UNL A   1      40.164  34.118  30.632  1.00  0.00    -0.493 OA
ATOM     28  C   UNL A   1      38.820  34.569  30.684  1.00  0.00     0.278 C 
ENDBRANCH  21  27
ENDBRANCH   7  17
BRANCH  12  29
ATOM     29  C   UNL A   1      37.979  33.987  36.151  1.00  0.00     0.045 A 
ATOM     30  C   UNL A   1      37.777  33.574  37.469  1.00  0.00     0.026 A 
ATOM     31  C   UNL A   1      38.990  34.895  35.830  1.00  0.00     0.026 A 
ATOM     32  C   UNL A   1      38.560  34.111  38.487  1.00  0.00     0.002 A 
ATOM     33  C   UNL A   1      39.757  35.444  36.859  1.00  0.00     0.002 A 
ATOM     34  C   UNL A   1      39.538  35.057  38.184  1.00  0.00     0.000 A 
ENDBRANCH  12  29
ENDBRANCH   4   6
ENDBRANCH   3   4
ENDBRANCH   2   3
ENDBRANCH   1   2
BRANCH   1  35
ATOM     35  O   UNL A   1      36.124  32.286  29.543  1.00  0.00    -0.458 OA
BRANCH  35  36
ATOM     36  C   UNL A   1      36.622  31.739  28.407  1.00  0.00     0.338 C 
ATOM     37  O   UNL A   1      36.202  31.911  27.275  1.00  0.00    -0.246 OA
BRANCH  36  38
ATOM     38  C   UNL A   1      37.613  30.707  28.750  1.00  0.00     0.060 A 
ATOM     39  C   UNL A   1      38.832  31.117  29.293  1.00  0.00     0.016 A 
ATOM     40  C   UNL A   1      37.416  29.383  28.332  1.00  0.00     0.016 A 
ATOM     41  C   UNL A   1      39.886  30.218  29.315  1.00  0.00     0.010 A 
ATOM     42  C   UNL A   1      38.473  28.491  28.344  1.00  0.00     0.010 A 
ATOM     43  C   UNL A   1      39.719  28.921  28.794  1.00  0.00    -0.014 A 
BRANCH  43  44
ATOM     44  C   UNL A   1      40.774  27.934  29.032  1.00  0.00     0.031 A 
ATOM     45  C   UNL A   1      41.286  28.085  30.416  1.00  0.00     0.074 A 
ATOM     46  C   UNL A   1      41.149  26.937  28.197  1.00  0.00     0.049 A 
ATOM     47  N   UNL A   1      42.370  28.691  30.772  1.00  0.00    -0.248 NA
ATOM     48  C   UNL A   1      40.381  27.795  31.545  1.00  0.00     0.031 C 
ATOM     49  C   UNL A   1      40.514  26.575  26.928  1.00  0.00     0.029 A 
ATOM     50  N   UNL A   1      42.128  25.980  28.321  1.00  0.00    -0.354 N 
ATOM     51  C   UNL A   1      42.450  28.482  32.143  1.00  0.00     0.074 A 
ATOM     52  C   UNL A   1      41.107  28.233  32.578  1.00  0.00     0.031 C 
ATOM     53  C   UNL A   1      40.966  25.365  26.518  1.00  0.00     0.029 A 
ATOM     54  C   UNL A   1      42.025  24.916  27.411  1.00  0.00     0.049 A 
ATOM     55  H   UNL A   1      42.844  26.036  28.994  1.00  0.00     0.167 HD
ATOM     56  C   UNL A   1      43.636  28.065  32.665  1.00  0.00     0.034 A 
ATOM     57  C   UNL A   1      42.750  23.757  27.378  1.00  0.00     0.034 A 
ATOM     58  C   UNL A   1      44.708  28.336  31.729  1.00  0.00     0.049 A 
ATOM     59  C   UNL A   1      44.035  24.034  28.054  1.00  0.00     0.074 A 
ATOM     60  C   UNL A   1      45.384  29.434  31.242  1.00  0.00     0.029 A 
ATOM     61  N   UNL A   1      44.915  27.314  30.840  1.00  0.00    -0.354 N 
ATOM     62  N   UNL A   1      44.921  24.855  27.562  1.00  0.00    -0.248 NA
ATOM     63  C   UNL A   1      44.191  23.722  29.471  1.00  0.00     0.031 C 
ATOM     64  C   UNL A   1      45.933  29.045  29.981  1.00  0.00     0.029 A 
ATOM     65  C   UNL A   1      45.644  27.704  29.752  1.00  0.00     0.049 A 
ATOM     66  H   UNL A   1      44.576  26.398  30.971  1.00  0.00     0.167 HD
ATOM     67  C   UNL A   1      45.443  25.493  28.668  1.00  0.00     0.074 A 
ATOM     68  C   UNL A   1      45.099  24.643  29.803  1.00  0.00     0.031 C 
ATOM     69  C   UNL A   1      45.774  26.816  28.611  1.00  0.00     0.034 A 
BRANCH  56  70
ATOM     70  C   UNL A   1      43.776  26.912  33.659  1.00  0.00     0.023 A 
ATOM     71  C   UNL A   1      42.760  26.796  34.632  1.00  0.00     0.031 A 
ATOM     72  C   UNL A   1      44.946  26.159  33.916  1.00  0.00     0.131 A 
ATOM     73  C   UNL A   1      42.966  26.064  35.817  1.00  0.00     0.055 A 
ATOM     74  C   UNL A   1      45.130  25.401  35.077  1.00  0.00     0.041 A 
ATOM     75  F   UNL A   1      46.015  26.163  33.115  1.00  0.00    -0.206 F 
ATOM     76  C   UNL A   1      44.149  25.372  36.049  1.00  0.00     0.022 A 
BRANCH  73  77
ATOM     77  S   UNL A   1      41.713  26.152  37.119  1.00  0.00     0.124 S 
ATOM     78  O   UNL A   1      40.857  25.021  36.778  1.00  0.00    -0.237 OA
ATOM     79  O   UNL A   1      42.523  26.011  38.324  1.00  0.00    -0.237 OA
ATOM     80  O   UNL A   1      41.116  27.471  36.923  1.00  0.00    -0.744 OA
ENDBRANCH  73  77
ENDBRANCH  56  70
BRANCH  57  81
ATOM     81  C   UNL A   1      42.330  22.365  27.009  1.00  0.00     0.023 A 
ATOM     82  C   UNL A   1      43.113  21.477  26.221  1.00  0.00     0.031 A 
ATOM     83  C   UNL A   1      41.240  21.788  27.695  1.00  0.00     0.131 A 
ATOM     84  C   UNL A   1      42.801  20.092  26.166  1.00  0.00     0.055 A 
ATOM     85  C   UNL A   1      40.947  20.422  27.647  1.00  0.00     0.041 A 
ATOM     86  F   UNL A   1      40.473  22.523  28.514  1.00  0.00    -0.206 F 
ATOM     87  C   UNL A   1      41.733  19.566  26.895  1.00  0.00     0.022 A 
BRANCH  84  88
ATOM     88  S   UNL A   1      43.821  18.909  25.208  1.00  0.00     0.124 S 
ATOM     89  O   UNL A   1      45.064  18.876  25.970  1.00  0.00    -0.237 OA
ATOM     90  O   UNL A   1      43.011  17.697  25.230  1.00  0.00    -0.237 OA
ATOM     91  O   UNL A   1      43.933  19.539  23.891  1.00  0.00    -0.744 OA
ENDBRANCH  84  88
ENDBRANCH  57  81
BRANCH  69  92
ATOM     92  C   UNL A   1      46.234  27.368  27.287  1.00  0.00     0.023 A 
ATOM     93  C   UNL A   1      47.502  27.167  26.701  1.00  0.00     0.031 A 
ATOM     94  C   UNL A   1      45.305  28.158  26.588  1.00  0.00     0.131 A 
ATOM     95  C   UNL A   1      47.799  27.765  25.459  1.00  0.00     0.055 A 
ATOM     96  C   UNL A   1      45.594  28.730  25.353  1.00  0.00     0.041 A 
ATOM     97  F   UNL A   1      44.082  28.386  27.096  1.00  0.00    -0.206 F 
ATOM     98  C   UNL A   1      46.849  28.542  24.787  1.00  0.00     0.022 A 
BRANCH  95  99
ATOM     99  S   UNL A   1      49.450  27.587  24.709  1.00  0.00     0.124 S 
ATOM    100  O   UNL A   1      50.313  28.367  25.589  1.00  0.00    -0.237 OA
ATOM    101  O   UNL A   1      49.650  26.141  24.736  1.00  0.00    -0.237 OA
ATOM    102  O   UNL A   1      49.276  28.151  23.369  1.00  0.00    -0.744 OA
ENDBRANCH  95  99
ENDBRANCH  69  92
ENDBRANCH  43  44
ENDBRANCH  36  38
ENDBRANCH  35  36
ENDBRANCH   1  35
TORSDOF 19
ENDMDL
