MODEL 1
REMARK VINA RESULT:     -10.9      0.000      0.000
REMARK SMILES Cc1cc(S(F)(F)(F)(F)F)cc2c1O[C@H](C(F)(F)F)C(C(=O)OCCOC(=O)c1ccc(-c3c4nc(c(-c5cc(S(=O)(=O)[O-])ccc5F)c5ccc([nH]5)c(-c5cc(S(=O)(=O)[O-])ccc5F)c5nc(c(-c6cc(S(=O)(=O)[O-])ccc6F)c6ccc3[nH]6)C=C5)C=C4)cc1)=C2
REMARK SMILES IDX 25 1 24 2 23 3 21 4 22 5 20 6 1 7 2 8 3 9 13 10 4 11 12 12
REMARK SMILES IDX 14 13 11 14 92 15 15 16 5 17 6 18 7 19 8 20 9 21 10 22 16 23
REMARK SMILES IDX 17 24 18 25 19 26 26 27 27 28 28 29 29 30 30 31 91 32 31 33
REMARK SMILES IDX 90 34 32 35 33 36 34 37 84 38 35 39 89 40 83 41 85 42 36 43
REMARK SMILES IDX 88 44 82 45 81 46 37 48 69 49 49 50 68 51 50 52 53 53 67 54
REMARK SMILES IDX 86 55 51 56 52 57 66 59 87 60 54 61 38 62 39 63 47 64 40 65
REMARK SMILES IDX 46 66 48 67 45 68 41 69 42 70 43 71 44 72 70 73 71 74 79 75
REMARK SMILES IDX 72 76 78 77 80 78 77 79 73 80 74 81 75 82 76 83 55 84 56 85
REMARK SMILES IDX 64 86 57 87 63 88 65 89 62 90 58 91 59 92 60 93 61 94
REMARK H PARENT 85 47 53 58
REMARK Flexibility Score: inf
ROOT
ATOM      1  C   UNL A   1      34.856  33.575  28.173  1.00  0.00     0.275 C 
ENDROOT
BRANCH   1   2
ATOM      2  C   UNL A   1      33.748  33.935  29.150  1.00  0.00     0.275 C 
BRANCH   2   3
ATOM      3  O   UNL A   1      34.111  33.508  30.454  1.00  0.00    -0.459 OA
BRANCH   3   4
ATOM      4  C   UNL A   1      34.525  34.459  31.423  1.00  0.00     0.338 C 
ATOM      5  O   UNL A   1      33.694  35.306  31.878  1.00  0.00    -0.246 OA
BRANCH   4   6
ATOM      6  C   UNL A   1      35.963  34.466  31.916  1.00  0.00     0.087 C 
ATOM      7  C   UNL A   1      40.229  34.703  34.788  1.00  0.00     0.048 C 
ATOM      8  C   UNL A   1      39.906  34.493  33.317  1.00  0.00    -0.007 A 
ATOM      9  C   UNL A   1      40.928  34.310  32.412  1.00  0.00     0.031 A 
ATOM     10  C   UNL A   1      38.586  34.486  32.870  1.00  0.00     0.130 A 
ATOM     11  C   UNL A   1      40.656  34.125  31.063  1.00  0.00     0.108 A 
ATOM     12  C   UNL A   1      38.313  34.292  31.496  1.00  0.00     0.019 A 
ATOM     13  O   UNL A   1      37.453  34.677  33.784  1.00  0.00    -0.475 OA
ATOM     14  C   UNL A   1      39.370  34.108  30.602  1.00  0.00     0.036 A 
ATOM     15  C   UNL A   1      36.919  34.291  31.054  1.00  0.00     0.027 C 
ATOM     16  C   UNL A   1      36.201  34.659  33.278  1.00  0.00     0.316 C 
BRANCH  11  17
ATOM     17  S   UNL A   1      42.024  33.902  29.898  1.00  0.00     0.310 S 
ATOM     18  F   UNL A   1      43.099  33.851  31.064  1.00  0.00    -0.094 F 
ATOM     19  F   UNL A   1      42.210  35.467  29.888  1.00  0.00    -0.094 F 
ATOM     20  F   UNL A   1      43.198  33.728  28.892  1.00  0.00    -0.094 F 
ATOM     21  F   UNL A   1      41.914  32.332  30.029  1.00  0.00    -0.094 F 
ATOM     22  F   UNL A   1      40.907  34.059  31.005  1.00  0.00    -0.094 F 
ENDBRANCH  11  17
BRANCH  16  23
ATOM     23  C   UNL A   1      35.623  33.395  33.891  1.00  0.00     0.430 C 
ATOM     24  F   UNL A   1      36.318  33.070  34.977  1.00  0.00    -0.167 F 
ATOM     25  F   UNL A   1      34.352  33.604  34.224  1.00  0.00    -0.167 F 
ATOM     26  F   UNL A   1      35.693  32.402  33.007  1.00  0.00    -0.167 F 
ENDBRANCH  16  23
ENDBRANCH   4   6
ENDBRANCH   3   4
ENDBRANCH   2   3
ENDBRANCH   1   2
BRANCH   1  27
ATOM     27  O   UNL A   1      34.405  32.546  27.304  1.00  0.00    -0.458 OA
BRANCH  27  28
ATOM     28  C   UNL A   1      34.474  31.189  27.716  1.00  0.00     0.338 C 
ATOM     29  O   UNL A   1      33.446  30.447  27.638  1.00  0.00    -0.246 OA
BRANCH  28  30
ATOM     30  C   UNL A   1      35.781  30.623  28.248  1.00  0.00     0.060 A 
ATOM     31  C   UNL A   1      35.922  30.293  29.591  1.00  0.00     0.016 A 
ATOM     32  C   UNL A   1      36.808  30.434  27.447  1.00  0.00     0.016 A 
ATOM     33  C   UNL A   1      36.917  29.342  29.907  1.00  0.00     0.010 A 
ATOM     34  C   UNL A   1      38.014  29.922  27.939  1.00  0.00     0.010 A 
ATOM     35  C   UNL A   1      38.079  29.385  29.138  1.00  0.00    -0.014 A 
BRANCH  35  36
ATOM     36  C   UNL A   1      39.387  28.825  29.672  1.00  0.00     0.031 A 
ATOM     37  C   UNL A   1      39.947  27.743  28.992  1.00  0.00     0.074 A 
ATOM     38  C   UNL A   1      39.949  29.409  30.796  1.00  0.00     0.049 A 
ATOM     39  N   UNL A   1      41.094  27.117  29.263  1.00  0.00    -0.248 NA
ATOM     40  C   UNL A   1      39.334  27.099  27.820  1.00  0.00     0.031 C 
ATOM     41  C   UNL A   1      39.395  30.507  31.482  1.00  0.00     0.029 A 
ATOM     42  N   UNL A   1      41.111  29.051  31.441  1.00  0.00    -0.354 N 
ATOM     43  C   UNL A   1      41.305  26.139  28.379  1.00  0.00     0.074 A 
ATOM     44  C   UNL A   1      40.174  26.110  27.442  1.00  0.00     0.031 C 
ATOM     45  C   UNL A   1      40.205  30.799  32.533  1.00  0.00     0.029 A 
ATOM     46  C   UNL A   1      41.279  29.889  32.521  1.00  0.00     0.049 A 
ATOM     47  H   UNL A   1      41.717  28.322  31.178  1.00  0.00     0.167 HD
ATOM     48  C   UNL A   1      42.398  25.274  28.316  1.00  0.00     0.034 A 
ATOM     49  C   UNL A   1      42.303  29.876  33.456  1.00  0.00     0.034 A 
ATOM     50  C   UNL A   1      43.445  25.289  29.225  1.00  0.00     0.049 A 
ATOM     51  C   UNL A   1      43.367  28.972  33.427  1.00  0.00     0.074 A 
ATOM     52  C   UNL A   1      44.557  24.428  29.172  1.00  0.00     0.029 A 
ATOM     53  N   UNL A   1      43.599  26.111  30.319  1.00  0.00    -0.354 N 
ATOM     54  N   UNL A   1      43.599  28.021  32.520  1.00  0.00    -0.248 NA
ATOM     55  C   UNL A   1      44.440  28.928  34.428  1.00  0.00     0.031 C 
ATOM     56  C   UNL A   1      45.368  24.720  30.223  1.00  0.00     0.029 A 
ATOM     57  C   UNL A   1      44.774  25.769  30.952  1.00  0.00     0.049 A 
ATOM     58  H   UNL A   1      42.978  26.821  30.600  1.00  0.00     0.167 HD
ATOM     59  C   UNL A   1      44.724  27.368  32.815  1.00  0.00     0.074 A 
ATOM     60  C   UNL A   1      45.278  27.937  34.052  1.00  0.00     0.031 C 
ATOM     61  C   UNL A   1      45.314  26.324  32.102  1.00  0.00     0.034 A 
BRANCH  48  62
ATOM     62  C   UNL A   1      42.443  24.256  27.188  1.00  0.00     0.023 A 
ATOM     63  C   UNL A   1      41.713  23.067  27.286  1.00  0.00     0.031 A 
ATOM     64  C   UNL A   1      43.147  24.527  26.108  1.00  0.00     0.131 A 
ATOM     65  C   UNL A   1      41.905  22.086  26.430  1.00  0.00     0.055 A 
ATOM     66  C   UNL A   1      43.149  23.598  25.069  1.00  0.00     0.041 A 
ATOM     67  F   UNL A   1      43.840  25.659  26.013  1.00  0.00    -0.206 F 
ATOM     68  C   UNL A   1      42.846  22.264  25.422  1.00  0.00     0.022 A 
BRANCH  65  69
ATOM     69  S   UNL A   1      40.970  20.542  26.563  1.00  0.00     0.124 S 
ATOM     70  O   UNL A   1      40.885  20.124  28.033  1.00  0.00    -0.237 OA
ATOM     71  O   UNL A   1      39.559  20.750  26.008  1.00  0.00    -0.237 OA
ATOM     72  O   UNL A   1      41.759  19.317  25.667  1.00  0.00    -0.744 OA
ENDBRANCH  65  69
ENDBRANCH  48  62
BRANCH  49  73
ATOM     73  C   UNL A   1      42.266  30.905  34.574  1.00  0.00     0.023 A 
ATOM     74  C   UNL A   1      42.980  32.102  34.448  1.00  0.00     0.031 A 
ATOM     75  C   UNL A   1      41.587  30.638  35.669  1.00  0.00     0.131 A 
ATOM     76  C   UNL A   1      43.201  32.867  35.496  1.00  0.00     0.055 A 
ATOM     77  C   UNL A   1      41.599  31.575  36.700  1.00  0.00     0.041 A 
ATOM     78  F   UNL A   1      40.905  29.502  35.788  1.00  0.00    -0.206 F 
ATOM     79  C   UNL A   1      42.699  32.461  36.727  1.00  0.00     0.022 A 
BRANCH  76  80
ATOM     80  S   UNL A   1      44.133  34.409  35.337  1.00  0.00     0.124 S 
ATOM     81  O   UNL A   1      45.530  34.227  35.937  1.00  0.00    -0.237 OA
ATOM     82  O   UNL A   1      44.258  34.780  33.858  1.00  0.00    -0.237 OA
ATOM     83  O   UNL A   1      43.315  35.660  36.171  1.00  0.00    -0.744 OA
ENDBRANCH  76  80
ENDBRANCH  49  73
BRANCH  61  84
ATOM     84  C   UNL A   1      46.629  25.761  32.615  1.00  0.00     0.023 A 
ATOM     85  C   UNL A   1      46.628  24.724  33.554  1.00  0.00     0.031 A 
ATOM     86  C   UNL A   1      47.761  26.256  32.160  1.00  0.00     0.131 A 
ATOM     87  C   UNL A   1      47.731  24.391  34.191  1.00  0.00     0.055 A 
ATOM     88  C   UNL A   1      48.956  25.724  32.640  1.00  0.00     0.041 A 
ATOM     89  F   UNL A   1      47.762  27.239  31.265  1.00  0.00    -0.206 F 
ATOM     90  C   UNL A   1      48.898  25.090  33.901  1.00  0.00     0.022 A 
BRANCH  87  91
ATOM     91  S   UNL A   1      47.729  23.057  35.415  1.00  0.00     0.124 S 
ATOM     92  O   UNL A   1      47.590  21.710  34.701  1.00  0.00    -0.237 OA
ATOM     93  O   UNL A   1      49.042  23.084  36.202  1.00  0.00    -0.237 OA
ATOM     94  O   UNL A   1      46.416  23.271  36.488  1.00  0.00    -0.744 OA
ENDBRANCH  87  91
ENDBRANCH  61  84
ENDBRANCH  35  36
ENDBRANCH  28  30
ENDBRANCH  27  28
ENDBRANCH   1  27
TORSDOF 16
ENDMDL
MODEL 2
REMARK VINA RESULT:     -10.7      0.225      7.559
REMARK SMILES Cc1cc(S(F)(F)(F)(F)F)cc2c1O[C@H](C(F)(F)F)C(C(=O)OCCOC(=O)c1ccc(-c3c4nc(c(-c5cc(S(=O)(=O)[O-])ccc5F)c5ccc([nH]5)c(-c5cc(S(=O)(=O)[O-])ccc5F)c5nc(c(-c6cc(S(=O)(=O)[O-])ccc6F)c6ccc3[nH]6)C=C5)C=C4)cc1)=C2
REMARK SMILES IDX 25 1 24 2 23 3 21 4 22 5 20 6 1 7 2 8 3 9 13 10 4 11 12 12
REMARK SMILES IDX 14 13 11 14 92 15 15 16 5 17 6 18 7 19 8 20 9 21 10 22 16 23
REMARK SMILES IDX 17 24 18 25 19 26 26 27 27 28 28 29 29 30 30 31 91 32 31 33
REMARK SMILES IDX 90 34 32 35 33 36 34 37 84 38 35 39 89 40 83 41 85 42 36 43
REMARK SMILES IDX 88 44 82 45 81 46 37 48 69 49 49 50 68 51 50 52 53 53 67 54
REMARK SMILES IDX 86 55 51 56 52 57 66 59 87 60 54 61 38 62 39 63 47 64 40 65
REMARK SMILES IDX 46 66 48 67 45 68 41 69 42 70 43 71 44 72 70 73 71 74 79 75
REMARK SMILES IDX 72 76 78 77 80 78 77 79 73 80 74 81 75 82 76 83 55 84 56 85
REMARK SMILES IDX 64 86 57 87 63 88 65 89 62 90 58 91 59 92 60 93 61 94
REMARK H PARENT 85 47 53 58
REMARK Flexibility Score: inf
ROOT
ATOM      1  C   UNL A   1      34.877  33.626  28.134  1.00  0.00     0.275 C 
ENDROOT
BRANCH   1   2
ATOM      2  C   UNL A   1      33.816  33.981  29.164  1.00  0.00     0.275 C 
BRANCH   2   3
ATOM      3  O   UNL A   1      34.151  33.390  30.411  1.00  0.00    -0.459 OA
BRANCH   3   4
ATOM      4  C   UNL A   1      34.483  34.212  31.519  1.00  0.00     0.338 C 
ATOM      5  O   UNL A   1      33.576  34.872  32.116  1.00  0.00    -0.246 OA
BRANCH   4   6
ATOM      6  C   UNL A   1      35.925  34.305  31.992  1.00  0.00     0.087 C 
ATOM      7  C   UNL A   1      40.210  34.839  34.795  1.00  0.00     0.048 C 
ATOM      8  C   UNL A   1      39.880  34.571  33.336  1.00  0.00    -0.007 A 
ATOM      9  C   UNL A   1      40.898  34.412  32.422  1.00  0.00     0.031 A 
ATOM     10  C   UNL A   1      38.556  34.484  32.907  1.00  0.00     0.130 A 
ATOM     11  C   UNL A   1      40.619  34.174  31.083  1.00  0.00     0.108 A 
ATOM     12  C   UNL A   1      38.276  34.237  31.544  1.00  0.00     0.019 A 
ATOM     13  O   UNL A   1      37.426  34.646  33.831  1.00  0.00    -0.475 OA
ATOM     14  C   UNL A   1      39.329  34.080  30.641  1.00  0.00     0.036 A 
ATOM     15  C   UNL A   1      36.878  34.153  31.122  1.00  0.00     0.027 C 
ATOM     16  C   UNL A   1      36.171  34.550  33.344  1.00  0.00     0.316 C 
BRANCH  11  17
ATOM     17  S   UNL A   1      41.981  33.985  29.906  1.00  0.00     0.310 S 
ATOM     18  F   UNL A   1      43.068  34.358  31.000  1.00  0.00    -0.094 F 
ATOM     19  F   UNL A   1      41.865  35.525  29.595  1.00  0.00    -0.094 F 
ATOM     20  F   UNL A   1      43.147  33.839  28.887  1.00  0.00    -0.094 F 
ATOM     21  F   UNL A   1      42.175  32.477  30.333  1.00  0.00    -0.094 F 
ATOM     22  F   UNL A   1      40.876  34.145  31.025  1.00  0.00    -0.094 F 
ENDBRANCH  11  17
BRANCH  16  23
ATOM     23  C   UNL A   1      35.665  33.277  34.001  1.00  0.00     0.430 C 
ATOM     24  F   UNL A   1      34.342  33.335  34.122  1.00  0.00    -0.167 F 
ATOM     25  F   UNL A   1      35.996  32.229  33.251  1.00  0.00    -0.167 F 
ATOM     26  F   UNL A   1      36.216  33.151  35.205  1.00  0.00    -0.167 F 
ENDBRANCH  16  23
ENDBRANCH   4   6
ENDBRANCH   3   4
ENDBRANCH   2   3
ENDBRANCH   1   2
BRANCH   1  27
ATOM     27  O   UNL A   1      34.396  32.583  27.299  1.00  0.00    -0.458 OA
BRANCH  27  28
ATOM     28  C   UNL A   1      34.451  31.236  27.745  1.00  0.00     0.338 C 
ATOM     29  O   UNL A   1      33.410  30.509  27.705  1.00  0.00    -0.246 OA
BRANCH  28  30
ATOM     30  C   UNL A   1      35.758  30.662  28.269  1.00  0.00     0.060 A 
ATOM     31  C   UNL A   1      35.890  30.288  29.602  1.00  0.00     0.016 A 
ATOM     32  C   UNL A   1      36.793  30.507  27.472  1.00  0.00     0.016 A 
ATOM     33  C   UNL A   1      36.890  29.334  29.894  1.00  0.00     0.010 A 
ATOM     34  C   UNL A   1      37.999  29.989  27.956  1.00  0.00     0.010 A 
ATOM     35  C   UNL A   1      38.058  29.412  29.138  1.00  0.00    -0.014 A 
BRANCH  35  36
ATOM     36  C   UNL A   1      39.366  28.844  29.664  1.00  0.00     0.031 A 
ATOM     37  C   UNL A   1      39.912  29.440  30.801  1.00  0.00     0.074 A 
ATOM     38  C   UNL A   1      39.944  27.779  28.993  1.00  0.00     0.049 A 
ATOM     39  N   UNL A   1      41.026  29.090  31.447  1.00  0.00    -0.248 NA
ATOM     40  C   UNL A   1      39.318  30.593  31.494  1.00  0.00     0.031 C 
ATOM     41  C   UNL A   1      39.393  27.167  27.850  1.00  0.00     0.029 A 
ATOM     42  N   UNL A   1      41.121  27.131  29.294  1.00  0.00    -0.354 N 
ATOM     43  C   UNL A   1      41.215  29.885  32.503  1.00  0.00     0.074 A 
ATOM     44  C   UNL A   1      40.123  30.867  32.545  1.00  0.00     0.031 C 
ATOM     45  C   UNL A   1      40.233  26.172  27.460  1.00  0.00     0.029 A 
ATOM     46  C   UNL A   1      41.321  26.145  28.353  1.00  0.00     0.049 A 
ATOM     47  H   UNL A   1      41.717  27.337  30.049  1.00  0.00     0.167 HD
ATOM     48  C   UNL A   1      42.254  29.827  33.434  1.00  0.00     0.034 A 
ATOM     49  C   UNL A   1      42.387  25.264  28.261  1.00  0.00     0.034 A 
ATOM     50  C   UNL A   1      43.297  28.916  33.366  1.00  0.00     0.049 A 
ATOM     51  C   UNL A   1      43.456  25.244  29.158  1.00  0.00     0.074 A 
ATOM     52  C   UNL A   1      44.348  28.841  34.300  1.00  0.00     0.029 A 
ATOM     53  N   UNL A   1      43.510  27.947  32.412  1.00  0.00    -0.354 N 
ATOM     54  N   UNL A   1      43.625  26.011  30.237  1.00  0.00    -0.248 NA
ATOM     55  C   UNL A   1      44.606  24.336  29.053  1.00  0.00     0.031 C 
ATOM     56  C   UNL A   1      45.187  27.845  33.910  1.00  0.00     0.029 A 
ATOM     57  C   UNL A   1      44.675  27.283  32.725  1.00  0.00     0.049 A 
ATOM     58  H   UNL A   1      42.928  27.761  31.639  1.00  0.00     0.167 HD
ATOM     59  C   UNL A   1      44.760  25.688  30.858  1.00  0.00     0.074 A 
ATOM     60  C   UNL A   1      45.412  24.610  30.102  1.00  0.00     0.031 C 
ATOM     61  C   UNL A   1      45.277  26.246  32.029  1.00  0.00     0.034 A 
BRANCH  48  62
ATOM     62  C   UNL A   1      42.241  30.819  34.585  1.00  0.00     0.023 A 
ATOM     63  C   UNL A   1      42.953  32.018  34.487  1.00  0.00     0.031 A 
ATOM     64  C   UNL A   1      41.523  30.548  35.656  1.00  0.00     0.131 A 
ATOM     65  C   UNL A   1      43.132  32.785  35.542  1.00  0.00     0.055 A 
ATOM     66  C   UNL A   1      41.494  31.484  36.687  1.00  0.00     0.041 A 
ATOM     67  F   UNL A   1      40.843  29.408  35.750  1.00  0.00    -0.206 F 
ATOM     68  C   UNL A   1      42.588  32.375  36.755  1.00  0.00     0.022 A 
BRANCH  65  69
ATOM     69  S   UNL A   1      44.064  34.331  35.418  1.00  0.00     0.124 S 
ATOM     70  O   UNL A   1      43.876  34.928  34.021  1.00  0.00    -0.237 OA
ATOM     71  O   UNL A   1      43.555  35.320  36.469  1.00  0.00    -0.237 OA
ATOM     72  O   UNL A   1      45.724  34.020  35.686  1.00  0.00    -0.744 OA
ENDBRANCH  65  69
ENDBRANCH  48  62
BRANCH  49  73
ATOM     73  C   UNL A   1      42.391  24.261  27.118  1.00  0.00     0.023 A 
ATOM     74  C   UNL A   1      41.660  23.072  27.227  1.00  0.00     0.031 A 
ATOM     75  C   UNL A   1      43.116  24.510  26.048  1.00  0.00     0.131 A 
ATOM     76  C   UNL A   1      41.873  22.073  26.396  1.00  0.00     0.055 A 
ATOM     77  C   UNL A   1      43.140  23.560  25.029  1.00  0.00     0.041 A 
ATOM     78  F   UNL A   1      43.807  25.641  25.942  1.00  0.00    -0.206 F 
ATOM     79  C   UNL A   1      42.833  22.233  25.404  1.00  0.00     0.022 A 
BRANCH  76  80
ATOM     80  S   UNL A   1      40.937  20.532  26.543  1.00  0.00     0.124 S 
ATOM     81  O   UNL A   1      41.660  19.420  25.776  1.00  0.00    -0.237 OA
ATOM     82  O   UNL A   1      40.823  20.143  28.018  1.00  0.00    -0.237 OA
ATOM     83  O   UNL A   1      39.371  20.750  25.888  1.00  0.00    -0.744 OA
ENDBRANCH  76  80
ENDBRANCH  49  73
BRANCH  61  84
ATOM     84  C   UNL A   1      46.578  25.682  32.575  1.00  0.00     0.023 A 
ATOM     85  C   UNL A   1      46.554  24.655  33.524  1.00  0.00     0.031 A 
ATOM     86  C   UNL A   1      47.721  26.167  32.137  1.00  0.00     0.131 A 
ATOM     87  C   UNL A   1      47.642  24.324  34.186  1.00  0.00     0.055 A 
ATOM     88  C   UNL A   1      48.904  25.634  32.646  1.00  0.00     0.041 A 
ATOM     89  F   UNL A   1      47.746  27.141  31.232  1.00  0.00    -0.206 F 
ATOM     90  C   UNL A   1      48.818  25.013  33.912  1.00  0.00     0.022 A 
BRANCH  87  91
ATOM     91  S   UNL A   1      47.609  23.003  35.424  1.00  0.00     0.124 S 
ATOM     92  O   UNL A   1      48.190  21.722  34.819  1.00  0.00    -0.237 OA
ATOM     93  O   UNL A   1      48.445  23.419  36.636  1.00  0.00    -0.237 OA
ATOM     94  O   UNL A   1      45.995  22.721  35.913  1.00  0.00    -0.744 OA
ENDBRANCH  87  91
ENDBRANCH  61  84
ENDBRANCH  35  36
ENDBRANCH  28  30
ENDBRANCH  27  28
ENDBRANCH   1  27
TORSDOF 16
ENDMDL
MODEL 3
REMARK VINA RESULT:     -10.7      3.710     10.883
REMARK SMILES Cc1cc(S(F)(F)(F)(F)F)cc2c1O[C@H](C(F)(F)F)C(C(=O)OCCOC(=O)c1ccc(-c3c4nc(c(-c5cc(S(=O)(=O)[O-])ccc5F)c5ccc([nH]5)c(-c5cc(S(=O)(=O)[O-])ccc5F)c5nc(c(-c6cc(S(=O)(=O)[O-])ccc6F)c6ccc3[nH]6)C=C5)C=C4)cc1)=C2
REMARK SMILES IDX 25 1 24 2 23 3 21 4 22 5 20 6 1 7 2 8 3 9 13 10 4 11 12 12
REMARK SMILES IDX 14 13 11 14 92 15 15 16 5 17 6 18 7 19 8 20 9 21 10 22 16 23
REMARK SMILES IDX 17 24 18 25 19 26 26 27 27 28 28 29 29 30 30 31 91 32 31 33
REMARK SMILES IDX 90 34 32 35 33 36 34 37 84 38 35 39 89 40 83 41 85 42 36 43
REMARK SMILES IDX 88 44 82 45 81 46 37 48 69 49 49 50 68 51 50 52 53 53 67 54
REMARK SMILES IDX 86 55 51 56 52 57 66 59 87 60 54 61 38 62 39 63 47 64 40 65
REMARK SMILES IDX 46 66 48 67 45 68 41 69 42 70 43 71 44 72 70 73 71 74 79 75
REMARK SMILES IDX 72 76 78 77 80 78 77 79 73 80 74 81 75 82 76 83 55 84 56 85
REMARK SMILES IDX 64 86 57 87 63 88 65 89 62 90 58 91 59 92 60 93 61 94
REMARK H PARENT 85 47 53 58
REMARK Flexibility Score: inf
ROOT
ATOM      1  C   UNL A   1      40.978  21.278  27.269  1.00  0.00     0.275 C 
ENDROOT
BRANCH   1   2
ATOM      2  C   UNL A   1      41.735  20.591  26.143  1.00  0.00     0.275 C 
BRANCH   2   3
ATOM      3  O   UNL A   1      42.529  21.546  25.455  1.00  0.00    -0.459 OA
BRANCH   3   4
ATOM      4  C   UNL A   1      43.944  21.460  25.504  1.00  0.00     0.338 C 
ATOM      5  O   UNL A   1      44.549  20.558  24.844  1.00  0.00    -0.246 OA
BRANCH   4   6
ATOM      6  C   UNL A   1      44.738  22.446  26.346  1.00  0.00     0.087 C 
ATOM      7  C   UNL A   1      48.316  25.663  28.176  1.00  0.00     0.048 C 
ATOM      8  C   UNL A   1      46.957  25.159  28.634  1.00  0.00    -0.007 A 
ATOM      9  C   UNL A   1      46.433  25.595  29.830  1.00  0.00     0.031 A 
ATOM     10  C   UNL A   1      46.232  24.256  27.857  1.00  0.00     0.130 A 
ATOM     11  C   UNL A   1      45.196  25.140  30.271  1.00  0.00     0.108 A 
ATOM     12  C   UNL A   1      44.971  23.800  28.306  1.00  0.00     0.019 A 
ATOM     13  O   UNL A   1      46.736  23.753  26.573  1.00  0.00    -0.475 OA
ATOM     14  C   UNL A   1      44.466  24.260  29.524  1.00  0.00     0.036 A 
ATOM     15  C   UNL A   1      44.233  22.851  27.473  1.00  0.00     0.027 C 
ATOM     16  C   UNL A   1      45.979  22.879  25.876  1.00  0.00     0.316 C 
BRANCH  11  17
ATOM     17  S   UNL A   1      44.544  25.722  31.856  1.00  0.00     0.310 S 
ATOM     18  F   UNL A   1      45.837  26.594  32.146  1.00  0.00    -0.094 F 
ATOM     19  F   UNL A   1      45.285  24.517  32.551  1.00  0.00    -0.094 F 
ATOM     20  F   UNL A   1      43.986  26.205  33.225  1.00  0.00    -0.094 F 
ATOM     21  F   UNL A   1      43.926  26.999  31.162  1.00  0.00    -0.094 F 
ATOM     22  F   UNL A   1      45.197  25.306  30.478  1.00  0.00    -0.094 F 
ENDBRANCH  11  17
BRANCH  16  23
ATOM     23  C   UNL A   1      45.596  23.690  24.650  1.00  0.00     0.430 C 
ATOM     24  F   UNL A   1      44.333  24.092  24.760  1.00  0.00    -0.167 F 
ATOM     25  F   UNL A   1      46.392  24.751  24.553  1.00  0.00    -0.167 F 
ATOM     26  F   UNL A   1      45.728  22.937  23.561  1.00  0.00    -0.167 F 
ENDBRANCH  16  23
ENDBRANCH   4   6
ENDBRANCH   3   4
ENDBRANCH   2   3
ENDBRANCH   1   2
BRANCH   1  27
ATOM     27  O   UNL A   1      39.601  21.360  26.932  1.00  0.00    -0.458 OA
BRANCH  27  28
ATOM     28  C   UNL A   1      39.083  22.545  26.345  1.00  0.00     0.338 C 
ATOM     29  O   UNL A   1      38.239  22.470  25.398  1.00  0.00    -0.246 OA
BRANCH  28  30
ATOM     30  C   UNL A   1      39.538  23.904  26.852  1.00  0.00     0.060 A 
ATOM     31  C   UNL A   1      40.405  24.691  26.103  1.00  0.00     0.016 A 
ATOM     32  C   UNL A   1      39.119  24.365  28.011  1.00  0.00     0.016 A 
ATOM     33  C   UNL A   1      40.380  26.080  26.361  1.00  0.00     0.010 A 
ATOM     34  C   UNL A   1      39.546  25.612  28.482  1.00  0.00     0.010 A 
ATOM     35  C   UNL A   1      40.161  26.459  27.684  1.00  0.00    -0.014 A 
BRANCH  35  36
ATOM     36  C   UNL A   1      40.621  27.815  28.193  1.00  0.00     0.031 A 
ATOM     37  C   UNL A   1      41.993  28.067  28.196  1.00  0.00     0.074 A 
ATOM     38  C   UNL A   1      39.666  28.720  28.626  1.00  0.00     0.049 A 
ATOM     39  N   UNL A   1      42.613  29.189  28.567  1.00  0.00    -0.248 NA
ATOM     40  C   UNL A   1      43.011  27.095  27.770  1.00  0.00     0.031 C 
ATOM     41  C   UNL A   1      38.278  28.475  28.617  1.00  0.00     0.029 A 
ATOM     42  N   UNL A   1      39.868  29.985  29.130  1.00  0.00    -0.354 N 
ATOM     43  C   UNL A   1      43.933  29.059  28.413  1.00  0.00     0.074 A 
ATOM     44  C   UNL A   1      44.208  27.709  27.903  1.00  0.00     0.031 C 
ATOM     45  C   UNL A   1      37.654  29.573  29.120  1.00  0.00     0.029 A 
ATOM     46  C   UNL A   1      38.641  30.522  29.451  1.00  0.00     0.049 A 
ATOM     47  H   UNL A   1      40.739  30.429  29.243  1.00  0.00     0.167 HD
ATOM     48  C   UNL A   1      44.916  30.014  28.674  1.00  0.00     0.034 A 
ATOM     49  C   UNL A   1      38.376  31.765  30.003  1.00  0.00     0.034 A 
ATOM     50  C   UNL A   1      44.648  31.274  29.185  1.00  0.00     0.049 A 
ATOM     51  C   UNL A   1      39.365  32.699  30.319  1.00  0.00     0.074 A 
ATOM     52  C   UNL A   1      45.627  32.252  29.448  1.00  0.00     0.029 A 
ATOM     53  N   UNL A   1      43.423  31.801  29.529  1.00  0.00    -0.354 N 
ATOM     54  N   UNL A   1      40.680  32.584  30.127  1.00  0.00    -0.248 NA
ATOM     55  C   UNL A   1      39.099  34.006  30.934  1.00  0.00     0.031 C 
ATOM     56  C   UNL A   1      45.002  33.350  29.951  1.00  0.00     0.029 A 
ATOM     57  C   UNL A   1      43.623  33.075  30.012  1.00  0.00     0.049 A 
ATOM     58  H   UNL A   1      42.554  31.345  29.444  1.00  0.00     0.167 HD
ATOM     59  C   UNL A   1      41.303  33.690  30.538  1.00  0.00     0.074 A 
ATOM     60  C   UNL A   1      40.296  34.619  31.069  1.00  0.00     0.031 C 
ATOM     61  C   UNL A   1      42.671  33.965  30.486  1.00  0.00     0.034 A 
BRANCH  48  62
ATOM     62  C   UNL A   1      46.363  29.652  28.382  1.00  0.00     0.023 A 
ATOM     63  C   UNL A   1      47.195  29.200  29.412  1.00  0.00     0.031 A 
ATOM     64  C   UNL A   1      46.808  29.736  27.145  1.00  0.00     0.131 A 
ATOM     65  C   UNL A   1      48.494  29.089  29.229  1.00  0.00     0.055 A 
ATOM     66  C   UNL A   1      48.127  29.367  26.890  1.00  0.00     0.041 A 
ATOM     67  F   UNL A   1      46.017  30.164  26.165  1.00  0.00    -0.206 F 
ATOM     68  C   UNL A   1      49.017  29.425  27.985  1.00  0.00     0.022 A 
BRANCH  65  69
ATOM     69  S   UNL A   1      49.573  28.516  30.565  1.00  0.00     0.124 S 
ATOM     70  O   UNL A   1      50.092  29.721  31.352  1.00  0.00    -0.237 OA
ATOM     71  O   UNL A   1      48.783  27.596  31.499  1.00  0.00    -0.237 OA
ATOM     72  O   UNL A   1      50.894  27.656  29.902  1.00  0.00    -0.744 OA
ENDBRANCH  65  69
ENDBRANCH  48  62
BRANCH  49  73
ATOM     73  C   UNL A   1      36.927  32.133  30.279  1.00  0.00     0.023 A 
ATOM     74  C   UNL A   1      36.180  32.810  29.310  1.00  0.00     0.031 A 
ATOM     75  C   UNL A   1      36.403  31.839  31.450  1.00  0.00     0.131 A 
ATOM     76  C   UNL A   1      35.039  33.389  29.622  1.00  0.00     0.055 A 
ATOM     77  C   UNL A   1      35.086  32.221  31.700  1.00  0.00     0.041 A 
ATOM     78  F   UNL A   1      37.111  31.191  32.371  1.00  0.00    -0.206 F 
ATOM     79  C   UNL A   1      34.592  33.301  30.935  1.00  0.00     0.022 A 
BRANCH  76  80
ATOM     80  S   UNL A   1      34.077  34.275  28.372  1.00  0.00     0.124 S 
ATOM     81  O   UNL A   1      34.986  34.650  27.198  1.00  0.00    -0.237 OA
ATOM     82  O   UNL A   1      32.942  33.379  27.872  1.00  0.00    -0.237 OA
ATOM     83  O   UNL A   1      33.419  35.697  29.059  1.00  0.00    -0.744 OA
ENDBRANCH  76  80
ENDBRANCH  49  73
BRANCH  61  84
ATOM     84  C   UNL A   1      43.146  35.321  30.980  1.00  0.00     0.023 A 
ATOM     85  C   UNL A   1      43.294  36.383  30.081  1.00  0.00     0.031 A 
ATOM     86  C   UNL A   1      43.407  35.483  32.261  1.00  0.00     0.131 A 
ATOM     87  C   UNL A   1      43.930  37.480  30.434  1.00  0.00     0.055 A 
ATOM     88  C   UNL A   1      43.837  36.734  32.696  1.00  0.00     0.041 A 
ATOM     89  F   UNL A   1      43.263  34.475  33.117  1.00  0.00    -0.206 F 
ATOM     90  C   UNL A   1      44.442  37.562  31.724  1.00  0.00     0.022 A 
BRANCH  87  91
ATOM     91  S   UNL A   1      44.133  38.849  29.266  1.00  0.00     0.124 S 
ATOM     92  O   UNL A   1      43.222  38.627  28.056  1.00  0.00    -0.237 OA
ATOM     93  O   UNL A   1      43.756  40.165  29.953  1.00  0.00    -0.237 OA
ATOM     94  O   UNL A   1      45.760  38.921  28.750  1.00  0.00    -0.744 OA
ENDBRANCH  87  91
ENDBRANCH  61  84
ENDBRANCH  35  36
ENDBRANCH  28  30
ENDBRANCH  27  28
ENDBRANCH   1  27
TORSDOF 16
ENDMDL
