MODEL 1
REMARK VINA RESULT:     -13.1      0.000      0.000
REMARK SMILES C[C@H](c1ccccc1)N1C(=O)c2ccc(C(=O)OCCOC(=O)c3ccc(-c4c5nc(c(-c6cc(S(=O)(=O)[O-])ccc6F)c6ccc([nH]6)c(-c6cc(S(=O)(=O)[O-])ccc6F)c6nc(c(-c7cc(S(=O)(=O)[O-])ccc7F)c7ccc4[nH]7)C=C6)C=C5)cc3)cc2C1=O
REMARK SMILES IDX 20 1 19 2 18 3 16 4 17 5 15 6 9 7 10 8 89 9 11 10 12 11
REMARK SMILES IDX 88 12 90 13 13 14 87 15 14 16 2 17 1 18 3 19 4 20 8 21 5 22
REMARK SMILES IDX 7 23 6 24 21 25 22 26 23 27 24 28 25 29 86 30 26 31 85 32
REMARK SMILES IDX 27 33 28 34 29 35 79 36 30 37 84 38 78 39 80 40 31 41 83 42
REMARK SMILES IDX 77 43 76 44 32 46 64 47 44 48 63 49 45 50 48 51 62 52 81 53
REMARK SMILES IDX 46 54 47 55 61 57 82 58 49 59 33 60 34 61 42 62 35 63 41 64
REMARK SMILES IDX 43 65 40 66 36 67 37 68 38 69 39 70 65 71 66 72 74 73 67 74
REMARK SMILES IDX 73 75 75 76 72 77 68 78 69 79 70 80 71 81 50 82 51 83 59 84
REMARK SMILES IDX 52 85 58 86 60 87 57 88 53 89 54 90 55 91 56 92
REMARK H PARENT 80 45 48 56
REMARK Flexibility Score: inf
ROOT
ATOM      1  C   UNL A   1      36.715  20.073  24.972  1.00  0.00     0.275 C 
ENDROOT
BRANCH   1   2
ATOM      2  C   UNL A   1      35.264  20.360  25.337  1.00  0.00     0.275 C 
BRANCH   2   3
ATOM      3  O   UNL A   1      34.429  19.379  24.694  1.00  0.00    -0.458 OA
BRANCH   3   4
ATOM      4  C   UNL A   1      33.114  19.443  24.995  1.00  0.00     0.338 C 
ATOM      5  O   UNL A   1      32.440  18.586  25.541  1.00  0.00    -0.246 OA
BRANCH   4   6
ATOM      6  C   UNL A   1      32.559  20.734  24.537  1.00  0.00     0.060 A 
ATOM      7  N   UNL A   1      30.643  24.885  24.876  1.00  0.00    -0.267 N 
ATOM      8  C   UNL A   1      31.136  24.563  23.641  1.00  0.00     0.262 C 
ATOM      9  C   UNL A   1      30.770  23.840  25.751  1.00  0.00     0.262 C 
ATOM     10  O   UNL A   1      31.087  25.175  22.592  1.00  0.00    -0.269 OA
ATOM     11  C   UNL A   1      31.710  23.228  23.754  1.00  0.00     0.053 A 
ATOM     12  C   UNL A   1      31.493  22.787  25.047  1.00  0.00     0.054 A 
ATOM     13  O   UNL A   1      30.339  23.716  26.883  1.00  0.00    -0.269 OA
ATOM     14  C   UNL A   1      32.339  22.451  22.806  1.00  0.00     0.015 A 
ATOM     15  C   UNL A   1      31.918  21.547  25.479  1.00  0.00     0.030 A 
ATOM     16  C   UNL A   1      32.741  21.173  23.202  1.00  0.00     0.016 A 
BRANCH   7  17
ATOM     17  C   UNL A   1      30.005  26.149  25.229  1.00  0.00     0.121 C 
ATOM     18  C   UNL A   1      28.893  26.544  24.251  1.00  0.00     0.037 C 
BRANCH  17  19
ATOM     19  C   UNL A   1      31.028  27.258  25.449  1.00  0.00    -0.025 A 
ATOM     20  C   UNL A   1      31.101  28.377  24.600  1.00  0.00     0.006 A 
ATOM     21  C   UNL A   1      31.951  27.169  26.503  1.00  0.00     0.006 A 
ATOM     22  C   UNL A   1      32.077  29.359  24.780  1.00  0.00     0.000 A 
ATOM     23  C   UNL A   1      32.919  28.162  26.693  1.00  0.00     0.000 A 
ATOM     24  C   UNL A   1      32.986  29.251  25.828  1.00  0.00     0.000 A 
ENDBRANCH  17  19
ENDBRANCH   7  17
ENDBRANCH   4   6
ENDBRANCH   3   4
ENDBRANCH   2   3
ENDBRANCH   1   2
BRANCH   1  25
ATOM     25  O   UNL A   1      37.499  21.262  25.202  1.00  0.00    -0.458 OA
BRANCH  25  26
ATOM     26  C   UNL A   1      38.707  21.046  25.771  1.00  0.00     0.338 C 
ATOM     27  O   UNL A   1      39.359  20.015  25.750  1.00  0.00    -0.246 OA
BRANCH  26  28
ATOM     28  C   UNL A   1      39.205  22.271  26.417  1.00  0.00     0.060 A 
ATOM     29  C   UNL A   1      38.620  23.497  26.111  1.00  0.00     0.016 A 
ATOM     30  C   UNL A   1      40.388  22.221  27.154  1.00  0.00     0.016 A 
ATOM     31  C   UNL A   1      39.297  24.677  26.424  1.00  0.00     0.010 A 
ATOM     32  C   UNL A   1      40.995  23.411  27.575  1.00  0.00     0.010 A 
ATOM     33  C   UNL A   1      40.492  24.658  27.167  1.00  0.00    -0.014 A 
BRANCH  33  34
ATOM     34  C   UNL A   1      41.217  25.934  27.469  1.00  0.00     0.031 A 
ATOM     35  C   UNL A   1      40.599  26.993  28.358  1.00  0.00     0.074 A 
ATOM     36  C   UNL A   1      42.455  26.139  26.973  1.00  0.00     0.049 A 
ATOM     37  N   UNL A   1      41.034  28.196  28.642  1.00  0.00    -0.248 NA
ATOM     38  C   UNL A   1      39.312  26.665  28.990  1.00  0.00     0.031 C 
ATOM     39  C   UNL A   1      43.180  25.212  26.101  1.00  0.00     0.029 A 
ATOM     40  N   UNL A   1      43.336  27.179  27.147  1.00  0.00    -0.354 N 
ATOM     41  C   UNL A   1      40.057  28.784  29.442  1.00  0.00     0.074 A 
ATOM     42  C   UNL A   1      38.993  27.811  29.575  1.00  0.00     0.031 C 
ATOM     43  C   UNL A   1      44.413  25.687  25.877  1.00  0.00     0.029 A 
ATOM     44  C   UNL A   1      44.540  26.997  26.503  1.00  0.00     0.049 A 
ATOM     45  H   UNL A   1      43.127  27.978  27.682  1.00  0.00     0.167 HD
ATOM     46  C   UNL A   1      40.048  30.015  30.017  1.00  0.00     0.034 A 
ATOM     47  C   UNL A   1      45.617  27.801  26.392  1.00  0.00     0.034 A 
ATOM     48  C   UNL A   1      41.134  30.964  29.920  1.00  0.00     0.049 A 
ATOM     49  C   UNL A   1      45.590  29.152  27.053  1.00  0.00     0.074 A 
ATOM     50  C   UNL A   1      41.226  32.233  30.468  1.00  0.00     0.029 A 
ATOM     51  N   UNL A   1      42.328  30.744  29.246  1.00  0.00    -0.354 N 
ATOM     52  N   UNL A   1      44.628  29.710  27.752  1.00  0.00    -0.248 NA
ATOM     53  C   UNL A   1      46.790  29.983  26.904  1.00  0.00     0.031 C 
ATOM     54  C   UNL A   1      42.449  32.797  30.084  1.00  0.00     0.029 A 
ATOM     55  C   UNL A   1      43.153  31.855  29.354  1.00  0.00     0.049 A 
ATOM     56  H   UNL A   1      42.557  29.918  28.761  1.00  0.00     0.167 HD
ATOM     57  C   UNL A   1      45.111  30.961  28.122  1.00  0.00     0.074 A 
ATOM     58  C   UNL A   1      46.463  31.054  27.609  1.00  0.00     0.031 C 
ATOM     59  C   UNL A   1      44.488  31.952  28.811  1.00  0.00     0.034 A 
BRANCH  46  60
ATOM     60  C   UNL A   1      38.801  30.427  30.770  1.00  0.00     0.023 A 
ATOM     61  C   UNL A   1      37.725  31.075  30.138  1.00  0.00     0.031 A 
ATOM     62  C   UNL A   1      38.694  30.176  32.151  1.00  0.00     0.131 A 
ATOM     63  C   UNL A   1      36.625  31.509  30.895  1.00  0.00     0.055 A 
ATOM     64  C   UNL A   1      37.561  30.539  32.883  1.00  0.00     0.041 A 
ATOM     65  F   UNL A   1      39.693  29.577  32.816  1.00  0.00    -0.206 F 
ATOM     66  C   UNL A   1      36.524  31.224  32.258  1.00  0.00     0.022 A 
BRANCH  63  67
ATOM     67  S   UNL A   1      35.386  32.570  30.100  1.00  0.00     0.124 S 
ATOM     68  O   UNL A   1      35.011  31.766  28.939  1.00  0.00    -0.237 OA
ATOM     69  O   UNL A   1      34.373  32.706  31.139  1.00  0.00    -0.237 OA
ATOM     70  O   UNL A   1      36.128  33.791  29.788  1.00  0.00    -0.744 OA
ENDBRANCH  63  67
ENDBRANCH  46  60
BRANCH  47  71
ATOM     71  C   UNL A   1      46.789  27.376  25.572  1.00  0.00     0.023 A 
ATOM     72  C   UNL A   1      46.961  27.830  24.255  1.00  0.00     0.031 A 
ATOM     73  C   UNL A   1      47.741  26.480  26.091  1.00  0.00     0.131 A 
ATOM     74  C   UNL A   1      48.040  27.358  23.490  1.00  0.00     0.055 A 
ATOM     75  C   UNL A   1      48.844  26.061  25.348  1.00  0.00     0.041 A 
ATOM     76  F   UNL A   1      47.624  26.015  27.346  1.00  0.00    -0.206 F 
ATOM     77  C   UNL A   1      48.992  26.491  24.034  1.00  0.00     0.022 A 
BRANCH  74  78
ATOM     78  S   UNL A   1      48.138  27.828  21.741  1.00  0.00     0.124 S 
ATOM     79  O   UNL A   1      48.271  26.530  21.090  1.00  0.00    -0.237 OA
ATOM     80  O   UNL A   1      46.868  28.518  21.541  1.00  0.00    -0.237 OA
ATOM     81  O   UNL A   1      49.323  28.681  21.684  1.00  0.00    -0.744 OA
ENDBRANCH  74  78
ENDBRANCH  47  71
BRANCH  59  82
ATOM     82  C   UNL A   1      45.286  33.210  29.050  1.00  0.00     0.023 A 
ATOM     83  C   UNL A   1      45.333  34.240  28.093  1.00  0.00     0.031 A 
ATOM     84  C   UNL A   1      46.057  33.354  30.215  1.00  0.00     0.131 A 
ATOM     85  C   UNL A   1      46.194  35.331  28.282  1.00  0.00     0.055 A 
ATOM     86  C   UNL A   1      46.864  34.472  30.427  1.00  0.00     0.041 A 
ATOM     87  F   UNL A   1      46.051  32.401  31.162  1.00  0.00    -0.206 F 
ATOM     88  C   UNL A   1      46.950  35.460  29.449  1.00  0.00     0.022 A 
BRANCH  85  89
ATOM     89  S   UNL A   1      46.406  36.517  26.925  1.00  0.00     0.124 S 
ATOM     90  O   UNL A   1      45.269  37.410  27.121  1.00  0.00    -0.237 OA
ATOM     91  O   UNL A   1      47.719  37.084  27.210  1.00  0.00    -0.237 OA
ATOM     92  O   UNL A   1      46.338  35.682  25.727  1.00  0.00    -0.744 OA
ENDBRANCH  85  89
ENDBRANCH  59  82
ENDBRANCH  33  34
ENDBRANCH  26  28
ENDBRANCH  25  26
ENDBRANCH   1  25
TORSDOF 16
ENDMDL
MODEL 2
REMARK VINA RESULT:     -13.0      0.436      7.472
REMARK SMILES C[C@H](c1ccccc1)N1C(=O)c2ccc(C(=O)OCCOC(=O)c3ccc(-c4c5nc(c(-c6cc(S(=O)(=O)[O-])ccc6F)c6ccc([nH]6)c(-c6cc(S(=O)(=O)[O-])ccc6F)c6nc(c(-c7cc(S(=O)(=O)[O-])ccc7F)c7ccc4[nH]7)C=C6)C=C5)cc3)cc2C1=O
REMARK SMILES IDX 20 1 19 2 18 3 16 4 17 5 15 6 9 7 10 8 89 9 11 10 12 11
REMARK SMILES IDX 88 12 90 13 13 14 87 15 14 16 2 17 1 18 3 19 4 20 8 21 5 22
REMARK SMILES IDX 7 23 6 24 21 25 22 26 23 27 24 28 25 29 86 30 26 31 85 32
REMARK SMILES IDX 27 33 28 34 29 35 79 36 30 37 84 38 78 39 80 40 31 41 83 42
REMARK SMILES IDX 77 43 76 44 32 46 64 47 44 48 63 49 45 50 48 51 62 52 81 53
REMARK SMILES IDX 46 54 47 55 61 57 82 58 49 59 33 60 34 61 42 62 35 63 41 64
REMARK SMILES IDX 43 65 40 66 36 67 37 68 38 69 39 70 65 71 66 72 74 73 67 74
REMARK SMILES IDX 73 75 75 76 72 77 68 78 69 79 70 80 71 81 50 82 51 83 59 84
REMARK SMILES IDX 52 85 58 86 60 87 57 88 53 89 54 90 55 91 56 92
REMARK H PARENT 80 45 48 56
REMARK Flexibility Score: inf
ROOT
ATOM      1  C   UNL A   1      36.831  20.006  25.019  1.00  0.00     0.275 C 
ENDROOT
BRANCH   1   2
ATOM      2  C   UNL A   1      35.399  20.505  25.158  1.00  0.00     0.275 C 
BRANCH   2   3
ATOM      3  O   UNL A   1      34.508  19.469  24.707  1.00  0.00    -0.458 OA
BRANCH   3   4
ATOM      4  C   UNL A   1      33.237  19.555  25.154  1.00  0.00     0.338 C 
ATOM      5  O   UNL A   1      32.639  18.742  25.838  1.00  0.00    -0.246 OA
BRANCH   4   6
ATOM      6  C   UNL A   1      32.620  20.807  24.667  1.00  0.00     0.060 A 
ATOM      7  N   UNL A   1      30.587  24.908  24.914  1.00  0.00    -0.267 N 
ATOM      8  C   UNL A   1      31.035  24.547  23.673  1.00  0.00     0.262 C 
ATOM      9  C   UNL A   1      30.787  23.908  25.827  1.00  0.00     0.262 C 
ATOM     10  O   UNL A   1      30.918  25.109  22.603  1.00  0.00    -0.269 OA
ATOM     11  C   UNL A   1      31.656  23.236  23.817  1.00  0.00     0.053 A 
ATOM     12  C   UNL A   1      31.512  22.847  25.136  1.00  0.00     0.054 A 
ATOM     13  O   UNL A   1      30.411  23.821  26.982  1.00  0.00    -0.269 OA
ATOM     14  C   UNL A   1      32.267  22.437  22.875  1.00  0.00     0.015 A 
ATOM     15  C   UNL A   1      31.996  21.641  25.602  1.00  0.00     0.030 A 
ATOM     16  C   UNL A   1      32.727  21.191  23.307  1.00  0.00     0.016 A 
BRANCH   7  17
ATOM     17  C   UNL A   1      29.925  26.167  25.242  1.00  0.00     0.121 C 
ATOM     18  C   UNL A   1      28.888  26.580  24.192  1.00  0.00     0.037 C 
BRANCH  17  19
ATOM     19  C   UNL A   1      30.929  27.271  25.556  1.00  0.00    -0.025 A 
ATOM     20  C   UNL A   1      31.448  27.456  26.849  1.00  0.00     0.006 A 
ATOM     21  C   UNL A   1      31.339  28.159  24.548  1.00  0.00     0.006 A 
ATOM     22  C   UNL A   1      32.325  28.504  27.133  1.00  0.00     0.000 A 
ATOM     23  C   UNL A   1      32.231  29.199  24.830  1.00  0.00     0.000 A 
ATOM     24  C   UNL A   1      32.717  29.376  26.123  1.00  0.00     0.000 A 
ENDBRANCH  17  19
ENDBRANCH   7  17
ENDBRANCH   4   6
ENDBRANCH   3   4
ENDBRANCH   2   3
ENDBRANCH   1   2
BRANCH   1  25
ATOM     25  O   UNL A   1      37.726  21.138  25.047  1.00  0.00    -0.458 OA
BRANCH  25  26
ATOM     26  C   UNL A   1      38.869  20.943  25.744  1.00  0.00     0.338 C 
ATOM     27  O   UNL A   1      39.522  19.915  25.817  1.00  0.00    -0.246 OA
BRANCH  26  28
ATOM     28  C   UNL A   1      39.294  22.186  26.406  1.00  0.00     0.060 A 
ATOM     29  C   UNL A   1      38.669  23.388  26.080  1.00  0.00     0.016 A 
ATOM     30  C   UNL A   1      40.453  22.184  27.183  1.00  0.00     0.016 A 
ATOM     31  C   UNL A   1      39.287  24.594  26.415  1.00  0.00     0.010 A 
ATOM     32  C   UNL A   1      40.996  23.398  27.623  1.00  0.00     0.010 A 
ATOM     33  C   UNL A   1      40.456  24.623  27.198  1.00  0.00    -0.014 A 
BRANCH  33  34
ATOM     34  C   UNL A   1      41.117  25.928  27.524  1.00  0.00     0.031 A 
ATOM     35  C   UNL A   1      42.480  26.276  26.963  1.00  0.00     0.074 A 
ATOM     36  C   UNL A   1      40.481  26.830  28.301  1.00  0.00     0.049 A 
ATOM     37  N   UNL A   1      43.245  27.309  27.219  1.00  0.00    -0.248 NA
ATOM     38  C   UNL A   1      43.070  25.326  26.007  1.00  0.00     0.031 C 
ATOM     39  C   UNL A   1      39.166  26.637  28.915  1.00  0.00     0.029 A 
ATOM     40  N   UNL A   1      40.840  28.097  28.692  1.00  0.00    -0.354 N 
ATOM     41  C   UNL A   1      44.421  27.110  26.500  1.00  0.00     0.074 A 
ATOM     42  C   UNL A   1      44.276  25.842  25.816  1.00  0.00     0.031 C 
ATOM     43  C   UNL A   1      38.798  27.764  29.540  1.00  0.00     0.029 A 
ATOM     44  C   UNL A   1      39.888  28.729  29.460  1.00  0.00     0.049 A 
ATOM     45  H   UNL A   1      41.697  28.514  28.444  1.00  0.00     0.167 HD
ATOM     46  C   UNL A   1      45.515  27.910  26.410  1.00  0.00     0.034 A 
ATOM     47  C   UNL A   1      39.895  29.934  30.066  1.00  0.00     0.034 A 
ATOM     48  C   UNL A   1      45.634  29.197  27.057  1.00  0.00     0.049 A 
ATOM     49  C   UNL A   1      41.111  30.809  29.937  1.00  0.00     0.074 A 
ATOM     50  C   UNL A   1      46.697  30.086  27.026  1.00  0.00     0.029 A 
ATOM     51  N   UNL A   1      44.651  29.792  27.837  1.00  0.00    -0.354 N 
ATOM     52  N   UNL A   1      42.235  30.572  29.301  1.00  0.00    -0.248 NA
ATOM     53  C   UNL A   1      41.060  32.111  30.613  1.00  0.00     0.031 C 
ATOM     54  C   UNL A   1      46.377  31.190  27.827  1.00  0.00     0.029 A 
ATOM     55  C   UNL A   1      45.088  31.026  28.301  1.00  0.00     0.049 A 
ATOM     56  H   UNL A   1      43.771  29.397  28.033  1.00  0.00     0.167 HD
ATOM     57  C   UNL A   1      43.027  31.697  29.506  1.00  0.00     0.074 A 
ATOM     58  C   UNL A   1      42.234  32.628  30.283  1.00  0.00     0.031 C 
ATOM     59  C   UNL A   1      44.302  31.934  29.103  1.00  0.00     0.034 A 
BRANCH  46  60
ATOM     60  C   UNL A   1      46.696  27.395  25.616  1.00  0.00     0.023 A 
ATOM     61  C   UNL A   1      46.990  27.861  24.323  1.00  0.00     0.031 A 
ATOM     62  C   UNL A   1      47.536  26.405  26.160  1.00  0.00     0.131 A 
ATOM     63  C   UNL A   1      48.049  27.294  23.595  1.00  0.00     0.055 A 
ATOM     64  C   UNL A   1      48.636  25.901  25.462  1.00  0.00     0.041 A 
ATOM     65  F   UNL A   1      47.298  25.904  27.383  1.00  0.00    -0.206 F 
ATOM     66  C   UNL A   1      48.889  26.335  24.165  1.00  0.00     0.022 A 
BRANCH  63  67
ATOM     67  S   UNL A   1      48.233  27.730  21.844  1.00  0.00     0.124 S 
ATOM     68  O   UNL A   1      49.380  28.634  21.884  1.00  0.00    -0.237 OA
ATOM     69  O   UNL A   1      48.462  26.433  21.218  1.00  0.00    -0.237 OA
ATOM     70  O   UNL A   1      46.960  28.366  21.512  1.00  0.00    -0.744 OA
ENDBRANCH  63  67
ENDBRANCH  46  60
BRANCH  47  71
ATOM     71  C   UNL A   1      38.733  30.359  30.902  1.00  0.00     0.023 A 
ATOM     72  C   UNL A   1      37.653  31.061  30.346  1.00  0.00     0.031 A 
ATOM     73  C   UNL A   1      38.706  30.090  32.282  1.00  0.00     0.131 A 
ATOM     74  C   UNL A   1      36.608  31.502  31.174  1.00  0.00     0.055 A 
ATOM     75  C   UNL A   1      37.637  30.478  33.090  1.00  0.00     0.041 A 
ATOM     76  F   UNL A   1      39.715  29.421  32.865  1.00  0.00    -0.206 F 
ATOM     77  C   UNL A   1      36.585  31.200  32.538  1.00  0.00     0.022 A 
BRANCH  74  78
ATOM     78  S   UNL A   1      35.316  32.554  30.457  1.00  0.00     0.124 S 
ATOM     79  O   UNL A   1      36.036  33.802  30.234  1.00  0.00    -0.237 OA
ATOM     80  O   UNL A   1      34.944  31.805  29.261  1.00  0.00    -0.237 OA
ATOM     81  O   UNL A   1      34.296  32.599  31.502  1.00  0.00    -0.744 OA
ENDBRANCH  74  78
ENDBRANCH  47  71
BRANCH  59  82
ATOM     82  C   UNL A   1      44.894  33.266  29.494  1.00  0.00     0.023 A 
ATOM     83  C   UNL A   1      44.805  34.384  28.646  1.00  0.00     0.031 A 
ATOM     84  C   UNL A   1      45.608  33.403  30.696  1.00  0.00     0.131 A 
ATOM     85  C   UNL A   1      45.485  35.566  28.973  1.00  0.00     0.055 A 
ATOM     86  C   UNL A   1      46.231  34.602  31.047  1.00  0.00     0.041 A 
ATOM     87  F   UNL A   1      45.727  32.368  31.544  1.00  0.00    -0.206 F 
ATOM     88  C   UNL A   1      46.187  35.686  30.174  1.00  0.00     0.022 A 
BRANCH  85  89
ATOM     89  S   UNL A   1      45.544  36.903  27.748  1.00  0.00     0.124 S 
ATOM     90  O   UNL A   1      44.184  36.891  27.218  1.00  0.00    -0.237 OA
ATOM     91  O   UNL A   1      45.899  38.059  28.565  1.00  0.00    -0.237 OA
ATOM     92  O   UNL A   1      46.577  36.466  26.812  1.00  0.00    -0.744 OA
ENDBRANCH  85  89
ENDBRANCH  59  82
ENDBRANCH  33  34
ENDBRANCH  26  28
ENDBRANCH  25  26
ENDBRANCH   1  25
TORSDOF 16
ENDMDL
MODEL 3
REMARK VINA RESULT:     -12.8      1.362      1.626
REMARK SMILES C[C@H](c1ccccc1)N1C(=O)c2ccc(C(=O)OCCOC(=O)c3ccc(-c4c5nc(c(-c6cc(S(=O)(=O)[O-])ccc6F)c6ccc([nH]6)c(-c6cc(S(=O)(=O)[O-])ccc6F)c6nc(c(-c7cc(S(=O)(=O)[O-])ccc7F)c7ccc4[nH]7)C=C6)C=C5)cc3)cc2C1=O
REMARK SMILES IDX 20 1 19 2 18 3 16 4 17 5 15 6 9 7 10 8 89 9 11 10 12 11
REMARK SMILES IDX 88 12 90 13 13 14 87 15 14 16 2 17 1 18 3 19 4 20 8 21 5 22
REMARK SMILES IDX 7 23 6 24 21 25 22 26 23 27 24 28 25 29 86 30 26 31 85 32
REMARK SMILES IDX 27 33 28 34 29 35 79 36 30 37 84 38 78 39 80 40 31 41 83 42
REMARK SMILES IDX 77 43 76 44 32 46 64 47 44 48 63 49 45 50 48 51 62 52 81 53
REMARK SMILES IDX 46 54 47 55 61 57 82 58 49 59 33 60 34 61 42 62 35 63 41 64
REMARK SMILES IDX 43 65 40 66 36 67 37 68 38 69 39 70 65 71 66 72 74 73 67 74
REMARK SMILES IDX 73 75 75 76 72 77 68 78 69 79 70 80 71 81 50 82 51 83 59 84
REMARK SMILES IDX 52 85 58 86 60 87 57 88 53 89 54 90 55 91 56 92
REMARK H PARENT 80 45 48 56
REMARK Flexibility Score: inf
ROOT
ATOM      1  C   UNL A   1      36.800  19.952  24.947  1.00  0.00     0.275 C 
ENDROOT
BRANCH   1   2
ATOM      2  C   UNL A   1      35.373  20.413  25.213  1.00  0.00     0.275 C 
BRANCH   2   3
ATOM      3  O   UNL A   1      34.468  19.441  24.657  1.00  0.00    -0.458 OA
BRANCH   3   4
ATOM      4  C   UNL A   1      33.184  19.539  25.062  1.00  0.00     0.338 C 
ATOM      5  O   UNL A   1      32.550  18.724  25.711  1.00  0.00    -0.246 OA
BRANCH   4   6
ATOM      6  C   UNL A   1      32.602  20.809  24.578  1.00  0.00     0.060 A 
ATOM      7  N   UNL A   1      30.587  24.918  24.830  1.00  0.00    -0.267 N 
ATOM      8  C   UNL A   1      31.099  24.588  23.605  1.00  0.00     0.262 C 
ATOM      9  C   UNL A   1      30.730  23.892  25.724  1.00  0.00     0.262 C 
ATOM     10  O   UNL A   1      31.045  25.181  22.546  1.00  0.00    -0.269 OA
ATOM     11  C   UNL A   1      31.703  23.269  23.746  1.00  0.00     0.053 A 
ATOM     12  C   UNL A   1      31.484  22.844  25.043  1.00  0.00     0.054 A 
ATOM     13  O   UNL A   1      30.291  23.776  26.854  1.00  0.00    -0.269 OA
ATOM     14  C   UNL A   1      32.359  22.491  22.816  1.00  0.00     0.015 A 
ATOM     15  C   UNL A   1      31.934  21.622  25.500  1.00  0.00     0.030 A 
ATOM     16  C   UNL A   1      32.786  21.230  23.237  1.00  0.00     0.016 A 
BRANCH   7  17
ATOM     17  C   UNL A   1      29.916  26.173  25.157  1.00  0.00     0.121 C 
ATOM     18  C   UNL A   1      28.861  26.568  24.117  1.00  0.00     0.037 C 
BRANCH  17  19
ATOM     19  C   UNL A   1      30.912  27.289  25.449  1.00  0.00    -0.025 A 
ATOM     20  C   UNL A   1      31.757  27.255  26.572  1.00  0.00     0.006 A 
ATOM     21  C   UNL A   1      30.987  28.408  24.603  1.00  0.00     0.006 A 
ATOM     22  C   UNL A   1      32.626  28.309  26.856  1.00  0.00     0.000 A 
ATOM     23  C   UNL A   1      31.870  29.457  24.880  1.00  0.00     0.000 A 
ATOM     24  C   UNL A   1      32.683  29.411  26.009  1.00  0.00     0.000 A 
ENDBRANCH  17  19
ENDBRANCH   7  17
ENDBRANCH   4   6
ENDBRANCH   3   4
ENDBRANCH   2   3
ENDBRANCH   1   2
BRANCH   1  25
ATOM     25  O   UNL A   1      37.685  21.086  25.055  1.00  0.00    -0.458 OA
BRANCH  25  26
ATOM     26  C   UNL A   1      38.833  20.849  25.730  1.00  0.00     0.338 C 
ATOM     27  O   UNL A   1      39.456  19.801  25.782  1.00  0.00    -0.246 OA
BRANCH  26  28
ATOM     28  C   UNL A   1      39.309  22.072  26.396  1.00  0.00     0.060 A 
ATOM     29  C   UNL A   1      38.692  23.290  26.120  1.00  0.00     0.016 A 
ATOM     30  C   UNL A   1      40.499  22.035  27.123  1.00  0.00     0.016 A 
ATOM     31  C   UNL A   1      39.344  24.478  26.451  1.00  0.00     0.010 A 
ATOM     32  C   UNL A   1      41.082  23.230  27.563  1.00  0.00     0.010 A 
ATOM     33  C   UNL A   1      40.546  24.473  27.184  1.00  0.00    -0.014 A 
BRANCH  33  34
ATOM     34  C   UNL A   1      41.243  25.759  27.505  1.00  0.00     0.031 A 
ATOM     35  C   UNL A   1      40.584  26.810  28.374  1.00  0.00     0.074 A 
ATOM     36  C   UNL A   1      42.492  25.982  27.046  1.00  0.00     0.049 A 
ATOM     37  N   UNL A   1      40.993  28.020  28.670  1.00  0.00    -0.248 NA
ATOM     38  C   UNL A   1      39.284  26.465  28.968  1.00  0.00     0.031 C 
ATOM     39  C   UNL A   1      43.256  25.065  26.198  1.00  0.00     0.029 A 
ATOM     40  N   UNL A   1      43.353  27.034  27.245  1.00  0.00    -0.354 N 
ATOM     41  C   UNL A   1      39.984  28.595  29.439  1.00  0.00     0.074 A 
ATOM     42  C   UNL A   1      38.930  27.607  29.541  1.00  0.00     0.031 C 
ATOM     43  C   UNL A   1      44.489  25.557  26.010  1.00  0.00     0.029 A 
ATOM     44  C   UNL A   1      44.578  26.869  26.638  1.00  0.00     0.049 A 
ATOM     45  H   UNL A   1      43.117  27.831  27.773  1.00  0.00     0.167 HD
ATOM     46  C   UNL A   1      39.941  29.826  30.012  1.00  0.00     0.034 A 
ATOM     47  C   UNL A   1      45.646  27.689  26.558  1.00  0.00     0.034 A 
ATOM     48  C   UNL A   1      41.015  30.790  29.946  1.00  0.00     0.049 A 
ATOM     49  C   UNL A   1      45.580  29.039  27.216  1.00  0.00     0.074 A 
ATOM     50  C   UNL A   1      41.073  32.061  30.495  1.00  0.00     0.029 A 
ATOM     51  N   UNL A   1      42.233  30.586  29.308  1.00  0.00    -0.354 N 
ATOM     52  N   UNL A   1      44.591  29.584  27.885  1.00  0.00    -0.248 NA
ATOM     53  C   UNL A   1      46.773  29.887  27.102  1.00  0.00     0.031 C 
ATOM     54  C   UNL A   1      42.299  32.642  30.146  1.00  0.00     0.029 A 
ATOM     55  C   UNL A   1      43.038  31.710  29.440  1.00  0.00     0.049 A 
ATOM     56  H   UNL A   1      42.488  29.763  28.831  1.00  0.00     0.167 HD
ATOM     57  C   UNL A   1      45.044  30.842  28.268  1.00  0.00     0.074 A 
ATOM     58  C   UNL A   1      46.409  30.954  27.795  1.00  0.00     0.031 C 
ATOM     59  C   UNL A   1      44.386  31.825  28.936  1.00  0.00     0.034 A 
BRANCH  46  60
ATOM     60  C   UNL A   1      38.666  30.221  30.726  1.00  0.00     0.023 A 
ATOM     61  C   UNL A   1      37.619  30.893  30.073  1.00  0.00     0.031 A 
ATOM     62  C   UNL A   1      38.502  29.929  32.094  1.00  0.00     0.131 A 
ATOM     63  C   UNL A   1      36.490  31.310  30.798  1.00  0.00     0.055 A 
ATOM     64  C   UNL A   1      37.343  30.275  32.792  1.00  0.00     0.041 A 
ATOM     65  F   UNL A   1      39.473  29.305  32.780  1.00  0.00    -0.206 F 
ATOM     66  C   UNL A   1      36.334  30.983  32.147  1.00  0.00     0.022 A 
BRANCH  63  67
ATOM     67  S   UNL A   1      35.289  32.401  29.987  1.00  0.00     0.124 S 
ATOM     68  O   UNL A   1      34.797  31.547  28.908  1.00  0.00    -0.237 OA
ATOM     69  O   UNL A   1      34.345  32.684  31.061  1.00  0.00    -0.237 OA
ATOM     70  O   UNL A   1      36.097  33.538  29.551  1.00  0.00    -0.744 OA
ENDBRANCH  63  67
ENDBRANCH  46  60
BRANCH  47  71
ATOM     71  C   UNL A   1      46.848  27.279  25.774  1.00  0.00     0.023 A 
ATOM     72  C   UNL A   1      47.037  27.708  24.451  1.00  0.00     0.031 A 
ATOM     73  C   UNL A   1      47.814  26.423  26.334  1.00  0.00     0.131 A 
ATOM     74  C   UNL A   1      48.146  27.251  23.721  1.00  0.00     0.055 A 
ATOM     75  C   UNL A   1      48.944  26.020  25.625  1.00  0.00     0.041 A 
ATOM     76  F   UNL A   1      47.681  25.983  27.596  1.00  0.00    -0.206 F 
ATOM     77  C   UNL A   1      49.110  26.424  24.305  1.00  0.00     0.022 A 
BRANCH  74  78
ATOM     78  S   UNL A   1      48.269  27.684  21.964  1.00  0.00     0.124 S 
ATOM     79  O   UNL A   1      48.454  26.376  21.346  1.00  0.00    -0.237 OA
ATOM     80  O   UNL A   1      46.985  28.332  21.721  1.00  0.00    -0.237 OA
ATOM     81  O   UNL A   1      49.431  28.569  21.913  1.00  0.00    -0.744 OA
ENDBRANCH  74  78
ENDBRANCH  47  71
BRANCH  59  82
ATOM     82  C   UNL A   1      45.160  33.094  29.197  1.00  0.00     0.023 A 
ATOM     83  C   UNL A   1      45.918  33.261  30.371  1.00  0.00     0.031 A 
ATOM     84  C   UNL A   1      45.088  34.170  28.298  1.00  0.00     0.131 A 
ATOM     85  C   UNL A   1      46.510  34.501  30.650  1.00  0.00     0.055 A 
ATOM     86  C   UNL A   1      45.731  35.383  28.552  1.00  0.00     0.041 A 
ATOM     87  F   UNL A   1      44.377  34.068  27.163  1.00  0.00    -0.206 F 
ATOM     88  C   UNL A   1      46.432  35.559  29.742  1.00  0.00     0.022 A 
BRANCH  85  89
ATOM     89  S   UNL A   1      47.277  34.752  32.275  1.00  0.00     0.124 S 
ATOM     90  O   UNL A   1      48.477  33.927  32.176  1.00  0.00    -0.237 OA
ATOM     91  O   UNL A   1      47.495  36.194  32.297  1.00  0.00    -0.237 OA
ATOM     92  O   UNL A   1      46.266  34.264  33.211  1.00  0.00    -0.744 OA
ENDBRANCH  85  89
ENDBRANCH  59  82
ENDBRANCH  33  34
ENDBRANCH  26  28
ENDBRANCH  25  26
ENDBRANCH   1  25
TORSDOF 16
ENDMDL
