MODEL 1
REMARK VINA RESULT:      -8.8      0.000      0.000
REMARK SMILES C=CC[N@@H+](CC(=O)OCCOC(=O)c1ccc(-c2c3nc(c(-c4cc(S(=O)(=O)[O-])ccc4F)c4ccc([nH]4)c(-c4cc(S(=O)(=O)[O-])ccc4F)c4nc(c(-c5cc(S(=O)(=O)[O-])ccc5F)c5ccc2[nH]5)C=C4)C=C3)cc1)Cc1ccc(C(F)(F)F)cc1
REMARK SMILES IDX 9 1 8 2 6 3 7 4 5 5 4 6 3 8 2 9 1 10 77 11 78 12 79 13 87 14
REMARK SMILES IDX 80 15 86 16 81 17 82 18 83 19 84 20 85 21 10 22 11 23 12 24
REMARK SMILES IDX 13 25 14 26 15 27 76 28 16 29 75 30 17 31 18 32 19 33 69 34
REMARK SMILES IDX 20 35 74 36 68 37 70 38 21 39 73 40 67 41 66 42 22 44 54 45
REMARK SMILES IDX 34 46 53 47 35 48 38 49 52 50 71 51 36 52 37 53 51 55 72 56
REMARK SMILES IDX 39 57 23 58 24 59 32 60 25 61 31 62 33 63 30 64 26 65 27 66
REMARK SMILES IDX 28 67 29 68 55 69 56 70 64 71 57 72 63 73 65 74 62 75 58 76
REMARK SMILES IDX 59 77 60 78 61 79 40 80 41 81 49 82 42 83 48 84 50 85 47 86
REMARK SMILES IDX 43 87 44 88 45 89 46 90
REMARK H PARENT 4 7 70 43 38 54
REMARK Flexibility Score: inf
ROOT
ATOM      1  C   UNL A   1      34.870  33.307  29.809  1.00  0.00     0.274 C 
ENDROOT
BRANCH   1   2
ATOM      2  O   UNL A   1      34.290  32.439  30.810  1.00  0.00    -0.458 OA
BRANCH   2   3
ATOM      3  C   UNL A   1      34.638  32.697  32.100  1.00  0.00     0.361 C 
ATOM      4  O   UNL A   1      33.872  33.209  32.918  1.00  0.00    -0.245 OA
BRANCH   3   5
ATOM      5  C   UNL A   1      36.028  32.209  32.520  1.00  0.00     0.387 C 
BRANCH   5   6
ATOM      6  N   UNL A   1      36.940  33.159  33.157  1.00  0.00    -0.319 N 
ATOM      7  H   UNL A   1      37.878  32.858  32.896  1.00  0.00     0.349 HD
BRANCH   6   8
ATOM      8  C   UNL A   1      37.222  32.971  34.558  1.00  0.00     0.291 C 
BRANCH   8   9
ATOM      9  C   UNL A   1      38.453  32.141  34.774  1.00  0.00     0.025 C 
ATOM     10  C   UNL A   1      38.458  30.819  34.988  1.00  0.00     0.010 C 
ENDBRANCH   8   9
ENDBRANCH   6   8
BRANCH   6  11
ATOM     11  C   UNL A   1      37.313  34.380  32.443  1.00  0.00     0.299 C 
BRANCH  11  12
ATOM     12  C   UNL A   1      38.596  34.392  31.630  1.00  0.00     0.006 A 
ATOM     13  C   UNL A   1      39.865  34.362  32.213  1.00  0.00     0.010 A 
ATOM     14  C   UNL A   1      38.522  34.403  30.223  1.00  0.00     0.010 A 
ATOM     15  C   UNL A   1      41.018  34.486  31.433  1.00  0.00     0.013 A 
ATOM     16  C   UNL A   1      39.672  34.540  29.438  1.00  0.00     0.013 A 
ATOM     17  C   UNL A   1      40.930  34.628  30.042  1.00  0.00     0.056 A 
BRANCH  17  18
ATOM     18  C   UNL A   1      42.168  34.881  29.225  1.00  0.00     0.416 C 
ATOM     19  F   UNL A   1      41.892  35.473  28.025  1.00  0.00    -0.166 F 
ATOM     20  F   UNL A   1      43.053  35.707  29.846  1.00  0.00    -0.166 F 
ATOM     21  F   UNL A   1      42.860  33.748  28.917  1.00  0.00    -0.166 F 
ENDBRANCH  17  18
ENDBRANCH  11  12
ENDBRANCH   6  11
ENDBRANCH   5   6
ENDBRANCH   3   5
ENDBRANCH   2   3
ENDBRANCH   1   2
BRANCH   1  22
ATOM     22  C   UNL A   1      34.949  32.620  28.432  1.00  0.00     0.275 C 
BRANCH  22  23
ATOM     23  O   UNL A   1      34.171  31.405  28.308  1.00  0.00    -0.458 OA
BRANCH  23  24
ATOM     24  C   UNL A   1      34.862  30.371  27.793  1.00  0.00     0.338 C 
ATOM     25  O   UNL A   1      34.518  29.655  26.876  1.00  0.00    -0.246 OA
BRANCH  24  26
ATOM     26  C   UNL A   1      36.158  30.098  28.389  1.00  0.00     0.060 A 
ATOM     27  C   UNL A   1      37.261  30.169  27.527  1.00  0.00     0.016 A 
ATOM     28  C   UNL A   1      36.246  29.488  29.639  1.00  0.00     0.016 A 
ATOM     29  C   UNL A   1      38.474  29.627  27.920  1.00  0.00     0.010 A 
ATOM     30  C   UNL A   1      37.470  28.959  30.038  1.00  0.00     0.010 A 
ATOM     31  C   UNL A   1      38.584  29.028  29.182  1.00  0.00    -0.014 A 
BRANCH  31  32
ATOM     32  C   UNL A   1      39.910  28.604  29.667  1.00  0.00     0.031 A 
ATOM     33  C   UNL A   1      40.668  29.406  30.674  1.00  0.00     0.074 A 
ATOM     34  C   UNL A   1      40.416  27.480  29.132  1.00  0.00     0.049 A 
ATOM     35  N   UNL A   1      41.891  29.236  31.102  1.00  0.00    -0.248 NA
ATOM     36  C   UNL A   1      39.964  30.544  31.282  1.00  0.00     0.031 C 
ATOM     37  C   UNL A   1      39.714  26.622  28.170  1.00  0.00     0.029 A 
ATOM     38  N   UNL A   1      41.634  26.882  29.291  1.00  0.00    -0.354 N 
ATOM     39  C   UNL A   1      42.112  30.243  32.033  1.00  0.00     0.074 A 
ATOM     40  C   UNL A   1      40.896  31.031  32.094  1.00  0.00     0.031 C 
ATOM     41  C   UNL A   1      40.532  25.630  27.795  1.00  0.00     0.029 A 
ATOM     42  C   UNL A   1      41.820  25.812  28.452  1.00  0.00     0.049 A 
ATOM     43  H   UNL A   1      42.308  27.187  29.940  1.00  0.00     0.167 HD
ATOM     44  C   UNL A   1      43.232  30.478  32.759  1.00  0.00     0.034 A 
ATOM     45  C   UNL A   1      42.925  25.091  28.198  1.00  0.00     0.034 A 
ATOM     46  C   UNL A   1      44.435  29.683  32.650  1.00  0.00     0.049 A 
ATOM     47  C   UNL A   1      44.179  25.421  28.951  1.00  0.00     0.074 A 
ATOM     48  C   UNL A   1      45.628  29.814  33.339  1.00  0.00     0.029 A 
ATOM     49  N   UNL A   1      44.598  28.611  31.779  1.00  0.00    -0.354 N 
ATOM     50  N   UNL A   1      44.382  26.380  29.824  1.00  0.00    -0.248 NA
ATOM     51  C   UNL A   1      45.344  24.571  28.695  1.00  0.00     0.031 C 
ATOM     52  C   UNL A   1      46.527  28.858  32.848  1.00  0.00     0.029 A 
ATOM     53  C   UNL A   1      45.878  28.091  31.893  1.00  0.00     0.049 A 
ATOM     54  H   UNL A   1      43.905  28.269  31.169  1.00  0.00     0.167 HD
ATOM     55  C   UNL A   1      45.697  26.236  30.241  1.00  0.00     0.074 A 
ATOM     56  C   UNL A   1      46.238  25.098  29.521  1.00  0.00     0.031 C 
ATOM     57  C   UNL A   1      46.394  26.968  31.148  1.00  0.00     0.034 A 
BRANCH  44  58
ATOM     58  C   UNL A   1      43.228  31.668  33.685  1.00  0.00     0.023 A 
ATOM     59  C   UNL A   1      42.795  31.569  35.019  1.00  0.00     0.031 A 
ATOM     60  C   UNL A   1      43.656  32.925  33.223  1.00  0.00     0.131 A 
ATOM     61  C   UNL A   1      42.758  32.715  35.830  1.00  0.00     0.055 A 
ATOM     62  C   UNL A   1      43.672  34.049  34.050  1.00  0.00     0.041 A 
ATOM     63  F   UNL A   1      44.060  33.083  31.952  1.00  0.00    -0.206 F 
ATOM     64  C   UNL A   1      43.211  33.950  35.360  1.00  0.00     0.022 A 
BRANCH  61  65
ATOM     65  S   UNL A   1      42.012  32.593  37.479  1.00  0.00     0.124 S 
ATOM     66  O   UNL A   1      41.916  31.146  37.656  1.00  0.00    -0.237 OA
ATOM     67  O   UNL A   1      42.987  33.277  38.319  1.00  0.00    -0.237 OA
ATOM     68  O   UNL A   1      40.730  33.279  37.327  1.00  0.00    -0.744 OA
ENDBRANCH  61  65
ENDBRANCH  44  58
BRANCH  45  69
ATOM     69  C   UNL A   1      42.886  24.040  27.152  1.00  0.00     0.023 A 
ATOM     70  C   UNL A   1      42.322  22.784  27.405  1.00  0.00     0.031 A 
ATOM     71  C   UNL A   1      43.373  24.306  25.858  1.00  0.00     0.131 A 
ATOM     72  C   UNL A   1      42.271  21.828  26.379  1.00  0.00     0.055 A 
ATOM     73  C   UNL A   1      43.291  23.365  24.834  1.00  0.00     0.041 A 
ATOM     74  F   UNL A   1      43.904  25.505  25.566  1.00  0.00    -0.206 F 
ATOM     75  C   UNL A   1      42.742  22.114  25.094  1.00  0.00     0.022 A 
BRANCH  72  76
ATOM     76  S   UNL A   1      41.602  20.187  26.758  1.00  0.00     0.124 S 
ATOM     77  O   UNL A   1      40.771  20.464  27.925  1.00  0.00    -0.237 OA
ATOM     78  O   UNL A   1      40.891  19.859  25.527  1.00  0.00    -0.237 OA
ATOM     79  O   UNL A   1      42.796  19.385  27.018  1.00  0.00    -0.744 OA
ENDBRANCH  72  76
ENDBRANCH  45  69
BRANCH  57  80
ATOM     80  C   UNL A   1      47.797  26.511  31.429  1.00  0.00     0.023 A 
ATOM     81  C   UNL A   1      48.064  25.493  32.358  1.00  0.00     0.031 A 
ATOM     82  C   UNL A   1      48.878  27.126  30.777  1.00  0.00     0.131 A 
ATOM     83  C   UNL A   1      49.393  25.150  32.645  1.00  0.00     0.055 A 
ATOM     84  C   UNL A   1      50.195  26.752  31.036  1.00  0.00     0.041 A 
ATOM     85  F   UNL A   1      48.667  28.107  29.884  1.00  0.00    -0.206 F 
ATOM     86  C   UNL A   1      50.459  25.765  31.982  1.00  0.00     0.022 A 
BRANCH  83  87
ATOM     87  S   UNL A   1      49.716  23.925  33.943  1.00  0.00     0.124 S 
ATOM     88  O   UNL A   1      48.399  23.782  34.558  1.00  0.00    -0.237 OA
ATOM     89  O   UNL A   1      50.191  22.775  33.181  1.00  0.00    -0.237 OA
ATOM     90  O   UNL A   1      50.725  24.570  34.781  1.00  0.00    -0.744 OA
ENDBRANCH  83  87
ENDBRANCH  57  80
ENDBRANCH  31  32
ENDBRANCH  24  26
ENDBRANCH  23  24
ENDBRANCH  22  23
ENDBRANCH   1  22
TORSDOF 20
ENDMDL
MODEL 2
REMARK VINA RESULT:      -8.7      4.897     10.354
REMARK SMILES C=CC[N@@H+](CC(=O)OCCOC(=O)c1ccc(-c2c3nc(c(-c4cc(S(=O)(=O)[O-])ccc4F)c4ccc([nH]4)c(-c4cc(S(=O)(=O)[O-])ccc4F)c4nc(c(-c5cc(S(=O)(=O)[O-])ccc5F)c5ccc2[nH]5)C=C4)C=C3)cc1)Cc1ccc(C(F)(F)F)cc1
REMARK SMILES IDX 9 1 8 2 6 3 7 4 5 5 4 6 3 8 2 9 1 10 77 11 78 12 79 13 87 14
REMARK SMILES IDX 80 15 86 16 81 17 82 18 83 19 84 20 85 21 10 22 11 23 12 24
REMARK SMILES IDX 13 25 14 26 15 27 76 28 16 29 75 30 17 31 18 32 19 33 69 34
REMARK SMILES IDX 20 35 74 36 68 37 70 38 21 39 73 40 67 41 66 42 22 44 54 45
REMARK SMILES IDX 34 46 53 47 35 48 38 49 52 50 71 51 36 52 37 53 51 55 72 56
REMARK SMILES IDX 39 57 23 58 24 59 32 60 25 61 31 62 33 63 30 64 26 65 27 66
REMARK SMILES IDX 28 67 29 68 55 69 56 70 64 71 57 72 63 73 65 74 62 75 58 76
REMARK SMILES IDX 59 77 60 78 61 79 40 80 41 81 49 82 42 83 48 84 50 85 47 86
REMARK SMILES IDX 43 87 44 88 45 89 46 90
REMARK H PARENT 4 7 70 43 38 54
REMARK Flexibility Score: inf
ROOT
ATOM      1  C   UNL A   1      33.259  28.185  25.219  1.00  0.00     0.274 C 
ENDROOT
BRANCH   1   2
ATOM      2  O   UNL A   1      34.135  27.831  24.124  1.00  0.00    -0.458 OA
BRANCH   2   3
ATOM      3  C   UNL A   1      33.600  27.031  23.163  1.00  0.00     0.361 C 
ATOM      4  O   UNL A   1      33.765  27.219  21.957  1.00  0.00    -0.245 OA
BRANCH   3   5
ATOM      5  C   UNL A   1      32.853  25.795  23.673  1.00  0.00     0.387 C 
BRANCH   5   6
ATOM      6  N   UNL A   1      31.390  25.815  23.680  1.00  0.00    -0.319 N 
ATOM      7  H   UNL A   1      31.128  26.653  24.197  1.00  0.00     0.349 HD
BRANCH   6   8
ATOM      8  C   UNL A   1      30.719  24.965  24.630  1.00  0.00     0.291 C 
BRANCH   8   9
ATOM      9  C   UNL A   1      31.099  25.296  26.044  1.00  0.00     0.025 C 
ATOM     10  C   UNL A   1      32.212  24.872  26.657  1.00  0.00     0.010 C 
ENDBRANCH   8   9
ENDBRANCH   6   8
BRANCH   6  11
ATOM     11  C   UNL A   1      30.680  26.471  22.582  1.00  0.00     0.299 C 
BRANCH  11  12
ATOM     12  C   UNL A   1      29.940  27.769  22.859  1.00  0.00     0.006 A 
ATOM     13  C   UNL A   1      28.553  27.833  23.017  1.00  0.00     0.010 A 
ATOM     14  C   UNL A   1      30.670  28.965  22.996  1.00  0.00     0.010 A 
ATOM     15  C   UNL A   1      27.902  29.061  23.160  1.00  0.00     0.013 A 
ATOM     16  C   UNL A   1      30.024  30.199  23.126  1.00  0.00     0.013 A 
ATOM     17  C   UNL A   1      28.627  30.261  23.164  1.00  0.00     0.056 A 
BRANCH  17  18
ATOM     18  C   UNL A   1      27.908  31.582  23.198  1.00  0.00     0.416 C 
ATOM     19  F   UNL A   1      28.737  32.622  23.508  1.00  0.00    -0.166 F 
ATOM     20  F   UNL A   1      27.341  31.907  22.005  1.00  0.00    -0.166 F 
ATOM     21  F   UNL A   1      26.905  31.634  24.120  1.00  0.00    -0.166 F 
ENDBRANCH  17  18
ENDBRANCH  11  12
ENDBRANCH   6  11
ENDBRANCH   5   6
ENDBRANCH   3   5
ENDBRANCH   2   3
ENDBRANCH   1   2
BRANCH   1  22
ATOM     22  C   UNL A   1      33.103  29.712  25.358  1.00  0.00     0.275 C 
BRANCH  22  23
ATOM     23  O   UNL A   1      32.599  30.161  26.639  1.00  0.00    -0.458 OA
BRANCH  23  24
ATOM     24  C   UNL A   1      33.284  31.199  27.155  1.00  0.00     0.338 C 
ATOM     25  O   UNL A   1      32.901  32.348  27.244  1.00  0.00    -0.246 OA
BRANCH  24  26
ATOM     26  C   UNL A   1      34.610  30.907  27.670  1.00  0.00     0.060 A 
ATOM     27  C   UNL A   1      34.773  29.656  28.281  1.00  0.00     0.016 A 
ATOM     28  C   UNL A   1      35.543  31.928  27.837  1.00  0.00     0.016 A 
ATOM     29  C   UNL A   1      35.889  29.417  29.066  1.00  0.00     0.010 A 
ATOM     30  C   UNL A   1      36.672  31.680  28.614  1.00  0.00     0.010 A 
ATOM     31  C   UNL A   1      36.847  30.426  29.228  1.00  0.00    -0.014 A 
BRANCH  31  32
ATOM     32  C   UNL A   1      38.110  30.119  29.922  1.00  0.00     0.031 A 
ATOM     33  C   UNL A   1      39.099  29.151  29.356  1.00  0.00     0.074 A 
ATOM     34  C   UNL A   1      38.311  30.725  31.104  1.00  0.00     0.049 A 
ATOM     35  N   UNL A   1      40.188  28.681  29.903  1.00  0.00    -0.248 NA
ATOM     36  C   UNL A   1      38.833  28.648  28.001  1.00  0.00     0.031 C 
ATOM     37  C   UNL A   1      37.406  31.715  31.701  1.00  0.00     0.029 A 
ATOM     38  N   UNL A   1      39.312  30.586  32.023  1.00  0.00    -0.354 N 
ATOM     39  C   UNL A   1      40.746  27.824  28.964  1.00  0.00     0.074 A 
ATOM     40  C   UNL A   1      39.862  27.829  27.815  1.00  0.00     0.031 C 
ATOM     41  C   UNL A   1      37.875  32.061  32.907  1.00  0.00     0.029 A 
ATOM     42  C   UNL A   1      39.079  31.287  33.180  1.00  0.00     0.049 A 
ATOM     43  H   UNL A   1      40.116  30.039  31.872  1.00  0.00     0.167 HD
ATOM     44  C   UNL A   1      41.890  27.104  29.067  1.00  0.00     0.034 A 
ATOM     45  C   UNL A   1      39.734  31.265  34.354  1.00  0.00     0.034 A 
ATOM     46  C   UNL A   1      42.733  27.107  30.242  1.00  0.00     0.049 A 
ATOM     47  C   UNL A   1      40.949  30.396  34.474  1.00  0.00     0.074 A 
ATOM     48  C   UNL A   1      43.919  26.430  30.462  1.00  0.00     0.029 A 
ATOM     49  N   UNL A   1      42.462  27.818  31.407  1.00  0.00    -0.354 N 
ATOM     50  N   UNL A   1      41.466  29.582  33.584  1.00  0.00    -0.248 NA
ATOM     51  C   UNL A   1      41.673  30.449  35.747  1.00  0.00     0.031 C 
ATOM     52  C   UNL A   1      44.338  26.690  31.774  1.00  0.00     0.029 A 
ATOM     53  C   UNL A   1      43.444  27.574  32.355  1.00  0.00     0.049 A 
ATOM     54  H   UNL A   1      41.687  28.411  31.539  1.00  0.00     0.167 HD
ATOM     55  C   UNL A   1      42.595  29.039  34.182  1.00  0.00     0.074 A 
ATOM     56  C   UNL A   1      42.679  29.619  35.510  1.00  0.00     0.031 C 
ATOM     57  C   UNL A   1      43.490  28.153  33.677  1.00  0.00     0.034 A 
BRANCH  44  58
ATOM     58  C   UNL A   1      42.262  26.214  27.907  1.00  0.00     0.023 A 
ATOM     59  C   UNL A   1      41.773  24.902  27.792  1.00  0.00     0.031 A 
ATOM     60  C   UNL A   1      43.128  26.685  26.905  1.00  0.00     0.131 A 
ATOM     61  C   UNL A   1      42.187  24.091  26.723  1.00  0.00     0.055 A 
ATOM     62  C   UNL A   1      43.492  25.895  25.813  1.00  0.00     0.041 A 
ATOM     63  F   UNL A   1      43.643  27.923  26.975  1.00  0.00    -0.206 F 
ATOM     64  C   UNL A   1      43.028  24.585  25.723  1.00  0.00     0.022 A 
BRANCH  61  65
ATOM     65  S   UNL A   1      41.694  22.345  26.709  1.00  0.00     0.124 S 
ATOM     66  O   UNL A   1      40.237  22.447  26.753  1.00  0.00    -0.237 OA
ATOM     67  O   UNL A   1      42.265  21.865  25.456  1.00  0.00    -0.237 OA
ATOM     68  O   UNL A   1      42.309  21.806  27.921  1.00  0.00    -0.744 OA
ENDBRANCH  61  65
ENDBRANCH  44  58
BRANCH  45  69
ATOM     69  C   UNL A   1      39.205  32.048  35.498  1.00  0.00     0.023 A 
ATOM     70  C   UNL A   1      38.478  31.433  36.524  1.00  0.00     0.031 A 
ATOM     71  C   UNL A   1      39.469  33.427  35.598  1.00  0.00     0.131 A 
ATOM     72  C   UNL A   1      38.025  32.202  37.607  1.00  0.00     0.055 A 
ATOM     73  C   UNL A   1      39.044  34.179  36.691  1.00  0.00     0.041 A 
ATOM     74  F   UNL A   1      40.180  34.053  34.645  1.00  0.00    -0.206 F 
ATOM     75  C   UNL A   1      38.311  33.567  37.702  1.00  0.00     0.022 A 
BRANCH  72  76
ATOM     76  S   UNL A   1      37.023  31.393  38.883  1.00  0.00     0.124 S 
ATOM     77  O   UNL A   1      35.813  32.208  38.876  1.00  0.00    -0.237 OA
ATOM     78  O   UNL A   1      36.890  30.041  38.350  1.00  0.00    -0.237 OA
ATOM     79  O   UNL A   1      37.846  31.508  40.085  1.00  0.00    -0.744 OA
ENDBRANCH  72  76
ENDBRANCH  45  69
BRANCH  57  80
ATOM     80  C   UNL A   1      44.652  27.809  34.564  1.00  0.00     0.023 A 
ATOM     81  C   UNL A   1      44.607  26.712  35.440  1.00  0.00     0.031 A 
ATOM     82  C   UNL A   1      45.806  28.610  34.551  1.00  0.00     0.131 A 
ATOM     83  C   UNL A   1      45.683  26.472  36.305  1.00  0.00     0.055 A 
ATOM     84  C   UNL A   1      46.890  28.342  35.384  1.00  0.00     0.041 A 
ATOM     85  F   UNL A   1      45.889  29.671  33.732  1.00  0.00    -0.206 F 
ATOM     86  C   UNL A   1      46.829  27.273  36.275  1.00  0.00     0.022 A 
BRANCH  83  87
ATOM     87  S   UNL A   1      45.546  25.130  37.515  1.00  0.00     0.124 S 
ATOM     88  O   UNL A   1      44.289  25.453  38.184  1.00  0.00    -0.237 OA
ATOM     89  O   UNL A   1      45.530  23.940  36.669  1.00  0.00    -0.237 OA
ATOM     90  O   UNL A   1      46.744  25.285  38.339  1.00  0.00    -0.744 OA
ENDBRANCH  83  87
ENDBRANCH  57  80
ENDBRANCH  31  32
ENDBRANCH  24  26
ENDBRANCH  23  24
ENDBRANCH  22  23
ENDBRANCH   1  22
TORSDOF 20
ENDMDL
MODEL 3
REMARK VINA RESULT:      -8.7      4.809     10.474
REMARK SMILES C=CC[N@@H+](CC(=O)OCCOC(=O)c1ccc(-c2c3nc(c(-c4cc(S(=O)(=O)[O-])ccc4F)c4ccc([nH]4)c(-c4cc(S(=O)(=O)[O-])ccc4F)c4nc(c(-c5cc(S(=O)(=O)[O-])ccc5F)c5ccc2[nH]5)C=C4)C=C3)cc1)Cc1ccc(C(F)(F)F)cc1
REMARK SMILES IDX 9 1 8 2 6 3 7 4 5 5 4 6 3 8 2 9 1 10 77 11 78 12 79 13 87 14
REMARK SMILES IDX 80 15 86 16 81 17 82 18 83 19 84 20 85 21 10 22 11 23 12 24
REMARK SMILES IDX 13 25 14 26 15 27 76 28 16 29 75 30 17 31 18 32 19 33 69 34
REMARK SMILES IDX 20 35 74 36 68 37 70 38 21 39 73 40 67 41 66 42 22 44 54 45
REMARK SMILES IDX 34 46 53 47 35 48 38 49 52 50 71 51 36 52 37 53 51 55 72 56
REMARK SMILES IDX 39 57 23 58 24 59 32 60 25 61 31 62 33 63 30 64 26 65 27 66
REMARK SMILES IDX 28 67 29 68 55 69 56 70 64 71 57 72 63 73 65 74 62 75 58 76
REMARK SMILES IDX 59 77 60 78 61 79 40 80 41 81 49 82 42 83 48 84 50 85 47 86
REMARK SMILES IDX 43 87 44 88 45 89 46 90
REMARK H PARENT 4 7 70 43 38 54
REMARK Flexibility Score: inf
ROOT
ATOM      1  C   UNL A   1      31.380  28.651  25.979  1.00  0.00     0.274 C 
ENDROOT
BRANCH   1   2
ATOM      2  O   UNL A   1      31.759  27.317  26.390  1.00  0.00    -0.458 OA
BRANCH   2   3
ATOM      3  C   UNL A   1      32.769  26.737  25.686  1.00  0.00     0.361 C 
ATOM      4  O   UNL A   1      33.940  27.115  25.748  1.00  0.00    -0.245 OA
BRANCH   3   5
ATOM      5  C   UNL A   1      32.383  25.496  24.877  1.00  0.00     0.387 C 
BRANCH   5   6
ATOM      6  N   UNL A   1      32.370  25.588  23.417  1.00  0.00    -0.319 N 
ATOM      7  H   UNL A   1      32.304  24.628  23.080  1.00  0.00     0.349 HD
BRANCH   6   8
ATOM      8  C   UNL A   1      33.634  25.781  22.752  1.00  0.00     0.291 C 
BRANCH   8   9
ATOM      9  C   UNL A   1      33.668  27.065  21.976  1.00  0.00     0.025 C 
ATOM     10  C   UNL A   1      34.238  28.202  22.399  1.00  0.00     0.010 C 
ENDBRANCH   8   9
ENDBRANCH   6   8
BRANCH   6  11
ATOM     11  C   UNL A   1      31.092  25.745  22.723  1.00  0.00     0.299 C 
BRANCH  11  12
ATOM     12  C   UNL A   1      30.317  27.040  22.895  1.00  0.00     0.006 A 
ATOM     13  C   UNL A   1      29.059  27.097  23.501  1.00  0.00     0.010 A 
ATOM     14  C   UNL A   1      30.888  28.250  22.457  1.00  0.00     0.010 A 
ATOM     15  C   UNL A   1      28.333  28.290  23.538  1.00  0.00     0.013 A 
ATOM     16  C   UNL A   1      30.162  29.446  22.480  1.00  0.00     0.013 A 
ATOM     17  C   UNL A   1      28.857  29.466  22.983  1.00  0.00     0.056 A 
BRANCH  17  18
ATOM     18  C   UNL A   1      28.019  30.714  22.922  1.00  0.00     0.416 C 
ATOM     19  F   UNL A   1      28.700  31.823  23.340  1.00  0.00    -0.166 F 
ATOM     20  F   UNL A   1      27.587  31.002  21.664  1.00  0.00    -0.166 F 
ATOM     21  F   UNL A   1      26.903  30.661  23.702  1.00  0.00    -0.166 F 
ENDBRANCH  17  18
ENDBRANCH  11  12
ENDBRANCH   6  11
ENDBRANCH   5   6
ENDBRANCH   3   5
ENDBRANCH   2   3
ENDBRANCH   1   2
BRANCH   1  22
ATOM     22  C   UNL A   1      31.958  29.727  26.918  1.00  0.00     0.275 C 
BRANCH  22  23
ATOM     23  O   UNL A   1      32.973  30.573  26.328  1.00  0.00    -0.458 OA
BRANCH  23  24
ATOM     24  C   UNL A   1      33.512  31.454  27.192  1.00  0.00     0.338 C 
ATOM     25  O   UNL A   1      32.996  32.471  27.607  1.00  0.00    -0.246 OA
BRANCH  24  26
ATOM     26  C   UNL A   1      34.842  31.143  27.687  1.00  0.00     0.060 A 
ATOM     27  C   UNL A   1      35.036  29.837  28.155  1.00  0.00     0.016 A 
ATOM     28  C   UNL A   1      35.743  32.165  27.979  1.00  0.00     0.016 A 
ATOM     29  C   UNL A   1      36.151  29.542  28.922  1.00  0.00     0.010 A 
ATOM     30  C   UNL A   1      36.872  31.863  28.737  1.00  0.00     0.010 A 
ATOM     31  C   UNL A   1      37.078  30.553  29.208  1.00  0.00    -0.014 A 
BRANCH  31  32
ATOM     32  C   UNL A   1      38.344  30.206  29.878  1.00  0.00     0.031 A 
ATOM     33  C   UNL A   1      39.299  29.222  29.284  1.00  0.00     0.074 A 
ATOM     34  C   UNL A   1      38.578  30.792  31.064  1.00  0.00     0.049 A 
ATOM     35  N   UNL A   1      40.384  28.718  29.808  1.00  0.00    -0.248 NA
ATOM     36  C   UNL A   1      39.000  28.743  27.927  1.00  0.00     0.031 C 
ATOM     37  C   UNL A   1      37.707  31.795  31.688  1.00  0.00     0.029 A 
ATOM     38  N   UNL A   1      39.589  30.615  31.966  1.00  0.00    -0.354 N 
ATOM     39  C   UNL A   1      40.906  27.859  28.850  1.00  0.00     0.074 A 
ATOM     40  C   UNL A   1      40.005  27.901  27.715  1.00  0.00     0.031 C 
ATOM     41  C   UNL A   1      38.202  32.114  32.891  1.00  0.00     0.029 A 
ATOM     42  C   UNL A   1      39.391  31.306  33.135  1.00  0.00     0.049 A 
ATOM     43  H   UNL A   1      40.376  30.051  31.795  1.00  0.00     0.167 HD
ATOM     44  C   UNL A   1      42.034  27.110  28.926  1.00  0.00     0.034 A 
ATOM     45  C   UNL A   1      40.063  31.253  34.298  1.00  0.00     0.034 A 
ATOM     46  C   UNL A   1      42.894  27.077  30.087  1.00  0.00     0.049 A 
ATOM     47  C   UNL A   1      41.258  30.353  34.389  1.00  0.00     0.074 A 
ATOM     48  C   UNL A   1      44.066  26.368  30.280  1.00  0.00     0.029 A 
ATOM     49  N   UNL A   1      42.659  27.779  31.265  1.00  0.00    -0.354 N 
ATOM     50  N   UNL A   1      41.741  29.538  33.480  1.00  0.00    -0.248 NA
ATOM     51  C   UNL A   1      42.002  30.372  35.651  1.00  0.00     0.031 C 
ATOM     52  C   UNL A   1      44.512  26.600  31.588  1.00  0.00     0.029 A 
ATOM     53  C   UNL A   1      43.648  27.498  32.195  1.00  0.00     0.049 A 
ATOM     54  H   UNL A   1      41.901  28.388  31.417  1.00  0.00     0.167 HD
ATOM     55  C   UNL A   1      42.865  28.960  34.054  1.00  0.00     0.074 A 
ATOM     56  C   UNL A   1      42.983  29.519  35.387  1.00  0.00     0.031 C 
ATOM     57  C   UNL A   1      43.730  28.058  33.523  1.00  0.00     0.034 A 
BRANCH  44  58
ATOM     58  C   UNL A   1      42.366  26.227  27.749  1.00  0.00     0.023 A 
ATOM     59  C   UNL A   1      41.878  24.912  27.647  1.00  0.00     0.031 A 
ATOM     60  C   UNL A   1      43.191  26.706  26.716  1.00  0.00     0.131 A 
ATOM     61  C   UNL A   1      42.255  24.108  26.559  1.00  0.00     0.055 A 
ATOM     62  C   UNL A   1      43.517  25.921  25.609  1.00  0.00     0.041 A 
ATOM     63  F   UNL A   1      43.702  27.946  26.772  1.00  0.00    -0.206 F 
ATOM     64  C   UNL A   1      43.056  24.610  25.531  1.00  0.00     0.022 A 
BRANCH  61  65
ATOM     65  S   UNL A   1      41.771  22.360  26.557  1.00  0.00     0.124 S 
ATOM     66  O   UNL A   1      42.280  21.908  27.850  1.00  0.00    -0.237 OA
ATOM     67  O   UNL A   1      40.320  22.434  26.431  1.00  0.00    -0.237 OA
ATOM     68  O   UNL A   1      42.470  21.811  25.396  1.00  0.00    -0.744 OA
ENDBRANCH  61  65
ENDBRANCH  44  58
BRANCH  45  69
ATOM     69  C   UNL A   1      39.571  32.034  35.460  1.00  0.00     0.023 A 
ATOM     70  C   UNL A   1      39.996  33.349  35.682  1.00  0.00     0.031 A 
ATOM     71  C   UNL A   1      38.624  31.479  36.340  1.00  0.00     0.131 A 
ATOM     72  C   UNL A   1      39.482  34.068  36.772  1.00  0.00     0.055 A 
ATOM     73  C   UNL A   1      38.092  32.208  37.402  1.00  0.00     0.041 A 
ATOM     74  F   UNL A   1      38.174  30.227  36.152  1.00  0.00    -0.206 F 
ATOM     75  C   UNL A   1      38.526  33.510  37.627  1.00  0.00     0.022 A 
BRANCH  72  76
ATOM     76  S   UNL A   1      40.106  35.742  37.076  1.00  0.00     0.124 S 
ATOM     77  O   UNL A   1      39.652  36.452  35.885  1.00  0.00    -0.237 OA
ATOM     78  O   UNL A   1      39.436  36.092  38.324  1.00  0.00    -0.237 OA
ATOM     79  O   UNL A   1      41.551  35.554  37.178  1.00  0.00    -0.744 OA
ENDBRANCH  72  76
ENDBRANCH  45  69
BRANCH  57  80
ATOM     80  C   UNL A   1      44.896  27.674  34.387  1.00  0.00     0.023 A 
ATOM     81  C   UNL A   1      44.864  26.525  35.194  1.00  0.00     0.031 A 
ATOM     82  C   UNL A   1      46.040  28.488  34.424  1.00  0.00     0.131 A 
ATOM     83  C   UNL A   1      45.944  26.245  36.043  1.00  0.00     0.055 A 
ATOM     84  C   UNL A   1      47.128  28.182  35.239  1.00  0.00     0.041 A 
ATOM     85  F   UNL A   1      46.111  29.598  33.672  1.00  0.00    -0.206 F 
ATOM     86  C   UNL A   1      47.080  27.059  36.062  1.00  0.00     0.022 A 
BRANCH  83  87
ATOM     87  S   UNL A   1      45.823  24.829  37.168  1.00  0.00     0.124 S 
ATOM     88  O   UNL A   1      46.220  23.721  36.304  1.00  0.00    -0.237 OA
ATOM     89  O   UNL A   1      46.767  25.182  38.224  1.00  0.00    -0.237 OA
ATOM     90  O   UNL A   1      44.418  24.828  37.571  1.00  0.00    -0.744 OA
ENDBRANCH  83  87
ENDBRANCH  57  80
ENDBRANCH  31  32
ENDBRANCH  24  26
ENDBRANCH  23  24
ENDBRANCH  22  23
ENDBRANCH   1  22
TORSDOF 20
ENDMDL
