MODEL 1
REMARK VINA RESULT:     -11.3      0.000      0.000
REMARK SMILES COc1cnc(F)c(C(=O)OCCOC(=O)c2ccc(-c3c4nc(c(-c5cc(S(=O)(=O)[O-])ccc5F)c5ccc([nH]5)c(-c5cc(S(=O)(=O)[O-])ccc5F)c5nc(c(-c6cc(S(=O)(=O)[O-])ccc6F)c6ccc3[nH]6)C=C5)C=C4)cc2)c1
REMARK SMILES IDX 13 1 12 2 11 3 9 4 10 5 8 6 3 7 4 8 80 9 5 10 6 11 7 12 2 13
REMARK SMILES IDX 1 14 14 15 15 16 16 17 17 18 18 19 79 20 19 21 78 22 20 23
REMARK SMILES IDX 21 24 22 25 72 26 23 27 77 28 71 29 73 30 24 31 76 32 70 33
REMARK SMILES IDX 69 34 25 36 57 37 37 38 56 39 38 40 41 41 55 42 74 43 39 44
REMARK SMILES IDX 40 45 54 47 75 48 42 49 26 50 27 51 35 52 28 53 34 54 36 55
REMARK SMILES IDX 33 56 29 57 30 58 31 59 32 60 58 61 59 62 67 63 60 64 66 65
REMARK SMILES IDX 68 66 65 67 61 68 62 69 63 70 64 71 43 72 44 73 52 74 45 75
REMARK SMILES IDX 51 76 53 77 50 78 46 79 47 80 48 81 49 82
REMARK H PARENT 73 35 41 46
REMARK Flexibility Score: inf
ROOT
ATOM      1  C   UNL A   1      35.899  20.988  25.139  1.00  0.00     0.275 C 
ENDROOT
BRANCH   1   2
ATOM      2  C   UNL A   1      34.728  21.971  25.114  1.00  0.00     0.275 C 
BRANCH   2   3
ATOM      3  O   UNL A   1      33.723  21.571  24.160  1.00  0.00    -0.458 OA
BRANCH   3   4
ATOM      4  C   UNL A   1      32.660  20.893  24.650  1.00  0.00     0.343 C 
ATOM      5  O   UNL A   1      31.709  21.371  25.250  1.00  0.00    -0.246 OA
BRANCH   4   6
ATOM      6  C   UNL A   1      32.711  19.474  24.276  1.00  0.00     0.118 A 
ATOM      7  C   UNL A   1      33.154  17.176  24.869  1.00  0.00     0.138 A 
ATOM      8  C   UNL A   1      32.876  16.856  23.546  1.00  0.00     0.160 A 
ATOM      9  C   UNL A   1      33.110  18.519  25.221  1.00  0.00     0.068 A 
ATOM     10  N   UNL A   1      32.529  17.757  22.592  1.00  0.00    -0.224 NA
ATOM     11  C   UNL A   1      32.442  19.050  22.987  1.00  0.00     0.227 A 
ATOM     12  F   UNL A   1      32.146  19.945  22.031  1.00  0.00    -0.184 F 
BRANCH   7  13
ATOM     13  O   UNL A   1      33.497  16.150  25.699  1.00  0.00    -0.495 OA
ATOM     14  C   UNL A   1      32.796  14.922  25.498  1.00  0.00     0.278 C 
ENDBRANCH   7  13
ENDBRANCH   4   6
ENDBRANCH   3   4
ENDBRANCH   2   3
ENDBRANCH   1   2
BRANCH   1  15
ATOM     15  O   UNL A   1      37.134  21.658  24.828  1.00  0.00    -0.458 OA
BRANCH  15  16
ATOM     16  C   UNL A   1      38.217  21.194  25.490  1.00  0.00     0.338 C 
ATOM     17  O   UNL A   1      38.693  20.072  25.439  1.00  0.00    -0.246 OA
BRANCH  16  18
ATOM     18  C   UNL A   1      38.858  22.288  26.234  1.00  0.00     0.060 A 
ATOM     19  C   UNL A   1      38.343  23.568  26.063  1.00  0.00     0.016 A 
ATOM     20  C   UNL A   1      40.048  22.100  26.932  1.00  0.00     0.016 A 
ATOM     21  C   UNL A   1      39.067  24.677  26.485  1.00  0.00     0.010 A 
ATOM     22  C   UNL A   1      40.725  23.215  27.447  1.00  0.00     0.010 A 
ATOM     23  C   UNL A   1      40.269  24.523  27.189  1.00  0.00    -0.014 A 
BRANCH  23  24
ATOM     24  C   UNL A   1      41.066  25.728  27.581  1.00  0.00     0.031 A 
ATOM     25  C   UNL A   1      40.448  26.798  28.452  1.00  0.00     0.074 A 
ATOM     26  C   UNL A   1      42.362  25.846  27.217  1.00  0.00     0.049 A 
ATOM     27  N   UNL A   1      40.915  27.978  28.775  1.00  0.00    -0.248 NA
ATOM     28  C   UNL A   1      39.126  26.503  29.026  1.00  0.00     0.031 C 
ATOM     29  C   UNL A   1      43.113  24.864  26.430  1.00  0.00     0.029 A 
ATOM     30  N   UNL A   1      43.286  26.831  27.474  1.00  0.00    -0.354 N 
ATOM     31  C   UNL A   1      39.928  28.585  29.548  1.00  0.00     0.074 A 
ATOM     32  C   UNL A   1      38.828  27.646  29.629  1.00  0.00     0.031 C 
ATOM     33  C   UNL A   1      44.388  25.267  26.321  1.00  0.00     0.029 A 
ATOM     34  C   UNL A   1      44.526  26.585  26.927  1.00  0.00     0.049 A 
ATOM     35  H   UNL A   1      43.080  27.637  28.001  1.00  0.00     0.167 HD
ATOM     36  C   UNL A   1      39.938  29.807  30.138  1.00  0.00     0.034 A 
ATOM     37  C   UNL A   1      45.639  27.348  26.876  1.00  0.00     0.034 A 
ATOM     38  C   UNL A   1      41.056  30.719  30.087  1.00  0.00     0.049 A 
ATOM     39  C   UNL A   1      45.605  28.723  27.495  1.00  0.00     0.074 A 
ATOM     40  C   UNL A   1      41.156  31.996  30.616  1.00  0.00     0.029 A 
ATOM     41  N   UNL A   1      42.280  30.444  29.492  1.00  0.00    -0.354 N 
ATOM     42  N   UNL A   1      44.624  29.317  28.137  1.00  0.00    -0.248 NA
ATOM     43  C   UNL A   1      46.825  29.532  27.378  1.00  0.00     0.031 C 
ATOM     44  C   UNL A   1      42.419  32.508  30.302  1.00  0.00     0.029 A 
ATOM     45  C   UNL A   1      43.136  31.526  29.640  1.00  0.00     0.049 A 
ATOM     46  H   UNL A   1      42.508  29.604  29.033  1.00  0.00     0.167 HD
ATOM     47  C   UNL A   1      45.125  30.558  28.523  1.00  0.00     0.074 A 
ATOM     48  C   UNL A   1      46.498  30.613  28.068  1.00  0.00     0.031 C 
ATOM     49  C   UNL A   1      44.506  31.564  29.189  1.00  0.00     0.034 A 
BRANCH  36  50
ATOM     50  C   UNL A   1      38.682  30.251  30.850  1.00  0.00     0.023 A 
ATOM     51  C   UNL A   1      37.640  30.916  30.180  1.00  0.00     0.031 A 
ATOM     52  C   UNL A   1      38.526  30.006  32.227  1.00  0.00     0.131 A 
ATOM     53  C   UNL A   1      36.518  31.360  30.898  1.00  0.00     0.055 A 
ATOM     54  C   UNL A   1      37.374  30.383  32.920  1.00  0.00     0.041 A 
ATOM     55  F   UNL A   1      39.496  29.393  32.925  1.00  0.00    -0.206 F 
ATOM     56  C   UNL A   1      36.366  31.076  32.257  1.00  0.00     0.022 A 
BRANCH  53  57
ATOM     57  S   UNL A   1      35.312  32.421  30.055  1.00  0.00     0.124 S 
ATOM     58  O   UNL A   1      34.321  32.631  31.108  1.00  0.00    -0.237 OA
ATOM     59  O   UNL A   1      36.113  33.583  29.691  1.00  0.00    -0.237 OA
ATOM     60  O   UNL A   1      34.856  31.600  28.936  1.00  0.00    -0.744 OA
ENDBRANCH  53  57
ENDBRANCH  36  50
BRANCH  37  61
ATOM     61  C   UNL A   1      46.861  26.876  26.156  1.00  0.00     0.023 A 
ATOM     62  C   UNL A   1      47.894  26.211  26.837  1.00  0.00     0.031 A 
ATOM     63  C   UNL A   1      47.055  27.158  24.792  1.00  0.00     0.131 A 
ATOM     64  C   UNL A   1      49.094  25.911  26.173  1.00  0.00     0.055 A 
ATOM     65  C   UNL A   1      48.219  26.790  24.116  1.00  0.00     0.041 A 
ATOM     66  F   UNL A   1      46.108  27.800  24.088  1.00  0.00    -0.206 F 
ATOM     67  C   UNL A   1      49.256  26.180  24.813  1.00  0.00     0.022 A 
BRANCH  64  68
ATOM     68  S   UNL A   1      50.493  25.291  27.147  1.00  0.00     0.124 S 
ATOM     69  O   UNL A   1      49.879  24.189  27.878  1.00  0.00    -0.237 OA
ATOM     70  O   UNL A   1      51.444  24.919  26.105  1.00  0.00    -0.237 OA
ATOM     71  O   UNL A   1      50.878  26.443  27.959  1.00  0.00    -0.744 OA
ENDBRANCH  64  68
ENDBRANCH  37  61
BRANCH  49  72
ATOM     72  C   UNL A   1      45.342  32.777  29.523  1.00  0.00     0.023 A 
ATOM     73  C   UNL A   1      45.422  33.884  28.660  1.00  0.00     0.031 A 
ATOM     74  C   UNL A   1      46.103  32.802  30.705  1.00  0.00     0.131 A 
ATOM     75  C   UNL A   1      46.304  34.935  28.954  1.00  0.00     0.055 A 
ATOM     76  C   UNL A   1      46.928  33.880  31.024  1.00  0.00     0.041 A 
ATOM     77  F   UNL A   1      46.064  31.772  31.565  1.00  0.00    -0.206 F 
ATOM     78  C   UNL A   1      47.046  34.947  30.137  1.00  0.00     0.022 A 
BRANCH  75  79
ATOM     79  S   UNL A   1      46.553  36.234  27.712  1.00  0.00     0.124 S 
ATOM     80  O   UNL A   1      45.455  37.149  28.004  1.00  0.00    -0.237 OA
ATOM     81  O   UNL A   1      47.890  36.719  28.034  1.00  0.00    -0.237 OA
ATOM     82  O   UNL A   1      46.443  35.519  26.441  1.00  0.00    -0.744 OA
ENDBRANCH  75  79
ENDBRANCH  49  72
ENDBRANCH  23  24
ENDBRANCH  16  18
ENDBRANCH  15  16
ENDBRANCH   1  15
TORSDOF 15
ENDMDL
MODEL 2
REMARK VINA RESULT:     -11.2      1.487      1.789
REMARK SMILES COc1cnc(F)c(C(=O)OCCOC(=O)c2ccc(-c3c4nc(c(-c5cc(S(=O)(=O)[O-])ccc5F)c5ccc([nH]5)c(-c5cc(S(=O)(=O)[O-])ccc5F)c5nc(c(-c6cc(S(=O)(=O)[O-])ccc6F)c6ccc3[nH]6)C=C5)C=C4)cc2)c1
REMARK SMILES IDX 13 1 12 2 11 3 9 4 10 5 8 6 3 7 4 8 80 9 5 10 6 11 7 12 2 13
REMARK SMILES IDX 1 14 14 15 15 16 16 17 17 18 18 19 79 20 19 21 78 22 20 23
REMARK SMILES IDX 21 24 22 25 72 26 23 27 77 28 71 29 73 30 24 31 76 32 70 33
REMARK SMILES IDX 69 34 25 36 57 37 37 38 56 39 38 40 41 41 55 42 74 43 39 44
REMARK SMILES IDX 40 45 54 47 75 48 42 49 26 50 27 51 35 52 28 53 34 54 36 55
REMARK SMILES IDX 33 56 29 57 30 58 31 59 32 60 58 61 59 62 67 63 60 64 66 65
REMARK SMILES IDX 68 66 65 67 61 68 62 69 63 70 64 71 43 72 44 73 52 74 45 75
REMARK SMILES IDX 51 76 53 77 50 78 46 79 47 80 48 81 49 82
REMARK H PARENT 73 35 41 46
REMARK Flexibility Score: inf
ROOT
ATOM      1  C   UNL A   1      36.260  20.808  25.208  1.00  0.00     0.275 C 
ENDROOT
BRANCH   1   2
ATOM      2  C   UNL A   1      34.973  21.539  25.593  1.00  0.00     0.275 C 
BRANCH   2   3
ATOM      3  O   UNL A   1      33.980  21.444  24.551  1.00  0.00    -0.458 OA
BRANCH   3   4
ATOM      4  C   UNL A   1      32.855  20.754  24.848  1.00  0.00     0.343 C 
ATOM      5  O   UNL A   1      31.841  21.205  25.358  1.00  0.00    -0.246 OA
BRANCH   4   6
ATOM      6  C   UNL A   1      32.938  19.366  24.375  1.00  0.00     0.118 A 
ATOM      7  C   UNL A   1      33.583  17.070  24.749  1.00  0.00     0.138 A 
ATOM      8  C   UNL A   1      33.155  16.813  23.452  1.00  0.00     0.160 A 
ATOM      9  C   UNL A   1      33.509  18.383  25.195  1.00  0.00     0.068 A 
ATOM     10  N   UNL A   1      32.637  17.746  22.614  1.00  0.00    -0.224 NA
ATOM     11  C   UNL A   1      32.529  19.004  23.103  1.00  0.00     0.227 A 
ATOM     12  F   UNL A   1      32.062  19.935  22.256  1.00  0.00    -0.184 F 
BRANCH   7  13
ATOM     13  O   UNL A   1      34.087  16.020  25.457  1.00  0.00    -0.495 OA
ATOM     14  C   UNL A   1      35.495  15.810  25.347  1.00  0.00     0.278 C 
ENDBRANCH   7  13
ENDBRANCH   4   6
ENDBRANCH   3   4
ENDBRANCH   2   3
ENDBRANCH   1   2
BRANCH   1  15
ATOM     15  O   UNL A   1      37.359  21.731  25.108  1.00  0.00    -0.458 OA
BRANCH  15  16
ATOM     16  C   UNL A   1      38.488  21.344  25.745  1.00  0.00     0.338 C 
ATOM     17  O   UNL A   1      39.032  20.254  25.692  1.00  0.00    -0.246 OA
BRANCH  16  18
ATOM     18  C   UNL A   1      39.078  22.486  26.458  1.00  0.00     0.060 A 
ATOM     19  C   UNL A   1      38.556  23.746  26.195  1.00  0.00     0.016 A 
ATOM     20  C   UNL A   1      40.234  22.352  27.223  1.00  0.00     0.016 A 
ATOM     21  C   UNL A   1      39.245  24.887  26.592  1.00  0.00     0.010 A 
ATOM     22  C   UNL A   1      40.872  23.503  27.709  1.00  0.00     0.010 A 
ATOM     23  C   UNL A   1      40.413  24.789  27.361  1.00  0.00    -0.014 A 
BRANCH  23  24
ATOM     24  C   UNL A   1      41.174  26.025  27.725  1.00  0.00     0.031 A 
ATOM     25  C   UNL A   1      40.528  27.090  28.581  1.00  0.00     0.074 A 
ATOM     26  C   UNL A   1      42.464  26.175  27.351  1.00  0.00     0.049 A 
ATOM     27  N   UNL A   1      40.961  28.290  28.879  1.00  0.00    -0.248 NA
ATOM     28  C   UNL A   1      39.220  26.766  29.168  1.00  0.00     0.031 C 
ATOM     29  C   UNL A   1      43.241  25.202  26.578  1.00  0.00     0.029 A 
ATOM     30  N   UNL A   1      43.359  27.192  27.585  1.00  0.00    -0.354 N 
ATOM     31  C   UNL A   1      39.960  28.881  29.648  1.00  0.00     0.074 A 
ATOM     32  C   UNL A   1      38.890  27.911  29.752  1.00  0.00     0.031 C 
ATOM     33  C   UNL A   1      44.502  25.642  26.453  1.00  0.00     0.029 A 
ATOM     34  C   UNL A   1      44.603  26.974  27.035  1.00  0.00     0.049 A 
ATOM     35  H   UNL A   1      43.132  28.002  28.098  1.00  0.00     0.167 HD
ATOM     36  C   UNL A   1      39.936  30.113  30.215  1.00  0.00     0.034 A 
ATOM     37  C   UNL A   1      45.691  27.770  26.963  1.00  0.00     0.034 A 
ATOM     38  C   UNL A   1      41.026  31.058  30.140  1.00  0.00     0.049 A 
ATOM     39  C   UNL A   1      45.619  29.154  27.557  1.00  0.00     0.074 A 
ATOM     40  C   UNL A   1      41.089  32.347  30.645  1.00  0.00     0.029 A 
ATOM     41  N   UNL A   1      42.254  30.810  29.544  1.00  0.00    -0.354 N 
ATOM     42  N   UNL A   1      44.624  29.730  28.194  1.00  0.00    -0.248 NA
ATOM     43  C   UNL A   1      46.813  29.998  27.418  1.00  0.00     0.031 C 
ATOM     44  C   UNL A   1      42.334  32.891  30.315  1.00  0.00     0.029 A 
ATOM     45  C   UNL A   1      43.077  31.920  29.666  1.00  0.00     0.049 A 
ATOM     46  H   UNL A   1      42.505  29.969  29.098  1.00  0.00     0.167 HD
ATOM     47  C   UNL A   1      45.089  30.992  28.555  1.00  0.00     0.074 A 
ATOM     48  C   UNL A   1      46.457  31.081  28.090  1.00  0.00     0.031 C 
ATOM     49  C   UNL A   1      44.442  31.992  29.206  1.00  0.00     0.034 A 
BRANCH  36  50
ATOM     50  C   UNL A   1      38.671  30.532  30.926  1.00  0.00     0.023 A 
ATOM     51  C   UNL A   1      37.608  31.156  30.252  1.00  0.00     0.031 A 
ATOM     52  C   UNL A   1      38.529  30.303  32.308  1.00  0.00     0.131 A 
ATOM     53  C   UNL A   1      36.476  31.579  30.968  1.00  0.00     0.055 A 
ATOM     54  C   UNL A   1      37.369  30.657  33.000  1.00  0.00     0.041 A 
ATOM     55  F   UNL A   1      39.519  29.729  33.009  1.00  0.00    -0.206 F 
ATOM     56  C   UNL A   1      36.338  31.310  32.332  1.00  0.00     0.022 A 
BRANCH  53  57
ATOM     57  S   UNL A   1      35.236  32.591  30.116  1.00  0.00     0.124 S 
ATOM     58  O   UNL A   1      34.779  31.677  29.072  1.00  0.00    -0.237 OA
ATOM     59  O   UNL A   1      34.278  32.879  31.178  1.00  0.00    -0.237 OA
ATOM     60  O   UNL A   1      36.001  33.741  29.638  1.00  0.00    -0.744 OA
ENDBRANCH  53  57
ENDBRANCH  36  50
BRANCH  37  61
ATOM     61  C   UNL A   1      46.923  27.322  26.245  1.00  0.00     0.023 A 
ATOM     62  C   UNL A   1      47.191  27.742  24.931  1.00  0.00     0.031 A 
ATOM     63  C   UNL A   1      47.808  26.397  26.828  1.00  0.00     0.131 A 
ATOM     64  C   UNL A   1      48.273  27.191  24.225  1.00  0.00     0.055 A 
ATOM     65  C   UNL A   1      48.926  25.911  26.148  1.00  0.00     0.041 A 
ATOM     66  F   UNL A   1      47.600  25.950  28.077  1.00  0.00    -0.206 F 
ATOM     67  C   UNL A   1      49.152  26.293  24.831  1.00  0.00     0.022 A 
BRANCH  64  68
ATOM     68  S   UNL A   1      48.432  27.562  22.456  1.00  0.00     0.124 S 
ATOM     69  O   UNL A   1      47.170  28.238  22.180  1.00  0.00    -0.237 OA
ATOM     70  O   UNL A   1      49.628  28.398  22.431  1.00  0.00    -0.237 OA
ATOM     71  O   UNL A   1      48.582  26.243  21.846  1.00  0.00    -0.744 OA
ENDBRANCH  64  68
ENDBRANCH  37  61
BRANCH  49  72
ATOM     72  C   UNL A   1      45.243  33.235  29.513  1.00  0.00     0.023 A 
ATOM     73  C   UNL A   1      45.292  34.324  28.625  1.00  0.00     0.031 A 
ATOM     74  C   UNL A   1      46.002  33.309  30.694  1.00  0.00     0.131 A 
ATOM     75  C   UNL A   1      46.142  35.407  28.895  1.00  0.00     0.055 A 
ATOM     76  C   UNL A   1      46.795  34.417  30.989  1.00  0.00     0.041 A 
ATOM     77  F   UNL A   1      45.991  32.298  31.578  1.00  0.00    -0.206 F 
ATOM     78  C   UNL A   1      46.883  35.467  30.078  1.00  0.00     0.022 A 
BRANCH  75  79
ATOM     79  S   UNL A   1      46.356  36.684  27.625  1.00  0.00     0.124 S 
ATOM     80  O   UNL A   1      47.518  37.413  28.119  1.00  0.00    -0.237 OA
ATOM     81  O   UNL A   1      46.567  35.890  26.419  1.00  0.00    -0.237 OA
ATOM     82  O   UNL A   1      45.095  37.423  27.666  1.00  0.00    -0.744 OA
ENDBRANCH  75  79
ENDBRANCH  49  72
ENDBRANCH  23  24
ENDBRANCH  16  18
ENDBRANCH  15  16
ENDBRANCH   1  15
TORSDOF 15
ENDMDL
MODEL 3
REMARK VINA RESULT:     -11.1      2.185      8.341
REMARK SMILES COc1cnc(F)c(C(=O)OCCOC(=O)c2ccc(-c3c4nc(c(-c5cc(S(=O)(=O)[O-])ccc5F)c5ccc([nH]5)c(-c5cc(S(=O)(=O)[O-])ccc5F)c5nc(c(-c6cc(S(=O)(=O)[O-])ccc6F)c6ccc3[nH]6)C=C5)C=C4)cc2)c1
REMARK SMILES IDX 13 1 12 2 11 3 9 4 10 5 8 6 3 7 4 8 80 9 5 10 6 11 7 12 2 13
REMARK SMILES IDX 1 14 14 15 15 16 16 17 17 18 18 19 79 20 19 21 78 22 20 23
REMARK SMILES IDX 21 24 22 25 72 26 23 27 77 28 71 29 73 30 24 31 76 32 70 33
REMARK SMILES IDX 69 34 25 36 57 37 37 38 56 39 38 40 41 41 55 42 74 43 39 44
REMARK SMILES IDX 40 45 54 47 75 48 42 49 26 50 27 51 35 52 28 53 34 54 36 55
REMARK SMILES IDX 33 56 29 57 30 58 31 59 32 60 58 61 59 62 67 63 60 64 66 65
REMARK SMILES IDX 68 66 65 67 61 68 62 69 63 70 64 71 43 72 44 73 52 74 45 75
REMARK SMILES IDX 51 76 53 77 50 78 46 79 47 80 48 81 49 82
REMARK H PARENT 73 35 41 46
REMARK Flexibility Score: inf
ROOT
ATOM      1  C   UNL A   1      37.662  19.647  25.009  1.00  0.00     0.275 C 
ENDROOT
BRANCH   1   2
ATOM      2  C   UNL A   1      36.136  19.742  25.001  1.00  0.00     0.275 C 
BRANCH   2   3
ATOM      3  O   UNL A   1      35.678  20.945  25.651  1.00  0.00    -0.458 OA
BRANCH   3   4
ATOM      4  C   UNL A   1      34.339  21.097  25.769  1.00  0.00     0.343 C 
ATOM      5  O   UNL A   1      33.671  20.890  26.770  1.00  0.00    -0.246 OA
BRANCH   4   6
ATOM      6  C   UNL A   1      33.756  21.667  24.547  1.00  0.00     0.118 A 
ATOM      7  C   UNL A   1      33.641  23.454  22.929  1.00  0.00     0.138 A 
ATOM      8  C   UNL A   1      32.610  22.746  22.325  1.00  0.00     0.160 A 
ATOM      9  C   UNL A   1      34.190  22.918  24.086  1.00  0.00     0.068 A 
ATOM     10  N   UNL A   1      32.133  21.554  22.767  1.00  0.00    -0.224 NA
ATOM     11  C   UNL A   1      32.730  21.035  23.866  1.00  0.00     0.227 A 
ATOM     12  F   UNL A   1      32.225  19.881  24.329  1.00  0.00    -0.184 F 
BRANCH   7  13
ATOM     13  O   UNL A   1      33.994  24.643  22.362  1.00  0.00    -0.495 OA
ATOM     14  C   UNL A   1      32.919  25.451  21.882  1.00  0.00     0.278 C 
ENDBRANCH   7  13
ENDBRANCH   4   6
ENDBRANCH   3   4
ENDBRANCH   2   3
ENDBRANCH   1   2
BRANCH   1  15
ATOM     15  O   UNL A   1      38.247  20.884  25.454  1.00  0.00    -0.458 OA
BRANCH  15  16
ATOM     16  C   UNL A   1      39.429  20.756  26.100  1.00  0.00     0.338 C 
ATOM     17  O   UNL A   1      40.151  19.775  26.135  1.00  0.00    -0.246 OA
BRANCH  16  18
ATOM     18  C   UNL A   1      39.818  22.044  26.693  1.00  0.00     0.060 A 
ATOM     19  C   UNL A   1      39.160  23.183  26.245  1.00  0.00     0.016 A 
ATOM     20  C   UNL A   1      40.926  22.158  27.528  1.00  0.00     0.016 A 
ATOM     21  C   UNL A   1      39.669  24.445  26.530  1.00  0.00     0.010 A 
ATOM     22  C   UNL A   1      41.377  23.434  27.898  1.00  0.00     0.010 A 
ATOM     23  C   UNL A   1      40.784  24.596  27.366  1.00  0.00    -0.014 A 
BRANCH  23  24
ATOM     24  C   UNL A   1      41.356  25.958  27.610  1.00  0.00     0.031 A 
ATOM     25  C   UNL A   1      42.689  26.341  27.009  1.00  0.00     0.074 A 
ATOM     26  C   UNL A   1      40.663  26.880  28.314  1.00  0.00     0.049 A 
ATOM     27  N   UNL A   1      43.420  27.407  27.223  1.00  0.00    -0.248 NA
ATOM     28  C   UNL A   1      43.280  25.396  26.050  1.00  0.00     0.031 C 
ATOM     29  C   UNL A   1      39.336  26.676  28.901  1.00  0.00     0.029 A 
ATOM     30  N   UNL A   1      40.966  28.180  28.642  1.00  0.00    -0.354 N 
ATOM     31  C   UNL A   1      44.576  27.240  26.464  1.00  0.00     0.074 A 
ATOM     32  C   UNL A   1      44.455  25.959  25.800  1.00  0.00     0.031 C 
ATOM     33  C   UNL A   1      38.919  27.821  29.462  1.00  0.00     0.029 A 
ATOM     34  C   UNL A   1      39.987  28.810  29.378  1.00  0.00     0.049 A 
ATOM     35  H   UNL A   1      41.805  28.621  28.374  1.00  0.00     0.167 HD
ATOM     36  C   UNL A   1      45.637  28.075  26.332  1.00  0.00     0.034 A 
ATOM     37  C   UNL A   1      39.962  30.027  29.962  1.00  0.00     0.034 A 
ATOM     38  C   UNL A   1      45.730  29.370  26.966  1.00  0.00     0.049 A 
ATOM     39  C   UNL A   1      41.176  30.914  29.841  1.00  0.00     0.074 A 
ATOM     40  C   UNL A   1      46.776  30.277  26.929  1.00  0.00     0.029 A 
ATOM     41  N   UNL A   1      44.730  29.953  27.732  1.00  0.00    -0.354 N 
ATOM     42  N   UNL A   1      42.301  30.694  29.200  1.00  0.00    -0.248 NA
ATOM     43  C   UNL A   1      41.119  32.211  30.528  1.00  0.00     0.031 C 
ATOM     44  C   UNL A   1      46.428  31.385  27.708  1.00  0.00     0.029 A 
ATOM     45  C   UNL A   1      45.137  31.204  28.173  1.00  0.00     0.049 A 
ATOM     46  H   UNL A   1      43.860  29.540  27.933  1.00  0.00     0.167 HD
ATOM     47  C   UNL A   1      43.070  31.840  29.385  1.00  0.00     0.074 A 
ATOM     48  C   UNL A   1      42.271  32.756  30.171  1.00  0.00     0.031 C 
ATOM     49  C   UNL A   1      44.326  32.111  28.949  1.00  0.00     0.034 A 
BRANCH  36  50
ATOM     50  C   UNL A   1      46.807  27.595  25.506  1.00  0.00     0.023 A 
ATOM     51  C   UNL A   1      46.984  27.983  24.167  1.00  0.00     0.031 A 
ATOM     52  C   UNL A   1      47.763  26.731  26.072  1.00  0.00     0.131 A 
ATOM     53  C   UNL A   1      48.057  27.465  23.424  1.00  0.00     0.055 A 
ATOM     54  C   UNL A   1      48.869  26.278  25.350  1.00  0.00     0.041 A 
ATOM     55  F   UNL A   1      47.636  26.309  27.340  1.00  0.00    -0.206 F 
ATOM     56  C   UNL A   1      49.015  26.636  24.013  1.00  0.00     0.022 A 
BRANCH  53  57
ATOM     57  S   UNL A   1      48.118  27.793  21.641  1.00  0.00     0.124 S 
ATOM     58  O   UNL A   1      49.268  28.690  21.548  1.00  0.00    -0.237 OA
ATOM     59  O   UNL A   1      48.302  26.460  21.080  1.00  0.00    -0.237 OA
ATOM     60  O   UNL A   1      46.826  28.416  21.362  1.00  0.00    -0.744 OA
ENDBRANCH  53  57
ENDBRANCH  36  50
BRANCH  37  61
ATOM     61  C   UNL A   1      38.788  30.463  30.777  1.00  0.00     0.023 A 
ATOM     62  C   UNL A   1      37.665  31.055  30.175  1.00  0.00     0.031 A 
ATOM     63  C   UNL A   1      38.805  30.376  32.181  1.00  0.00     0.131 A 
ATOM     64  C   UNL A   1      36.642  31.593  30.972  1.00  0.00     0.055 A 
ATOM     65  C   UNL A   1      37.750  30.843  32.966  1.00  0.00     0.041 A 
ATOM     66  F   UNL A   1      39.855  29.829  32.817  1.00  0.00    -0.206 F 
ATOM     67  C   UNL A   1      36.669  31.475  32.362  1.00  0.00     0.022 A 
BRANCH  64  68
ATOM     68  S   UNL A   1      35.342  32.573  30.171  1.00  0.00     0.124 S 
ATOM     69  O   UNL A   1      34.876  31.658  29.136  1.00  0.00    -0.237 OA
ATOM     70  O   UNL A   1      34.422  32.814  31.277  1.00  0.00    -0.237 OA
ATOM     71  O   UNL A   1      36.057  33.752  29.687  1.00  0.00    -0.744 OA
ENDBRANCH  64  68
ENDBRANCH  37  61
BRANCH  49  72
ATOM     72  C   UNL A   1      44.874  33.484  29.259  1.00  0.00     0.023 A 
ATOM     73  C   UNL A   1      44.750  34.554  28.355  1.00  0.00     0.031 A 
ATOM     74  C   UNL A   1      45.568  33.710  30.461  1.00  0.00     0.131 A 
ATOM     75  C   UNL A   1      45.377  35.778  28.633  1.00  0.00     0.055 A 
ATOM     76  C   UNL A   1      46.134  34.949  30.760  1.00  0.00     0.041 A 
ATOM     77  F   UNL A   1      45.716  32.723  31.360  1.00  0.00    -0.206 F 
ATOM     78  C   UNL A   1      46.055  35.987  29.836  1.00  0.00     0.022 A 
BRANCH  75  79
ATOM     79  S   UNL A   1      45.391  37.059  27.348  1.00  0.00     0.124 S 
ATOM     80  O   UNL A   1      43.967  37.304  27.148  1.00  0.00    -0.237 OA
ATOM     81  O   UNL A   1      46.139  38.134  27.989  1.00  0.00    -0.237 OA
ATOM     82  O   UNL A   1      46.073  36.413  26.227  1.00  0.00    -0.744 OA
ENDBRANCH  75  79
ENDBRANCH  49  72
ENDBRANCH  23  24
ENDBRANCH  16  18
ENDBRANCH  15  16
ENDBRANCH   1  15
TORSDOF 15
ENDMDL
