MODEL 1
REMARK VINA RESULT:     -10.4      0.000      0.000
REMARK SMILES CC[NH2+][C@H](CC[N@@H+](C)C1CCC(C)(C)CC1)C(=O)OCCOC(=O)c1ccc(-c2c3nc(c(-c4cc(S(=O)(=O)[O-])ccc4F)c4ccc([nH]4)c(-c4cc(S(=O)(=O)[O-])ccc4F)c4nc(c(-c5cc(S(=O)(=O)[O-])ccc5F)c5ccc2[nH]5)C=C4)C=C3)cc1
REMARK SMILES IDX 20 1 19 2 17 3 18 4 4 5 3 6 2 9 1 10 5 11 6 12 7 13 8 14
REMARK SMILES IDX 9 16 10 17 16 18 11 19 15 20 12 21 13 22 14 23 21 24 22 25
REMARK SMILES IDX 23 26 24 27 25 28 26 29 87 30 27 31 86 32 28 33 29 34 30 35
REMARK SMILES IDX 80 36 31 37 85 38 79 39 81 40 32 41 84 42 78 43 77 44 33 46
REMARK SMILES IDX 65 47 45 48 64 49 46 50 49 51 63 52 82 53 47 54 48 55 62 57
REMARK SMILES IDX 83 58 50 59 34 60 35 61 43 62 36 63 42 64 44 65 41 66 37 67
REMARK SMILES IDX 38 68 39 69 40 70 66 71 67 72 75 73 68 74 74 75 76 76 73 77
REMARK SMILES IDX 69 78 70 79 71 80 72 81 51 82 52 83 60 84 53 85 59 86 61 87
REMARK SMILES IDX 58 88 54 89 55 90 56 91 57 92
REMARK H PARENT 3 7 3 8 7 15 81 45 49 56
REMARK Flexibility Score: inf
ROOT
ATOM      1  C   UNL A   1      32.810  29.257  24.591  1.00  0.00     0.274 C 
ENDROOT
BRANCH   1   2
ATOM      2  O   UNL A   1      33.068  27.848  24.225  1.00  0.00    -0.458 OA
BRANCH   2   3
ATOM      3  C   UNL A   1      32.187  27.184  23.376  1.00  0.00     0.365 C 
ATOM      4  O   UNL A   1      32.472  27.006  22.190  1.00  0.00    -0.245 OA
BRANCH   3   5
ATOM      5  C   UNL A   1      30.873  26.426  24.114  1.00  0.00     0.299 C 
BRANCH   5   6
ATOM      6  N   UNL A   1      29.764  27.441  24.045  1.00  0.00    -0.335 N 
ATOM      7  H   UNL A   1      28.878  26.970  24.232  1.00  0.00     0.347 HD
ATOM      8  H   UNL A   1      29.964  28.162  24.738  1.00  0.00     0.347 HD
BRANCH   6   9
ATOM      9  C   UNL A   1      29.675  28.097  22.743  1.00  0.00     0.257 C 
ATOM     10  C   UNL A   1      28.625  29.196  22.784  1.00  0.00     0.071 C 
ENDBRANCH   6   9
ENDBRANCH   5   6
BRANCH   5  11
ATOM     11  C   UNL A   1      30.876  25.840  25.633  1.00  0.00     0.139 C 
BRANCH  11  12
ATOM     12  C   UNL A   1      32.176  25.015  26.312  1.00  0.00     0.269 C 
BRANCH  12  13
ATOM     13  N   UNL A   1      32.773  23.690  25.806  1.00  0.00    -0.335 N 
ATOM     14  C   UNL A   1      31.873  22.546  26.036  1.00  0.00     0.332 C 
ATOM     15  H   UNL A   1      33.623  23.639  26.368  1.00  0.00     0.348 HD
BRANCH  13  16
ATOM     16  C   UNL A   1      33.194  23.628  24.371  1.00  0.00     0.183 C 
ATOM     17  C   UNL A   1      34.426  24.464  24.272  1.00  0.00     0.065 C 
ATOM     18  C   UNL A   1      33.601  22.228  23.781  1.00  0.00     0.065 C 
ATOM     19  C   UNL A   1      35.409  23.770  25.225  1.00  0.00     0.012 C 
ATOM     20  C   UNL A   1      34.913  21.561  24.314  1.00  0.00     0.012 C 
ATOM     21  C   UNL A   1      36.037  22.556  24.623  1.00  0.00    -0.035 C 
ATOM     22  C   UNL A   1      37.127  22.075  25.588  1.00  0.00     0.011 C 
ATOM     23  C   UNL A   1      36.679  22.986  23.349  1.00  0.00     0.011 C 
ENDBRANCH  13  16
ENDBRANCH  12  13
ENDBRANCH  11  12
ENDBRANCH   5  11
ENDBRANCH   3   5
ENDBRANCH   2   3
ENDBRANCH   1   2
BRANCH   1  24
ATOM     24  C   UNL A   1      31.761  29.517  25.752  1.00  0.00     0.275 C 
BRANCH  24  25
ATOM     25  O   UNL A   1      32.384  29.929  27.008  1.00  0.00    -0.458 OA
BRANCH  25  26
ATOM     26  C   UNL A   1      32.990  31.166  27.075  1.00  0.00     0.338 C 
ATOM     27  O   UNL A   1      32.413  32.238  26.901  1.00  0.00    -0.246 OA
BRANCH  26  28
ATOM     28  C   UNL A   1      34.385  31.051  27.677  1.00  0.00     0.060 A 
ATOM     29  C   UNL A   1      34.763  29.847  28.275  1.00  0.00     0.016 A 
ATOM     30  C   UNL A   1      35.199  32.179  27.935  1.00  0.00     0.016 A 
ATOM     31  C   UNL A   1      35.863  29.788  29.149  1.00  0.00     0.010 A 
ATOM     32  C   UNL A   1      36.394  32.071  28.708  1.00  0.00     0.010 A 
ATOM     33  C   UNL A   1      36.772  30.853  29.296  1.00  0.00    -0.014 A 
BRANCH  33  34
ATOM     34  C   UNL A   1      38.170  30.581  29.815  1.00  0.00     0.031 A 
ATOM     35  C   UNL A   1      39.184  29.648  29.168  1.00  0.00     0.074 A 
ATOM     36  C   UNL A   1      38.529  31.171  30.981  1.00  0.00     0.049 A 
ATOM     37  N   UNL A   1      40.267  29.112  29.689  1.00  0.00    -0.248 NA
ATOM     38  C   UNL A   1      38.986  29.301  27.755  1.00  0.00     0.031 C 
ATOM     39  C   UNL A   1      37.736  32.169  31.710  1.00  0.00     0.029 A 
ATOM     40  N   UNL A   1      39.636  31.005  31.786  1.00  0.00    -0.354 N 
ATOM     41  C   UNL A   1      40.861  28.336  28.689  1.00  0.00     0.074 A 
ATOM     42  C   UNL A   1      40.023  28.500  27.514  1.00  0.00     0.031 C 
ATOM     43  C   UNL A   1      38.371  32.530  32.825  1.00  0.00     0.029 A 
ATOM     44  C   UNL A   1      39.522  31.666  32.991  1.00  0.00     0.049 A 
ATOM     45  H   UNL A   1      40.423  30.473  31.528  1.00  0.00     0.167 HD
ATOM     46  C   UNL A   1      41.978  27.555  28.755  1.00  0.00     0.034 A 
ATOM     47  C   UNL A   1      40.164  31.533  34.166  1.00  0.00     0.034 A 
ATOM     48  C   UNL A   1      42.811  27.415  29.940  1.00  0.00     0.049 A 
ATOM     49  C   UNL A   1      41.277  30.547  34.282  1.00  0.00     0.074 A 
ATOM     50  C   UNL A   1      43.959  26.651  30.110  1.00  0.00     0.029 A 
ATOM     51  N   UNL A   1      42.588  28.041  31.161  1.00  0.00    -0.354 N 
ATOM     52  N   UNL A   1      41.759  29.744  33.365  1.00  0.00    -0.248 NA
ATOM     53  C   UNL A   1      41.932  30.450  35.589  1.00  0.00     0.031 C 
ATOM     54  C   UNL A   1      44.371  26.746  31.445  1.00  0.00     0.029 A 
ATOM     55  C   UNL A   1      43.542  27.643  32.093  1.00  0.00     0.049 A 
ATOM     56  H   UNL A   1      41.858  28.676  31.341  1.00  0.00     0.167 HD
ATOM     57  C   UNL A   1      42.797  29.058  33.981  1.00  0.00     0.074 A 
ATOM     58  C   UNL A   1      42.876  29.555  35.341  1.00  0.00     0.031 C 
ATOM     59  C   UNL A   1      43.611  28.108  33.459  1.00  0.00     0.034 A 
BRANCH  46  60
ATOM     60  C   UNL A   1      42.342  26.695  27.552  1.00  0.00     0.023 A 
ATOM     61  C   UNL A   1      41.994  25.337  27.442  1.00  0.00     0.031 A 
ATOM     62  C   UNL A   1      43.015  27.279  26.457  1.00  0.00     0.131 A 
ATOM     63  C   UNL A   1      42.359  24.604  26.294  1.00  0.00     0.055 A 
ATOM     64  C   UNL A   1      43.313  26.565  25.293  1.00  0.00     0.041 A 
ATOM     65  F   UNL A   1      43.383  28.570  26.494  1.00  0.00    -0.206 F 
ATOM     66  C   UNL A   1      42.995  25.215  25.211  1.00  0.00     0.022 A 
BRANCH  63  67
ATOM     67  S   UNL A   1      42.097  22.806  26.276  1.00  0.00     0.124 S 
ATOM     68  O   UNL A   1      42.593  22.447  24.949  1.00  0.00    -0.237 OA
ATOM     69  O   UNL A   1      42.904  22.357  27.404  1.00  0.00    -0.237 OA
ATOM     70  O   UNL A   1      40.652  22.666  26.448  1.00  0.00    -0.744 OA
ENDBRANCH  63  67
ENDBRANCH  46  60
BRANCH  47  71
ATOM     71  C   UNL A   1      39.665  32.285  35.354  1.00  0.00     0.023 A 
ATOM     72  C   UNL A   1      40.050  33.611  35.581  1.00  0.00     0.031 A 
ATOM     73  C   UNL A   1      38.758  31.691  36.256  1.00  0.00     0.131 A 
ATOM     74  C   UNL A   1      39.538  34.301  36.689  1.00  0.00     0.055 A 
ATOM     75  C   UNL A   1      38.204  32.402  37.319  1.00  0.00     0.041 A 
ATOM     76  F   UNL A   1      38.351  30.424  36.077  1.00  0.00    -0.206 F 
ATOM     77  C   UNL A   1      38.602  33.714  37.546  1.00  0.00     0.022 A 
BRANCH  74  78
ATOM     78  S   UNL A   1      40.157  35.969  37.026  1.00  0.00     0.124 S 
ATOM     79  O   UNL A   1      39.775  36.679  35.811  1.00  0.00    -0.237 OA
ATOM     80  O   UNL A   1      39.422  36.324  38.235  1.00  0.00    -0.237 OA
ATOM     81  O   UNL A   1      41.593  35.768  37.208  1.00  0.00    -0.744 OA
ENDBRANCH  74  78
ENDBRANCH  47  71
BRANCH  59  82
ATOM     82  C   UNL A   1      44.695  27.588  34.369  1.00  0.00     0.023 A 
ATOM     83  C   UNL A   1      44.511  26.434  35.151  1.00  0.00     0.031 A 
ATOM     84  C   UNL A   1      45.894  28.307  34.524  1.00  0.00     0.131 A 
ATOM     85  C   UNL A   1      45.474  26.076  36.107  1.00  0.00     0.055 A 
ATOM     86  C   UNL A   1      46.879  27.906  35.428  1.00  0.00     0.041 A 
ATOM     87  F   UNL A   1      46.118  29.424  33.814  1.00  0.00    -0.206 F 
ATOM     88  C   UNL A   1      46.664  26.795  36.239  1.00  0.00     0.022 A 
BRANCH  85  89
ATOM     89  S   UNL A   1      45.091  24.733  37.264  1.00  0.00     0.124 S 
ATOM     90  O   UNL A   1      46.344  24.601  38.000  1.00  0.00    -0.237 OA
ATOM     91  O   UNL A   1      43.964  25.278  38.016  1.00  0.00    -0.237 OA
ATOM     92  O   UNL A   1      44.765  23.608  36.389  1.00  0.00    -0.744 OA
ENDBRANCH  85  89
ENDBRANCH  59  82
ENDBRANCH  33  34
ENDBRANCH  26  28
ENDBRANCH  25  26
ENDBRANCH  24  25
ENDBRANCH   1  24
TORSDOF 20
ENDMDL
MODEL 2
REMARK VINA RESULT:     -10.4      4.890      9.887
REMARK SMILES CC[NH2+][C@H](CC[N@@H+](C)C1CCC(C)(C)CC1)C(=O)OCCOC(=O)c1ccc(-c2c3nc(c(-c4cc(S(=O)(=O)[O-])ccc4F)c4ccc([nH]4)c(-c4cc(S(=O)(=O)[O-])ccc4F)c4nc(c(-c5cc(S(=O)(=O)[O-])ccc5F)c5ccc2[nH]5)C=C4)C=C3)cc1
REMARK SMILES IDX 20 1 19 2 17 3 18 4 4 5 3 6 2 9 1 10 5 11 6 12 7 13 8 14
REMARK SMILES IDX 9 16 10 17 16 18 11 19 15 20 12 21 13 22 14 23 21 24 22 25
REMARK SMILES IDX 23 26 24 27 25 28 26 29 87 30 27 31 86 32 28 33 29 34 30 35
REMARK SMILES IDX 80 36 31 37 85 38 79 39 81 40 32 41 84 42 78 43 77 44 33 46
REMARK SMILES IDX 65 47 45 48 64 49 46 50 49 51 63 52 82 53 47 54 48 55 62 57
REMARK SMILES IDX 83 58 50 59 34 60 35 61 43 62 36 63 42 64 44 65 41 66 37 67
REMARK SMILES IDX 38 68 39 69 40 70 66 71 67 72 75 73 68 74 74 75 76 76 73 77
REMARK SMILES IDX 69 78 70 79 71 80 72 81 51 82 52 83 60 84 53 85 59 86 61 87
REMARK SMILES IDX 58 88 54 89 55 90 56 91 57 92
REMARK H PARENT 3 7 3 8 7 15 81 45 49 56
REMARK Flexibility Score: inf
ROOT
ATOM      1  C   UNL A   1      35.796  22.695  25.865  1.00  0.00     0.274 C 
ENDROOT
BRANCH   1   2
ATOM      2  O   UNL A   1      35.767  23.692  24.773  1.00  0.00    -0.458 OA
BRANCH   2   3
ATOM      3  C   UNL A   1      35.090  23.401  23.592  1.00  0.00     0.365 C 
ATOM      4  O   UNL A   1      35.711  23.115  22.567  1.00  0.00    -0.245 OA
BRANCH   3   5
ATOM      5  C   UNL A   1      33.420  23.205  23.722  1.00  0.00     0.299 C 
BRANCH   5   6
ATOM      6  N   UNL A   1      33.191  21.737  23.479  1.00  0.00    -0.335 N 
ATOM      7  H   UNL A   1      32.551  21.633  22.692  1.00  0.00     0.347 HD
ATOM      8  H   UNL A   1      34.098  21.312  23.291  1.00  0.00     0.347 HD
BRANCH   6   9
ATOM      9  C   UNL A   1      32.620  21.053  24.637  1.00  0.00     0.257 C 
ATOM     10  C   UNL A   1      32.143  22.072  25.661  1.00  0.00     0.071 C 
ENDBRANCH   6   9
ENDBRANCH   5   6
BRANCH   5  11
ATOM     11  C   UNL A   1      32.321  24.004  22.823  1.00  0.00     0.139 C 
BRANCH  11  12
ATOM     12  C   UNL A   1      32.028  25.654  22.960  1.00  0.00     0.269 C 
BRANCH  12  13
ATOM     13  N   UNL A   1      31.607  26.398  24.240  1.00  0.00    -0.335 N 
ATOM     14  C   UNL A   1      30.199  26.146  24.597  1.00  0.00     0.332 C 
ATOM     15  H   UNL A   1      31.773  27.365  23.960  1.00  0.00     0.348 HD
BRANCH  13  16
ATOM     16  C   UNL A   1      32.416  26.155  25.475  1.00  0.00     0.183 C 
ATOM     17  C   UNL A   1      33.659  26.965  25.312  1.00  0.00     0.065 C 
ATOM     18  C   UNL A   1      31.812  26.607  26.855  1.00  0.00     0.065 C 
ATOM     19  C   UNL A   1      33.138  28.404  25.199  1.00  0.00     0.012 C 
ATOM     20  C   UNL A   1      31.656  28.142  27.120  1.00  0.00     0.012 C 
ATOM     21  C   UNL A   1      32.781  28.995  26.524  1.00  0.00    -0.035 C 
ATOM     22  C   UNL A   1      32.466  30.478  26.297  1.00  0.00     0.011 C 
ATOM     23  C   UNL A   1      33.991  28.888  27.387  1.00  0.00     0.011 C 
ENDBRANCH  13  16
ENDBRANCH  12  13
ENDBRANCH  11  12
ENDBRANCH   5  11
ENDBRANCH   3   5
ENDBRANCH   2   3
ENDBRANCH   1   2
BRANCH   1  24
ATOM     24  C   UNL A   1      36.675  21.397  25.629  1.00  0.00     0.275 C 
BRANCH  24  25
ATOM     25  O   UNL A   1      38.004  21.691  25.097  1.00  0.00    -0.458 OA
BRANCH  25  26
ATOM     26  C   UNL A   1      39.106  21.457  25.893  1.00  0.00     0.338 C 
ATOM     27  O   UNL A   1      39.725  20.395  25.937  1.00  0.00    -0.246 OA
BRANCH  26  28
ATOM     28  C   UNL A   1      39.631  22.760  26.485  1.00  0.00     0.060 A 
ATOM     29  C   UNL A   1      40.511  22.702  27.566  1.00  0.00     0.016 A 
ATOM     30  C   UNL A   1      39.042  24.015  26.202  1.00  0.00     0.016 A 
ATOM     31  C   UNL A   1      40.739  23.831  28.374  1.00  0.00     0.010 A 
ATOM     32  C   UNL A   1      39.396  25.184  26.941  1.00  0.00     0.010 A 
ATOM     33  C   UNL A   1      40.292  25.118  28.020  1.00  0.00    -0.014 A 
BRANCH  33  34
ATOM     34  C   UNL A   1      40.973  26.337  28.610  1.00  0.00     0.031 A 
ATOM     35  C   UNL A   1      40.265  27.496  29.298  1.00  0.00     0.074 A 
ATOM     36  C   UNL A   1      42.317  26.433  28.463  1.00  0.00     0.049 A 
ATOM     37  N   UNL A   1      40.712  28.709  29.549  1.00  0.00    -0.248 NA
ATOM     38  C   UNL A   1      38.905  27.262  29.800  1.00  0.00     0.031 C 
ATOM     39  C   UNL A   1      43.191  25.388  27.914  1.00  0.00     0.029 A 
ATOM     40  N   UNL A   1      43.194  27.463  28.730  1.00  0.00    -0.354 N 
ATOM     41  C   UNL A   1      39.684  29.395  30.203  1.00  0.00     0.074 A 
ATOM     42  C   UNL A   1      38.596  28.443  30.333  1.00  0.00     0.031 C 
ATOM     43  C   UNL A   1      44.453  25.814  27.895  1.00  0.00     0.029 A 
ATOM     44  C   UNL A   1      44.465  27.217  28.255  1.00  0.00     0.049 A 
ATOM     45  H   UNL A   1      42.940  28.285  29.209  1.00  0.00     0.167 HD
ATOM     46  C   UNL A   1      39.651  30.691  30.630  1.00  0.00     0.034 A 
ATOM     47  C   UNL A   1      45.512  28.022  27.998  1.00  0.00     0.034 A 
ATOM     48  C   UNL A   1      40.760  31.625  30.500  1.00  0.00     0.049 A 
ATOM     49  C   UNL A   1      45.406  29.477  28.307  1.00  0.00     0.074 A 
ATOM     50  C   UNL A   1      40.826  32.954  30.898  1.00  0.00     0.029 A 
ATOM     51  N   UNL A   1      41.991  31.339  29.924  1.00  0.00    -0.354 N 
ATOM     52  N   UNL A   1      44.396  30.134  28.823  1.00  0.00    -0.248 NA
ATOM     53  C   UNL A   1      46.581  30.298  28.001  1.00  0.00     0.031 C 
ATOM     54  C   UNL A   1      42.054  33.488  30.484  1.00  0.00     0.029 A 
ATOM     55  C   UNL A   1      42.798  32.473  29.912  1.00  0.00     0.049 A 
ATOM     56  H   UNL A   1      42.257  30.458  29.573  1.00  0.00     0.167 HD
ATOM     57  C   UNL A   1      44.824  31.451  28.925  1.00  0.00     0.074 A 
ATOM     58  C   UNL A   1      46.187  31.487  28.433  1.00  0.00     0.031 C 
ATOM     59  C   UNL A   1      44.146  32.527  29.394  1.00  0.00     0.034 A 
BRANCH  46  60
ATOM     60  C   UNL A   1      38.349  31.242  31.197  1.00  0.00     0.023 A 
ATOM     61  C   UNL A   1      37.323  31.773  30.396  1.00  0.00     0.031 A 
ATOM     62  C   UNL A   1      38.115  31.178  32.588  1.00  0.00     0.131 A 
ATOM     63  C   UNL A   1      36.141  32.258  30.990  1.00  0.00     0.055 A 
ATOM     64  C   UNL A   1      36.913  31.598  33.165  1.00  0.00     0.041 A 
ATOM     65  F   UNL A   1      39.052  30.689  33.415  1.00  0.00    -0.206 F 
ATOM     66  C   UNL A   1      35.921  32.153  32.367  1.00  0.00     0.022 A 
BRANCH  63  67
ATOM     67  S   UNL A   1      34.933  33.141  29.960  1.00  0.00     0.124 S 
ATOM     68  O   UNL A   1      33.998  33.646  30.963  1.00  0.00    -0.237 OA
ATOM     69  O   UNL A   1      35.757  34.140  29.292  1.00  0.00    -0.237 OA
ATOM     70  O   UNL A   1      34.392  32.096  29.091  1.00  0.00    -0.744 OA
ENDBRANCH  63  67
ENDBRANCH  46  60
BRANCH  47  71
ATOM     71  C   UNL A   1      46.703  27.461  27.298  1.00  0.00     0.023 A 
ATOM     72  C   UNL A   1      46.897  27.665  25.927  1.00  0.00     0.031 A 
ATOM     73  C   UNL A   1      47.688  26.745  28.010  1.00  0.00     0.131 A 
ATOM     74  C   UNL A   1      48.044  27.152  25.306  1.00  0.00     0.055 A 
ATOM     75  C   UNL A   1      48.855  26.290  27.399  1.00  0.00     0.041 A 
ATOM     76  F   UNL A   1      47.552  26.529  29.328  1.00  0.00    -0.206 F 
ATOM     77  C   UNL A   1      49.034  26.486  26.035  1.00  0.00     0.022 A 
BRANCH  74  78
ATOM     78  S   UNL A   1      48.199  27.321  23.509  1.00  0.00     0.124 S 
ATOM     79  O   UNL A   1      47.018  28.113  23.183  1.00  0.00    -0.237 OA
ATOM     80  O   UNL A   1      49.483  28.001  23.380  1.00  0.00    -0.237 OA
ATOM     81  O   UNL A   1      48.176  25.939  23.035  1.00  0.00    -0.744 OA
ENDBRANCH  74  78
ENDBRANCH  47  71
BRANCH  59  82
ATOM     82  C   UNL A   1      44.909  33.828  29.436  1.00  0.00     0.023 A 
ATOM     83  C   UNL A   1      44.948  34.695  28.330  1.00  0.00     0.031 A 
ATOM     84  C   UNL A   1      45.679  34.160  30.565  1.00  0.00     0.131 A 
ATOM     85  C   UNL A   1      45.800  35.811  28.346  1.00  0.00     0.055 A 
ATOM     86  C   UNL A   1      46.472  35.309  30.601  1.00  0.00     0.041 A 
ATOM     87  F   UNL A   1      45.691  33.361  31.644  1.00  0.00    -0.206 F 
ATOM     88  C   UNL A   1      46.549  36.131  29.480  1.00  0.00     0.022 A 
BRANCH  85  89
ATOM     89  S   UNL A   1      46.012  36.763  26.817  1.00  0.00     0.124 S 
ATOM     90  O   UNL A   1      45.900  35.725  25.798  1.00  0.00    -0.237 OA
ATOM     91  O   UNL A   1      44.907  37.714  26.884  1.00  0.00    -0.237 OA
ATOM     92  O   UNL A   1      47.343  37.349  26.960  1.00  0.00    -0.744 OA
ENDBRANCH  85  89
ENDBRANCH  59  82
ENDBRANCH  33  34
ENDBRANCH  26  28
ENDBRANCH  25  26
ENDBRANCH  24  25
ENDBRANCH   1  24
TORSDOF 20
ENDMDL
MODEL 3
REMARK VINA RESULT:     -10.2      2.008      2.351
REMARK SMILES CC[NH2+][C@H](CC[N@@H+](C)C1CCC(C)(C)CC1)C(=O)OCCOC(=O)c1ccc(-c2c3nc(c(-c4cc(S(=O)(=O)[O-])ccc4F)c4ccc([nH]4)c(-c4cc(S(=O)(=O)[O-])ccc4F)c4nc(c(-c5cc(S(=O)(=O)[O-])ccc5F)c5ccc2[nH]5)C=C4)C=C3)cc1
REMARK SMILES IDX 20 1 19 2 17 3 18 4 4 5 3 6 2 9 1 10 5 11 6 12 7 13 8 14
REMARK SMILES IDX 9 16 10 17 16 18 11 19 15 20 12 21 13 22 14 23 21 24 22 25
REMARK SMILES IDX 23 26 24 27 25 28 26 29 87 30 27 31 86 32 28 33 29 34 30 35
REMARK SMILES IDX 80 36 31 37 85 38 79 39 81 40 32 41 84 42 78 43 77 44 33 46
REMARK SMILES IDX 65 47 45 48 64 49 46 50 49 51 63 52 82 53 47 54 48 55 62 57
REMARK SMILES IDX 83 58 50 59 34 60 35 61 43 62 36 63 42 64 44 65 41 66 37 67
REMARK SMILES IDX 38 68 39 69 40 70 66 71 67 72 75 73 68 74 74 75 76 76 73 77
REMARK SMILES IDX 69 78 70 79 71 80 72 81 51 82 52 83 60 84 53 85 59 86 61 87
REMARK SMILES IDX 58 88 54 89 55 90 56 91 57 92
REMARK H PARENT 3 7 3 8 7 15 81 45 49 56
REMARK Flexibility Score: inf
ROOT
ATOM      1  C   UNL A   1      33.287  29.394  24.646  1.00  0.00     0.274 C 
ENDROOT
BRANCH   1   2
ATOM      2  O   UNL A   1      33.577  28.107  23.979  1.00  0.00    -0.458 OA
BRANCH   2   3
ATOM      3  C   UNL A   1      33.136  27.890  22.677  1.00  0.00     0.365 C 
ATOM      4  O   UNL A   1      33.922  27.947  21.730  1.00  0.00    -0.245 OA
BRANCH   3   5
ATOM      5  C   UNL A   1      31.566  27.296  22.514  1.00  0.00     0.299 C 
BRANCH   5   6
ATOM      6  N   UNL A   1      30.774  28.460  21.981  1.00  0.00    -0.335 N 
ATOM      7  H   UNL A   1      31.419  29.216  21.753  1.00  0.00     0.347 HD
ATOM      8  H   UNL A   1      30.264  28.134  21.160  1.00  0.00     0.347 HD
BRANCH   6   9
ATOM      9  C   UNL A   1      29.789  28.961  22.937  1.00  0.00     0.257 C 
ATOM     10  C   UNL A   1      29.148  30.234  22.406  1.00  0.00     0.071 C 
ENDBRANCH   6   9
ENDBRANCH   5   6
BRANCH   5  11
ATOM     11  C   UNL A   1      30.689  26.651  23.726  1.00  0.00     0.139 C 
BRANCH  11  12
ATOM     12  C   UNL A   1      31.266  25.456  24.760  1.00  0.00     0.269 C 
BRANCH  12  13
ATOM     13  N   UNL A   1      32.215  24.307  24.378  1.00  0.00    -0.335 N 
ATOM     14  C   UNL A   1      31.594  23.358  23.436  1.00  0.00     0.332 C 
ATOM     15  H   UNL A   1      32.389  23.892  25.293  1.00  0.00     0.348 HD
BRANCH  13  16
ATOM     16  C   UNL A   1      33.547  24.675  23.804  1.00  0.00     0.183 C 
ATOM     17  C   UNL A   1      34.400  25.054  24.969  1.00  0.00     0.065 C 
ATOM     18  C   UNL A   1      34.360  23.560  23.049  1.00  0.00     0.065 C 
ATOM     19  C   UNL A   1      34.435  23.777  25.820  1.00  0.00     0.012 C 
ATOM     20  C   UNL A   1      34.923  22.366  23.889  1.00  0.00     0.012 C 
ATOM     21  C   UNL A   1      35.394  22.759  25.293  1.00  0.00    -0.035 C 
ATOM     22  C   UNL A   1      35.478  21.629  26.326  1.00  0.00     0.011 C 
ATOM     23  C   UNL A   1      36.724  23.424  25.200  1.00  0.00     0.011 C 
ENDBRANCH  13  16
ENDBRANCH  12  13
ENDBRANCH  11  12
ENDBRANCH   5  11
ENDBRANCH   3   5
ENDBRANCH   2   3
ENDBRANCH   1   2
BRANCH   1  24
ATOM     24  C   UNL A   1      32.183  29.380  25.785  1.00  0.00     0.275 C 
BRANCH  24  25
ATOM     25  O   UNL A   1      32.704  29.765  27.095  1.00  0.00    -0.458 OA
BRANCH  25  26
ATOM     26  C   UNL A   1      33.307  30.998  27.235  1.00  0.00     0.338 C 
ATOM     27  O   UNL A   1      32.720  32.076  27.171  1.00  0.00    -0.246 OA
BRANCH  26  28
ATOM     28  C   UNL A   1      34.728  30.845  27.766  1.00  0.00     0.060 A 
ATOM     29  C   UNL A   1      35.078  29.662  28.419  1.00  0.00     0.016 A 
ATOM     30  C   UNL A   1      35.610  31.942  27.907  1.00  0.00     0.016 A 
ATOM     31  C   UNL A   1      36.222  29.598  29.235  1.00  0.00     0.010 A 
ATOM     32  C   UNL A   1      36.841  31.818  28.619  1.00  0.00     0.010 A 
ATOM     33  C   UNL A   1      37.190  30.620  29.263  1.00  0.00    -0.014 A 
BRANCH  33  34
ATOM     34  C   UNL A   1      38.600  30.306  29.723  1.00  0.00     0.031 A 
ATOM     35  C   UNL A   1      39.520  29.268  29.095  1.00  0.00     0.074 A 
ATOM     36  C   UNL A   1      39.061  30.961  30.817  1.00  0.00     0.049 A 
ATOM     37  N   UNL A   1      40.603  28.710  29.596  1.00  0.00    -0.248 NA
ATOM     38  C   UNL A   1      39.218  28.828  27.728  1.00  0.00     0.031 C 
ATOM     39  C   UNL A   1      38.369  32.056  31.508  1.00  0.00     0.029 A 
ATOM     40  N   UNL A   1      40.205  30.791  31.568  1.00  0.00    -0.354 N 
ATOM     41  C   UNL A   1      41.091  27.827  28.628  1.00  0.00     0.074 A 
ATOM     42  C   UNL A   1      40.194  27.951  27.493  1.00  0.00     0.031 C 
ATOM     43  C   UNL A   1      39.090  32.462  32.552  1.00  0.00     0.029 A 
ATOM     44  C   UNL A   1      40.200  31.547  32.721  1.00  0.00     0.049 A 
ATOM     45  H   UNL A   1      40.944  30.196  31.309  1.00  0.00     0.167 HD
ATOM     46  C   UNL A   1      42.166  26.989  28.692  1.00  0.00     0.034 A 
ATOM     47  C   UNL A   1      40.904  31.466  33.866  1.00  0.00     0.034 A 
ATOM     48  C   UNL A   1      43.061  26.891  29.836  1.00  0.00     0.049 A 
ATOM     49  C   UNL A   1      41.966  30.428  33.996  1.00  0.00     0.074 A 
ATOM     50  C   UNL A   1      44.173  26.075  30.001  1.00  0.00     0.029 A 
ATOM     51  N   UNL A   1      42.947  27.619  31.014  1.00  0.00    -0.354 N 
ATOM     52  N   UNL A   1      42.347  29.531  33.120  1.00  0.00    -0.248 NA
ATOM     53  C   UNL A   1      42.693  30.392  35.267  1.00  0.00     0.031 C 
ATOM     54  C   UNL A   1      44.671  26.247  31.299  1.00  0.00     0.029 A 
ATOM     55  C   UNL A   1      43.933  27.238  31.919  1.00  0.00     0.049 A 
ATOM     56  H   UNL A   1      42.265  28.309  31.184  1.00  0.00     0.167 HD
ATOM     57  C   UNL A   1      43.382  28.833  33.729  1.00  0.00     0.074 A 
ATOM     58  C   UNL A   1      43.571  29.427  35.038  1.00  0.00     0.031 C 
ATOM     59  C   UNL A   1      44.110  27.800  33.239  1.00  0.00     0.034 A 
BRANCH  46  60
ATOM     60  C   UNL A   1      42.409  26.020  27.542  1.00  0.00     0.023 A 
ATOM     61  C   UNL A   1      41.867  24.723  27.500  1.00  0.00     0.031 A 
ATOM     62  C   UNL A   1      43.169  26.439  26.429  1.00  0.00     0.131 A 
ATOM     63  C   UNL A   1      42.128  23.883  26.399  1.00  0.00     0.055 A 
ATOM     64  C   UNL A   1      43.367  25.626  25.309  1.00  0.00     0.041 A 
ATOM     65  F   UNL A   1      43.722  27.662  26.402  1.00  0.00    -0.206 F 
ATOM     66  C   UNL A   1      42.856  24.335  25.294  1.00  0.00     0.022 A 
BRANCH  63  67
ATOM     67  S   UNL A   1      41.606  22.145  26.472  1.00  0.00     0.124 S 
ATOM     68  O   UNL A   1      41.883  21.809  27.867  1.00  0.00    -0.237 OA
ATOM     69  O   UNL A   1      40.199  22.221  26.100  1.00  0.00    -0.237 OA
ATOM     70  O   UNL A   1      42.474  21.483  25.499  1.00  0.00    -0.744 OA
ENDBRANCH  63  67
ENDBRANCH  46  60
BRANCH  47  71
ATOM     71  C   UNL A   1      40.520  32.334  35.016  1.00  0.00     0.023 A 
ATOM     72  C   UNL A   1      39.432  32.009  35.833  1.00  0.00     0.031 A 
ATOM     73  C   UNL A   1      41.272  33.484  35.334  1.00  0.00     0.131 A 
ATOM     74  C   UNL A   1      39.118  32.829  36.927  1.00  0.00     0.055 A 
ATOM     75  C   UNL A   1      40.992  34.260  36.458  1.00  0.00     0.041 A 
ATOM     76  F   UNL A   1      42.330  33.834  34.586  1.00  0.00    -0.206 F 
ATOM     77  C   UNL A   1      39.902  33.938  37.258  1.00  0.00     0.022 A 
BRANCH  74  78
ATOM     78  S   UNL A   1      37.628  32.453  37.884  1.00  0.00     0.124 S 
ATOM     79  O   UNL A   1      37.953  33.037  39.181  1.00  0.00    -0.237 OA
ATOM     80  O   UNL A   1      36.594  33.138  37.114  1.00  0.00    -0.237 OA
ATOM     81  O   UNL A   1      37.562  30.994  37.853  1.00  0.00    -0.744 OA
ENDBRANCH  74  78
ENDBRANCH  47  71
BRANCH  59  82
ATOM     82  C   UNL A   1      45.218  27.288  34.124  1.00  0.00     0.023 A 
ATOM     83  C   UNL A   1      46.532  27.777  34.018  1.00  0.00     0.031 A 
ATOM     84  C   UNL A   1      44.975  26.235  35.024  1.00  0.00     0.131 A 
ATOM     85  C   UNL A   1      47.567  27.162  34.739  1.00  0.00     0.055 A 
ATOM     86  C   UNL A   1      45.998  25.673  35.790  1.00  0.00     0.041 A 
ATOM     87  F   UNL A   1      43.743  25.719  35.157  1.00  0.00    -0.206 F 
ATOM     88  C   UNL A   1      47.306  26.124  35.636  1.00  0.00     0.022 A 
BRANCH  85  89
ATOM     89  S   UNL A   1      49.278  27.652  34.390  1.00  0.00     0.124 S 
ATOM     90  O   UNL A   1      50.022  26.870  35.372  1.00  0.00    -0.237 OA
ATOM     91  O   UNL A   1      49.442  27.250  32.996  1.00  0.00    -0.237 OA
ATOM     92  O   UNL A   1      49.276  29.096  34.622  1.00  0.00    -0.744 OA
ENDBRANCH  85  89
ENDBRANCH  59  82
ENDBRANCH  33  34
ENDBRANCH  26  28
ENDBRANCH  25  26
ENDBRANCH  24  25
ENDBRANCH   1  24
TORSDOF 20
ENDMDL
