MODEL 1
REMARK VINA RESULT:     -11.0      0.000      0.000
REMARK SMILES O=C(OCCOC(=O)c1cc2n[nH]cc2cc1[N+](=O)[O-])c1ccc(-c2c3nc(c(-c4cc(S(=O)(=O)[O-])ccc4F)c4ccc([nH]4)c(-c4cc(S(=O)(=O)[O-])ccc4F)c4nc(c(-c5cc(S(=O)(=O)[O-])ccc5F)c5ccc2[nH]5)C=C4)C=C3)cc1
REMARK SMILES IDX 4 1 3 2 2 3 1 4 21 5 22 6 83 7 23 8 82 9 24 10 25 11 26 12
REMARK SMILES IDX 76 13 27 14 81 15 75 16 77 17 28 18 80 19 74 20 73 21 29 23
REMARK SMILES IDX 61 24 41 25 60 26 42 27 45 28 59 29 78 30 43 31 44 32 58 34
REMARK SMILES IDX 79 35 46 36 30 37 31 38 39 39 32 40 38 41 40 42 37 43 33 44
REMARK SMILES IDX 34 45 35 46 36 47 62 48 63 49 71 50 64 51 70 52 72 53 69 54
REMARK SMILES IDX 65 55 66 56 67 57 68 58 47 59 48 60 56 61 49 62 55 63 57 64
REMARK SMILES IDX 54 65 50 66 51 67 52 68 53 69 5 70 6 71 7 72 8 73 9 74 10 75
REMARK SMILES IDX 17 76 11 77 16 78 12 79 15 80 13 81 14 82 18 84 19 85 20 86
REMARK H PARENT 77 22 45 33 13 83
REMARK Flexibility Score: inf
ROOT
ATOM      1  C   UNL A   1      40.483  20.131  26.384  1.00  0.00     0.275 C 
ENDROOT
BRANCH   1   2
ATOM      2  O   UNL A   1      40.022  21.301  27.081  1.00  0.00    -0.458 OA
BRANCH   2   3
ATOM      3  C   UNL A   1      39.359  22.392  26.626  1.00  0.00     0.338 C 
ATOM      4  O   UNL A   1      38.434  22.207  25.835  1.00  0.00    -0.246 OA
BRANCH   3   5
ATOM      5  C   UNL A   1      39.740  23.813  26.932  1.00  0.00     0.060 A 
ATOM      6  C   UNL A   1      40.143  24.781  26.008  1.00  0.00     0.016 A 
ATOM      7  C   UNL A   1      39.650  24.205  28.281  1.00  0.00     0.016 A 
ATOM      8  C   UNL A   1      40.355  26.108  26.388  1.00  0.00     0.010 A 
ATOM      9  C   UNL A   1      39.861  25.532  28.670  1.00  0.00     0.010 A 
ATOM     10  C   UNL A   1      40.212  26.493  27.718  1.00  0.00    -0.014 A 
BRANCH  10  11
ATOM     11  C   UNL A   1      40.621  27.854  28.125  1.00  0.00     0.031 A 
ATOM     12  C   UNL A   1      42.073  28.200  28.030  1.00  0.00     0.074 A 
ATOM     13  C   UNL A   1      39.714  28.777  28.488  1.00  0.00     0.049 A 
ATOM     14  N   UNL A   1      42.668  29.333  28.278  1.00  0.00    -0.248 NA
ATOM     15  C   UNL A   1      42.965  27.132  27.552  1.00  0.00     0.031 C 
ATOM     16  C   UNL A   1      38.268  28.585  28.454  1.00  0.00     0.029 A 
ATOM     17  N   UNL A   1      39.861  30.058  28.953  1.00  0.00    -0.354 N 
ATOM     18  C   UNL A   1      43.998  29.132  27.931  1.00  0.00     0.074 A 
ATOM     19  C   UNL A   1      44.136  27.744  27.550  1.00  0.00     0.031 C 
ATOM     20  C   UNL A   1      37.658  29.670  28.958  1.00  0.00     0.029 A 
ATOM     21  C   UNL A   1      38.674  30.648  29.327  1.00  0.00     0.049 A 
ATOM     22  H   UNL A   1      40.731  30.512  29.015  1.00  0.00     0.167 HD
ATOM     23  C   UNL A   1      45.000  30.041  27.895  1.00  0.00     0.034 A 
ATOM     24  C   UNL A   1      38.441  31.846  29.896  1.00  0.00     0.034 A 
ATOM     25  C   UNL A   1      44.837  31.403  28.337  1.00  0.00     0.049 A 
ATOM     26  C   UNL A   1      39.612  32.781  30.056  1.00  0.00     0.074 A 
ATOM     27  C   UNL A   1      45.780  32.409  28.405  1.00  0.00     0.029 A 
ATOM     28  N   UNL A   1      43.645  31.939  28.818  1.00  0.00    -0.354 N 
ATOM     29  N   UNL A   1      40.868  32.586  29.719  1.00  0.00    -0.248 NA
ATOM     30  C   UNL A   1      39.334  34.105  30.620  1.00  0.00     0.031 C 
ATOM     31  C   UNL A   1      45.183  33.524  29.007  1.00  0.00     0.029 A 
ATOM     32  C   UNL A   1      43.841  33.246  29.231  1.00  0.00     0.049 A 
ATOM     33  H   UNL A   1      42.787  31.458  28.857  1.00  0.00     0.167 HD
ATOM     34  C   UNL A   1      41.521  33.787  29.975  1.00  0.00     0.074 A 
ATOM     35  C   UNL A   1      40.516  34.693  30.503  1.00  0.00     0.031 C 
ATOM     36  C   UNL A   1      42.822  34.120  29.772  1.00  0.00     0.034 A 
BRANCH  23  37
ATOM     37  C   UNL A   1      46.343  29.536  27.432  1.00  0.00     0.023 A 
ATOM     38  C   UNL A   1      46.568  29.177  26.089  1.00  0.00     0.031 A 
ATOM     39  C   UNL A   1      47.365  29.284  28.361  1.00  0.00     0.131 A 
ATOM     40  C   UNL A   1      47.736  28.483  25.738  1.00  0.00     0.055 A 
ATOM     41  C   UNL A   1      48.566  28.679  27.986  1.00  0.00     0.041 A 
ATOM     42  F   UNL A   1      47.193  29.575  29.660  1.00  0.00    -0.206 F 
ATOM     43  C   UNL A   1      48.747  28.254  26.673  1.00  0.00     0.022 A 
BRANCH  40  44
ATOM     44  S   UNL A   1      47.819  27.703  24.101  1.00  0.00     0.124 S 
ATOM     45  O   UNL A   1      46.856  28.500  23.345  1.00  0.00    -0.237 OA
ATOM     46  O   UNL A   1      49.219  27.881  23.736  1.00  0.00    -0.237 OA
ATOM     47  O   UNL A   1      47.410  26.323  24.357  1.00  0.00    -0.744 OA
ENDBRANCH  40  44
ENDBRANCH  23  37
BRANCH  24  48
ATOM     48  C   UNL A   1      37.069  32.223  30.344  1.00  0.00     0.023 A 
ATOM     49  C   UNL A   1      36.169  32.882  29.493  1.00  0.00     0.031 A 
ATOM     50  C   UNL A   1      36.650  31.953  31.661  1.00  0.00     0.131 A 
ATOM     51  C   UNL A   1      34.913  33.284  29.976  1.00  0.00     0.055 A 
ATOM     52  C   UNL A   1      35.384  32.320  32.126  1.00  0.00     0.041 A 
ATOM     53  F   UNL A   1      37.467  31.317  32.518  1.00  0.00    -0.206 F 
ATOM     54  C   UNL A   1      34.511  33.001  31.284  1.00  0.00     0.022 A 
BRANCH  51  55
ATOM     55  S   UNL A   1      33.830  34.253  28.889  1.00  0.00     0.124 S 
ATOM     56  O   UNL A   1      33.390  33.246  27.932  1.00  0.00    -0.237 OA
ATOM     57  O   UNL A   1      32.819  34.736  29.824  1.00  0.00    -0.237 OA
ATOM     58  O   UNL A   1      34.719  35.281  28.349  1.00  0.00    -0.744 OA
ENDBRANCH  51  55
ENDBRANCH  24  48
BRANCH  36  59
ATOM     59  C   UNL A   1      43.215  35.540  30.088  1.00  0.00     0.023 A 
ATOM     60  C   UNL A   1      43.115  36.562  29.131  1.00  0.00     0.031 A 
ATOM     61  C   UNL A   1      43.701  35.870  31.365  1.00  0.00     0.131 A 
ATOM     62  C   UNL A   1      43.556  37.855  29.446  1.00  0.00     0.055 A 
ATOM     63  C   UNL A   1      44.068  37.175  31.696  1.00  0.00     0.041 A 
ATOM     64  F   UNL A   1      43.821  34.930  32.316  1.00  0.00    -0.206 F 
ATOM     65  C   UNL A   1      44.009  38.173  30.729  1.00  0.00     0.022 A 
BRANCH  62  66
ATOM     66  S   UNL A   1      43.627  39.090  28.121  1.00  0.00     0.124 S 
ATOM     67  O   UNL A   1      42.521  39.973  28.473  1.00  0.00    -0.237 OA
ATOM     68  O   UNL A   1      44.965  39.648  28.287  1.00  0.00    -0.237 OA
ATOM     69  O   UNL A   1      43.431  38.300  26.907  1.00  0.00    -0.744 OA
ENDBRANCH  62  66
ENDBRANCH  36  59
ENDBRANCH  10  11
ENDBRANCH   3   5
ENDBRANCH   2   3
ENDBRANCH   1   2
BRANCH   1  70
ATOM     70  C   UNL A   1      42.007  20.020  26.299  1.00  0.00     0.275 C 
BRANCH  70  71
ATOM     71  O   UNL A   1      42.661  21.171  26.854  1.00  0.00    -0.458 OA
BRANCH  71  72
ATOM     72  C   UNL A   1      43.219  22.045  25.988  1.00  0.00     0.345 C 
ATOM     73  O   UNL A   1      42.965  22.199  24.806  1.00  0.00    -0.246 OA
BRANCH  72  74
ATOM     74  C   UNL A   1      44.139  22.921  26.735  1.00  0.00     0.139 A 
ATOM     75  C   UNL A   1      43.610  23.448  27.943  1.00  0.00     0.053 A 
ATOM     76  C   UNL A   1      45.463  23.217  26.267  1.00  0.00     0.284 A 
ATOM     77  C   UNL A   1      44.537  24.195  28.692  1.00  0.00     0.093 A 
ATOM     78  C   UNL A   1      46.399  24.013  26.983  1.00  0.00     0.098 A 
ATOM     79  N   UNL A   1      44.418  24.759  29.904  1.00  0.00    -0.176 NA
ATOM     80  C   UNL A   1      45.865  24.430  28.193  1.00  0.00     0.026 A 
ATOM     81  N   UNL A   1      45.641  25.269  30.171  1.00  0.00    -0.285 N 
ATOM     82  C   UNL A   1      46.545  25.112  29.161  1.00  0.00     0.114 A 
ATOM     83  H   UNL A   1      45.859  25.715  31.021  1.00  0.00     0.189 HD
BRANCH  76  84
ATOM     84  N   UNL A   1      45.919  22.714  24.973  1.00  0.00     0.063 N 
ATOM     85  O   UNL A   1      45.780  23.467  24.000  1.00  0.00    -0.258 OA
ATOM     86  O   UNL A   1      46.439  21.593  24.928  1.00  0.00    -0.258 OA
ENDBRANCH  76  84
ENDBRANCH  72  74
ENDBRANCH  71  72
ENDBRANCH  70  71
ENDBRANCH   1  70
TORSDOF 15
ENDMDL
MODEL 2
REMARK VINA RESULT:     -10.5      2.986      5.306
REMARK SMILES O=C(OCCOC(=O)c1cc2n[nH]cc2cc1[N+](=O)[O-])c1ccc(-c2c3nc(c(-c4cc(S(=O)(=O)[O-])ccc4F)c4ccc([nH]4)c(-c4cc(S(=O)(=O)[O-])ccc4F)c4nc(c(-c5cc(S(=O)(=O)[O-])ccc5F)c5ccc2[nH]5)C=C4)C=C3)cc1
REMARK SMILES IDX 4 1 3 2 2 3 1 4 21 5 22 6 83 7 23 8 82 9 24 10 25 11 26 12
REMARK SMILES IDX 76 13 27 14 81 15 75 16 77 17 28 18 80 19 74 20 73 21 29 23
REMARK SMILES IDX 61 24 41 25 60 26 42 27 45 28 59 29 78 30 43 31 44 32 58 34
REMARK SMILES IDX 79 35 46 36 30 37 31 38 39 39 32 40 38 41 40 42 37 43 33 44
REMARK SMILES IDX 34 45 35 46 36 47 62 48 63 49 71 50 64 51 70 52 72 53 69 54
REMARK SMILES IDX 65 55 66 56 67 57 68 58 47 59 48 60 56 61 49 62 55 63 57 64
REMARK SMILES IDX 54 65 50 66 51 67 52 68 53 69 5 70 6 71 7 72 8 73 9 74 10 75
REMARK SMILES IDX 17 76 11 77 16 78 12 79 15 80 13 81 14 82 18 84 19 85 20 86
REMARK H PARENT 77 22 45 33 13 83
REMARK Flexibility Score: inf
ROOT
ATOM      1  C   UNL A   1      37.103  22.350  25.199  1.00  0.00     0.275 C 
ENDROOT
BRANCH   1   2
ATOM      2  O   UNL A   1      38.023  21.913  26.215  1.00  0.00    -0.458 OA
BRANCH   2   3
ATOM      3  C   UNL A   1      39.280  22.329  26.501  1.00  0.00     0.338 C 
ATOM      4  O   UNL A   1      40.157  21.471  26.596  1.00  0.00    -0.246 OA
BRANCH   3   5
ATOM      5  C   UNL A   1      39.660  23.749  26.815  1.00  0.00     0.060 A 
ATOM      6  C   UNL A   1      40.019  24.734  25.891  1.00  0.00     0.016 A 
ATOM      7  C   UNL A   1      39.618  24.119  28.172  1.00  0.00     0.016 A 
ATOM      8  C   UNL A   1      40.235  26.058  26.283  1.00  0.00     0.010 A 
ATOM      9  C   UNL A   1      39.833  25.442  28.573  1.00  0.00     0.010 A 
ATOM     10  C   UNL A   1      40.139  26.421  27.624  1.00  0.00    -0.014 A 
BRANCH  10  11
ATOM     11  C   UNL A   1      40.552  27.779  28.036  1.00  0.00     0.031 A 
ATOM     12  C   UNL A   1      42.005  28.123  27.938  1.00  0.00     0.074 A 
ATOM     13  C   UNL A   1      39.648  28.702  28.407  1.00  0.00     0.049 A 
ATOM     14  N   UNL A   1      42.602  29.253  28.189  1.00  0.00    -0.248 NA
ATOM     15  C   UNL A   1      42.893  27.055  27.451  1.00  0.00     0.031 C 
ATOM     16  C   UNL A   1      38.201  28.512  28.376  1.00  0.00     0.029 A 
ATOM     17  N   UNL A   1      39.799  29.980  28.877  1.00  0.00    -0.354 N 
ATOM     18  C   UNL A   1      43.931  29.052  27.837  1.00  0.00     0.074 A 
ATOM     19  C   UNL A   1      44.065  27.665  27.449  1.00  0.00     0.031 C 
ATOM     20  C   UNL A   1      37.595  29.596  28.887  1.00  0.00     0.029 A 
ATOM     21  C   UNL A   1      38.614  30.571  29.258  1.00  0.00     0.049 A 
ATOM     22  H   UNL A   1      40.670  30.433  28.938  1.00  0.00     0.167 HD
ATOM     23  C   UNL A   1      44.934  29.960  27.802  1.00  0.00     0.034 A 
ATOM     24  C   UNL A   1      38.385  31.766  29.834  1.00  0.00     0.034 A 
ATOM     25  C   UNL A   1      44.775  31.319  28.252  1.00  0.00     0.049 A 
ATOM     26  C   UNL A   1      39.558  32.699  29.994  1.00  0.00     0.074 A 
ATOM     27  C   UNL A   1      45.720  32.324  28.321  1.00  0.00     0.029 A 
ATOM     28  N   UNL A   1      43.586  31.855  28.739  1.00  0.00    -0.354 N 
ATOM     29  N   UNL A   1      40.813  32.503  29.652  1.00  0.00    -0.248 NA
ATOM     30  C   UNL A   1      39.285  34.020  30.566  1.00  0.00     0.031 C 
ATOM     31  C   UNL A   1      45.127  33.436  28.930  1.00  0.00     0.029 A 
ATOM     32  C   UNL A   1      43.785  33.160  29.157  1.00  0.00     0.049 A 
ATOM     33  H   UNL A   1      42.727  31.375  28.779  1.00  0.00     0.167 HD
ATOM     34  C   UNL A   1      41.469  33.701  29.912  1.00  0.00     0.074 A 
ATOM     35  C   UNL A   1      40.468  34.606  30.448  1.00  0.00     0.031 C 
ATOM     36  C   UNL A   1      42.770  34.033  29.707  1.00  0.00     0.034 A 
BRANCH  23  37
ATOM     37  C   UNL A   1      46.275  29.454  27.332  1.00  0.00     0.023 A 
ATOM     38  C   UNL A   1      46.501  29.119  25.983  1.00  0.00     0.031 A 
ATOM     39  C   UNL A   1      47.293  29.177  28.259  1.00  0.00     0.131 A 
ATOM     40  C   UNL A   1      47.664  28.424  25.621  1.00  0.00     0.055 A 
ATOM     41  C   UNL A   1      48.490  28.572  27.874  1.00  0.00     0.041 A 
ATOM     42  F   UNL A   1      47.120  29.445  29.562  1.00  0.00    -0.206 F 
ATOM     43  C   UNL A   1      48.672  28.170  26.553  1.00  0.00     0.022 A 
BRANCH  40  44
ATOM     44  S   UNL A   1      47.746  27.675  23.970  1.00  0.00     0.124 S 
ATOM     45  O   UNL A   1      47.328  26.303  24.248  1.00  0.00    -0.237 OA
ATOM     46  O   UNL A   1      46.804  28.485  23.207  1.00  0.00    -0.237 OA
ATOM     47  O   UNL A   1      49.150  27.826  23.593  1.00  0.00    -0.744 OA
ENDBRANCH  40  44
ENDBRANCH  23  37
BRANCH  24  48
ATOM     48  C   UNL A   1      37.016  32.144  30.288  1.00  0.00     0.023 A 
ATOM     49  C   UNL A   1      36.126  32.839  29.455  1.00  0.00     0.031 A 
ATOM     50  C   UNL A   1      36.588  31.836  31.594  1.00  0.00     0.131 A 
ATOM     51  C   UNL A   1      34.872  33.239  29.945  1.00  0.00     0.055 A 
ATOM     52  C   UNL A   1      35.324  32.202  32.066  1.00  0.00     0.041 A 
ATOM     53  F   UNL A   1      37.395  31.165  32.433  1.00  0.00    -0.206 F 
ATOM     54  C   UNL A   1      34.462  32.919  31.242  1.00  0.00     0.022 A 
BRANCH  51  55
ATOM     55  S   UNL A   1      33.804  34.253  28.885  1.00  0.00     0.124 S 
ATOM     56  O   UNL A   1      32.778  34.689  29.825  1.00  0.00    -0.237 OA
ATOM     57  O   UNL A   1      34.730  35.282  28.423  1.00  0.00    -0.237 OA
ATOM     58  O   UNL A   1      33.353  33.316  27.858  1.00  0.00    -0.744 OA
ENDBRANCH  51  55
ENDBRANCH  24  48
BRANCH  36  59
ATOM     59  C   UNL A   1      43.166  35.450  30.028  1.00  0.00     0.023 A 
ATOM     60  C   UNL A   1      43.049  36.481  29.082  1.00  0.00     0.031 A 
ATOM     61  C   UNL A   1      43.674  35.770  31.299  1.00  0.00     0.131 A 
ATOM     62  C   UNL A   1      43.493  37.772  29.401  1.00  0.00     0.055 A 
ATOM     63  C   UNL A   1      44.045  37.072  31.636  1.00  0.00     0.041 A 
ATOM     64  F   UNL A   1      43.812  34.821  32.240  1.00  0.00    -0.206 F 
ATOM     65  C   UNL A   1      43.968  38.079  30.678  1.00  0.00     0.022 A 
BRANCH  62  66
ATOM     66  S   UNL A   1      43.540  39.019  28.085  1.00  0.00     0.124 S 
ATOM     67  O   UNL A   1      42.142  39.072  27.672  1.00  0.00    -0.237 OA
ATOM     68  O   UNL A   1      44.042  40.195  28.788  1.00  0.00    -0.237 OA
ATOM     69  O   UNL A   1      44.457  38.444  27.103  1.00  0.00    -0.744 OA
ENDBRANCH  62  66
ENDBRANCH  36  59
ENDBRANCH  10  11
ENDBRANCH   3   5
ENDBRANCH   2   3
ENDBRANCH   1   2
BRANCH   1  70
ATOM     70  C   UNL A   1      35.646  22.402  25.662  1.00  0.00     0.275 C 
BRANCH  70  71
ATOM     71  O   UNL A   1      35.198  23.749  25.873  1.00  0.00    -0.458 OA
BRANCH  71  72
ATOM     72  C   UNL A   1      33.878  23.994  25.716  1.00  0.00     0.345 C 
ATOM     73  O   UNL A   1      32.939  23.433  26.253  1.00  0.00    -0.246 OA
BRANCH  72  74
ATOM     74  C   UNL A   1      33.722  25.181  24.856  1.00  0.00     0.139 A 
ATOM     75  C   UNL A   1      33.639  26.415  25.554  1.00  0.00     0.053 A 
ATOM     76  C   UNL A   1      33.654  25.086  23.425  1.00  0.00     0.284 A 
ATOM     77  C   UNL A   1      33.596  27.541  24.713  1.00  0.00     0.093 A 
ATOM     78  C   UNL A   1      33.557  26.208  22.559  1.00  0.00     0.098 A 
ATOM     79  N   UNL A   1      33.603  28.850  25.015  1.00  0.00    -0.176 NA
ATOM     80  C   UNL A   1      33.568  27.391  23.283  1.00  0.00     0.026 A 
ATOM     81  N   UNL A   1      33.641  29.481  23.822  1.00  0.00    -0.285 N 
ATOM     82  C   UNL A   1      33.604  28.645  22.744  1.00  0.00     0.114 A 
ATOM     83  H   UNL A   1      33.691  30.461  23.737  1.00  0.00     0.189 HD
BRANCH  76  84
ATOM     84  N   UNL A   1      33.659  23.778  22.771  1.00  0.00     0.063 N 
ATOM     85  O   UNL A   1      34.760  23.333  22.422  1.00  0.00    -0.258 OA
ATOM     86  O   UNL A   1      32.582  23.186  22.634  1.00  0.00    -0.258 OA
ENDBRANCH  76  84
ENDBRANCH  72  74
ENDBRANCH  71  72
ENDBRANCH  70  71
ENDBRANCH   1  70
TORSDOF 15
ENDMDL
MODEL 3
REMARK VINA RESULT:     -10.4      5.822     11.842
REMARK SMILES O=C(OCCOC(=O)c1cc2n[nH]cc2cc1[N+](=O)[O-])c1ccc(-c2c3nc(c(-c4cc(S(=O)(=O)[O-])ccc4F)c4ccc([nH]4)c(-c4cc(S(=O)(=O)[O-])ccc4F)c4nc(c(-c5cc(S(=O)(=O)[O-])ccc5F)c5ccc2[nH]5)C=C4)C=C3)cc1
REMARK SMILES IDX 4 1 3 2 2 3 1 4 21 5 22 6 83 7 23 8 82 9 24 10 25 11 26 12
REMARK SMILES IDX 76 13 27 14 81 15 75 16 77 17 28 18 80 19 74 20 73 21 29 23
REMARK SMILES IDX 61 24 41 25 60 26 42 27 45 28 59 29 78 30 43 31 44 32 58 34
REMARK SMILES IDX 79 35 46 36 30 37 31 38 39 39 32 40 38 41 40 42 37 43 33 44
REMARK SMILES IDX 34 45 35 46 36 47 62 48 63 49 71 50 64 51 70 52 72 53 69 54
REMARK SMILES IDX 65 55 66 56 67 57 68 58 47 59 48 60 56 61 49 62 55 63 57 64
REMARK SMILES IDX 54 65 50 66 51 67 52 68 53 69 5 70 6 71 7 72 8 73 9 74 10 75
REMARK SMILES IDX 17 76 11 77 16 78 12 79 15 80 13 81 14 82 18 84 19 85 20 86
REMARK H PARENT 77 22 45 33 13 83
REMARK Flexibility Score: inf
ROOT
ATOM      1  C   UNL A   1      32.155  30.245  26.605  1.00  0.00     0.275 C 
ENDROOT
BRANCH   1   2
ATOM      2  O   UNL A   1      33.590  30.361  26.607  1.00  0.00    -0.458 OA
BRANCH   2   3
ATOM      3  C   UNL A   1      34.419  30.984  27.478  1.00  0.00     0.338 C 
ATOM      4  O   UNL A   1      34.213  32.176  27.707  1.00  0.00    -0.246 OA
BRANCH   3   5
ATOM      5  C   UNL A   1      35.635  30.357  28.099  1.00  0.00     0.060 A 
ATOM      6  C   UNL A   1      35.697  29.723  29.343  1.00  0.00     0.016 A 
ATOM      7  C   UNL A   1      36.815  30.392  27.332  1.00  0.00     0.016 A 
ATOM      8  C   UNL A   1      36.853  29.066  29.770  1.00  0.00     0.010 A 
ATOM      9  C   UNL A   1      37.977  29.736  27.753  1.00  0.00     0.010 A 
ATOM     10  C   UNL A   1      37.997  29.064  28.978  1.00  0.00    -0.014 A 
BRANCH  10  11
ATOM     11  C   UNL A   1      39.258  28.524  29.529  1.00  0.00     0.031 A 
ATOM     12  C   UNL A   1      39.800  29.158  30.771  1.00  0.00     0.074 A 
ATOM     13  C   UNL A   1      39.855  27.449  28.986  1.00  0.00     0.049 A 
ATOM     14  N   UNL A   1      40.852  28.835  31.469  1.00  0.00    -0.248 NA
ATOM     15  C   UNL A   1      39.024  30.282  31.317  1.00  0.00     0.031 C 
ATOM     16  C   UNL A   1      39.316  26.665  27.879  1.00  0.00     0.029 A 
ATOM     17  N   UNL A   1      41.036  26.822  29.284  1.00  0.00    -0.354 N 
ATOM     18  C   UNL A   1      40.835  29.680  32.571  1.00  0.00     0.074 A 
ATOM     19  C   UNL A   1      39.724  30.590  32.394  1.00  0.00     0.031 C 
ATOM     20  C   UNL A   1      40.198  25.715  27.530  1.00  0.00     0.029 A 
ATOM     21  C   UNL A   1      41.356  25.806  28.411  1.00  0.00     0.049 A 
ATOM     22  H   UNL A   1      41.602  27.074  30.048  1.00  0.00     0.167 HD
ATOM     23  C   UNL A   1      41.650  29.664  33.651  1.00  0.00     0.034 A 
ATOM     24  C   UNL A   1      42.459  25.036  28.340  1.00  0.00     0.034 A 
ATOM     25  C   UNL A   1      42.781  28.779  33.764  1.00  0.00     0.049 A 
ATOM     26  C   UNL A   1      43.480  25.178  29.440  1.00  0.00     0.074 A 
ATOM     27  C   UNL A   1      43.717  28.697  34.776  1.00  0.00     0.029 A 
ATOM     28  N   UNL A   1      43.144  27.836  32.806  1.00  0.00    -0.354 N 
ATOM     29  N   UNL A   1      43.453  25.977  30.484  1.00  0.00    -0.248 NA
ATOM     30  C   UNL A   1      44.645  24.292  29.384  1.00  0.00     0.031 C 
ATOM     31  C   UNL A   1      44.692  27.769  34.390  1.00  0.00     0.029 A 
ATOM     32  C   UNL A   1      44.317  27.203  33.179  1.00  0.00     0.049 A 
ATOM     33  H   UNL A   1      42.638  27.647  31.983  1.00  0.00     0.167 HD
ATOM     34  C   UNL A   1      44.570  25.647  31.244  1.00  0.00     0.074 A 
ATOM     35  C   UNL A   1      45.249  24.582  30.528  1.00  0.00     0.031 C 
ATOM     36  C   UNL A   1      44.983  26.156  32.433  1.00  0.00     0.034 A 
BRANCH  23  37
ATOM     37  C   UNL A   1      41.360  30.687  34.722  1.00  0.00     0.023 A 
ATOM     38  C   UNL A   1      40.218  30.589  35.539  1.00  0.00     0.031 A 
ATOM     39  C   UNL A   1      42.156  31.838  34.835  1.00  0.00     0.131 A 
ATOM     40  C   UNL A   1      39.843  31.671  36.348  1.00  0.00     0.055 A 
ATOM     41  C   UNL A   1      41.828  32.872  35.715  1.00  0.00     0.041 A 
ATOM     42  F   UNL A   1      43.237  32.000  34.058  1.00  0.00    -0.206 F 
ATOM     43  C   UNL A   1      40.654  32.803  36.460  1.00  0.00     0.022 A 
BRANCH  40  44
ATOM     44  S   UNL A   1      38.184  31.669  37.083  1.00  0.00     0.124 S 
ATOM     45  O   UNL A   1      38.447  32.224  38.409  1.00  0.00    -0.237 OA
ATOM     46  O   UNL A   1      37.432  32.524  36.172  1.00  0.00    -0.237 OA
ATOM     47  O   UNL A   1      37.805  30.257  37.071  1.00  0.00    -0.744 OA
ENDBRANCH  40  44
ENDBRANCH  23  37
BRANCH  24  48
ATOM     48  C   UNL A   1      42.650  24.079  27.212  1.00  0.00     0.023 A 
ATOM     49  C   UNL A   1      42.103  22.787  27.239  1.00  0.00     0.031 A 
ATOM     50  C   UNL A   1      43.422  24.442  26.092  1.00  0.00     0.131 A 
ATOM     51  C   UNL A   1      42.366  21.892  26.189  1.00  0.00     0.055 A 
ATOM     52  C   UNL A   1      43.649  23.562  25.031  1.00  0.00     0.041 A 
ATOM     53  F   UNL A   1      43.963  25.669  26.009  1.00  0.00    -0.206 F 
ATOM     54  C   UNL A   1      43.129  22.272  25.082  1.00  0.00     0.022 A 
BRANCH  51  55
ATOM     55  S   UNL A   1      41.756  20.188  26.323  1.00  0.00     0.124 S 
ATOM     56  O   UNL A   1      40.319  20.373  26.167  1.00  0.00    -0.237 OA
ATOM     57  O   UNL A   1      42.444  19.535  25.214  1.00  0.00    -0.237 OA
ATOM     58  O   UNL A   1      42.192  19.773  27.656  1.00  0.00    -0.744 OA
ENDBRANCH  51  55
ENDBRANCH  24  48
BRANCH  36  59
ATOM     59  C   UNL A   1      46.210  25.533  33.047  1.00  0.00     0.023 A 
ATOM     60  C   UNL A   1      46.121  24.443  33.927  1.00  0.00     0.031 A 
ATOM     61  C   UNL A   1      47.486  26.043  32.749  1.00  0.00     0.131 A 
ATOM     62  C   UNL A   1      47.282  23.937  34.528  1.00  0.00     0.055 A 
ATOM     63  C   UNL A   1      48.644  25.488  33.292  1.00  0.00     0.041 A 
ATOM     64  F   UNL A   1      47.627  27.088  31.917  1.00  0.00    -0.206 F 
ATOM     65  C   UNL A   1      48.544  24.437  34.199  1.00  0.00     0.022 A 
BRANCH  62  66
ATOM     66  S   UNL A   1      47.106  22.687  35.829  1.00  0.00     0.124 S 
ATOM     67  O   UNL A   1      47.645  21.498  35.177  1.00  0.00    -0.237 OA
ATOM     68  O   UNL A   1      47.916  23.243  36.908  1.00  0.00    -0.237 OA
ATOM     69  O   UNL A   1      45.668  22.659  36.084  1.00  0.00    -0.744 OA
ENDBRANCH  62  66
ENDBRANCH  36  59
ENDBRANCH  10  11
ENDBRANCH   3   5
ENDBRANCH   2   3
ENDBRANCH   1   2
BRANCH   1  70
ATOM     70  C   UNL A   1      31.568  29.849  25.249  1.00  0.00     0.275 C 
BRANCH  70  71
ATOM     71  O   UNL A   1      31.446  28.425  25.111  1.00  0.00    -0.458 OA
BRANCH  71  72
ATOM     72  C   UNL A   1      32.497  27.762  24.581  1.00  0.00     0.345 C 
ATOM     73  O   UNL A   1      33.527  28.226  24.124  1.00  0.00    -0.246 OA
BRANCH  72  74
ATOM     74  C   UNL A   1      32.271  26.315  24.752  1.00  0.00     0.139 A 
ATOM     75  C   UNL A   1      32.081  25.898  26.097  1.00  0.00     0.053 A 
ATOM     76  C   UNL A   1      32.253  25.406  23.642  1.00  0.00     0.284 A 
ATOM     77  C   UNL A   1      31.765  24.535  26.229  1.00  0.00     0.093 A 
ATOM     78  C   UNL A   1      31.987  24.015  23.758  1.00  0.00     0.098 A 
ATOM     79  N   UNL A   1      31.439  23.821  27.319  1.00  0.00    -0.176 NA
ATOM     80  C   UNL A   1      31.722  23.674  25.077  1.00  0.00     0.026 A 
ATOM     81  N   UNL A   1      31.146  22.588  26.852  1.00  0.00    -0.285 N 
ATOM     82  C   UNL A   1      31.319  22.442  25.507  1.00  0.00     0.114 A 
ATOM     83  H   UNL A   1      30.836  21.857  27.434  1.00  0.00     0.189 HD
BRANCH  76  84
ATOM     84  N   UNL A   1      32.541  25.885  22.291  1.00  0.00     0.063 N 
ATOM     85  O   UNL A   1      31.590  26.353  21.650  1.00  0.00    -0.258 OA
ATOM     86  O   UNL A   1      33.706  25.827  21.882  1.00  0.00    -0.258 OA
ENDBRANCH  76  84
ENDBRANCH  72  74
ENDBRANCH  71  72
ENDBRANCH  70  71
ENDBRANCH   1  70
TORSDOF 15
ENDMDL
