MODEL 1
REMARK VINA RESULT:     -11.5      0.000      0.000
REMARK SMILES CCOC(=O)CS[C@H]1CC(=O)N(c2ccc(C(=O)OCCOC(=O)c3ccc(-c4c5nc(c(-c6cc(S(=O)(=O)[O-])ccc6F)c6ccc([nH]6)c(-c6cc(S(=O)(=O)[O-])ccc6F)c6nc(c(-c7cc(S(=O)(=O)[O-])ccc7F)c7ccc4[nH]7)C=C6)C=C5)cc3)c(O)c2)C1=O
REMARK SMILES IDX 19 1 17 2 18 3 16 4 13 5 14 6 90 7 15 8 88 9 12 10 8 11 9 12
REMARK SMILES IDX 91 13 10 14 92 15 11 16 7 17 6 18 4 19 5 20 3 21 2 22 1 23
REMARK SMILES IDX 89 24 20 26 21 27 22 28 23 29 24 30 25 31 26 32 87 33 27 34
REMARK SMILES IDX 86 35 28 36 29 37 30 38 80 39 31 40 85 41 79 42 81 43 32 44
REMARK SMILES IDX 84 45 78 46 77 47 33 49 65 50 45 51 64 52 46 53 49 54 63 55
REMARK SMILES IDX 82 56 47 57 48 58 62 60 83 61 50 62 34 63 35 64 43 65 36 66
REMARK SMILES IDX 42 67 44 68 41 69 37 70 38 71 39 72 40 73 66 74 67 75 75 76
REMARK SMILES IDX 68 77 74 78 76 79 73 80 69 81 70 82 71 83 72 84 51 85 52 86
REMARK SMILES IDX 60 87 53 88 59 89 61 90 58 91 54 92 55 93 56 94 57 95
REMARK H PARENT 89 25 81 48 49 59
REMARK Flexibility Score: inf
ROOT
ATOM      1  O   UNL A   1      32.863  29.211  24.683  1.00  0.00    -0.458 OA
ENDROOT
BRANCH   1   2
ATOM      2  C   UNL A   1      32.887  28.555  23.490  1.00  0.00     0.342 C 
ATOM      3  O   UNL A   1      32.814  29.064  22.389  1.00  0.00    -0.246 OA
BRANCH   2   4
ATOM      4  C   UNL A   1      33.102  27.103  23.694  1.00  0.00     0.101 A 
ATOM      5  C   UNL A   1      33.641  24.407  24.232  1.00  0.00     0.055 A 
ATOM      6  C   UNL A   1      33.670  25.338  25.265  1.00  0.00     0.028 A 
ATOM      7  C   UNL A   1      33.345  24.820  22.926  1.00  0.00     0.074 A 
ATOM      8  C   UNL A   1      33.480  26.683  24.975  1.00  0.00     0.022 A 
ATOM      9  C   UNL A   1      33.014  26.154  22.673  1.00  0.00     0.132 A 
BRANCH   5  10
ATOM     10  N   UNL A   1      33.951  23.073  24.528  1.00  0.00    -0.249 N 
ATOM     11  C   UNL A   1      33.736  20.840  25.131  1.00  0.00     0.146 C 
ATOM     12  C   UNL A   1      35.170  21.094  24.703  1.00  0.00     0.125 C 
ATOM     13  C   UNL A   1      33.005  22.123  24.820  1.00  0.00     0.247 C 
ATOM     14  C   UNL A   1      35.222  22.568  24.458  1.00  0.00     0.235 C 
ATOM     15  O   UNL A   1      31.791  22.275  24.870  1.00  0.00    -0.273 OA
ATOM     16  O   UNL A   1      36.263  23.173  24.248  1.00  0.00    -0.274 OA
BRANCH  11  17
ATOM     17  S   UNL A   1      33.001  19.383  24.311  1.00  0.00    -0.136 SA
BRANCH  17  18
ATOM     18  C   UNL A   1      34.387  18.187  24.421  1.00  0.00     0.192 C 
BRANCH  18  19
ATOM     19  C   UNL A   1      34.140  16.923  23.623  1.00  0.00     0.315 C 
ATOM     20  O   UNL A   1      34.094  16.875  22.401  1.00  0.00    -0.251 OA
BRANCH  19  21
ATOM     21  O   UNL A   1      34.024  15.842  24.441  1.00  0.00    -0.465 OA
BRANCH  21  22
ATOM     22  C   UNL A   1      32.900  15.803  25.328  1.00  0.00     0.229 C 
ATOM     23  C   UNL A   1      32.510  14.369  25.642  1.00  0.00     0.049 C 
ENDBRANCH  21  22
ENDBRANCH  19  21
ENDBRANCH  18  19
ENDBRANCH  17  18
ENDBRANCH  11  17
ENDBRANCH   5  10
BRANCH   9  24
ATOM     24  O   UNL A   1      32.630  26.461  21.397  1.00  0.00    -0.507 OA
ATOM     25  H   UNL A   1      32.525  27.356  21.141  1.00  0.00     0.293 HD
ENDBRANCH   9  24
ENDBRANCH   2   4
ENDBRANCH   1   2
BRANCH   1  26
ATOM     26  C   UNL A   1      31.580  29.765  25.052  1.00  0.00     0.275 C 
BRANCH  26  27
ATOM     27  C   UNL A   1      31.700  30.818  26.158  1.00  0.00     0.275 C 
BRANCH  27  28
ATOM     28  O   UNL A   1      32.832  30.552  27.008  1.00  0.00    -0.458 OA
BRANCH  28  29
ATOM     29  C   UNL A   1      33.511  31.652  27.411  1.00  0.00     0.338 C 
ATOM     30  O   UNL A   1      33.053  32.766  27.602  1.00  0.00    -0.246 OA
BRANCH  29  31
ATOM     31  C   UNL A   1      34.907  31.311  27.727  1.00  0.00     0.060 A 
ATOM     32  C   UNL A   1      35.179  29.984  28.019  1.00  0.00     0.016 A 
ATOM     33  C   UNL A   1      35.875  32.281  27.965  1.00  0.00     0.016 A 
ATOM     34  C   UNL A   1      36.329  29.635  28.717  1.00  0.00     0.010 A 
ATOM     35  C   UNL A   1      37.110  31.898  28.517  1.00  0.00     0.010 A 
ATOM     36  C   UNL A   1      37.335  30.579  28.958  1.00  0.00    -0.014 A 
BRANCH  36  37
ATOM     37  C   UNL A   1      38.580  30.182  29.695  1.00  0.00     0.031 A 
ATOM     38  C   UNL A   1      39.573  29.231  29.065  1.00  0.00     0.074 A 
ATOM     39  C   UNL A   1      38.854  30.697  30.914  1.00  0.00     0.049 A 
ATOM     40  N   UNL A   1      40.610  28.635  29.602  1.00  0.00    -0.248 NA
ATOM     41  C   UNL A   1      39.362  28.891  27.650  1.00  0.00     0.031 C 
ATOM     42  C   UNL A   1      38.027  31.674  31.630  1.00  0.00     0.029 A 
ATOM     43  N   UNL A   1      39.913  30.488  31.768  1.00  0.00    -0.354 N 
ATOM     44  C   UNL A   1      41.137  27.809  28.611  1.00  0.00     0.074 A 
ATOM     45  C   UNL A   1      40.288  27.965  27.448  1.00  0.00     0.031 C 
ATOM     46  C   UNL A   1      38.636  32.023  32.771  1.00  0.00     0.029 A 
ATOM     47  C   UNL A   1      39.827  31.203  32.943  1.00  0.00     0.049 A 
ATOM     48  H   UNL A   1      40.662  29.884  31.559  1.00  0.00     0.167 HD
ATOM     49  C   UNL A   1      42.229  27.003  28.665  1.00  0.00     0.034 A 
ATOM     50  C   UNL A   1      40.577  31.168  34.063  1.00  0.00     0.034 A 
ATOM     51  C   UNL A   1      43.093  26.893  29.817  1.00  0.00     0.049 A 
ATOM     52  C   UNL A   1      41.732  30.204  34.130  1.00  0.00     0.074 A 
ATOM     53  C   UNL A   1      44.227  26.114  29.973  1.00  0.00     0.029 A 
ATOM     54  N   UNL A   1      42.927  27.587  31.010  1.00  0.00    -0.354 N 
ATOM     55  N   UNL A   1      42.175  29.381  33.208  1.00  0.00    -0.248 NA
ATOM     56  C   UNL A   1      42.480  30.155  35.392  1.00  0.00     0.031 C 
ATOM     57  C   UNL A   1      44.701  26.279  31.279  1.00  0.00     0.029 A 
ATOM     58  C   UNL A   1      43.917  27.230  31.913  1.00  0.00     0.049 A 
ATOM     59  H   UNL A   1      42.210  28.239  31.188  1.00  0.00     0.167 HD
ATOM     60  C   UNL A   1      43.270  28.735  33.775  1.00  0.00     0.074 A 
ATOM     61  C   UNL A   1      43.433  29.282  35.105  1.00  0.00     0.031 C 
ATOM     62  C   UNL A   1      44.069  27.775  33.242  1.00  0.00     0.034 A 
BRANCH  49  63
ATOM     63  C   UNL A   1      42.516  26.129  27.463  1.00  0.00     0.023 A 
ATOM     64  C   UNL A   1      42.035  24.813  27.357  1.00  0.00     0.031 A 
ATOM     65  C   UNL A   1      43.305  26.623  26.406  1.00  0.00     0.131 A 
ATOM     66  C   UNL A   1      42.406  24.015  26.261  1.00  0.00     0.055 A 
ATOM     67  C   UNL A   1      43.599  25.854  25.278  1.00  0.00     0.041 A 
ATOM     68  F   UNL A   1      43.812  27.866  26.455  1.00  0.00    -0.206 F 
ATOM     69  C   UNL A   1      43.162  24.537  25.209  1.00  0.00     0.022 A 
BRANCH  66  70
ATOM     70  S   UNL A   1      42.014  22.245  26.304  1.00  0.00     0.124 S 
ATOM     71  O   UNL A   1      42.743  21.754  25.137  1.00  0.00    -0.237 OA
ATOM     72  O   UNL A   1      42.537  21.836  27.603  1.00  0.00    -0.237 OA
ATOM     73  O   UNL A   1      40.558  22.213  26.179  1.00  0.00    -0.744 OA
ENDBRANCH  66  70
ENDBRANCH  49  63
BRANCH  50  74
ATOM     74  C   UNL A   1      40.219  32.009  35.245  1.00  0.00     0.023 A 
ATOM     75  C   UNL A   1      39.270  31.576  36.184  1.00  0.00     0.031 A 
ATOM     76  C   UNL A   1      40.780  33.289  35.424  1.00  0.00     0.131 A 
ATOM     77  C   UNL A   1      38.876  32.429  37.228  1.00  0.00     0.055 A 
ATOM     78  C   UNL A   1      40.439  34.104  36.503  1.00  0.00     0.041 A 
ATOM     79  F   UNL A   1      41.683  33.764  34.551  1.00  0.00    -0.206 F 
ATOM     80  C   UNL A   1      39.469  33.681  37.406  1.00  0.00     0.022 A 
BRANCH  77  81
ATOM     81  S   UNL A   1      37.492  31.925  38.286  1.00  0.00     0.124 S 
ATOM     82  O   UNL A   1      36.460  32.879  37.896  1.00  0.00    -0.237 OA
ATOM     83  O   UNL A   1      37.280  30.543  37.868  1.00  0.00    -0.237 OA
ATOM     84  O   UNL A   1      38.020  32.092  39.638  1.00  0.00    -0.744 OA
ENDBRANCH  77  81
ENDBRANCH  50  74
BRANCH  62  85
ATOM     85  C   UNL A   1      45.226  27.301  34.087  1.00  0.00     0.023 A 
ATOM     86  C   UNL A   1      46.487  27.921  34.034  1.00  0.00     0.031 A 
ATOM     87  C   UNL A   1      45.069  26.195  34.942  1.00  0.00     0.131 A 
ATOM     88  C   UNL A   1      47.557  27.391  34.772  1.00  0.00     0.055 A 
ATOM     89  C   UNL A   1      46.119  25.716  35.726  1.00  0.00     0.041 A 
ATOM     90  F   UNL A   1      43.889  25.560  35.028  1.00  0.00    -0.206 F 
ATOM     91  C   UNL A   1      47.377  26.305  35.631  1.00  0.00     0.022 A 
BRANCH  88  92
ATOM     92  S   UNL A   1      49.217  28.074  34.508  1.00  0.00     0.124 S 
ATOM     93  O   UNL A   1      49.683  28.274  35.876  1.00  0.00    -0.237 OA
ATOM     94  O   UNL A   1      49.876  27.012  33.757  1.00  0.00    -0.237 OA
ATOM     95  O   UNL A   1      48.966  29.301  33.754  1.00  0.00    -0.744 OA
ENDBRANCH  88  92
ENDBRANCH  62  85
ENDBRANCH  36  37
ENDBRANCH  29  31
ENDBRANCH  28  29
ENDBRANCH  27  28
ENDBRANCH  26  27
ENDBRANCH   1  26
TORSDOF 21
ENDMDL
MODEL 2
REMARK VINA RESULT:     -10.8      2.135      2.435
REMARK SMILES CCOC(=O)CS[C@H]1CC(=O)N(c2ccc(C(=O)OCCOC(=O)c3ccc(-c4c5nc(c(-c6cc(S(=O)(=O)[O-])ccc6F)c6ccc([nH]6)c(-c6cc(S(=O)(=O)[O-])ccc6F)c6nc(c(-c7cc(S(=O)(=O)[O-])ccc7F)c7ccc4[nH]7)C=C6)C=C5)cc3)c(O)c2)C1=O
REMARK SMILES IDX 19 1 17 2 18 3 16 4 13 5 14 6 90 7 15 8 88 9 12 10 8 11 9 12
REMARK SMILES IDX 91 13 10 14 92 15 11 16 7 17 6 18 4 19 5 20 3 21 2 22 1 23
REMARK SMILES IDX 89 24 20 26 21 27 22 28 23 29 24 30 25 31 26 32 87 33 27 34
REMARK SMILES IDX 86 35 28 36 29 37 30 38 80 39 31 40 85 41 79 42 81 43 32 44
REMARK SMILES IDX 84 45 78 46 77 47 33 49 65 50 45 51 64 52 46 53 49 54 63 55
REMARK SMILES IDX 82 56 47 57 48 58 62 60 83 61 50 62 34 63 35 64 43 65 36 66
REMARK SMILES IDX 42 67 44 68 41 69 37 70 38 71 39 72 40 73 66 74 67 75 75 76
REMARK SMILES IDX 68 77 74 78 76 79 73 80 69 81 70 82 71 83 72 84 51 85 52 86
REMARK SMILES IDX 60 87 53 88 59 89 61 90 58 91 54 92 55 93 56 94 57 95
REMARK H PARENT 89 25 81 48 49 59
REMARK Flexibility Score: inf
ROOT
ATOM      1  O   UNL A   1      32.398  29.028  24.469  1.00  0.00    -0.458 OA
ENDROOT
BRANCH   1   2
ATOM      2  C   UNL A   1      31.935  28.245  23.457  1.00  0.00     0.342 C 
ATOM      3  O   UNL A   1      31.346  28.627  22.464  1.00  0.00    -0.246 OA
BRANCH   2   4
ATOM      4  C   UNL A   1      32.316  26.829  23.672  1.00  0.00     0.101 A 
ATOM      5  C   UNL A   1      33.153  24.217  24.240  1.00  0.00     0.055 A 
ATOM      6  C   UNL A   1      33.013  25.138  25.273  1.00  0.00     0.028 A 
ATOM      7  C   UNL A   1      32.878  24.597  22.920  1.00  0.00     0.074 A 
ATOM      8  C   UNL A   1      32.675  26.451  24.972  1.00  0.00     0.022 A 
ATOM      9  C   UNL A   1      32.399  25.882  22.649  1.00  0.00     0.132 A 
BRANCH   5  10
ATOM     10  N   UNL A   1      33.608  22.929  24.553  1.00  0.00    -0.249 N 
ATOM     11  C   UNL A   1      33.653  20.715  25.254  1.00  0.00     0.146 C 
ATOM     12  C   UNL A   1      35.012  21.073  24.682  1.00  0.00     0.125 C 
ATOM     13  C   UNL A   1      32.783  21.914  24.968  1.00  0.00     0.247 C 
ATOM     14  C   UNL A   1      34.908  22.533  24.380  1.00  0.00     0.235 C 
ATOM     15  O   UNL A   1      31.570  21.962  25.129  1.00  0.00    -0.273 OA
ATOM     16  O   UNL A   1      35.865  23.216  24.049  1.00  0.00    -0.274 OA
BRANCH  11  17
ATOM     17  S   UNL A   1      32.980  19.164  24.561  1.00  0.00    -0.136 SA
BRANCH  17  18
ATOM     18  C   UNL A   1      34.517  18.188  24.338  1.00  0.00     0.192 C 
BRANCH  18  19
ATOM     19  C   UNL A   1      34.252  16.715  24.105  1.00  0.00     0.315 C 
ATOM     20  O   UNL A   1      34.107  16.204  23.002  1.00  0.00    -0.251 OA
BRANCH  19  21
ATOM     21  O   UNL A   1      34.243  16.028  25.279  1.00  0.00    -0.465 OA
BRANCH  21  22
ATOM     22  C   UNL A   1      33.352  14.911  25.384  1.00  0.00     0.229 C 
ATOM     23  C   UNL A   1      31.967  15.364  25.814  1.00  0.00     0.049 C 
ENDBRANCH  21  22
ENDBRANCH  19  21
ENDBRANCH  18  19
ENDBRANCH  17  18
ENDBRANCH  11  17
ENDBRANCH   5  10
BRANCH   9  24
ATOM     24  O   UNL A   1      32.047  26.147  21.354  1.00  0.00    -0.507 OA
ATOM     25  H   UNL A   1      31.988  25.450  20.732  1.00  0.00     0.293 HD
ENDBRANCH   9  24
ENDBRANCH   2   4
ENDBRANCH   1   2
BRANCH   1  26
ATOM     26  C   UNL A   1      31.380  29.567  25.342  1.00  0.00     0.275 C 
BRANCH  26  27
ATOM     27  C   UNL A   1      31.877  30.782  26.131  1.00  0.00     0.275 C 
BRANCH  27  28
ATOM     28  O   UNL A   1      33.149  30.515  26.750  1.00  0.00    -0.458 OA
BRANCH  28  29
ATOM     29  C   UNL A   1      33.702  31.570  27.395  1.00  0.00     0.338 C 
ATOM     30  O   UNL A   1      33.157  32.627  27.669  1.00  0.00    -0.246 OA
BRANCH  29  31
ATOM     31  C   UNL A   1      35.059  31.242  27.856  1.00  0.00     0.060 A 
ATOM     32  C   UNL A   1      35.260  29.966  28.360  1.00  0.00     0.016 A 
ATOM     33  C   UNL A   1      36.046  32.209  28.017  1.00  0.00     0.016 A 
ATOM     34  C   UNL A   1      36.347  29.694  29.182  1.00  0.00     0.010 A 
ATOM     35  C   UNL A   1      37.225  31.879  28.707  1.00  0.00     0.010 A 
ATOM     36  C   UNL A   1      37.370  30.635  29.353  1.00  0.00    -0.014 A 
BRANCH  36  37
ATOM     37  C   UNL A   1      38.546  30.317  30.228  1.00  0.00     0.031 A 
ATOM     38  C   UNL A   1      39.662  29.431  29.721  1.00  0.00     0.074 A 
ATOM     39  C   UNL A   1      38.649  30.850  31.467  1.00  0.00     0.049 A 
ATOM     40  N   UNL A   1      40.667  28.902  30.376  1.00  0.00    -0.248 NA
ATOM     41  C   UNL A   1      39.633  29.077  28.294  1.00  0.00     0.031 C 
ATOM     42  C   UNL A   1      37.686  31.773  32.077  1.00  0.00     0.029 A 
ATOM     43  N   UNL A   1      39.616  30.709  32.435  1.00  0.00    -0.354 N 
ATOM     44  C   UNL A   1      41.353  28.110  29.457  1.00  0.00     0.074 A 
ATOM     45  C   UNL A   1      40.631  28.211  28.205  1.00  0.00     0.031 C 
ATOM     46  C   UNL A   1      38.140  32.161  33.276  1.00  0.00     0.029 A 
ATOM     47  C   UNL A   1      39.354  31.418  33.587  1.00  0.00     0.049 A 
ATOM     48  H   UNL A   1      40.420  30.154  32.316  1.00  0.00     0.167 HD
ATOM     49  C   UNL A   1      42.480  27.375  29.639  1.00  0.00     0.034 A 
ATOM     50  C   UNL A   1      39.973  31.431  34.785  1.00  0.00     0.034 A 
ATOM     51  C   UNL A   1      43.214  27.321  30.882  1.00  0.00     0.049 A 
ATOM     52  C   UNL A   1      41.172  30.543  34.988  1.00  0.00     0.074 A 
ATOM     53  C   UNL A   1      44.370  26.616  31.170  1.00  0.00     0.029 A 
ATOM     54  N   UNL A   1      42.872  28.004  32.042  1.00  0.00    -0.354 N 
ATOM     55  N   UNL A   1      41.766  29.748  34.128  1.00  0.00    -0.248 NA
ATOM     56  C   UNL A   1      41.775  30.542  36.327  1.00  0.00     0.031 C 
ATOM     57  C   UNL A   1      44.682  26.811  32.520  1.00  0.00     0.029 A 
ATOM     58  C   UNL A   1      43.774  27.711  33.054  1.00  0.00     0.049 A 
ATOM     59  H   UNL A   1      42.099  28.609  32.134  1.00  0.00     0.167 HD
ATOM     60  C   UNL A   1      42.829  29.174  34.820  1.00  0.00     0.074 A 
ATOM     61  C   UNL A   1      42.807  29.731  36.156  1.00  0.00     0.031 C 
ATOM     62  C   UNL A   1      43.741  28.266  34.387  1.00  0.00     0.034 A 
BRANCH  49  63
ATOM     63  C   UNL A   1      42.955  26.520  28.484  1.00  0.00     0.023 A 
ATOM     64  C   UNL A   1      44.082  26.853  27.714  1.00  0.00     0.031 A 
ATOM     65  C   UNL A   1      42.250  25.351  28.137  1.00  0.00     0.131 A 
ATOM     66  C   UNL A   1      44.426  26.073  26.597  1.00  0.00     0.055 A 
ATOM     67  C   UNL A   1      42.648  24.532  27.078  1.00  0.00     0.041 A 
ATOM     68  F   UNL A   1      41.152  24.987  28.820  1.00  0.00    -0.206 F 
ATOM     69  C   UNL A   1      43.733  24.900  26.292  1.00  0.00     0.022 A 
BRANCH  66  70
ATOM     70  S   UNL A   1      45.698  26.694  25.463  1.00  0.00     0.124 S 
ATOM     71  O   UNL A   1      46.739  27.121  26.393  1.00  0.00    -0.237 OA
ATOM     72  O   UNL A   1      46.003  25.518  24.656  1.00  0.00    -0.237 OA
ATOM     73  O   UNL A   1      45.023  27.780  24.752  1.00  0.00    -0.744 OA
ENDBRANCH  66  70
ENDBRANCH  49  63
BRANCH  50  74
ATOM     74  C   UNL A   1      39.432  32.249  35.912  1.00  0.00     0.023 A 
ATOM     75  C   UNL A   1      38.696  31.657  36.951  1.00  0.00     0.031 A 
ATOM     76  C   UNL A   1      39.596  33.648  35.940  1.00  0.00     0.131 A 
ATOM     77  C   UNL A   1      38.112  32.463  37.942  1.00  0.00     0.055 A 
ATOM     78  C   UNL A   1      39.075  34.435  36.967  1.00  0.00     0.041 A 
ATOM     79  F   UNL A   1      40.279  34.273  34.968  1.00  0.00    -0.206 F 
ATOM     80  C   UNL A   1      38.314  33.844  37.969  1.00  0.00     0.022 A 
BRANCH  77  81
ATOM     81  S   UNL A   1      36.986  31.689  39.135  1.00  0.00     0.124 S 
ATOM     82  O   UNL A   1      37.767  31.758  40.366  1.00  0.00    -0.237 OA
ATOM     83  O   UNL A   1      35.821  32.563  39.064  1.00  0.00    -0.237 OA
ATOM     84  O   UNL A   1      36.790  30.345  38.596  1.00  0.00    -0.744 OA
ENDBRANCH  77  81
ENDBRANCH  50  74
BRANCH  62  85
ATOM     85  C   UNL A   1      44.823  27.867  35.361  1.00  0.00     0.023 A 
ATOM     86  C   UNL A   1      44.596  26.924  36.379  1.00  0.00     0.031 A 
ATOM     87  C   UNL A   1      46.097  28.460  35.282  1.00  0.00     0.131 A 
ATOM     88  C   UNL A   1      45.605  26.650  37.315  1.00  0.00     0.055 A 
ATOM     89  C   UNL A   1      47.118  28.131  36.174  1.00  0.00     0.041 A 
ATOM     90  F   UNL A   1      46.369  29.372  34.335  1.00  0.00    -0.206 F 
ATOM     91  C   UNL A   1      46.870  27.232  37.208  1.00  0.00     0.022 A 
BRANCH  88  92
ATOM     92  S   UNL A   1      45.206  25.603  38.742  1.00  0.00     0.124 S 
ATOM     93  O   UNL A   1      44.257  26.436  39.473  1.00  0.00    -0.237 OA
ATOM     94  O   UNL A   1      44.653  24.410  38.110  1.00  0.00    -0.237 OA
ATOM     95  O   UNL A   1      46.498  25.413  39.399  1.00  0.00    -0.744 OA
ENDBRANCH  88  92
ENDBRANCH  62  85
ENDBRANCH  36  37
ENDBRANCH  29  31
ENDBRANCH  28  29
ENDBRANCH  27  28
ENDBRANCH  26  27
ENDBRANCH   1  26
TORSDOF 21
ENDMDL
MODEL 3
REMARK VINA RESULT:     -10.6      2.293      7.847
REMARK SMILES CCOC(=O)CS[C@H]1CC(=O)N(c2ccc(C(=O)OCCOC(=O)c3ccc(-c4c5nc(c(-c6cc(S(=O)(=O)[O-])ccc6F)c6ccc([nH]6)c(-c6cc(S(=O)(=O)[O-])ccc6F)c6nc(c(-c7cc(S(=O)(=O)[O-])ccc7F)c7ccc4[nH]7)C=C6)C=C5)cc3)c(O)c2)C1=O
REMARK SMILES IDX 19 1 17 2 18 3 16 4 13 5 14 6 90 7 15 8 88 9 12 10 8 11 9 12
REMARK SMILES IDX 91 13 10 14 92 15 11 16 7 17 6 18 4 19 5 20 3 21 2 22 1 23
REMARK SMILES IDX 89 24 20 26 21 27 22 28 23 29 24 30 25 31 26 32 87 33 27 34
REMARK SMILES IDX 86 35 28 36 29 37 30 38 80 39 31 40 85 41 79 42 81 43 32 44
REMARK SMILES IDX 84 45 78 46 77 47 33 49 65 50 45 51 64 52 46 53 49 54 63 55
REMARK SMILES IDX 82 56 47 57 48 58 62 60 83 61 50 62 34 63 35 64 43 65 36 66
REMARK SMILES IDX 42 67 44 68 41 69 37 70 38 71 39 72 40 73 66 74 67 75 75 76
REMARK SMILES IDX 68 77 74 78 76 79 73 80 69 81 70 82 71 83 72 84 51 85 52 86
REMARK SMILES IDX 60 87 53 88 59 89 61 90 58 91 54 92 55 93 56 94 57 95
REMARK H PARENT 89 25 81 48 49 59
REMARK Flexibility Score: inf
ROOT
ATOM      1  O   UNL A   1      31.977  30.487  25.630  1.00  0.00    -0.458 OA
ENDROOT
BRANCH   1   2
ATOM      2  C   UNL A   1      31.248  29.728  24.767  1.00  0.00     0.342 C 
ATOM      3  O   UNL A   1      30.340  30.118  24.057  1.00  0.00    -0.246 OA
BRANCH   2   4
ATOM      4  C   UNL A   1      31.758  28.337  24.730  1.00  0.00     0.101 A 
ATOM      5  C   UNL A   1      32.913  25.787  24.624  1.00  0.00     0.055 A 
ATOM      6  C   UNL A   1      33.653  26.862  25.105  1.00  0.00     0.028 A 
ATOM      7  C   UNL A   1      31.594  25.982  24.192  1.00  0.00     0.074 A 
ATOM      8  C   UNL A   1      33.099  28.135  25.078  1.00  0.00     0.022 A 
ATOM      9  C   UNL A   1      31.001  27.243  24.307  1.00  0.00     0.132 A 
BRANCH   5  10
ATOM     10  N   UNL A   1      33.532  24.532  24.550  1.00  0.00    -0.249 N 
ATOM     11  C   UNL A   1      34.588  22.554  25.156  1.00  0.00     0.146 C 
ATOM     12  C   UNL A   1      34.278  22.506  23.672  1.00  0.00     0.125 C 
ATOM     13  C   UNL A   1      33.920  23.813  25.653  1.00  0.00     0.247 C 
ATOM     14  C   UNL A   1      33.718  23.858  23.372  1.00  0.00     0.235 C 
ATOM     15  O   UNL A   1      33.798  24.133  26.828  1.00  0.00    -0.273 OA
ATOM     16  O   UNL A   1      33.496  24.252  22.236  1.00  0.00    -0.274 OA
BRANCH  11  17
ATOM     17  S   UNL A   1      34.036  21.057  26.044  1.00  0.00    -0.136 SA
BRANCH  17  18
ATOM     18  C   UNL A   1      33.019  20.243  24.753  1.00  0.00     0.192 C 
BRANCH  18  19
ATOM     19  C   UNL A   1      32.924  18.742  24.934  1.00  0.00     0.315 C 
ATOM     20  O   UNL A   1      32.159  18.187  25.713  1.00  0.00    -0.251 OA
BRANCH  19  21
ATOM     21  O   UNL A   1      33.766  18.092  24.087  1.00  0.00    -0.465 OA
BRANCH  21  22
ATOM     22  C   UNL A   1      33.177  17.255  23.084  1.00  0.00     0.229 C 
ATOM     23  C   UNL A   1      32.518  18.093  22.001  1.00  0.00     0.049 C 
ENDBRANCH  21  22
ENDBRANCH  19  21
ENDBRANCH  18  19
ENDBRANCH  17  18
ENDBRANCH  11  17
ENDBRANCH   5  10
BRANCH   9  24
ATOM     24  O   UNL A   1      29.678  27.333  23.969  1.00  0.00    -0.507 OA
ATOM     25  H   UNL A   1      29.032  27.463  24.634  1.00  0.00     0.293 HD
ENDBRANCH   9  24
ENDBRANCH   2   4
ENDBRANCH   1   2
BRANCH   1  26
ATOM     26  C   UNL A   1      31.212  31.425  26.419  1.00  0.00     0.275 C 
BRANCH  26  27
ATOM     27  C   UNL A   1      31.876  32.804  26.485  1.00  0.00     0.275 C 
BRANCH  27  28
ATOM     28  O   UNL A   1      32.110  33.203  27.849  1.00  0.00    -0.458 OA
BRANCH  28  29
ATOM     29  C   UNL A   1      33.159  34.041  28.025  1.00  0.00     0.338 C 
ATOM     30  O   UNL A   1      33.123  35.260  28.067  1.00  0.00    -0.246 OA
BRANCH  29  31
ATOM     31  C   UNL A   1      34.389  33.281  28.294  1.00  0.00     0.060 A 
ATOM     32  C   UNL A   1      34.238  31.968  28.712  1.00  0.00     0.016 A 
ATOM     33  C   UNL A   1      35.638  33.888  28.368  1.00  0.00     0.016 A 
ATOM     34  C   UNL A   1      35.269  31.315  29.376  1.00  0.00     0.010 A 
ATOM     35  C   UNL A   1      36.726  33.161  28.886  1.00  0.00     0.010 A 
ATOM     36  C   UNL A   1      36.546  31.884  29.454  1.00  0.00    -0.014 A 
BRANCH  36  37
ATOM     37  C   UNL A   1      37.654  31.156  30.156  1.00  0.00     0.031 A 
ATOM     38  C   UNL A   1      37.946  31.428  31.615  1.00  0.00     0.074 A 
ATOM     39  C   UNL A   1      38.382  30.219  29.508  1.00  0.00     0.049 A 
ATOM     40  N   UNL A   1      38.960  31.036  32.347  1.00  0.00    -0.248 NA
ATOM     41  C   UNL A   1      36.980  32.265  32.341  1.00  0.00     0.031 C 
ATOM     42  C   UNL A   1      38.184  29.799  28.118  1.00  0.00     0.029 A 
ATOM     43  N   UNL A   1      39.429  29.434  29.934  1.00  0.00    -0.354 N 
ATOM     44  C   UNL A   1      38.784  31.624  33.598  1.00  0.00     0.074 A 
ATOM     45  C   UNL A   1      37.577  32.420  33.513  1.00  0.00     0.031 C 
ATOM     46  C   UNL A   1      39.027  28.799  27.829  1.00  0.00     0.029 A 
ATOM     47  C   UNL A   1      39.920  28.591  28.960  1.00  0.00     0.049 A 
ATOM     48  H   UNL A   1      39.793  29.470  30.848  1.00  0.00     0.167 HD
ATOM     49  C   UNL A   1      39.553  31.507  34.711  1.00  0.00     0.034 A 
ATOM     50  C   UNL A   1      41.002  27.785  28.943  1.00  0.00     0.034 A 
ATOM     51  C   UNL A   1      40.729  30.673  34.793  1.00  0.00     0.049 A 
ATOM     52  C   UNL A   1      41.886  27.736  30.161  1.00  0.00     0.074 A 
ATOM     53  C   UNL A   1      41.573  30.476  35.873  1.00  0.00     0.029 A 
ATOM     54  N   UNL A   1      41.227  29.889  33.759  1.00  0.00    -0.354 N 
ATOM     55  N   UNL A   1      41.742  28.353  31.311  1.00  0.00    -0.248 NA
ATOM     56  C   UNL A   1      43.086  26.895  30.073  1.00  0.00     0.031 C 
ATOM     57  C   UNL A   1      42.618  29.637  35.471  1.00  0.00     0.029 A 
ATOM     58  C   UNL A   1      42.381  29.235  34.166  1.00  0.00     0.049 A 
ATOM     59  H   UNL A   1      40.820  29.809  32.865  1.00  0.00     0.167 HD
ATOM     60  C   UNL A   1      42.822  27.950  32.091  1.00  0.00     0.074 A 
ATOM     61  C   UNL A   1      43.592  27.022  31.290  1.00  0.00     0.031 C 
ATOM     62  C   UNL A   1      43.148  28.316  33.358  1.00  0.00     0.034 A 
BRANCH  49  63
ATOM     63  C   UNL A   1      39.180  32.347  35.913  1.00  0.00     0.023 A 
ATOM     64  C   UNL A   1      39.735  33.618  36.145  1.00  0.00     0.031 A 
ATOM     65  C   UNL A   1      38.259  31.854  36.858  1.00  0.00     0.131 A 
ATOM     66  C   UNL A   1      39.422  34.316  37.323  1.00  0.00     0.055 A 
ATOM     67  C   UNL A   1      37.886  32.592  37.984  1.00  0.00     0.041 A 
ATOM     68  F   UNL A   1      37.709  30.639  36.706  1.00  0.00    -0.206 F 
ATOM     69  C   UNL A   1      38.480  33.824  38.229  1.00  0.00     0.022 A 
BRANCH  66  70
ATOM     70  S   UNL A   1      40.374  35.806  37.728  1.00  0.00     0.124 S 
ATOM     71  O   UNL A   1      41.060  35.394  38.950  1.00  0.00    -0.237 OA
ATOM     72  O   UNL A   1      41.215  35.974  36.548  1.00  0.00    -0.237 OA
ATOM     73  O   UNL A   1      39.347  36.830  37.913  1.00  0.00    -0.744 OA
ENDBRANCH  66  70
ENDBRANCH  49  63
BRANCH  50  74
ATOM     74  C   UNL A   1      41.360  27.018  27.712  1.00  0.00     0.023 A 
ATOM     75  C   UNL A   1      41.187  25.627  27.647  1.00  0.00     0.031 A 
ATOM     76  C   UNL A   1      41.935  27.659  26.597  1.00  0.00     0.131 A 
ATOM     77  C   UNL A   1      41.628  24.918  26.518  1.00  0.00     0.055 A 
ATOM     78  C   UNL A   1      42.305  26.960  25.448  1.00  0.00     0.041 A 
ATOM     79  F   UNL A   1      42.137  28.987  26.605  1.00  0.00    -0.206 F 
ATOM     80  C   UNL A   1      42.165  25.576  25.410  1.00  0.00     0.022 A 
BRANCH  77  81
ATOM     81  S   UNL A   1      41.593  23.105  26.563  1.00  0.00     0.124 S 
ATOM     82  O   UNL A   1      40.159  22.838  26.578  1.00  0.00    -0.237 OA
ATOM     83  O   UNL A   1      42.299  22.757  25.335  1.00  0.00    -0.237 OA
ATOM     84  O   UNL A   1      42.301  22.782  27.800  1.00  0.00    -0.744 OA
ENDBRANCH  77  81
ENDBRANCH  50  74
BRANCH  62  85
ATOM     85  C   UNL A   1      44.363  27.661  33.968  1.00  0.00     0.023 A 
ATOM     86  C   UNL A   1      44.285  26.426  34.636  1.00  0.00     0.031 A 
ATOM     87  C   UNL A   1      45.616  28.297  33.900  1.00  0.00     0.131 A 
ATOM     88  C   UNL A   1      45.423  25.898  35.264  1.00  0.00     0.055 A 
ATOM     89  C   UNL A   1      46.759  27.733  34.467  1.00  0.00     0.041 A 
ATOM     90  F   UNL A   1      45.749  29.482  33.281  1.00  0.00    -0.206 F 
ATOM     91  C   UNL A   1      46.664  26.534  35.168  1.00  0.00     0.022 A 
BRANCH  88  92
ATOM     92  S   UNL A   1      45.237  24.423  36.303  1.00  0.00     0.124 S 
ATOM     93  O   UNL A   1      45.316  24.987  37.646  1.00  0.00    -0.237 OA
ATOM     94  O   UNL A   1      43.930  23.918  35.898  1.00  0.00    -0.237 OA
ATOM     95  O   UNL A   1      46.372  23.586  35.915  1.00  0.00    -0.744 OA
ENDBRANCH  88  92
ENDBRANCH  62  85
ENDBRANCH  36  37
ENDBRANCH  29  31
ENDBRANCH  28  29
ENDBRANCH  27  28
ENDBRANCH  26  27
ENDBRANCH   1  26
TORSDOF 21
ENDMDL
