MODEL 1
REMARK VINA RESULT:     -11.4      0.000      0.000
REMARK SMILES C[NH2+][C@@]1(C(=O)OCCOC(=O)c2ccc(-c3c4nc(c(-c5cc(S(=O)(=O)[O-])ccc5F)c5ccc([nH]5)c(-c5cc(S(=O)(=O)[O-])ccc5F)c5nc(c(-c6cc(S(=O)(=O)[O-])ccc6F)c6ccc3[nH]6)C=C5)C=C4)cc2)CCC[C@H]1CCn1ccc(C(F)(F)F)n1
REMARK SMILES IDX 7 1 6 2 4 3 5 4 3 5 75 6 78 7 76 8 77 9 2 10 1 11 79 14
REMARK SMILES IDX 80 15 81 16 82 17 89 18 83 19 84 20 85 21 86 22 87 23 88 24
REMARK SMILES IDX 8 25 9 26 10 27 11 28 12 29 13 30 74 31 14 32 73 33 15 34
REMARK SMILES IDX 16 35 17 36 67 37 18 38 72 39 66 40 68 41 19 42 71 43 65 44
REMARK SMILES IDX 64 45 20 47 52 48 32 49 51 50 33 51 36 52 50 53 69 54 34 55
REMARK SMILES IDX 35 56 49 58 70 59 37 60 21 61 22 62 30 63 23 64 29 65 31 66
REMARK SMILES IDX 28 67 24 68 25 69 26 70 27 71 53 72 54 73 62 74 55 75 61 76
REMARK SMILES IDX 63 77 60 78 56 79 57 80 58 81 59 82 38 83 39 84 47 85 40 86
REMARK SMILES IDX 46 87 48 88 45 89 41 90 42 91 43 92 44 93
REMARK H PARENT 2 12 2 13 68 46 36 57
REMARK Flexibility Score: inf
ROOT
ATOM      1  C   UNL A   1      34.940  21.842  24.653  1.00  0.00     0.274 C 
ENDROOT
BRANCH   1   2
ATOM      2  O   UNL A   1      34.801  23.223  25.045  1.00  0.00    -0.457 OA
BRANCH   2   3
ATOM      3  C   UNL A   1      33.565  23.599  25.481  1.00  0.00     0.368 C 
ATOM      4  O   UNL A   1      32.993  23.060  26.427  1.00  0.00    -0.245 OA
BRANCH   3   5
ATOM      5  C   UNL A   1      32.902  24.742  24.608  1.00  0.00     0.197 C 
ATOM      6  C   UNL A   1      33.998  25.808  24.429  1.00  0.00     0.081 C 
ATOM      7  C   UNL A   1      31.766  25.529  25.342  1.00  0.00     0.064 C 
ATOM      8  C   UNL A   1      34.003  26.548  25.759  1.00  0.00     0.008 C 
ATOM      9  C   UNL A   1      32.553  26.529  26.240  1.00  0.00     0.011 C 
BRANCH   5  10
ATOM     10  N   UNL A   1      32.458  24.069  23.383  1.00  0.00    -0.334 N 
ATOM     11  C   UNL A   1      31.548  22.953  23.452  1.00  0.00     0.331 C 
ATOM     12  H   UNL A   1      32.007  24.779  22.806  1.00  0.00     0.347 HD
ATOM     13  H   UNL A   1      33.316  23.646  23.030  1.00  0.00     0.347 HD
ENDBRANCH   5  10
BRANCH   7  14
ATOM     14  C   UNL A   1      30.789  26.350  24.452  1.00  0.00     0.034 C 
BRANCH  14  15
ATOM     15  C   UNL A   1      31.130  27.822  24.167  1.00  0.00     0.144 C 
BRANCH  15  16
ATOM     16  N   UNL A   1      30.040  28.592  23.595  1.00  0.00    -0.272 N 
ATOM     17  C   UNL A   1      28.984  28.083  22.900  1.00  0.00     0.109 A 
ATOM     18  N   UNL A   1      29.941  29.915  23.831  1.00  0.00    -0.168 NA
ATOM     19  C   UNL A   1      28.146  29.140  22.655  1.00  0.00     0.055 A 
ATOM     20  C   UNL A   1      28.774  30.272  23.247  1.00  0.00     0.166 A 
BRANCH  20  21
ATOM     21  C   UNL A   1      28.192  31.665  23.273  1.00  0.00     0.435 C 
ATOM     22  F   UNL A   1      29.085  32.568  23.777  1.00  0.00    -0.164 F 
ATOM     23  F   UNL A   1      27.863  32.114  22.031  1.00  0.00    -0.164 F 
ATOM     24  F   UNL A   1      27.079  31.802  24.037  1.00  0.00    -0.164 F 
ENDBRANCH  20  21
ENDBRANCH  15  16
ENDBRANCH  14  15
ENDBRANCH   7  14
ENDBRANCH   3   5
ENDBRANCH   2   3
ENDBRANCH   1   2
BRANCH   1  25
ATOM     25  C   UNL A   1      36.095  21.154  25.379  1.00  0.00     0.275 C 
BRANCH  25  26
ATOM     26  O   UNL A   1      37.361  21.558  24.832  1.00  0.00    -0.458 OA
BRANCH  26  27
ATOM     27  C   UNL A   1      38.422  21.145  25.570  1.00  0.00     0.338 C 
ATOM     28  O   UNL A   1      38.844  20.005  25.635  1.00  0.00    -0.246 OA
BRANCH  27  29
ATOM     29  C   UNL A   1      39.048  22.290  26.252  1.00  0.00     0.060 A 
ATOM     30  C   UNL A   1      38.538  23.563  26.021  1.00  0.00     0.016 A 
ATOM     31  C   UNL A   1      40.220  22.133  26.989  1.00  0.00     0.016 A 
ATOM     32  C   UNL A   1      39.264  24.689  26.411  1.00  0.00     0.010 A 
ATOM     33  C   UNL A   1      40.885  23.265  27.485  1.00  0.00     0.010 A 
ATOM     34  C   UNL A   1      40.439  24.561  27.168  1.00  0.00    -0.014 A 
BRANCH  34  35
ATOM     35  C   UNL A   1      41.188  25.775  27.618  1.00  0.00     0.031 A 
ATOM     36  C   UNL A   1      40.512  26.839  28.450  1.00  0.00     0.074 A 
ATOM     37  C   UNL A   1      42.489  25.930  27.291  1.00  0.00     0.049 A 
ATOM     38  N   UNL A   1      40.949  28.025  28.794  1.00  0.00    -0.248 NA
ATOM     39  C   UNL A   1      39.165  26.531  28.953  1.00  0.00     0.031 C 
ATOM     40  C   UNL A   1      43.288  24.973  26.522  1.00  0.00     0.029 A 
ATOM     41  N   UNL A   1      43.374  26.945  27.568  1.00  0.00    -0.354 N 
ATOM     42  C   UNL A   1      39.916  28.626  29.506  1.00  0.00     0.074 A 
ATOM     43  C   UNL A   1      38.827  27.671  29.539  1.00  0.00     0.031 C 
ATOM     44  C   UNL A   1      44.547  25.424  26.425  1.00  0.00     0.029 A 
ATOM     45  C   UNL A   1      44.627  26.743  27.038  1.00  0.00     0.049 A 
ATOM     46  H   UNL A   1      43.133  27.741  28.095  1.00  0.00     0.167 HD
ATOM     47  C   UNL A   1      39.876  29.860  30.074  1.00  0.00     0.034 A 
ATOM     48  C   UNL A   1      45.713  27.542  26.998  1.00  0.00     0.034 A 
ATOM     49  C   UNL A   1      40.979  30.793  30.070  1.00  0.00     0.049 A 
ATOM     50  C   UNL A   1      45.634  28.916  27.601  1.00  0.00     0.074 A 
ATOM     51  C   UNL A   1      41.043  32.058  30.634  1.00  0.00     0.029 A 
ATOM     52  N   UNL A   1      42.214  30.565  29.480  1.00  0.00    -0.354 N 
ATOM     53  N   UNL A   1      44.623  29.495  28.205  1.00  0.00    -0.248 NA
ATOM     54  C   UNL A   1      46.838  29.751  27.499  1.00  0.00     0.031 C 
ATOM     55  C   UNL A   1      42.296  32.611  30.342  1.00  0.00     0.029 A 
ATOM     56  C   UNL A   1      43.038  31.670  29.646  1.00  0.00     0.049 A 
ATOM     57  H   UNL A   1      42.470  29.738  29.010  1.00  0.00     0.167 HD
ATOM     58  C   UNL A   1      45.070  30.766  28.552  1.00  0.00     0.074 A 
ATOM     59  C   UNL A   1      46.448  30.858  28.114  1.00  0.00     0.031 C 
ATOM     60  C   UNL A   1      44.398  31.766  29.176  1.00  0.00     0.034 A 
BRANCH  47  61
ATOM     61  C   UNL A   1      38.570  30.295  30.699  1.00  0.00     0.023 A 
ATOM     62  C   UNL A   1      37.576  30.965  29.967  1.00  0.00     0.031 A 
ATOM     63  C   UNL A   1      38.328  30.040  32.062  1.00  0.00     0.131 A 
ATOM     64  C   UNL A   1      36.410  31.409  30.614  1.00  0.00     0.055 A 
ATOM     65  C   UNL A   1      37.138  30.425  32.683  1.00  0.00     0.041 A 
ATOM     66  F   UNL A   1      39.248  29.416  32.814  1.00  0.00    -0.206 F 
ATOM     67  C   UNL A   1      36.176  31.124  31.962  1.00  0.00     0.022 A 
BRANCH  64  68
ATOM     68  S   UNL A   1      35.251  32.462  29.697  1.00  0.00     0.124 S 
ATOM     69  O   UNL A   1      34.344  32.900  30.756  1.00  0.00    -0.237 OA
ATOM     70  O   UNL A   1      36.125  33.488  29.141  1.00  0.00    -0.237 OA
ATOM     71  O   UNL A   1      34.659  31.552  28.719  1.00  0.00    -0.744 OA
ENDBRANCH  64  68
ENDBRANCH  47  61
BRANCH  48  72
ATOM     72  C   UNL A   1      46.942  27.093  26.288  1.00  0.00     0.023 A 
ATOM     73  C   UNL A   1      47.982  26.445  26.971  1.00  0.00     0.031 A 
ATOM     74  C   UNL A   1      47.093  27.318  24.907  1.00  0.00     0.131 A 
ATOM     75  C   UNL A   1      49.140  26.062  26.274  1.00  0.00     0.055 A 
ATOM     76  C   UNL A   1      48.226  26.897  24.212  1.00  0.00     0.041 A 
ATOM     77  F   UNL A   1      46.125  27.934  24.210  1.00  0.00    -0.206 F 
ATOM     78  C   UNL A   1      49.261  26.271  24.897  1.00  0.00     0.022 A 
BRANCH  75  79
ATOM     79  S   UNL A   1      50.514  25.331  27.204  1.00  0.00     0.124 S 
ATOM     80  O   UNL A   1      50.903  26.432  28.079  1.00  0.00    -0.237 OA
ATOM     81  O   UNL A   1      49.871  24.193  27.853  1.00  0.00    -0.237 OA
ATOM     82  O   UNL A   1      51.483  24.986  26.166  1.00  0.00    -0.744 OA
ENDBRANCH  75  79
ENDBRANCH  48  72
BRANCH  60  83
ATOM     83  C   UNL A   1      45.168  33.034  29.432  1.00  0.00     0.023 A 
ATOM     84  C   UNL A   1      45.307  34.021  28.439  1.00  0.00     0.031 A 
ATOM     85  C   UNL A   1      45.808  33.238  30.666  1.00  0.00     0.131 A 
ATOM     86  C   UNL A   1      46.111  35.145  28.681  1.00  0.00     0.055 A 
ATOM     87  C   UNL A   1      46.571  34.380  30.917  1.00  0.00     0.041 A 
ATOM     88  F   UNL A   1      45.712  32.323  31.644  1.00  0.00    -0.206 F 
ATOM     89  C   UNL A   1      46.736  35.335  29.916  1.00  0.00     0.022 A 
BRANCH  86  90
ATOM     90  S   UNL A   1      46.402  36.318  27.327  1.00  0.00     0.124 S 
ATOM     91  O   UNL A   1      46.181  35.486  26.150  1.00  0.00    -0.237 OA
ATOM     92  O   UNL A   1      45.396  37.344  27.582  1.00  0.00    -0.237 OA
ATOM     93  O   UNL A   1      47.785  36.745  27.533  1.00  0.00    -0.744 OA
ENDBRANCH  86  90
ENDBRANCH  60  83
ENDBRANCH  34  35
ENDBRANCH  27  29
ENDBRANCH  26  27
ENDBRANCH  25  26
ENDBRANCH   1  25
TORSDOF 19
ENDMDL
MODEL 2
REMARK VINA RESULT:     -11.2      1.667      2.279
REMARK SMILES C[NH2+][C@@]1(C(=O)OCCOC(=O)c2ccc(-c3c4nc(c(-c5cc(S(=O)(=O)[O-])ccc5F)c5ccc([nH]5)c(-c5cc(S(=O)(=O)[O-])ccc5F)c5nc(c(-c6cc(S(=O)(=O)[O-])ccc6F)c6ccc3[nH]6)C=C5)C=C4)cc2)CCC[C@H]1CCn1ccc(C(F)(F)F)n1
REMARK SMILES IDX 7 1 6 2 4 3 5 4 3 5 75 6 78 7 76 8 77 9 2 10 1 11 79 14
REMARK SMILES IDX 80 15 81 16 82 17 89 18 83 19 84 20 85 21 86 22 87 23 88 24
REMARK SMILES IDX 8 25 9 26 10 27 11 28 12 29 13 30 74 31 14 32 73 33 15 34
REMARK SMILES IDX 16 35 17 36 67 37 18 38 72 39 66 40 68 41 19 42 71 43 65 44
REMARK SMILES IDX 64 45 20 47 52 48 32 49 51 50 33 51 36 52 50 53 69 54 34 55
REMARK SMILES IDX 35 56 49 58 70 59 37 60 21 61 22 62 30 63 23 64 29 65 31 66
REMARK SMILES IDX 28 67 24 68 25 69 26 70 27 71 53 72 54 73 62 74 55 75 61 76
REMARK SMILES IDX 63 77 60 78 56 79 57 80 58 81 59 82 38 83 39 84 47 85 40 86
REMARK SMILES IDX 46 87 48 88 45 89 41 90 42 91 43 92 44 93
REMARK H PARENT 2 12 2 13 68 46 36 57
REMARK Flexibility Score: inf
ROOT
ATOM      1  C   UNL A   1      35.128  20.274  25.028  1.00  0.00     0.274 C 
ENDROOT
BRANCH   1   2
ATOM      2  O   UNL A   1      34.407  21.455  24.625  1.00  0.00    -0.457 OA
BRANCH   2   3
ATOM      3  C   UNL A   1      33.106  21.529  25.029  1.00  0.00     0.368 C 
ATOM      4  O   UNL A   1      32.342  20.566  25.012  1.00  0.00    -0.245 OA
BRANCH   3   5
ATOM      5  C   UNL A   1      32.650  22.987  25.447  1.00  0.00     0.197 C 
ATOM      6  C   UNL A   1      31.293  23.206  24.756  1.00  0.00     0.081 C 
ATOM      7  C   UNL A   1      33.536  24.128  24.848  1.00  0.00     0.064 C 
ATOM      8  C   UNL A   1      31.668  23.517  23.315  1.00  0.00     0.008 C 
ATOM      9  C   UNL A   1      32.998  24.266  23.393  1.00  0.00     0.011 C 
BRANCH   5  10
ATOM     10  N   UNL A   1      32.625  22.966  26.914  1.00  0.00    -0.334 N 
ATOM     11  C   UNL A   1      33.775  22.516  27.657  1.00  0.00     0.331 C 
ATOM     12  H   UNL A   1      32.437  23.922  27.217  1.00  0.00     0.347 HD
ATOM     13  H   UNL A   1      31.923  22.256  27.122  1.00  0.00     0.347 HD
ENDBRANCH   5  10
BRANCH   7  14
ATOM     14  C   UNL A   1      33.441  25.525  25.528  1.00  0.00     0.034 C 
BRANCH  14  15
ATOM     15  C   UNL A   1      33.726  26.770  24.673  1.00  0.00     0.144 C 
BRANCH  15  16
ATOM     16  N   UNL A   1      32.696  27.791  24.734  1.00  0.00    -0.272 N 
ATOM     17  C   UNL A   1      32.648  28.822  25.624  1.00  0.00     0.109 A 
ATOM     18  N   UNL A   1      31.737  27.852  23.789  1.00  0.00    -0.168 NA
ATOM     19  C   UNL A   1      31.585  29.601  25.246  1.00  0.00     0.055 A 
ATOM     20  C   UNL A   1      31.034  28.966  24.098  1.00  0.00     0.166 A 
BRANCH  20  21
ATOM     21  C   UNL A   1      29.866  29.492  23.298  1.00  0.00     0.435 C 
ATOM     22  F   UNL A   1      29.257  30.537  23.935  1.00  0.00    -0.164 F 
ATOM     23  F   UNL A   1      30.243  29.963  22.078  1.00  0.00    -0.164 F 
ATOM     24  F   UNL A   1      28.879  28.590  23.072  1.00  0.00    -0.164 F 
ENDBRANCH  20  21
ENDBRANCH  15  16
ENDBRANCH  14  15
ENDBRANCH   7  14
ENDBRANCH   3   5
ENDBRANCH   2   3
ENDBRANCH   1   2
BRANCH   1  25
ATOM     25  C   UNL A   1      36.629  20.406  24.776  1.00  0.00     0.275 C 
BRANCH  25  26
ATOM     26  O   UNL A   1      37.222  21.356  25.677  1.00  0.00    -0.458 OA
BRANCH  26  27
ATOM     27  C   UNL A   1      38.547  21.149  25.883  1.00  0.00     0.338 C 
ATOM     28  O   UNL A   1      39.173  20.158  25.553  1.00  0.00    -0.246 OA
BRANCH  27  29
ATOM     29  C   UNL A   1      39.157  22.328  26.521  1.00  0.00     0.060 A 
ATOM     30  C   UNL A   1      38.674  23.589  26.188  1.00  0.00     0.016 A 
ATOM     31  C   UNL A   1      40.292  22.205  27.320  1.00  0.00     0.016 A 
ATOM     32  C   UNL A   1      39.396  24.730  26.540  1.00  0.00     0.010 A 
ATOM     33  C   UNL A   1      40.949  23.359  27.773  1.00  0.00     0.010 A 
ATOM     34  C   UNL A   1      40.535  24.637  27.357  1.00  0.00    -0.014 A 
BRANCH  34  35
ATOM     35  C   UNL A   1      41.279  25.869  27.764  1.00  0.00     0.031 A 
ATOM     36  C   UNL A   1      40.606  26.947  28.581  1.00  0.00     0.074 A 
ATOM     37  C   UNL A   1      42.572  26.028  27.412  1.00  0.00     0.049 A 
ATOM     38  N   UNL A   1      41.037  28.145  28.888  1.00  0.00    -0.248 NA
ATOM     39  C   UNL A   1      39.270  26.638  29.113  1.00  0.00     0.031 C 
ATOM     40  C   UNL A   1      43.368  25.060  26.654  1.00  0.00     0.029 A 
ATOM     41  N   UNL A   1      43.452  27.058  27.649  1.00  0.00    -0.354 N 
ATOM     42  C   UNL A   1      40.008  28.754  29.602  1.00  0.00     0.074 A 
ATOM     43  C   UNL A   1      38.930  27.789  29.677  1.00  0.00     0.031 C 
ATOM     44  C   UNL A   1      44.622  25.520  26.526  1.00  0.00     0.029 A 
ATOM     45  C   UNL A   1      44.698  26.856  27.104  1.00  0.00     0.049 A 
ATOM     46  H   UNL A   1      43.211  27.865  28.161  1.00  0.00     0.167 HD
ATOM     47  C   UNL A   1      39.965  30.001  30.140  1.00  0.00     0.034 A 
ATOM     48  C   UNL A   1      45.775  27.663  27.027  1.00  0.00     0.034 A 
ATOM     49  C   UNL A   1      41.058  30.944  30.095  1.00  0.00     0.049 A 
ATOM     50  C   UNL A   1      45.692  29.051  27.597  1.00  0.00     0.074 A 
ATOM     51  C   UNL A   1      41.120  32.223  30.626  1.00  0.00     0.029 A 
ATOM     52  N   UNL A   1      42.287  30.713  29.491  1.00  0.00    -0.354 N 
ATOM     53  N   UNL A   1      44.686  29.635  28.203  1.00  0.00    -0.248 NA
ATOM     54  C   UNL A   1      46.886  29.895  27.455  1.00  0.00     0.031 C 
ATOM     55  C   UNL A   1      42.362  32.781  30.300  1.00  0.00     0.029 A 
ATOM     56  C   UNL A   1      43.102  31.830  29.616  1.00  0.00     0.049 A 
ATOM     57  H   UNL A   1      42.543  29.877  29.037  1.00  0.00     0.167 HD
ATOM     58  C   UNL A   1      45.125  30.918  28.511  1.00  0.00     0.074 A 
ATOM     59  C   UNL A   1      46.494  31.013  28.049  1.00  0.00     0.031 C 
ATOM     60  C   UNL A   1      44.454  31.927  29.121  1.00  0.00     0.034 A 
BRANCH  47  61
ATOM     61  C   UNL A   1      38.666  30.438  30.775  1.00  0.00     0.023 A 
ATOM     62  C   UNL A   1      37.654  31.083  30.044  1.00  0.00     0.031 A 
ATOM     63  C   UNL A   1      38.447  30.213  32.147  1.00  0.00     0.131 A 
ATOM     64  C   UNL A   1      36.495  31.531  30.698  1.00  0.00     0.055 A 
ATOM     65  C   UNL A   1      37.263  30.602  32.778  1.00  0.00     0.041 A 
ATOM     66  F   UNL A   1      39.385  29.615  32.899  1.00  0.00    -0.206 F 
ATOM     67  C   UNL A   1      36.284  31.276  32.056  1.00  0.00     0.022 A 
BRANCH  64  68
ATOM     68  S   UNL A   1      35.311  32.553  29.777  1.00  0.00     0.124 S 
ATOM     69  O   UNL A   1      36.177  33.597  29.234  1.00  0.00    -0.237 OA
ATOM     70  O   UNL A   1      34.765  31.609  28.808  1.00  0.00    -0.237 OA
ATOM     71  O   UNL A   1      34.374  33.004  30.803  1.00  0.00    -0.744 OA
ENDBRANCH  64  68
ENDBRANCH  47  61
BRANCH  48  72
ATOM     72  C   UNL A   1      46.997  27.208  26.308  1.00  0.00     0.023 A 
ATOM     73  C   UNL A   1      48.027  26.532  26.978  1.00  0.00     0.031 A 
ATOM     74  C   UNL A   1      47.151  27.457  24.932  1.00  0.00     0.131 A 
ATOM     75  C   UNL A   1      49.179  26.145  26.274  1.00  0.00     0.055 A 
ATOM     76  C   UNL A   1      48.277  27.030  24.228  1.00  0.00     0.041 A 
ATOM     77  F   UNL A   1      46.192  28.100  24.246  1.00  0.00    -0.206 F 
ATOM     78  C   UNL A   1      49.303  26.377  24.901  1.00  0.00     0.022 A 
BRANCH  75  79
ATOM     79  S   UNL A   1      50.542  25.376  27.191  1.00  0.00     0.124 S 
ATOM     80  O   UNL A   1      51.448  24.993  26.114  1.00  0.00    -0.237 OA
ATOM     81  O   UNL A   1      50.990  26.471  28.045  1.00  0.00    -0.237 OA
ATOM     82  O   UNL A   1      49.899  24.266  27.891  1.00  0.00    -0.744 OA
ENDBRANCH  75  79
ENDBRANCH  48  72
BRANCH  60  83
ATOM     83  C   UNL A   1      45.214  33.209  29.333  1.00  0.00     0.023 A 
ATOM     84  C   UNL A   1      45.969  33.429  30.501  1.00  0.00     0.031 A 
ATOM     85  C   UNL A   1      45.146  34.239  28.381  1.00  0.00     0.131 A 
ATOM     86  C   UNL A   1      46.585  34.672  30.708  1.00  0.00     0.055 A 
ATOM     87  C   UNL A   1      45.799  35.459  28.572  1.00  0.00     0.041 A 
ATOM     88  F   UNL A   1      44.434  34.082  27.254  1.00  0.00    -0.206 F 
ATOM     89  C   UNL A   1      46.513  35.684  29.747  1.00  0.00     0.022 A 
BRANCH  86  90
ATOM     90  S   UNL A   1      47.414  34.983  32.291  1.00  0.00     0.124 S 
ATOM     91  O   UNL A   1      46.287  35.234  33.182  1.00  0.00    -0.237 OA
ATOM     92  O   UNL A   1      48.139  33.736  32.515  1.00  0.00    -0.237 OA
ATOM     93  O   UNL A   1      48.257  36.146  32.016  1.00  0.00    -0.744 OA
ENDBRANCH  86  90
ENDBRANCH  60  83
ENDBRANCH  34  35
ENDBRANCH  27  29
ENDBRANCH  26  27
ENDBRANCH  25  26
ENDBRANCH   1  25
TORSDOF 19
ENDMDL
MODEL 3
REMARK VINA RESULT:     -11.0      1.949      2.245
REMARK SMILES C[NH2+][C@@]1(C(=O)OCCOC(=O)c2ccc(-c3c4nc(c(-c5cc(S(=O)(=O)[O-])ccc5F)c5ccc([nH]5)c(-c5cc(S(=O)(=O)[O-])ccc5F)c5nc(c(-c6cc(S(=O)(=O)[O-])ccc6F)c6ccc3[nH]6)C=C5)C=C4)cc2)CCC[C@H]1CCn1ccc(C(F)(F)F)n1
REMARK SMILES IDX 7 1 6 2 4 3 5 4 3 5 75 6 78 7 76 8 77 9 2 10 1 11 79 14
REMARK SMILES IDX 80 15 81 16 82 17 89 18 83 19 84 20 85 21 86 22 87 23 88 24
REMARK SMILES IDX 8 25 9 26 10 27 11 28 12 29 13 30 74 31 14 32 73 33 15 34
REMARK SMILES IDX 16 35 17 36 67 37 18 38 72 39 66 40 68 41 19 42 71 43 65 44
REMARK SMILES IDX 64 45 20 47 52 48 32 49 51 50 33 51 36 52 50 53 69 54 34 55
REMARK SMILES IDX 35 56 49 58 70 59 37 60 21 61 22 62 30 63 23 64 29 65 31 66
REMARK SMILES IDX 28 67 24 68 25 69 26 70 27 71 53 72 54 73 62 74 55 75 61 76
REMARK SMILES IDX 63 77 60 78 56 79 57 80 58 81 59 82 38 83 39 84 47 85 40 86
REMARK SMILES IDX 46 87 48 88 45 89 41 90 42 91 43 92 44 93
REMARK H PARENT 2 12 2 13 68 46 36 57
REMARK Flexibility Score: inf
ROOT
ATOM      1  C   UNL A   1      35.264  21.918  24.602  1.00  0.00     0.274 C 
ENDROOT
BRANCH   1   2
ATOM      2  O   UNL A   1      34.871  23.262  24.943  1.00  0.00    -0.457 OA
BRANCH   2   3
ATOM      3  C   UNL A   1      33.552  23.443  25.238  1.00  0.00     0.368 C 
ATOM      4  O   UNL A   1      32.944  22.749  26.051  1.00  0.00    -0.245 OA
BRANCH   3   5
ATOM      5  C   UNL A   1      32.857  24.578  24.379  1.00  0.00     0.197 C 
ATOM      6  C   UNL A   1      33.867  25.738  24.340  1.00  0.00     0.081 C 
ATOM      7  C   UNL A   1      31.609  25.224  25.066  1.00  0.00     0.064 C 
ATOM      8  C   UNL A   1      33.715  26.396  25.703  1.00  0.00     0.008 C 
ATOM      9  C   UNL A   1      32.242  26.231  26.072  1.00  0.00     0.011 C 
BRANCH   5  10
ATOM     10  N   UNL A   1      32.561  23.944  23.090  1.00  0.00    -0.334 N 
ATOM     11  C   UNL A   1      31.990  22.621  23.042  1.00  0.00     0.331 C 
ATOM     12  H   UNL A   1      31.909  24.561  22.604  1.00  0.00     0.347 HD
ATOM     13  H   UNL A   1      33.485  23.812  22.681  1.00  0.00     0.347 HD
ENDBRANCH   5  10
BRANCH   7  14
ATOM     14  C   UNL A   1      30.630  26.015  24.149  1.00  0.00     0.034 C 
BRANCH  14  15
ATOM     15  C   UNL A   1      30.983  27.468  23.794  1.00  0.00     0.144 C 
BRANCH  15  16
ATOM     16  N   UNL A   1      29.843  28.293  23.437  1.00  0.00    -0.272 N 
ATOM     17  C   UNL A   1      28.596  27.838  23.125  1.00  0.00     0.109 A 
ATOM     18  N   UNL A   1      29.922  29.637  23.510  1.00  0.00    -0.168 NA
ATOM     19  C   UNL A   1      27.812  28.953  22.974  1.00  0.00     0.055 A 
ATOM     20  C   UNL A   1      28.671  30.061  23.217  1.00  0.00     0.166 A 
BRANCH  20  21
ATOM     21  C   UNL A   1      28.235  31.507  23.210  1.00  0.00     0.435 C 
ATOM     22  F   UNL A   1      29.135  32.301  23.864  1.00  0.00    -0.164 F 
ATOM     23  F   UNL A   1      28.133  32.012  21.950  1.00  0.00    -0.164 F 
ATOM     24  F   UNL A   1      27.045  31.745  23.817  1.00  0.00    -0.164 F 
ENDBRANCH  20  21
ENDBRANCH  15  16
ENDBRANCH  14  15
ENDBRANCH   7  14
ENDBRANCH   3   5
ENDBRANCH   2   3
ENDBRANCH   1   2
BRANCH   1  25
ATOM     25  C   UNL A   1      36.369  21.395  25.519  1.00  0.00     0.275 C 
BRANCH  25  26
ATOM     26  O   UNL A   1      37.669  21.731  25.004  1.00  0.00    -0.458 OA
BRANCH  26  27
ATOM     27  C   UNL A   1      38.684  21.364  25.824  1.00  0.00     0.338 C 
ATOM     28  O   UNL A   1      39.069  20.225  26.018  1.00  0.00    -0.246 OA
BRANCH  27  29
ATOM     29  C   UNL A   1      39.315  22.553  26.422  1.00  0.00     0.060 A 
ATOM     30  C   UNL A   1      38.844  23.810  26.058  1.00  0.00     0.016 A 
ATOM     31  C   UNL A   1      40.456  22.440  27.213  1.00  0.00     0.016 A 
ATOM     32  C   UNL A   1      39.583  24.951  26.370  1.00  0.00     0.010 A 
ATOM     33  C   UNL A   1      41.131  23.598  27.627  1.00  0.00     0.010 A 
ATOM     34  C   UNL A   1      40.728  24.869  27.178  1.00  0.00    -0.014 A 
BRANCH  34  35
ATOM     35  C   UNL A   1      41.491  26.102  27.543  1.00  0.00     0.031 A 
ATOM     36  C   UNL A   1      40.863  27.177  28.399  1.00  0.00     0.074 A 
ATOM     37  C   UNL A   1      42.761  26.266  27.116  1.00  0.00     0.049 A 
ATOM     38  N   UNL A   1      41.307  28.377  28.682  1.00  0.00    -0.248 NA
ATOM     39  C   UNL A   1      39.562  26.863  29.008  1.00  0.00     0.031 C 
ATOM     40  C   UNL A   1      43.514  25.301  26.311  1.00  0.00     0.029 A 
ATOM     41  N   UNL A   1      43.649  27.299  27.303  1.00  0.00    -0.354 N 
ATOM     42  C   UNL A   1      40.321  28.981  29.456  1.00  0.00     0.074 A 
ATOM     43  C   UNL A   1      39.251  28.013  29.592  1.00  0.00     0.031 C 
ATOM     44  C   UNL A   1      44.757  25.766  26.111  1.00  0.00     0.029 A 
ATOM     45  C   UNL A   1      44.863  27.101  26.685  1.00  0.00     0.049 A 
ATOM     46  H   UNL A   1      43.437  28.104  27.828  1.00  0.00     0.167 HD
ATOM     47  C   UNL A   1      40.305  30.227  29.997  1.00  0.00     0.034 A 
ATOM     48  C   UNL A   1      45.930  27.912  26.546  1.00  0.00     0.034 A 
ATOM     49  C   UNL A   1      41.391  31.174  29.889  1.00  0.00     0.049 A 
ATOM     50  C   UNL A   1      45.876  29.299  27.122  1.00  0.00     0.074 A 
ATOM     51  C   UNL A   1      41.479  32.453  30.417  1.00  0.00     0.029 A 
ATOM     52  N   UNL A   1      42.582  30.948  29.213  1.00  0.00    -0.354 N 
ATOM     53  N   UNL A   1      44.905  29.879  27.787  1.00  0.00    -0.248 NA
ATOM     54  C   UNL A   1      47.057  30.147  26.911  1.00  0.00     0.031 C 
ATOM     55  C   UNL A   1      42.698  33.015  30.020  1.00  0.00     0.029 A 
ATOM     56  C   UNL A   1      43.400  32.067  29.292  1.00  0.00     0.049 A 
ATOM     57  H   UNL A   1      42.815  30.114  28.744  1.00  0.00     0.167 HD
ATOM     58  C   UNL A   1      45.358  31.163  28.070  1.00  0.00     0.074 A 
ATOM     59  C   UNL A   1      46.697  31.263  27.528  1.00  0.00     0.031 C 
ATOM     60  C   UNL A   1      44.720  32.169  28.719  1.00  0.00     0.034 A 
BRANCH  47  61
ATOM     61  C   UNL A   1      39.044  30.660  30.707  1.00  0.00     0.023 A 
ATOM     62  C   UNL A   1      38.067  31.455  30.083  1.00  0.00     0.031 A 
ATOM     63  C   UNL A   1      38.826  30.274  32.043  1.00  0.00     0.131 A 
ATOM     64  C   UNL A   1      36.947  31.887  30.812  1.00  0.00     0.055 A 
ATOM     65  C   UNL A   1      37.676  30.652  32.741  1.00  0.00     0.041 A 
ATOM     66  F   UNL A   1      39.731  29.527  32.694  1.00  0.00    -0.206 F 
ATOM     67  C   UNL A   1      36.735  31.473  32.130  1.00  0.00     0.022 A 
BRANCH  64  68
ATOM     68  S   UNL A   1      35.821  33.090  30.051  1.00  0.00     0.124 S 
ATOM     69  O   UNL A   1      36.627  33.592  28.941  1.00  0.00    -0.237 OA
ATOM     70  O   UNL A   1      34.675  32.266  29.686  1.00  0.00    -0.237 OA
ATOM     71  O   UNL A   1      35.578  34.057  31.120  1.00  0.00    -0.744 OA
ENDBRANCH  64  68
ENDBRANCH  47  61
BRANCH  48  72
ATOM     72  C   UNL A   1      47.109  27.462  25.757  1.00  0.00     0.023 A 
ATOM     73  C   UNL A   1      47.246  27.790  24.400  1.00  0.00     0.031 A 
ATOM     74  C   UNL A   1      48.116  26.683  26.356  1.00  0.00     0.131 A 
ATOM     75  C   UNL A   1      48.356  27.322  23.678  1.00  0.00     0.055 A 
ATOM     76  C   UNL A   1      49.239  26.258  25.646  1.00  0.00     0.041 A 
ATOM     77  F   UNL A   1      48.031  26.343  27.652  1.00  0.00    -0.206 F 
ATOM     78  C   UNL A   1      49.360  26.571  24.297  1.00  0.00     0.022 A 
BRANCH  75  79
ATOM     79  S   UNL A   1      48.446  27.665  21.900  1.00  0.00     0.124 S 
ATOM     80  O   UNL A   1      48.659  26.332  21.348  1.00  0.00    -0.237 OA
ATOM     81  O   UNL A   1      47.142  28.265  21.639  1.00  0.00    -0.237 OA
ATOM     82  O   UNL A   1      49.583  28.577  21.786  1.00  0.00    -0.744 OA
ENDBRANCH  75  79
ENDBRANCH  48  72
BRANCH  60  83
ATOM     83  C   UNL A   1      45.488  33.453  28.888  1.00  0.00     0.023 A 
ATOM     84  C   UNL A   1      46.263  33.699  30.037  1.00  0.00     0.031 A 
ATOM     85  C   UNL A   1      45.407  34.461  27.913  1.00  0.00     0.131 A 
ATOM     86  C   UNL A   1      46.885  34.944  30.204  1.00  0.00     0.055 A 
ATOM     87  C   UNL A   1      46.065  35.683  28.064  1.00  0.00     0.041 A 
ATOM     88  F   UNL A   1      44.675  34.279  26.802  1.00  0.00    -0.206 F 
ATOM     89  C   UNL A   1      46.800  35.934  29.221  1.00  0.00     0.022 A 
BRANCH  86  90
ATOM     90  S   UNL A   1      47.742  35.290  31.766  1.00  0.00     0.124 S 
ATOM     91  O   UNL A   1      48.254  33.973  32.130  1.00  0.00    -0.237 OA
ATOM     92  O   UNL A   1      48.743  36.273  31.363  1.00  0.00    -0.237 OA
ATOM     93  O   UNL A   1      46.683  35.805  32.633  1.00  0.00    -0.744 OA
ENDBRANCH  86  90
ENDBRANCH  60  83
ENDBRANCH  34  35
ENDBRANCH  27  29
ENDBRANCH  26  27
ENDBRANCH  25  26
ENDBRANCH   1  25
TORSDOF 19
ENDMDL
