MODEL 1
REMARK VINA RESULT:     -12.1      0.000      0.000
REMARK SMILES COc1ccc2c(c1)c(CC(=O)OCCOC(=O)c1ccc(-c3c4nc(c(-c5cc(S(=O)(=O)[O-])ccc5F)c5ccc([nH]5)c(-c5cc(S(=O)(=O)[O-])ccc5F)c5nc(c(-c6cc(S(=O)(=O)[O-])ccc6F)c6ccc3[nH]6)C=C5)C=C4)cc1)c(C)n2C(=O)c1ccc(Cl)cc1
REMARK SMILES IDX 14 1 13 2 11 3 12 4 10 5 9 6 3 7 4 8 8 9 5 10 7 11 6 12
REMARK SMILES IDX 84 13 82 14 83 15 2 16 1 17 85 18 86 19 87 20 88 21 93 22
REMARK SMILES IDX 89 23 92 24 90 25 91 26 15 27 16 28 17 29 18 30 19 31 20 32
REMARK SMILES IDX 81 33 21 34 80 35 22 36 23 37 24 38 74 39 25 40 79 41 73 42
REMARK SMILES IDX 75 43 26 44 78 45 72 46 71 47 27 49 59 50 39 51 58 52 40 53
REMARK SMILES IDX 43 54 57 55 76 56 41 57 42 58 56 60 77 61 44 62 28 63 29 64
REMARK SMILES IDX 37 65 30 66 36 67 38 68 35 69 31 70 32 71 33 72 34 73 60 74
REMARK SMILES IDX 61 75 69 76 62 77 68 78 70 79 67 80 63 81 64 82 65 83 66 84
REMARK SMILES IDX 45 85 46 86 54 87 47 88 53 89 55 90 52 91 48 92 49 93 50 94
REMARK SMILES IDX 51 95
REMARK H PARENT 75 48 43 59
REMARK Flexibility Score: inf
ROOT
ATOM      1  C   UNL A   1      39.825  21.746  26.157  1.00  0.00     0.274 C 
ENDROOT
BRANCH   1   2
ATOM      2  O   UNL A   1      38.384  21.829  26.204  1.00  0.00    -0.462 OA
BRANCH   2   3
ATOM      3  C   UNL A   1      37.887  23.002  25.747  1.00  0.00     0.310 C 
ATOM      4  O   UNL A   1      38.204  24.092  26.215  1.00  0.00    -0.252 OA
BRANCH   3   5
ATOM      5  C   UNL A   1      36.809  22.891  24.714  1.00  0.00     0.160 C 
BRANCH   5   6
ATOM      6  C   UNL A   1      35.386  22.559  25.061  1.00  0.00    -0.008 A 
ATOM      7  C   UNL A   1      33.962  18.991  24.588  1.00  0.00     0.119 A 
ATOM      8  C   UNL A   1      32.636  19.346  24.723  1.00  0.00     0.048 A 
ATOM      9  C   UNL A   1      34.958  19.961  24.795  1.00  0.00     0.057 A 
ATOM     10  C   UNL A   1      32.291  20.665  25.032  1.00  0.00     0.031 A 
ATOM     11  C   UNL A   1      34.648  21.326  25.022  1.00  0.00     0.008 A 
ATOM     12  C   UNL A   1      33.296  21.649  25.197  1.00  0.00     0.057 A 
ATOM     13  N   UNL A   1      33.235  22.997  25.583  1.00  0.00    -0.280 N 
ATOM     14  C   UNL A   1      34.451  23.572  25.252  1.00  0.00     0.028 A 
ATOM     15  C   UNL A   1      34.684  25.051  25.137  1.00  0.00     0.065 C 
BRANCH   7  16
ATOM     16  O   UNL A   1      34.399  17.728  24.285  1.00  0.00    -0.497 OA
ATOM     17  C   UNL A   1      33.435  16.839  23.720  1.00  0.00     0.278 C 
ENDBRANCH   7  16
BRANCH  13  18
ATOM     18  C   UNL A   1      32.156  23.647  26.231  1.00  0.00     0.262 C 
ATOM     19  O   UNL A   1      31.824  23.313  27.366  1.00  0.00    -0.268 OA
BRANCH  18  20
ATOM     20  C   UNL A   1      31.320  24.659  25.587  1.00  0.00     0.040 A 
ATOM     21  C   UNL A   1      30.712  24.361  24.362  1.00  0.00     0.015 A 
ATOM     22  C   UNL A   1      31.239  25.930  26.159  1.00  0.00     0.015 A 
ATOM     23  C   UNL A   1      30.064  25.378  23.667  1.00  0.00     0.021 A 
ATOM     24  C   UNL A   1      30.585  26.940  25.458  1.00  0.00     0.021 A 
ATOM     25  C   UNL A   1      30.015  26.665  24.212  1.00  0.00     0.041 A 
ATOM     26  Cl  UNL A   1      29.272  27.932  23.318  1.00  0.00    -0.084 Cl
ENDBRANCH  18  20
ENDBRANCH  13  18
ENDBRANCH   5   6
ENDBRANCH   3   5
ENDBRANCH   2   3
ENDBRANCH   1   2
BRANCH   1  27
ATOM     27  C   UNL A   1      40.438  22.130  27.506  1.00  0.00     0.275 C 
BRANCH  27  28
ATOM     28  O   UNL A   1      41.854  21.886  27.479  1.00  0.00    -0.458 OA
BRANCH  28  29
ATOM     29  C   UNL A   1      42.553  22.428  26.438  1.00  0.00     0.338 C 
ATOM     30  O   UNL A   1      42.725  21.950  25.352  1.00  0.00    -0.246 OA
BRANCH  29  31
ATOM     31  C   UNL A   1      42.739  23.860  26.790  1.00  0.00     0.060 A 
ATOM     32  C   UNL A   1      43.265  24.239  28.024  1.00  0.00     0.016 A 
ATOM     33  C   UNL A   1      42.096  24.792  25.974  1.00  0.00     0.016 A 
ATOM     34  C   UNL A   1      42.947  25.496  28.524  1.00  0.00     0.010 A 
ATOM     35  C   UNL A   1      41.740  26.024  26.492  1.00  0.00     0.010 A 
ATOM     36  C   UNL A   1      42.084  26.330  27.800  1.00  0.00    -0.014 A 
BRANCH  36  37
ATOM     37  C   UNL A   1      41.653  27.600  28.354  1.00  0.00     0.031 A 
ATOM     38  C   UNL A   1      42.431  28.751  27.865  1.00  0.00     0.074 A 
ATOM     39  C   UNL A   1      40.611  27.833  29.172  1.00  0.00     0.049 A 
ATOM     40  N   UNL A   1      43.430  29.287  28.473  1.00  0.00    -0.248 NA
ATOM     41  C   UNL A   1      42.182  29.267  26.519  1.00  0.00     0.031 C 
ATOM     42  C   UNL A   1      39.508  26.976  29.589  1.00  0.00     0.029 A 
ATOM     43  N   UNL A   1      40.341  29.005  29.808  1.00  0.00    -0.354 N 
ATOM     44  C   UNL A   1      43.893  30.298  27.647  1.00  0.00     0.074 A 
ATOM     45  C   UNL A   1      43.173  30.155  26.402  1.00  0.00     0.031 C 
ATOM     46  C   UNL A   1      38.590  27.707  30.269  1.00  0.00     0.029 A 
ATOM     47  C   UNL A   1      39.145  29.030  30.496  1.00  0.00     0.049 A 
ATOM     48  H   UNL A   1      40.952  29.777  29.777  1.00  0.00     0.167 HD
ATOM     49  C   UNL A   1      44.757  31.243  28.113  1.00  0.00     0.034 A 
ATOM     50  C   UNL A   1      38.665  30.053  31.244  1.00  0.00     0.034 A 
ATOM     51  C   UNL A   1      45.213  30.916  29.443  1.00  0.00     0.049 A 
ATOM     52  C   UNL A   1      39.826  30.884  31.660  1.00  0.00     0.074 A 
ATOM     53  C   UNL A   1      45.998  29.906  29.965  1.00  0.00     0.029 A 
ATOM     54  N   UNL A   1      44.512  31.436  30.508  1.00  0.00    -0.354 N 
ATOM     55  N   UNL A   1      40.724  30.491  32.521  1.00  0.00    -0.248 NA
ATOM     56  C   UNL A   1      40.240  31.971  30.786  1.00  0.00     0.031 C 
ATOM     57  C   UNL A   1      45.388  29.566  31.207  1.00  0.00     0.029 A 
ATOM     58  C   UNL A   1      44.295  30.415  31.405  1.00  0.00     0.049 A 
ATOM     59  H   UNL A   1      44.218  32.370  30.609  1.00  0.00     0.167 HD
ATOM     60  C   UNL A   1      41.932  30.939  32.003  1.00  0.00     0.074 A 
ATOM     61  C   UNL A   1      41.559  31.936  30.999  1.00  0.00     0.031 C 
ATOM     62  C   UNL A   1      43.106  30.276  32.232  1.00  0.00     0.034 A 
BRANCH  49  63
ATOM     63  C   UNL A   1      45.030  32.564  27.462  1.00  0.00     0.023 A 
ATOM     64  C   UNL A   1      44.250  33.711  27.699  1.00  0.00     0.031 A 
ATOM     65  C   UNL A   1      46.197  32.755  26.696  1.00  0.00     0.131 A 
ATOM     66  C   UNL A   1      44.604  34.957  27.170  1.00  0.00     0.055 A 
ATOM     67  C   UNL A   1      46.587  34.011  26.222  1.00  0.00     0.041 A 
ATOM     68  F   UNL A   1      47.016  31.728  26.415  1.00  0.00    -0.206 F 
ATOM     69  C   UNL A   1      45.786  35.122  26.454  1.00  0.00     0.022 A 
BRANCH  66  70
ATOM     70  S   UNL A   1      43.522  36.393  27.401  1.00  0.00     0.124 S 
ATOM     71  O   UNL A   1      42.479  36.143  26.412  1.00  0.00    -0.237 OA
ATOM     72  O   UNL A   1      43.118  36.243  28.798  1.00  0.00    -0.237 OA
ATOM     73  O   UNL A   1      44.398  37.528  27.130  1.00  0.00    -0.744 OA
ENDBRANCH  66  70
ENDBRANCH  49  63
BRANCH  50  74
ATOM     74  C   UNL A   1      37.297  30.604  31.130  1.00  0.00     0.023 A 
ATOM     75  C   UNL A   1      36.742  30.838  29.858  1.00  0.00     0.031 A 
ATOM     76  C   UNL A   1      36.656  31.190  32.234  1.00  0.00     0.131 A 
ATOM     77  C   UNL A   1      35.638  31.686  29.709  1.00  0.00     0.055 A 
ATOM     78  C   UNL A   1      35.537  32.016  32.087  1.00  0.00     0.041 A 
ATOM     79  F   UNL A   1      37.150  31.027  33.472  1.00  0.00    -0.206 F 
ATOM     80  C   UNL A   1      35.033  32.282  30.817  1.00  0.00     0.022 A 
BRANCH  77  81
ATOM     81  S   UNL A   1      35.029  32.102  28.052  1.00  0.00     0.124 S 
ATOM     82  O   UNL A   1      35.114  30.820  27.357  1.00  0.00    -0.237 OA
ATOM     83  O   UNL A   1      33.678  32.570  28.344  1.00  0.00    -0.237 OA
ATOM     84  O   UNL A   1      35.968  33.118  27.588  1.00  0.00    -0.744 OA
ENDBRANCH  77  81
ENDBRANCH  50  74
BRANCH  62  85
ATOM     85  C   UNL A   1      43.120  29.134  33.236  1.00  0.00     0.023 A 
ATOM     86  C   UNL A   1      43.576  29.408  34.539  1.00  0.00     0.031 A 
ATOM     87  C   UNL A   1      42.925  27.779  32.899  1.00  0.00     0.131 A 
ATOM     88  C   UNL A   1      43.859  28.363  35.430  1.00  0.00     0.055 A 
ATOM     89  C   UNL A   1      43.143  26.743  33.813  1.00  0.00     0.041 A 
ATOM     90  F   UNL A   1      42.600  27.405  31.657  1.00  0.00    -0.206 F 
ATOM     91  C   UNL A   1      43.630  27.031  35.082  1.00  0.00     0.022 A 
BRANCH  88  92
ATOM     92  S   UNL A   1      44.684  28.698  37.009  1.00  0.00     0.124 S 
ATOM     93  O   UNL A   1      43.716  29.556  37.687  1.00  0.00    -0.237 OA
ATOM     94  O   UNL A   1      44.834  27.358  37.572  1.00  0.00    -0.237 OA
ATOM     95  O   UNL A   1      45.933  29.349  36.625  1.00  0.00    -0.744 OA
ENDBRANCH  88  92
ENDBRANCH  62  85
ENDBRANCH  36  37
ENDBRANCH  29  31
ENDBRANCH  28  29
ENDBRANCH  27  28
ENDBRANCH   1  27
TORSDOF 18
ENDMDL
MODEL 2
REMARK VINA RESULT:     -12.1      1.748      3.497
REMARK SMILES COc1ccc2c(c1)c(CC(=O)OCCOC(=O)c1ccc(-c3c4nc(c(-c5cc(S(=O)(=O)[O-])ccc5F)c5ccc([nH]5)c(-c5cc(S(=O)(=O)[O-])ccc5F)c5nc(c(-c6cc(S(=O)(=O)[O-])ccc6F)c6ccc3[nH]6)C=C5)C=C4)cc1)c(C)n2C(=O)c1ccc(Cl)cc1
REMARK SMILES IDX 14 1 13 2 11 3 12 4 10 5 9 6 3 7 4 8 8 9 5 10 7 11 6 12
REMARK SMILES IDX 84 13 82 14 83 15 2 16 1 17 85 18 86 19 87 20 88 21 93 22
REMARK SMILES IDX 89 23 92 24 90 25 91 26 15 27 16 28 17 29 18 30 19 31 20 32
REMARK SMILES IDX 81 33 21 34 80 35 22 36 23 37 24 38 74 39 25 40 79 41 73 42
REMARK SMILES IDX 75 43 26 44 78 45 72 46 71 47 27 49 59 50 39 51 58 52 40 53
REMARK SMILES IDX 43 54 57 55 76 56 41 57 42 58 56 60 77 61 44 62 28 63 29 64
REMARK SMILES IDX 37 65 30 66 36 67 38 68 35 69 31 70 32 71 33 72 34 73 60 74
REMARK SMILES IDX 61 75 69 76 62 77 68 78 70 79 67 80 63 81 64 82 65 83 66 84
REMARK SMILES IDX 45 85 46 86 54 87 47 88 53 89 55 90 52 91 48 92 49 93 50 94
REMARK SMILES IDX 51 95
REMARK H PARENT 75 48 43 59
REMARK Flexibility Score: inf
ROOT
ATOM      1  C   UNL A   1      38.805  21.424  25.928  1.00  0.00     0.274 C 
ENDROOT
BRANCH   1   2
ATOM      2  O   UNL A   1      38.512  22.835  25.831  1.00  0.00    -0.462 OA
BRANCH   2   3
ATOM      3  C   UNL A   1      37.348  23.111  25.197  1.00  0.00     0.310 C 
ATOM      4  O   UNL A   1      37.287  23.409  24.007  1.00  0.00    -0.252 OA
BRANCH   3   5
ATOM      5  C   UNL A   1      36.132  23.167  26.069  1.00  0.00     0.160 C 
BRANCH   5   6
ATOM      6  C   UNL A   1      34.773  22.741  25.594  1.00  0.00    -0.008 A 
ATOM      7  C   UNL A   1      31.601  24.808  26.401  1.00  0.00     0.119 A 
ATOM      8  C   UNL A   1      30.697  23.829  26.043  1.00  0.00     0.048 A 
ATOM      9  C   UNL A   1      32.973  24.590  26.183  1.00  0.00     0.057 A 
ATOM     10  C   UNL A   1      31.148  22.623  25.501  1.00  0.00     0.031 A 
ATOM     11  C   UNL A   1      33.476  23.347  25.719  1.00  0.00     0.008 A 
ATOM     12  C   UNL A   1      32.533  22.389  25.324  1.00  0.00     0.057 A 
ATOM     13  N   UNL A   1      33.239  21.326  24.739  1.00  0.00    -0.280 N 
ATOM     14  C   UNL A   1      34.560  21.445  25.136  1.00  0.00     0.028 A 
ATOM     15  C   UNL A   1      35.569  20.335  25.061  1.00  0.00     0.065 C 
BRANCH   7  16
ATOM     16  O   UNL A   1      31.259  26.020  26.941  1.00  0.00    -0.497 OA
ATOM     17  C   UNL A   1      31.185  27.122  26.036  1.00  0.00     0.278 C 
ENDBRANCH   7  16
BRANCH  13  18
ATOM     18  C   UNL A   1      32.717  20.338  23.867  1.00  0.00     0.262 C 
ATOM     19  O   UNL A   1      32.156  20.667  22.824  1.00  0.00    -0.268 OA
BRANCH  18  20
ATOM     20  C   UNL A   1      32.715  18.910  24.177  1.00  0.00     0.040 A 
ATOM     21  C   UNL A   1      32.367  18.492  25.466  1.00  0.00     0.015 A 
ATOM     22  C   UNL A   1      33.163  18.010  23.208  1.00  0.00     0.015 A 
ATOM     23  C   UNL A   1      32.535  17.154  25.809  1.00  0.00     0.021 A 
ATOM     24  C   UNL A   1      33.324  16.671  23.559  1.00  0.00     0.021 A 
ATOM     25  C   UNL A   1      33.024  16.253  24.858  1.00  0.00     0.041 A 
ATOM     26  Cl  UNL A   1      33.293  14.615  25.308  1.00  0.00    -0.084 Cl
ENDBRANCH  18  20
ENDBRANCH  13  18
ENDBRANCH   5   6
ENDBRANCH   3   5
ENDBRANCH   2   3
ENDBRANCH   1   2
BRANCH   1  27
ATOM     27  C   UNL A   1      40.255  21.197  26.364  1.00  0.00     0.275 C 
BRANCH  27  28
ATOM     28  O   UNL A   1      41.001  22.415  26.204  1.00  0.00    -0.458 OA
BRANCH  28  29
ATOM     29  C   UNL A   1      42.198  22.494  26.858  1.00  0.00     0.338 C 
ATOM     30  O   UNL A   1      43.047  21.650  26.926  1.00  0.00    -0.246 OA
BRANCH  29  31
ATOM     31  C   UNL A   1      42.393  23.939  27.150  1.00  0.00     0.060 A 
ATOM     32  C   UNL A   1      42.942  24.365  28.358  1.00  0.00     0.016 A 
ATOM     33  C   UNL A   1      41.736  24.840  26.309  1.00  0.00     0.016 A 
ATOM     34  C   UNL A   1      42.635  25.642  28.814  1.00  0.00     0.010 A 
ATOM     35  C   UNL A   1      41.392  26.091  26.784  1.00  0.00     0.010 A 
ATOM     36  C   UNL A   1      41.759  26.449  28.073  1.00  0.00    -0.014 A 
BRANCH  36  37
ATOM     37  C   UNL A   1      41.340  27.740  28.584  1.00  0.00     0.031 A 
ATOM     38  C   UNL A   1      42.130  28.867  28.058  1.00  0.00     0.074 A 
ATOM     39  C   UNL A   1      40.300  28.010  29.393  1.00  0.00     0.049 A 
ATOM     40  N   UNL A   1      43.133  29.414  28.648  1.00  0.00    -0.248 NA
ATOM     41  C   UNL A   1      41.886  29.340  26.695  1.00  0.00     0.031 C 
ATOM     42  C   UNL A   1      39.189  27.178  29.837  1.00  0.00     0.029 A 
ATOM     43  N   UNL A   1      40.041  29.206  29.989  1.00  0.00    -0.354 N 
ATOM     44  C   UNL A   1      43.606  30.392  27.790  1.00  0.00     0.074 A 
ATOM     45  C   UNL A   1      42.886  30.214  26.550  1.00  0.00     0.031 C 
ATOM     46  C   UNL A   1      38.277  27.940  30.491  1.00  0.00     0.029 A 
ATOM     47  C   UNL A   1      38.845  29.265  30.675  1.00  0.00     0.049 A 
ATOM     48  H   UNL A   1      40.659  29.969  29.933  1.00  0.00     0.167 HD
ATOM     49  C   UNL A   1      44.479  31.343  28.225  1.00  0.00     0.034 A 
ATOM     50  C   UNL A   1      38.373  30.316  31.388  1.00  0.00     0.034 A 
ATOM     51  C   UNL A   1      44.931  31.056  29.566  1.00  0.00     0.049 A 
ATOM     52  C   UNL A   1      39.543  31.150  31.777  1.00  0.00     0.074 A 
ATOM     53  C   UNL A   1      45.706  30.058  30.121  1.00  0.00     0.029 A 
ATOM     54  N   UNL A   1      44.234  31.618  30.612  1.00  0.00    -0.354 N 
ATOM     55  N   UNL A   1      40.436  30.777  32.652  1.00  0.00    -0.248 NA
ATOM     56  C   UNL A   1      39.968  32.203  30.867  1.00  0.00     0.031 C 
ATOM     57  C   UNL A   1      45.092  29.764  31.374  1.00  0.00     0.029 A 
ATOM     58  C   UNL A   1      44.007  30.630  31.542  1.00  0.00     0.049 A 
ATOM     59  H   UNL A   1      43.949  32.558  30.682  1.00  0.00     0.167 HD
ATOM     60  C   UNL A   1      41.648  31.196  32.120  1.00  0.00     0.074 A 
ATOM     61  C   UNL A   1      41.286  32.162  31.083  1.00  0.00     0.031 C 
ATOM     62  C   UNL A   1      42.816  30.530  32.372  1.00  0.00     0.034 A 
BRANCH  49  63
ATOM     63  C   UNL A   1      44.765  32.640  27.530  1.00  0.00     0.023 A 
ATOM     64  C   UNL A   1      44.110  33.842  27.853  1.00  0.00     0.031 A 
ATOM     65  C   UNL A   1      45.836  32.741  26.621  1.00  0.00     0.131 A 
ATOM     66  C   UNL A   1      44.486  35.058  27.270  1.00  0.00     0.055 A 
ATOM     67  C   UNL A   1      46.256  33.964  26.088  1.00  0.00     0.041 A 
ATOM     68  F   UNL A   1      46.533  31.655  26.249  1.00  0.00    -0.206 F 
ATOM     69  C   UNL A   1      45.576  35.132  26.408  1.00  0.00     0.022 A 
BRANCH  66  70
ATOM     70  S   UNL A   1      43.553  36.572  27.621  1.00  0.00     0.124 S 
ATOM     71  O   UNL A   1      44.623  37.541  27.829  1.00  0.00    -0.237 OA
ATOM     72  O   UNL A   1      42.777  36.738  26.394  1.00  0.00    -0.237 OA
ATOM     73  O   UNL A   1      42.770  36.223  28.803  1.00  0.00    -0.744 OA
ENDBRANCH  66  70
ENDBRANCH  49  63
BRANCH  50  74
ATOM     74  C   UNL A   1      37.011  30.876  31.254  1.00  0.00     0.023 A 
ATOM     75  C   UNL A   1      36.475  31.110  29.974  1.00  0.00     0.031 A 
ATOM     76  C   UNL A   1      36.360  31.470  32.348  1.00  0.00     0.131 A 
ATOM     77  C   UNL A   1      35.378  31.965  29.808  1.00  0.00     0.055 A 
ATOM     78  C   UNL A   1      35.248  32.304  32.184  1.00  0.00     0.041 A 
ATOM     79  F   UNL A   1      36.837  31.308  33.592  1.00  0.00    -0.206 F 
ATOM     80  C   UNL A   1      34.763  32.569  30.906  1.00  0.00     0.022 A 
BRANCH  77  81
ATOM     81  S   UNL A   1      34.793  32.379  28.142  1.00  0.00     0.124 S 
ATOM     82  O   UNL A   1      35.928  33.111  27.585  1.00  0.00    -0.237 OA
ATOM     83  O   UNL A   1      34.559  31.056  27.575  1.00  0.00    -0.237 OA
ATOM     84  O   UNL A   1      33.601  33.185  28.389  1.00  0.00    -0.744 OA
ENDBRANCH  77  81
ENDBRANCH  50  74
BRANCH  62  85
ATOM     85  C   UNL A   1      42.818  29.422  33.414  1.00  0.00     0.023 A 
ATOM     86  C   UNL A   1      43.472  29.668  34.636  1.00  0.00     0.031 A 
ATOM     87  C   UNL A   1      42.414  28.095  33.161  1.00  0.00     0.131 A 
ATOM     88  C   UNL A   1      43.736  28.619  35.528  1.00  0.00     0.055 A 
ATOM     89  C   UNL A   1      42.618  27.063  34.084  1.00  0.00     0.041 A 
ATOM     90  F   UNL A   1      41.885  27.735  31.988  1.00  0.00    -0.206 F 
ATOM     91  C   UNL A   1      43.298  27.318  35.267  1.00  0.00     0.022 A 
BRANCH  88  92
ATOM     92  S   UNL A   1      44.796  28.885  36.974  1.00  0.00     0.124 S 
ATOM     93  O   UNL A   1      46.089  28.396  36.502  1.00  0.00    -0.237 OA
ATOM     94  O   UNL A   1      44.706  30.331  37.163  1.00  0.00    -0.237 OA
ATOM     95  O   UNL A   1      44.171  28.086  38.023  1.00  0.00    -0.744 OA
ENDBRANCH  88  92
ENDBRANCH  62  85
ENDBRANCH  36  37
ENDBRANCH  29  31
ENDBRANCH  28  29
ENDBRANCH  27  28
ENDBRANCH   1  27
TORSDOF 18
ENDMDL
MODEL 3
REMARK VINA RESULT:     -12.1      3.159      8.900
REMARK SMILES COc1ccc2c(c1)c(CC(=O)OCCOC(=O)c1ccc(-c3c4nc(c(-c5cc(S(=O)(=O)[O-])ccc5F)c5ccc([nH]5)c(-c5cc(S(=O)(=O)[O-])ccc5F)c5nc(c(-c6cc(S(=O)(=O)[O-])ccc6F)c6ccc3[nH]6)C=C5)C=C4)cc1)c(C)n2C(=O)c1ccc(Cl)cc1
REMARK SMILES IDX 14 1 13 2 11 3 12 4 10 5 9 6 3 7 4 8 8 9 5 10 7 11 6 12
REMARK SMILES IDX 84 13 82 14 83 15 2 16 1 17 85 18 86 19 87 20 88 21 93 22
REMARK SMILES IDX 89 23 92 24 90 25 91 26 15 27 16 28 17 29 18 30 19 31 20 32
REMARK SMILES IDX 81 33 21 34 80 35 22 36 23 37 24 38 74 39 25 40 79 41 73 42
REMARK SMILES IDX 75 43 26 44 78 45 72 46 71 47 27 49 59 50 39 51 58 52 40 53
REMARK SMILES IDX 43 54 57 55 76 56 41 57 42 58 56 60 77 61 44 62 28 63 29 64
REMARK SMILES IDX 37 65 30 66 36 67 38 68 35 69 31 70 32 71 33 72 34 73 60 74
REMARK SMILES IDX 61 75 69 76 62 77 68 78 70 79 67 80 63 81 64 82 65 83 66 84
REMARK SMILES IDX 45 85 46 86 54 87 47 88 53 89 55 90 52 91 48 92 49 93 50 94
REMARK SMILES IDX 51 95
REMARK H PARENT 75 48 43 59
REMARK Flexibility Score: inf
ROOT
ATOM      1  C   UNL A   1      33.657  30.382  26.865  1.00  0.00     0.274 C 
ENDROOT
BRANCH   1   2
ATOM      2  O   UNL A   1      33.432  29.274  27.762  1.00  0.00    -0.462 OA
BRANCH   2   3
ATOM      3  C   UNL A   1      32.906  28.181  27.162  1.00  0.00     0.310 C 
ATOM      4  O   UNL A   1      31.903  27.604  27.577  1.00  0.00    -0.252 OA
BRANCH   3   5
ATOM      5  C   UNL A   1      33.702  27.618  26.026  1.00  0.00     0.160 C 
BRANCH   5   6
ATOM      6  C   UNL A   1      33.163  26.567  25.100  1.00  0.00    -0.008 A 
ATOM      7  C   UNL A   1      29.582  26.786  23.647  1.00  0.00     0.119 A 
ATOM      8  C   UNL A   1      29.530  25.483  23.196  1.00  0.00     0.048 A 
ATOM      9  C   UNL A   1      30.782  27.278  24.190  1.00  0.00     0.057 A 
ATOM     10  C   UNL A   1      30.651  24.657  23.310  1.00  0.00     0.031 A 
ATOM     11  C   UNL A   1      31.911  26.447  24.404  1.00  0.00     0.008 A 
ATOM     12  C   UNL A   1      31.844  25.142  23.898  1.00  0.00     0.057 A 
ATOM     13  N   UNL A   1      33.115  24.567  24.057  1.00  0.00    -0.280 N 
ATOM     14  C   UNL A   1      33.795  25.332  24.989  1.00  0.00     0.028 A 
ATOM     15  C   UNL A   1      35.018  24.872  25.730  1.00  0.00     0.065 C 
BRANCH   7  16
ATOM     16  O   UNL A   1      28.538  27.670  23.582  1.00  0.00    -0.497 OA
ATOM     17  C   UNL A   1      28.786  28.899  22.899  1.00  0.00     0.278 C 
ENDBRANCH   7  16
BRANCH  13  18
ATOM     18  C   UNL A   1      33.630  23.442  23.367  1.00  0.00     0.262 C 
ATOM     19  O   UNL A   1      34.348  23.596  22.382  1.00  0.00    -0.268 OA
BRANCH  18  20
ATOM     20  C   UNL A   1      33.279  22.062  23.698  1.00  0.00     0.040 A 
ATOM     21  C   UNL A   1      33.950  21.421  24.745  1.00  0.00     0.015 A 
ATOM     22  C   UNL A   1      32.360  21.388  22.892  1.00  0.00     0.015 A 
ATOM     23  C   UNL A   1      33.742  20.059  24.945  1.00  0.00     0.021 A 
ATOM     24  C   UNL A   1      32.155  20.026  23.101  1.00  0.00     0.021 A 
ATOM     25  C   UNL A   1      32.856  19.366  24.114  1.00  0.00     0.041 A 
ATOM     26  Cl  UNL A   1      32.654  17.671  24.323  1.00  0.00    -0.084 Cl
ENDBRANCH  18  20
ENDBRANCH  13  18
ENDBRANCH   5   6
ENDBRANCH   3   5
ENDBRANCH   2   3
ENDBRANCH   1   2
BRANCH   1  27
ATOM     27  C   UNL A   1      33.801  31.693  27.643  1.00  0.00     0.275 C 
BRANCH  27  28
ATOM     28  O   UNL A   1      35.185  32.077  27.686  1.00  0.00    -0.458 OA
BRANCH  28  29
ATOM     29  C   UNL A   1      35.599  32.768  28.789  1.00  0.00     0.338 C 
ATOM     30  O   UNL A   1      35.045  33.688  29.321  1.00  0.00    -0.246 OA
BRANCH  29  31
ATOM     31  C   UNL A   1      36.663  31.930  29.403  1.00  0.00     0.060 A 
ATOM     32  C   UNL A   1      37.987  32.362  29.451  1.00  0.00     0.016 A 
ATOM     33  C   UNL A   1      36.341  30.594  29.648  1.00  0.00     0.016 A 
ATOM     34  C   UNL A   1      38.995  31.407  29.526  1.00  0.00     0.010 A 
ATOM     35  C   UNL A   1      37.344  29.642  29.674  1.00  0.00     0.010 A 
ATOM     36  C   UNL A   1      38.661  30.046  29.514  1.00  0.00    -0.014 A 
BRANCH  36  37
ATOM     37  C   UNL A   1      39.700  29.034  29.481  1.00  0.00     0.031 A 
ATOM     38  C   UNL A   1      40.080  28.537  30.815  1.00  0.00     0.074 A 
ATOM     39  C   UNL A   1      40.272  28.472  28.401  1.00  0.00     0.049 A 
ATOM     40  N   UNL A   1      41.077  28.957  31.511  1.00  0.00    -0.248 NA
ATOM     41  C   UNL A   1      39.202  27.595  31.507  1.00  0.00     0.031 C 
ATOM     42  C   UNL A   1      39.921  28.535  26.988  1.00  0.00     0.029 A 
ATOM     43  N   UNL A   1      41.360  27.656  28.408  1.00  0.00    -0.354 N 
ATOM     44  C   UNL A   1      41.040  28.262  32.707  1.00  0.00     0.074 A 
ATOM     45  C   UNL A   1      39.791  27.534  32.705  1.00  0.00     0.031 C 
ATOM     46  C   UNL A   1      40.671  27.648  26.289  1.00  0.00     0.029 A 
ATOM     47  C   UNL A   1      41.682  27.109  27.182  1.00  0.00     0.049 A 
ATOM     48  H   UNL A   1      41.877  27.470  29.225  1.00  0.00     0.167 HD
ATOM     49  C   UNL A   1      42.109  28.261  33.551  1.00  0.00     0.034 A 
ATOM     50  C   UNL A   1      42.738  26.305  26.909  1.00  0.00     0.034 A 
ATOM     51  C   UNL A   1      43.120  29.190  33.106  1.00  0.00     0.049 A 
ATOM     52  C   UNL A   1      43.769  26.554  27.952  1.00  0.00     0.074 A 
ATOM     53  C   UNL A   1      43.175  30.566  32.999  1.00  0.00     0.029 A 
ATOM     54  N   UNL A   1      44.120  28.709  32.290  1.00  0.00    -0.354 N 
ATOM     55  N   UNL A   1      44.455  27.661  28.038  1.00  0.00    -0.248 NA
ATOM     56  C   UNL A   1      43.723  25.758  29.168  1.00  0.00     0.031 C 
ATOM     57  C   UNL A   1      43.880  30.817  31.786  1.00  0.00     0.029 A 
ATOM     58  C   UNL A   1      44.262  29.587  31.241  1.00  0.00     0.049 A 
ATOM     59  H   UNL A   1      44.639  27.885  32.432  1.00  0.00     0.167 HD
ATOM     60  C   UNL A   1      44.528  27.927  29.399  1.00  0.00     0.074 A 
ATOM     61  C   UNL A   1      44.159  26.668  30.045  1.00  0.00     0.031 C 
ATOM     62  C   UNL A   1      44.612  29.204  29.881  1.00  0.00     0.034 A 
BRANCH  49  63
ATOM     63  C   UNL A   1      42.340  27.277  34.657  1.00  0.00     0.023 A 
ATOM     64  C   UNL A   1      43.153  26.138  34.512  1.00  0.00     0.031 A 
ATOM     65  C   UNL A   1      41.872  27.544  35.959  1.00  0.00     0.131 A 
ATOM     66  C   UNL A   1      43.445  25.306  35.599  1.00  0.00     0.055 A 
ATOM     67  C   UNL A   1      42.217  26.750  37.058  1.00  0.00     0.041 A 
ATOM     68  F   UNL A   1      41.093  28.608  36.210  1.00  0.00    -0.206 F 
ATOM     69  C   UNL A   1      43.005  25.620  36.881  1.00  0.00     0.022 A 
BRANCH  66  70
ATOM     70  S   UNL A   1      44.405  23.787  35.359  1.00  0.00     0.124 S 
ATOM     71  O   UNL A   1      45.425  24.224  34.412  1.00  0.00    -0.237 OA
ATOM     72  O   UNL A   1      44.878  23.513  36.714  1.00  0.00    -0.237 OA
ATOM     73  O   UNL A   1      43.422  22.839  34.845  1.00  0.00    -0.744 OA
ENDBRANCH  66  70
ENDBRANCH  49  63
BRANCH  50  74
ATOM     74  C   UNL A   1      42.647  25.023  26.176  1.00  0.00     0.023 A 
ATOM     75  C   UNL A   1      41.672  24.076  26.542  1.00  0.00     0.031 A 
ATOM     76  C   UNL A   1      43.691  24.590  25.341  1.00  0.00     0.131 A 
ATOM     77  C   UNL A   1      41.793  22.740  26.142  1.00  0.00     0.055 A 
ATOM     78  C   UNL A   1      43.797  23.259  24.920  1.00  0.00     0.041 A 
ATOM     79  F   UNL A   1      44.667  25.436  24.978  1.00  0.00    -0.206 F 
ATOM     80  C   UNL A   1      42.854  22.323  25.336  1.00  0.00     0.022 A 
BRANCH  77  81
ATOM     81  S   UNL A   1      40.616  21.500  26.747  1.00  0.00     0.124 S 
ATOM     82  O   UNL A   1      41.119  20.269  26.142  1.00  0.00    -0.237 OA
ATOM     83  O   UNL A   1      40.791  21.608  28.191  1.00  0.00    -0.237 OA
ATOM     84  O   UNL A   1      39.334  21.965  26.225  1.00  0.00    -0.744 OA
ENDBRANCH  77  81
ENDBRANCH  50  74
BRANCH  62  85
ATOM     85  C   UNL A   1      44.827  30.346  28.899  1.00  0.00     0.023 A 
ATOM     86  C   UNL A   1      46.150  30.741  28.627  1.00  0.00     0.031 A 
ATOM     87  C   UNL A   1      43.799  31.183  28.419  1.00  0.00     0.131 A 
ATOM     88  C   UNL A   1      46.412  31.937  27.945  1.00  0.00     0.055 A 
ATOM     89  C   UNL A   1      44.062  32.341  27.678  1.00  0.00     0.041 A 
ATOM     90  F   UNL A   1      42.515  30.958  28.716  1.00  0.00    -0.206 F 
ATOM     91  C   UNL A   1      45.375  32.733  27.453  1.00  0.00     0.022 A 
BRANCH  88  92
ATOM     92  S   UNL A   1      48.104  32.573  27.818  1.00  0.00     0.124 S 
ATOM     93  O   UNL A   1      48.682  32.169  29.098  1.00  0.00    -0.237 OA
ATOM     94  O   UNL A   1      48.617  31.862  26.649  1.00  0.00    -0.237 OA
ATOM     95  O   UNL A   1      47.930  34.011  27.639  1.00  0.00    -0.744 OA
ENDBRANCH  88  92
ENDBRANCH  62  85
ENDBRANCH  36  37
ENDBRANCH  29  31
ENDBRANCH  28  29
ENDBRANCH  27  28
ENDBRANCH   1  27
TORSDOF 18
ENDMDL
