MODEL 1
REMARK VINA RESULT:     -12.3      0.000      0.000
REMARK SMILES CS(=O)(=O)c1ccc(-c2cc(Cl)cnc2-c2ccc(C(=O)OCCOC(=O)c3ccc(-c4c5nc(c(-c6cc(S(=O)(=O)[O-])ccc6F)c6ccc([nH]6)c(-c6cc(S(=O)(=O)[O-])ccc6F)c6nc(c(-c7cc(S(=O)(=O)[O-])ccc7F)c7ccc4[nH]7)C=C6)C=C5)cc3)nc2)cc1
REMARK SMILES IDX 23 1 22 2 20 3 21 4 19 5 16 6 17 7 92 8 18 9 91 10 15 11
REMARK SMILES IDX 9 12 10 13 11 14 14 15 12 16 13 17 8 18 5 19 6 20 94 21 7 22
REMARK SMILES IDX 93 23 2 24 1 25 3 26 4 27 24 28 25 29 26 30 27 31 28 32
REMARK SMILES IDX 29 33 90 34 30 35 89 36 31 37 32 38 33 39 83 40 34 41 88 42
REMARK SMILES IDX 82 43 84 44 35 45 87 46 81 47 80 48 36 50 68 51 48 52 67 53
REMARK SMILES IDX 49 54 52 55 66 56 85 57 50 58 51 59 65 61 86 62 53 63 37 64
REMARK SMILES IDX 38 65 46 66 39 67 45 68 47 69 44 70 40 71 41 72 42 73 43 74
REMARK SMILES IDX 69 75 70 76 78 77 71 78 77 79 79 80 76 81 72 82 73 83 74 84
REMARK SMILES IDX 75 85 54 86 55 87 63 88 56 89 62 90 64 91 61 92 57 93 58 94
REMARK SMILES IDX 59 95 60 96
REMARK H PARENT 84 49 52 60
REMARK Flexibility Score: inf
ROOT
ATOM      1  C   UNL A   1      31.718  31.455  26.345  1.00  0.00     0.275 C 
ENDROOT
BRANCH   1   2
ATOM      2  O   UNL A   1      32.128  30.397  27.232  1.00  0.00    -0.457 OA
BRANCH   2   3
ATOM      3  C   UNL A   1      33.285  29.777  26.880  1.00  0.00     0.357 C 
ATOM      4  O   UNL A   1      34.396  30.290  26.900  1.00  0.00    -0.244 OA
BRANCH   3   5
ATOM      5  C   UNL A   1      33.050  28.338  26.552  1.00  0.00     0.148 A 
ATOM      6  C   UNL A   1      32.730  25.736  25.703  1.00  0.00     0.019 A 
ATOM      7  C   UNL A   1      31.789  26.308  26.571  1.00  0.00     0.014 A 
ATOM      8  C   UNL A   1      33.835  26.505  25.373  1.00  0.00     0.122 A 
ATOM      9  C   UNL A   1      31.954  27.624  27.018  1.00  0.00     0.037 A 
ATOM     10  N   UNL A   1      33.980  27.794  25.728  1.00  0.00    -0.249 NA
BRANCH   6  11
ATOM     11  C   UNL A   1      32.497  24.485  24.981  1.00  0.00     0.080 A 
ATOM     12  C   UNL A   1      31.654  24.447  23.845  1.00  0.00     0.010 A 
ATOM     13  C   UNL A   1      31.543  23.229  23.164  1.00  0.00     0.033 A 
ATOM     14  C   UNL A   1      32.271  22.127  23.602  1.00  0.00     0.060 A 
ATOM     15  N   UNL A   1      33.206  23.417  25.420  1.00  0.00    -0.254 NA
ATOM     16  Cl  UNL A   1      32.154  20.627  22.776  1.00  0.00    -0.083 Cl
ATOM     17  C   UNL A   1      33.085  22.266  24.716  1.00  0.00     0.132 A 
BRANCH  12  18
ATOM     18  C   UNL A   1      30.918  25.643  23.397  1.00  0.00    -0.016 A 
ATOM     19  C   UNL A   1      29.674  28.105  22.896  1.00  0.00     0.067 A 
ATOM     20  C   UNL A   1      30.941  27.857  22.369  1.00  0.00     0.021 A 
ATOM     21  C   UNL A   1      29.006  27.130  23.640  1.00  0.00     0.021 A 
ATOM     22  C   UNL A   1      31.544  26.619  22.599  1.00  0.00     0.010 A 
ATOM     23  C   UNL A   1      29.628  25.903  23.887  1.00  0.00     0.010 A 
BRANCH  19  24
ATOM     24  S   UNL A   1      28.939  29.707  22.674  1.00  0.00     0.175 S 
ATOM     25  C   UNL A   1      27.247  29.451  23.132  1.00  0.00     0.163 C 
ATOM     26  O   UNL A   1      28.994  30.021  21.260  1.00  0.00    -0.224 OA
ATOM     27  O   UNL A   1      29.531  30.602  23.652  1.00  0.00    -0.224 OA
ENDBRANCH  19  24
ENDBRANCH  12  18
ENDBRANCH   6  11
ENDBRANCH   3   5
ENDBRANCH   2   3
ENDBRANCH   1   2
BRANCH   1  28
ATOM     28  C   UNL A   1      31.579  32.789  27.086  1.00  0.00     0.275 C 
BRANCH  28  29
ATOM     29  O   UNL A   1      32.732  33.635  26.908  1.00  0.00    -0.458 OA
BRANCH  29  30
ATOM     30  C   UNL A   1      33.244  34.156  28.050  1.00  0.00     0.338 C 
ATOM     31  O   UNL A   1      32.803  35.102  28.682  1.00  0.00    -0.246 OA
BRANCH  30  32
ATOM     32  C   UNL A   1      34.397  33.359  28.502  1.00  0.00     0.060 A 
ATOM     33  C   UNL A   1      34.158  32.330  29.407  1.00  0.00     0.016 A 
ATOM     34  C   UNL A   1      35.706  33.691  28.159  1.00  0.00     0.016 A 
ATOM     35  C   UNL A   1      35.208  31.664  30.027  1.00  0.00     0.010 A 
ATOM     36  C   UNL A   1      36.769  32.982  28.740  1.00  0.00     0.010 A 
ATOM     37  C   UNL A   1      36.531  31.977  29.697  1.00  0.00    -0.014 A 
BRANCH  37  38
ATOM     38  C   UNL A   1      37.643  31.276  30.397  1.00  0.00     0.031 A 
ATOM     39  C   UNL A   1      37.957  31.611  31.830  1.00  0.00     0.074 A 
ATOM     40  C   UNL A   1      38.333  30.304  29.768  1.00  0.00     0.049 A 
ATOM     41  N   UNL A   1      38.955  31.211  32.576  1.00  0.00    -0.248 NA
ATOM     42  C   UNL A   1      37.024  32.520  32.512  1.00  0.00     0.031 C 
ATOM     43  C   UNL A   1      38.080  29.836  28.403  1.00  0.00     0.029 A 
ATOM     44  N   UNL A   1      39.386  29.529  30.192  1.00  0.00    -0.354 N 
ATOM     45  C   UNL A   1      38.788  31.837  33.806  1.00  0.00     0.074 A 
ATOM     46  C   UNL A   1      37.604  32.664  33.696  1.00  0.00     0.031 C 
ATOM     47  C   UNL A   1      38.944  28.852  28.108  1.00  0.00     0.029 A 
ATOM     48  C   UNL A   1      39.859  28.668  29.228  1.00  0.00     0.049 A 
ATOM     49  H   UNL A   1      39.766  29.585  31.099  1.00  0.00     0.167 HD
ATOM     50  C   UNL A   1      39.549  31.729  34.924  1.00  0.00     0.034 A 
ATOM     51  C   UNL A   1      40.937  27.856  29.227  1.00  0.00     0.034 A 
ATOM     52  C   UNL A   1      40.721  30.890  35.021  1.00  0.00     0.049 A 
ATOM     53  C   UNL A   1      41.810  27.808  30.455  1.00  0.00     0.074 A 
ATOM     54  C   UNL A   1      41.585  30.732  36.092  1.00  0.00     0.029 A 
ATOM     55  N   UNL A   1      41.190  30.060  34.010  1.00  0.00    -0.354 N 
ATOM     56  N   UNL A   1      41.680  28.461  31.587  1.00  0.00    -0.248 NA
ATOM     57  C   UNL A   1      42.975  26.915  30.405  1.00  0.00     0.031 C 
ATOM     58  C   UNL A   1      42.602  29.847  35.711  1.00  0.00     0.029 A 
ATOM     59  C   UNL A   1      42.336  29.400  34.428  1.00  0.00     0.049 A 
ATOM     60  H   UNL A   1      40.769  29.955  33.127  1.00  0.00     0.167 HD
ATOM     61  C   UNL A   1      42.738  28.042  32.388  1.00  0.00     0.074 A 
ATOM     62  C   UNL A   1      43.481  27.065  31.620  1.00  0.00     0.031 C 
ATOM     63  C   UNL A   1      43.069  28.433  33.645  1.00  0.00     0.034 A 
BRANCH  50  64
ATOM     64  C   UNL A   1      39.166  32.582  36.109  1.00  0.00     0.023 A 
ATOM     65  C   UNL A   1      39.636  33.898  36.261  1.00  0.00     0.031 A 
ATOM     66  C   UNL A   1      38.333  32.059  37.116  1.00  0.00     0.131 A 
ATOM     67  C   UNL A   1      39.321  34.624  37.420  1.00  0.00     0.055 A 
ATOM     68  C   UNL A   1      37.965  32.812  38.232  1.00  0.00     0.041 A 
ATOM     69  F   UNL A   1      37.870  30.801  37.035  1.00  0.00    -0.206 F 
ATOM     70  C   UNL A   1      38.470  34.099  38.395  1.00  0.00     0.022 A 
BRANCH  67  71
ATOM     71  S   UNL A   1      40.136  36.221  37.695  1.00  0.00     0.124 S 
ATOM     72  O   UNL A   1      40.040  36.832  36.372  1.00  0.00    -0.237 OA
ATOM     73  O   UNL A   1      39.313  36.821  38.738  1.00  0.00    -0.237 OA
ATOM     74  O   UNL A   1      41.489  35.849  38.106  1.00  0.00    -0.744 OA
ENDBRANCH  67  71
ENDBRANCH  50  64
BRANCH  51  75
ATOM     75  C   UNL A   1      41.300  27.085  28.003  1.00  0.00     0.023 A 
ATOM     76  C   UNL A   1      41.030  25.712  27.896  1.00  0.00     0.031 A 
ATOM     77  C   UNL A   1      41.981  27.706  26.939  1.00  0.00     0.131 A 
ATOM     78  C   UNL A   1      41.479  24.995  26.773  1.00  0.00     0.055 A 
ATOM     79  C   UNL A   1      42.372  27.002  25.800  1.00  0.00     0.041 A 
ATOM     80  F   UNL A   1      42.271  29.015  26.990  1.00  0.00    -0.206 F 
ATOM     81  C   UNL A   1      42.134  25.635  25.719  1.00  0.00     0.022 A 
BRANCH  78  82
ATOM     82  S   UNL A   1      41.283  23.192  26.757  1.00  0.00     0.124 S 
ATOM     83  O   UNL A   1      42.166  22.806  25.663  1.00  0.00    -0.237 OA
ATOM     84  O   UNL A   1      41.725  22.827  28.098  1.00  0.00    -0.237 OA
ATOM     85  O   UNL A   1      39.856  23.007  26.501  1.00  0.00    -0.744 OA
ENDBRANCH  78  82
ENDBRANCH  51  75
BRANCH  63  86
ATOM     86  C   UNL A   1      44.264  27.761  34.273  1.00  0.00     0.023 A 
ATOM     87  C   UNL A   1      44.134  26.592  35.041  1.00  0.00     0.031 A 
ATOM     88  C   UNL A   1      45.547  28.314  34.115  1.00  0.00     0.131 A 
ATOM     89  C   UNL A   1      45.261  26.042  35.672  1.00  0.00     0.055 A 
ATOM     90  C   UNL A   1      46.673  27.732  34.701  1.00  0.00     0.041 A 
ATOM     91  F   UNL A   1      45.726  29.430  33.393  1.00  0.00    -0.206 F 
ATOM     92  C   UNL A   1      46.532  26.597  35.494  1.00  0.00     0.022 A 
BRANCH  89  93
ATOM     93  S   UNL A   1      45.034  24.638  36.798  1.00  0.00     0.124 S 
ATOM     94  O   UNL A   1      43.953  25.109  37.657  1.00  0.00    -0.237 OA
ATOM     95  O   UNL A   1      44.692  23.555  35.881  1.00  0.00    -0.237 OA
ATOM     96  O   UNL A   1      46.335  24.508  37.451  1.00  0.00    -0.744 OA
ENDBRANCH  89  93
ENDBRANCH  63  86
ENDBRANCH  37  38
ENDBRANCH  30  32
ENDBRANCH  29  30
ENDBRANCH  28  29
ENDBRANCH   1  28
TORSDOF 17
ENDMDL
MODEL 2
REMARK VINA RESULT:     -12.3      1.907      7.463
REMARK SMILES CS(=O)(=O)c1ccc(-c2cc(Cl)cnc2-c2ccc(C(=O)OCCOC(=O)c3ccc(-c4c5nc(c(-c6cc(S(=O)(=O)[O-])ccc6F)c6ccc([nH]6)c(-c6cc(S(=O)(=O)[O-])ccc6F)c6nc(c(-c7cc(S(=O)(=O)[O-])ccc7F)c7ccc4[nH]7)C=C6)C=C5)cc3)nc2)cc1
REMARK SMILES IDX 23 1 22 2 20 3 21 4 19 5 16 6 17 7 92 8 18 9 91 10 15 11
REMARK SMILES IDX 9 12 10 13 11 14 14 15 12 16 13 17 8 18 5 19 6 20 94 21 7 22
REMARK SMILES IDX 93 23 2 24 1 25 3 26 4 27 24 28 25 29 26 30 27 31 28 32
REMARK SMILES IDX 29 33 90 34 30 35 89 36 31 37 32 38 33 39 83 40 34 41 88 42
REMARK SMILES IDX 82 43 84 44 35 45 87 46 81 47 80 48 36 50 68 51 48 52 67 53
REMARK SMILES IDX 49 54 52 55 66 56 85 57 50 58 51 59 65 61 86 62 53 63 37 64
REMARK SMILES IDX 38 65 46 66 39 67 45 68 47 69 44 70 40 71 41 72 42 73 43 74
REMARK SMILES IDX 69 75 70 76 78 77 71 78 77 79 79 80 76 81 72 82 73 83 74 84
REMARK SMILES IDX 75 85 54 86 55 87 63 88 56 89 62 90 64 91 61 92 57 93 58 94
REMARK SMILES IDX 59 95 60 96
REMARK H PARENT 84 49 52 60
REMARK Flexibility Score: inf
ROOT
ATOM      1  C   UNL A   1      31.875  31.523  26.423  1.00  0.00     0.275 C 
ENDROOT
BRANCH   1   2
ATOM      2  O   UNL A   1      32.087  30.363  27.251  1.00  0.00    -0.457 OA
BRANCH   2   3
ATOM      3  C   UNL A   1      33.246  29.697  27.009  1.00  0.00     0.357 C 
ATOM      4  O   UNL A   1      34.369  30.166  27.135  1.00  0.00    -0.244 OA
BRANCH   3   5
ATOM      5  C   UNL A   1      32.986  28.268  26.659  1.00  0.00     0.148 A 
ATOM      6  C   UNL A   1      32.645  25.678  25.781  1.00  0.00     0.019 A 
ATOM      7  C   UNL A   1      31.648  26.291  26.553  1.00  0.00     0.014 A 
ATOM      8  C   UNL A   1      33.807  26.401  25.559  1.00  0.00     0.122 A 
ATOM      9  C   UNL A   1      31.822  27.600  27.015  1.00  0.00     0.037 A 
ATOM     10  N   UNL A   1      33.969  27.684  25.928  1.00  0.00    -0.249 NA
BRANCH   6  11
ATOM     11  C   UNL A   1      32.433  24.435  25.037  1.00  0.00     0.080 A 
ATOM     12  C   UNL A   1      31.633  24.413  23.870  1.00  0.00     0.010 A 
ATOM     13  C   UNL A   1      31.542  23.202  23.174  1.00  0.00     0.033 A 
ATOM     14  C   UNL A   1      32.247  22.092  23.628  1.00  0.00     0.060 A 
ATOM     15  N   UNL A   1      33.119  23.359  25.493  1.00  0.00    -0.254 NA
ATOM     16  Cl  UNL A   1      32.152  20.600  22.784  1.00  0.00    -0.083 Cl
ATOM     17  C   UNL A   1      33.019  22.215  24.774  1.00  0.00     0.132 A 
BRANCH  12  18
ATOM     18  C   UNL A   1      30.920  25.617  23.407  1.00  0.00    -0.016 A 
ATOM     19  C   UNL A   1      29.718  28.094  22.878  1.00  0.00     0.067 A 
ATOM     20  C   UNL A   1      30.991  27.828  22.375  1.00  0.00     0.021 A 
ATOM     21  C   UNL A   1      29.024  27.129  23.612  1.00  0.00     0.021 A 
ATOM     22  C   UNL A   1      31.574  26.583  22.619  1.00  0.00     0.010 A 
ATOM     23  C   UNL A   1      29.625  25.895  23.872  1.00  0.00     0.010 A 
BRANCH  19  24
ATOM     24  S   UNL A   1      29.008  29.705  22.639  1.00  0.00     0.175 S 
ATOM     25  C   UNL A   1      27.278  29.437  22.912  1.00  0.00     0.163 C 
ATOM     26  O   UNL A   1      29.207  30.068  21.251  1.00  0.00    -0.224 OA
ATOM     27  O   UNL A   1      29.495  30.562  23.704  1.00  0.00    -0.224 OA
ENDBRANCH  19  24
ENDBRANCH  12  18
ENDBRANCH   6  11
ENDBRANCH   3   5
ENDBRANCH   2   3
ENDBRANCH   1   2
BRANCH   1  28
ATOM     28  C   UNL A   1      31.838  32.809  27.255  1.00  0.00     0.275 C 
BRANCH  28  29
ATOM     29  O   UNL A   1      33.151  33.370  27.453  1.00  0.00    -0.458 OA
BRANCH  29  30
ATOM     30  C   UNL A   1      33.257  34.229  28.497  1.00  0.00     0.338 C 
ATOM     31  O   UNL A   1      32.532  35.180  28.736  1.00  0.00    -0.246 OA
BRANCH  30  32
ATOM     32  C   UNL A   1      34.348  33.809  29.392  1.00  0.00     0.060 A 
ATOM     33  C   UNL A   1      35.635  34.242  29.092  1.00  0.00     0.016 A 
ATOM     34  C   UNL A   1      34.147  32.898  30.427  1.00  0.00     0.016 A 
ATOM     35  C   UNL A   1      36.738  33.732  29.767  1.00  0.00     0.010 A 
ATOM     36  C   UNL A   1      35.253  32.424  31.150  1.00  0.00     0.010 A 
ATOM     37  C   UNL A   1      36.562  32.820  30.812  1.00  0.00    -0.014 A 
BRANCH  37  38
ATOM     38  C   UNL A   1      37.757  32.260  31.501  1.00  0.00     0.031 A 
ATOM     39  C   UNL A   1      38.557  31.166  30.847  1.00  0.00     0.074 A 
ATOM     40  C   UNL A   1      38.157  32.768  32.684  1.00  0.00     0.049 A 
ATOM     41  N   UNL A   1      39.548  30.461  31.330  1.00  0.00    -0.248 NA
ATOM     42  C   UNL A   1      38.188  30.819  29.467  1.00  0.00     0.031 C 
ATOM     43  C   UNL A   1      37.509  33.877  33.390  1.00  0.00     0.029 A 
ATOM     44  N   UNL A   1      39.204  32.424  33.504  1.00  0.00    -0.354 N 
ATOM     45  C   UNL A   1      39.907  29.569  30.325  1.00  0.00     0.074 A 
ATOM     46  C   UNL A   1      39.008  29.807  29.214  1.00  0.00     0.031 C 
ATOM     47  C   UNL A   1      38.178  34.127  34.526  1.00  0.00     0.029 A 
ATOM     48  C   UNL A   1      39.254  33.153  34.670  1.00  0.00     0.049 A 
ATOM     49  H   UNL A   1      39.857  31.722  33.278  1.00  0.00     0.167 HD
ATOM     50  C   UNL A   1      40.897  28.641  30.328  1.00  0.00     0.034 A 
ATOM     51  C   UNL A   1      40.045  33.023  35.756  1.00  0.00     0.034 A 
ATOM     52  C   UNL A   1      41.792  28.423  31.440  1.00  0.00     0.049 A 
ATOM     53  C   UNL A   1      41.090  31.936  35.765  1.00  0.00     0.074 A 
ATOM     54  C   UNL A   1      42.805  27.488  31.565  1.00  0.00     0.029 A 
ATOM     55  N   UNL A   1      41.787  29.158  32.620  1.00  0.00    -0.354 N 
ATOM     56  N   UNL A   1      41.371  31.052  34.836  1.00  0.00    -0.248 NA
ATOM     57  C   UNL A   1      41.923  31.828  36.970  1.00  0.00     0.031 C 
ATOM     58  C   UNL A   1      43.379  27.624  32.835  1.00  0.00     0.029 A 
ATOM     59  C   UNL A   1      42.770  28.688  33.479  1.00  0.00     0.049 A 
ATOM     60  H   UNL A   1      41.176  29.905  32.816  1.00  0.00     0.167 HD
ATOM     61  C   UNL A   1      42.425  30.295  35.340  1.00  0.00     0.074 A 
ATOM     62  C   UNL A   1      42.744  30.842  36.642  1.00  0.00     0.031 C 
ATOM     63  C   UNL A   1      43.069  29.241  34.779  1.00  0.00     0.034 A 
BRANCH  50  64
ATOM     64  C   UNL A   1      41.021  27.756  29.112  1.00  0.00     0.023 A 
ATOM     65  C   UNL A   1      42.009  27.969  28.135  1.00  0.00     0.031 A 
ATOM     66  C   UNL A   1      40.117  26.695  28.915  1.00  0.00     0.131 A 
ATOM     67  C   UNL A   1      42.033  27.173  26.979  1.00  0.00     0.055 A 
ATOM     68  C   UNL A   1      40.191  25.862  27.797  1.00  0.00     0.041 A 
ATOM     69  F   UNL A   1      39.139  26.456  29.803  1.00  0.00    -0.206 F 
ATOM     70  C   UNL A   1      41.146  26.107  26.814  1.00  0.00     0.022 A 
BRANCH  67  71
ATOM     71  S   UNL A   1      43.164  27.626  25.634  1.00  0.00     0.124 S 
ATOM     72  O   UNL A   1      44.048  28.578  26.301  1.00  0.00    -0.237 OA
ATOM     73  O   UNL A   1      43.759  26.343  25.276  1.00  0.00    -0.237 OA
ATOM     74  O   UNL A   1      42.281  28.206  24.624  1.00  0.00    -0.744 OA
ENDBRANCH  67  71
ENDBRANCH  50  64
BRANCH  51  75
ATOM     75  C   UNL A   1      39.833  33.887  36.953  1.00  0.00     0.023 A 
ATOM     76  C   UNL A   1      39.193  33.399  38.103  1.00  0.00     0.031 A 
ATOM     77  C   UNL A   1      40.219  35.240  36.939  1.00  0.00     0.131 A 
ATOM     78  C   UNL A   1      38.917  34.268  39.172  1.00  0.00     0.055 A 
ATOM     79  C   UNL A   1      39.995  36.085  38.027  1.00  0.00     0.041 A 
ATOM     80  F   UNL A   1      40.829  35.761  35.863  1.00  0.00    -0.206 F 
ATOM     81  C   UNL A   1      39.327  35.603  39.146  1.00  0.00     0.022 A 
BRANCH  78  82
ATOM     82  S   UNL A   1      37.920  33.654  40.558  1.00  0.00     0.124 S 
ATOM     83  O   UNL A   1      37.589  34.890  41.258  1.00  0.00    -0.237 OA
ATOM     84  O   UNL A   1      36.818  32.993  39.869  1.00  0.00    -0.237 OA
ATOM     85  O   UNL A   1      38.836  32.761  41.266  1.00  0.00    -0.744 OA
ENDBRANCH  78  82
ENDBRANCH  51  75
BRANCH  63  86
ATOM     86  C   UNL A   1      44.212  28.648  35.563  1.00  0.00     0.023 A 
ATOM     87  C   UNL A   1      44.006  27.638  36.519  1.00  0.00     0.031 A 
ATOM     88  C   UNL A   1      45.522  29.118  35.365  1.00  0.00     0.131 A 
ATOM     89  C   UNL A   1      45.087  27.169  37.281  1.00  0.00     0.055 A 
ATOM     90  C   UNL A   1      46.601  28.610  36.089  1.00  0.00     0.041 A 
ATOM     91  F   UNL A   1      45.773  30.083  34.466  1.00  0.00    -0.206 F 
ATOM     92  C   UNL A   1      46.386  27.638  37.062  1.00  0.00     0.022 A 
BRANCH  89  93
ATOM     93  S   UNL A   1      44.762  25.994  38.626  1.00  0.00     0.124 S 
ATOM     94  O   UNL A   1      44.904  24.710  37.948  1.00  0.00    -0.237 OA
ATOM     95  O   UNL A   1      45.808  26.325  39.588  1.00  0.00    -0.237 OA
ATOM     96  O   UNL A   1      43.403  26.326  39.051  1.00  0.00    -0.744 OA
ENDBRANCH  89  93
ENDBRANCH  63  86
ENDBRANCH  37  38
ENDBRANCH  30  32
ENDBRANCH  29  30
ENDBRANCH  28  29
ENDBRANCH   1  28
TORSDOF 17
ENDMDL
MODEL 3
REMARK VINA RESULT:     -12.2      1.713      7.580
REMARK SMILES CS(=O)(=O)c1ccc(-c2cc(Cl)cnc2-c2ccc(C(=O)OCCOC(=O)c3ccc(-c4c5nc(c(-c6cc(S(=O)(=O)[O-])ccc6F)c6ccc([nH]6)c(-c6cc(S(=O)(=O)[O-])ccc6F)c6nc(c(-c7cc(S(=O)(=O)[O-])ccc7F)c7ccc4[nH]7)C=C6)C=C5)cc3)nc2)cc1
REMARK SMILES IDX 23 1 22 2 20 3 21 4 19 5 16 6 17 7 92 8 18 9 91 10 15 11
REMARK SMILES IDX 9 12 10 13 11 14 14 15 12 16 13 17 8 18 5 19 6 20 94 21 7 22
REMARK SMILES IDX 93 23 2 24 1 25 3 26 4 27 24 28 25 29 26 30 27 31 28 32
REMARK SMILES IDX 29 33 90 34 30 35 89 36 31 37 32 38 33 39 83 40 34 41 88 42
REMARK SMILES IDX 82 43 84 44 35 45 87 46 81 47 80 48 36 50 68 51 48 52 67 53
REMARK SMILES IDX 49 54 52 55 66 56 85 57 50 58 51 59 65 61 86 62 53 63 37 64
REMARK SMILES IDX 38 65 46 66 39 67 45 68 47 69 44 70 40 71 41 72 42 73 43 74
REMARK SMILES IDX 69 75 70 76 78 77 71 78 77 79 79 80 76 81 72 82 73 83 74 84
REMARK SMILES IDX 75 85 54 86 55 87 63 88 56 89 62 90 64 91 61 92 57 93 58 94
REMARK SMILES IDX 59 95 60 96
REMARK H PARENT 84 49 52 60
REMARK Flexibility Score: inf
ROOT
ATOM      1  C   UNL A   1      32.161  31.519  26.814  1.00  0.00     0.275 C 
ENDROOT
BRANCH   1   2
ATOM      2  O   UNL A   1      32.988  30.863  27.794  1.00  0.00    -0.457 OA
BRANCH   2   3
ATOM      3  C   UNL A   1      34.063  30.209  27.282  1.00  0.00     0.357 C 
ATOM      4  O   UNL A   1      35.233  30.496  27.495  1.00  0.00    -0.244 OA
BRANCH   3   5
ATOM      5  C   UNL A   1      33.642  29.013  26.490  1.00  0.00     0.148 A 
ATOM      6  C   UNL A   1      32.866  26.669  25.266  1.00  0.00     0.019 A 
ATOM      7  C   UNL A   1      33.675  27.582  24.577  1.00  0.00     0.014 A 
ATOM      8  C   UNL A   1      32.429  27.039  26.529  1.00  0.00     0.122 A 
ATOM      9  C   UNL A   1      34.060  28.782  25.187  1.00  0.00     0.037 A 
ATOM     10  N   UNL A   1      32.843  28.149  27.166  1.00  0.00    -0.249 NA
BRANCH   6  11
ATOM     11  C   UNL A   1      32.648  25.293  24.818  1.00  0.00     0.080 A 
ATOM     12  C   UNL A   1      31.614  24.982  23.903  1.00  0.00     0.010 A 
ATOM     13  C   UNL A   1      31.518  23.656  23.464  1.00  0.00     0.033 A 
ATOM     14  C   UNL A   1      32.440  22.715  23.912  1.00  0.00     0.060 A 
ATOM     15  N   UNL A   1      33.547  24.384  25.265  1.00  0.00    -0.254 NA
ATOM     16  Cl  UNL A   1      32.344  21.085  23.379  1.00  0.00    -0.083 Cl
ATOM     17  C   UNL A   1      33.430  23.119  24.795  1.00  0.00     0.132 A 
BRANCH  12  18
ATOM     18  C   UNL A   1      30.670  26.012  23.433  1.00  0.00    -0.016 A 
ATOM     19  C   UNL A   1      29.031  28.213  22.858  1.00  0.00     0.067 A 
ATOM     20  C   UNL A   1      30.274  28.101  22.234  1.00  0.00     0.021 A 
ATOM     21  C   UNL A   1      28.582  27.225  23.738  1.00  0.00     0.021 A 
ATOM     22  C   UNL A   1      31.074  26.989  22.504  1.00  0.00     0.010 A 
ATOM     23  C   UNL A   1      29.401  26.129  24.021  1.00  0.00     0.010 A 
BRANCH  19  24
ATOM     24  S   UNL A   1      28.047  29.665  22.579  1.00  0.00     0.175 S 
ATOM     25  C   UNL A   1      28.949  30.940  23.415  1.00  0.00     0.163 C 
ATOM     26  O   UNL A   1      26.781  29.472  23.257  1.00  0.00    -0.224 OA
ATOM     27  O   UNL A   1      28.085  29.956  21.157  1.00  0.00    -0.224 OA
ENDBRANCH  19  24
ENDBRANCH  12  18
ENDBRANCH   6  11
ENDBRANCH   3   5
ENDBRANCH   2   3
ENDBRANCH   1   2
BRANCH   1  28
ATOM     28  C   UNL A   1      32.045  33.022  27.090  1.00  0.00     0.275 C 
BRANCH  28  29
ATOM     29  O   UNL A   1      33.321  33.623  27.389  1.00  0.00    -0.458 OA
BRANCH  29  30
ATOM     30  C   UNL A   1      33.354  34.368  28.521  1.00  0.00     0.338 C 
ATOM     31  O   UNL A   1      32.566  35.241  28.843  1.00  0.00    -0.246 OA
BRANCH  30  32
ATOM     32  C   UNL A   1      34.454  33.921  29.393  1.00  0.00     0.060 A 
ATOM     33  C   UNL A   1      35.744  34.323  29.065  1.00  0.00     0.016 A 
ATOM     34  C   UNL A   1      34.253  33.014  30.431  1.00  0.00     0.016 A 
ATOM     35  C   UNL A   1      36.848  33.787  29.717  1.00  0.00     0.010 A 
ATOM     36  C   UNL A   1      35.362  32.513  31.131  1.00  0.00     0.010 A 
ATOM     37  C   UNL A   1      36.673  32.878  30.765  1.00  0.00    -0.014 A 
BRANCH  37  38
ATOM     38  C   UNL A   1      37.868  32.289  31.429  1.00  0.00     0.031 A 
ATOM     39  C   UNL A   1      38.610  31.156  30.771  1.00  0.00     0.074 A 
ATOM     40  C   UNL A   1      38.321  32.802  32.590  1.00  0.00     0.049 A 
ATOM     41  N   UNL A   1      39.591  30.426  31.237  1.00  0.00    -0.248 NA
ATOM     42  C   UNL A   1      38.188  30.798  29.408  1.00  0.00     0.031 C 
ATOM     43  C   UNL A   1      37.733  33.946  33.294  1.00  0.00     0.029 A 
ATOM     44  N   UNL A   1      39.381  32.436  33.384  1.00  0.00    -0.354 N 
ATOM     45  C   UNL A   1      39.888  29.505  30.238  1.00  0.00     0.074 A 
ATOM     46  C   UNL A   1      38.965  29.755  29.151  1.00  0.00     0.031 C 
ATOM     47  C   UNL A   1      38.446  34.192  34.404  1.00  0.00     0.029 A 
ATOM     48  C   UNL A   1      39.491  33.183  34.535  1.00  0.00     0.049 A 
ATOM     49  H   UNL A   1      40.002  31.708  33.151  1.00  0.00     0.167 HD
ATOM     50  C   UNL A   1      40.845  28.542  30.229  1.00  0.00     0.034 A 
ATOM     51  C   UNL A   1      40.310  33.045  35.598  1.00  0.00     0.034 A 
ATOM     52  C   UNL A   1      41.766  28.313  31.318  1.00  0.00     0.049 A 
ATOM     53  C   UNL A   1      41.317  31.923  35.596  1.00  0.00     0.074 A 
ATOM     54  C   UNL A   1      42.750  27.346  31.428  1.00  0.00     0.029 A 
ATOM     55  N   UNL A   1      41.822  29.068  32.483  1.00  0.00    -0.354 N 
ATOM     56  N   UNL A   1      41.538  31.014  34.675  1.00  0.00    -0.248 NA
ATOM     57  C   UNL A   1      42.182  31.807  36.778  1.00  0.00     0.031 C 
ATOM     58  C   UNL A   1      43.366  27.484  32.679  1.00  0.00     0.029 A 
ATOM     59  C   UNL A   1      42.814  28.579  33.321  1.00  0.00     0.049 A 
ATOM     60  H   UNL A   1      41.244  29.839  32.684  1.00  0.00     0.167 HD
ATOM     61  C   UNL A   1      42.581  30.229  35.161  1.00  0.00     0.074 A 
ATOM     62  C   UNL A   1      42.958  30.787  36.443  1.00  0.00     0.031 C 
ATOM     63  C   UNL A   1      43.171  29.143  34.601  1.00  0.00     0.034 A 
BRANCH  50  64
ATOM     64  C   UNL A   1      40.902  27.633  29.025  1.00  0.00     0.023 A 
ATOM     65  C   UNL A   1      41.836  27.824  27.992  1.00  0.00     0.031 A 
ATOM     66  C   UNL A   1      39.988  26.571  28.900  1.00  0.00     0.131 A 
ATOM     67  C   UNL A   1      41.796  27.005  26.853  1.00  0.00     0.055 A 
ATOM     68  C   UNL A   1      40.000  25.715  27.797  1.00  0.00     0.041 A 
ATOM     69  F   UNL A   1      39.059  26.352  29.845  1.00  0.00    -0.206 F 
ATOM     70  C   UNL A   1      40.900  25.938  26.759  1.00  0.00     0.022 A 
BRANCH  67  71
ATOM     71  S   UNL A   1      42.853  27.428  25.440  1.00  0.00     0.124 S 
ATOM     72  O   UNL A   1      42.874  26.168  24.701  1.00  0.00    -0.237 OA
ATOM     73  O   UNL A   1      42.121  28.524  24.815  1.00  0.00    -0.237 OA
ATOM     74  O   UNL A   1      44.122  27.800  26.061  1.00  0.00    -0.744 OA
ENDBRANCH  67  71
ENDBRANCH  50  64
BRANCH  51  75
ATOM     75  C   UNL A   1      40.164  33.936  36.785  1.00  0.00     0.023 A 
ATOM     76  C   UNL A   1      41.076  34.972  37.040  1.00  0.00     0.031 A 
ATOM     77  C   UNL A   1      39.133  33.723  37.720  1.00  0.00     0.131 A 
ATOM     78  C   UNL A   1      40.968  35.724  38.221  1.00  0.00     0.055 A 
ATOM     79  C   UNL A   1      38.995  34.511  38.862  1.00  0.00     0.041 A 
ATOM     80  F   UNL A   1      38.236  32.742  37.530  1.00  0.00    -0.206 F 
ATOM     81  C   UNL A   1      39.926  35.510  39.126  1.00  0.00     0.022 A 
BRANCH  78  82
ATOM     82  S   UNL A   1      42.273  36.923  38.611  1.00  0.00     0.124 S 
ATOM     83  O   UNL A   1      43.146  36.142  39.479  1.00  0.00    -0.237 OA
ATOM     84  O   UNL A   1      42.799  37.239  37.288  1.00  0.00    -0.237 OA
ATOM     85  O   UNL A   1      41.551  38.010  39.269  1.00  0.00    -0.744 OA
ENDBRANCH  78  82
ENDBRANCH  51  75
BRANCH  63  86
ATOM     86  C   UNL A   1      44.317  28.525  35.362  1.00  0.00     0.023 A 
ATOM     87  C   UNL A   1      44.108  27.525  36.327  1.00  0.00     0.031 A 
ATOM     88  C   UNL A   1      45.634  28.960  35.130  1.00  0.00     0.131 A 
ATOM     89  C   UNL A   1      45.193  27.032  37.066  1.00  0.00     0.055 A 
ATOM     90  C   UNL A   1      46.716  28.427  35.831  1.00  0.00     0.041 A 
ATOM     91  F   UNL A   1      45.888  29.914  34.220  1.00  0.00    -0.206 F 
ATOM     92  C   UNL A   1      46.498  27.466  36.815  1.00  0.00     0.022 A 
BRANCH  89  93
ATOM     93  S   UNL A   1      44.870  25.872  38.424  1.00  0.00     0.124 S 
ATOM     94  O   UNL A   1      46.220  25.489  38.824  1.00  0.00    -0.237 OA
ATOM     95  O   UNL A   1      44.135  26.701  39.374  1.00  0.00    -0.237 OA
ATOM     96  O   UNL A   1      44.086  24.813  37.792  1.00  0.00    -0.744 OA
ENDBRANCH  89  93
ENDBRANCH  63  86
ENDBRANCH  37  38
ENDBRANCH  30  32
ENDBRANCH  29  30
ENDBRANCH  28  29
ENDBRANCH   1  28
TORSDOF 17
ENDMDL
