MODEL 1
REMARK VINA RESULT:     -10.9      0.000      0.000
REMARK SMILES O=C(COc1ccnc(NCc2ccc(Br)cc2)n1)OCCOC(=O)c1ccc(-c2c3nc(c(-c4cc(S(=O)(=O)[O-])ccc4F)c4ccc([nH]4)c(-c4cc(S(=O)(=O)[O-])ccc4F)c4nc(c(-c5cc(S(=O)(=O)[O-])ccc5F)c5ccc2[nH]5)C=C4)C=C3)cc1
REMARK SMILES IDX 21 1 20 2 2 3 1 4 3 5 4 6 5 7 6 8 19 9 7 10 9 11 8 12 10 13
REMARK SMILES IDX 11 15 12 16 13 17 18 18 14 19 17 20 15 21 16 22 22 23 23 24
REMARK SMILES IDX 24 25 25 26 26 27 27 28 88 29 28 30 87 31 29 32 30 33 31 34
REMARK SMILES IDX 81 35 32 36 86 37 80 38 82 39 33 40 85 41 79 42 78 43 34 45
REMARK SMILES IDX 66 46 46 47 65 48 47 49 50 50 64 51 83 52 48 53 49 54 63 56
REMARK SMILES IDX 84 57 51 58 35 59 36 60 44 61 37 62 43 63 45 64 42 65 38 66
REMARK SMILES IDX 39 67 40 68 41 69 67 70 68 71 76 72 69 73 75 74 77 75 74 76
REMARK SMILES IDX 70 77 71 78 72 79 73 80 52 81 53 82 61 83 54 84 60 85 62 86
REMARK SMILES IDX 59 87 55 88 56 89 57 90 58 91
REMARK H PARENT 10 14 82 44 50 55
REMARK Flexibility Score: inf
ROOT
ATOM      1  C   UNL A   1      38.089  19.856  24.956  1.00  0.00     0.274 C 
ENDROOT
BRANCH   1   2
ATOM      2  O   UNL A   1      37.891  21.200  25.447  1.00  0.00    -0.460 OA
BRANCH   2   3
ATOM      3  C   UNL A   1      37.049  22.095  24.874  1.00  0.00     0.344 C 
ATOM      4  O   UNL A   1      37.011  22.221  23.651  1.00  0.00    -0.248 OA
BRANCH   3   5
ATOM      5  C   UNL A   1      36.086  22.847  25.770  1.00  0.00     0.353 C 
BRANCH   5   6
ATOM      6  O   UNL A   1      35.203  21.906  26.378  1.00  0.00    -0.466 OA
BRANCH   6   7
ATOM      7  C   UNL A   1      34.219  21.576  25.484  1.00  0.00     0.218 A 
ATOM      8  C   UNL A   1      33.925  20.258  25.237  1.00  0.00     0.088 A 
ATOM      9  N   UNL A   1      33.621  22.618  24.896  1.00  0.00    -0.177 NA
ATOM     10  C   UNL A   1      32.962  20.061  24.288  1.00  0.00     0.121 A 
ATOM     11  C   UNL A   1      32.696  22.319  23.983  1.00  0.00     0.226 A 
ATOM     12  N   UNL A   1      32.334  21.069  23.659  1.00  0.00    -0.221 NA
BRANCH  11  13
ATOM     13  N   UNL A   1      32.079  23.306  23.279  1.00  0.00    -0.350 N 
ATOM     14  H   UNL A   1      32.587  23.776  22.578  1.00  0.00     0.164 HD
BRANCH  13  15
ATOM     15  C   UNL A   1      30.714  23.691  23.516  1.00  0.00     0.152 C 
BRANCH  15  16
ATOM     16  C   UNL A   1      30.635  25.187  23.330  1.00  0.00    -0.029 A 
ATOM     17  C   UNL A   1      31.492  25.838  22.429  1.00  0.00     0.007 A 
ATOM     18  C   UNL A   1      29.599  25.912  23.940  1.00  0.00     0.007 A 
ATOM     19  C   UNL A   1      31.294  27.184  22.118  1.00  0.00     0.016 A 
ATOM     20  C   UNL A   1      29.402  27.253  23.628  1.00  0.00     0.016 A 
ATOM     21  C   UNL A   1      30.240  27.880  22.709  1.00  0.00     0.017 A 
ATOM     22  Br  UNL A   1      29.889  29.674  22.249  1.00  0.00    -0.051 Br
ENDBRANCH  15  16
ENDBRANCH  13  15
ENDBRANCH  11  13
ENDBRANCH   6   7
ENDBRANCH   5   6
ENDBRANCH   3   5
ENDBRANCH   2   3
ENDBRANCH   1   2
BRANCH   1  23
ATOM     23  C   UNL A   1      39.180  19.141  25.754  1.00  0.00     0.275 C 
BRANCH  23  24
ATOM     24  O   UNL A   1      40.450  19.792  25.565  1.00  0.00    -0.458 OA
BRANCH  24  25
ATOM     25  C   UNL A   1      41.217  19.915  26.685  1.00  0.00     0.338 C 
ATOM     26  O   UNL A   1      41.862  19.037  27.215  1.00  0.00    -0.246 OA
BRANCH  25  27
ATOM     27  C   UNL A   1      41.293  21.346  27.059  1.00  0.00     0.060 A 
ATOM     28  C   UNL A   1      40.803  22.295  26.153  1.00  0.00     0.016 A 
ATOM     29  C   UNL A   1      41.852  21.758  28.273  1.00  0.00     0.016 A 
ATOM     30  C   UNL A   1      40.899  23.660  26.448  1.00  0.00     0.010 A 
ATOM     31  C   UNL A   1      41.954  23.123  28.562  1.00  0.00     0.010 A 
ATOM     32  C   UNL A   1      41.502  24.083  27.641  1.00  0.00    -0.014 A 
BRANCH  32  33
ATOM     33  C   UNL A   1      41.809  25.521  27.855  1.00  0.00     0.031 A 
ATOM     34  C   UNL A   1      43.148  26.053  27.407  1.00  0.00     0.074 A 
ATOM     35  C   UNL A   1      40.929  26.349  28.447  1.00  0.00     0.049 A 
ATOM     36  N   UNL A   1      43.656  27.251  27.544  1.00  0.00    -0.248 NA
ATOM     37  C   UNL A   1      44.030  25.096  26.723  1.00  0.00     0.031 C 
ATOM     38  C   UNL A   1      39.596  25.983  28.930  1.00  0.00     0.029 A 
ATOM     39  N   UNL A   1      41.042  27.682  28.757  1.00  0.00    -0.354 N 
ATOM     40  C   UNL A   1      44.914  27.198  26.952  1.00  0.00     0.074 A 
ATOM     41  C   UNL A   1      45.108  25.835  26.503  1.00  0.00     0.031 C 
ATOM     42  C   UNL A   1      39.029  27.062  29.503  1.00  0.00     0.029 A 
ATOM     43  C   UNL A   1      39.961  28.185  29.439  1.00  0.00     0.049 A 
ATOM     44  H   UNL A   1      41.826  28.225  28.514  1.00  0.00     0.167 HD
ATOM     45  C   UNL A   1      45.823  28.192  26.781  1.00  0.00     0.034 A 
ATOM     46  C   UNL A   1      39.763  29.406  29.969  1.00  0.00     0.034 A 
ATOM     47  C   UNL A   1      45.648  29.546  27.246  1.00  0.00     0.049 A 
ATOM     48  C   UNL A   1      40.826  30.472  29.842  1.00  0.00     0.074 A 
ATOM     49  C   UNL A   1      46.501  30.627  27.096  1.00  0.00     0.029 A 
ATOM     50  N   UNL A   1      44.557  30.004  27.969  1.00  0.00    -0.354 N 
ATOM     51  N   UNL A   1      42.008  30.407  29.281  1.00  0.00    -0.248 NA
ATOM     52  C   UNL A   1      40.509  31.784  30.429  1.00  0.00     0.031 C 
ATOM     53  C   UNL A   1      45.957  31.719  27.784  1.00  0.00     0.029 A 
ATOM     54  C   UNL A   1      44.731  31.339  28.300  1.00  0.00     0.049 A 
ATOM     55  H   UNL A   1      43.774  29.460  28.212  1.00  0.00     0.167 HD
ATOM     56  C   UNL A   1      42.565  31.675  29.437  1.00  0.00     0.074 A 
ATOM     57  C   UNL A   1      41.590  32.485  30.130  1.00  0.00     0.031 C 
ATOM     58  C   UNL A   1      43.776  32.132  29.032  1.00  0.00     0.034 A 
BRANCH  45  59
ATOM     59  C   UNL A   1      47.110  27.833  26.084  1.00  0.00     0.023 A 
ATOM     60  C   UNL A   1      47.262  27.995  24.695  1.00  0.00     0.031 A 
ATOM     61  C   UNL A   1      48.189  27.303  26.811  1.00  0.00     0.131 A 
ATOM     62  C   UNL A   1      48.439  27.566  24.068  1.00  0.00     0.055 A 
ATOM     63  C   UNL A   1      49.389  26.949  26.189  1.00  0.00     0.041 A 
ATOM     64  F   UNL A   1      48.092  27.107  28.135  1.00  0.00    -0.206 F 
ATOM     65  C   UNL A   1      49.514  27.067  24.808  1.00  0.00     0.022 A 
BRANCH  62  66
ATOM     66  S   UNL A   1      48.494  27.542  22.256  1.00  0.00     0.124 S 
ATOM     67  O   UNL A   1      48.668  26.118  21.985  1.00  0.00    -0.237 OA
ATOM     68  O   UNL A   1      47.201  28.108  21.894  1.00  0.00    -0.237 OA
ATOM     69  O   UNL A   1      49.652  28.375  21.938  1.00  0.00    -0.744 OA
ENDBRANCH  62  66
ENDBRANCH  45  59
BRANCH  46  70
ATOM     70  C   UNL A   1      38.559  29.725  30.776  1.00  0.00     0.023 A 
ATOM     71  C   UNL A   1      37.541  30.537  30.252  1.00  0.00     0.031 A 
ATOM     72  C   UNL A   1      38.547  29.421  32.146  1.00  0.00     0.131 A 
ATOM     73  C   UNL A   1      36.610  31.114  31.126  1.00  0.00     0.055 A 
ATOM     74  C   UNL A   1      37.596  29.968  33.004  1.00  0.00     0.041 A 
ATOM     75  F   UNL A   1      39.496  28.630  32.673  1.00  0.00    -0.206 F 
ATOM     76  C   UNL A   1      36.639  30.846  32.497  1.00  0.00     0.022 A 
BRANCH  73  77
ATOM     77  S   UNL A   1      35.394  32.288  30.468  1.00  0.00     0.124 S 
ATOM     78  O   UNL A   1      34.427  32.347  31.558  1.00  0.00    -0.237 OA
ATOM     79  O   UNL A   1      36.196  33.490  30.260  1.00  0.00    -0.237 OA
ATOM     80  O   UNL A   1      34.927  31.639  29.246  1.00  0.00    -0.744 OA
ENDBRANCH  73  77
ENDBRANCH  46  70
BRANCH  58  81
ATOM     81  C   UNL A   1      44.084  33.582  29.309  1.00  0.00     0.023 A 
ATOM     82  C   UNL A   1      43.729  34.600  28.406  1.00  0.00     0.031 A 
ATOM     83  C   UNL A   1      44.785  33.943  30.472  1.00  0.00     0.131 A 
ATOM     84  C   UNL A   1      44.127  35.923  28.653  1.00  0.00     0.055 A 
ATOM     85  C   UNL A   1      45.130  35.268  30.740  1.00  0.00     0.041 A 
ATOM     86  F   UNL A   1      45.156  33.010  31.363  1.00  0.00    -0.206 F 
ATOM     87  C   UNL A   1      44.814  36.265  29.822  1.00  0.00     0.022 A 
BRANCH  84  88
ATOM     88  S   UNL A   1      43.815  37.183  27.384  1.00  0.00     0.124 S 
ATOM     89  O   UNL A   1      45.152  37.407  26.844  1.00  0.00    -0.237 OA
ATOM     90  O   UNL A   1      42.874  36.507  26.498  1.00  0.00    -0.237 OA
ATOM     91  O   UNL A   1      43.256  38.302  28.141  1.00  0.00    -0.744 OA
ENDBRANCH  84  88
ENDBRANCH  58  81
ENDBRANCH  32  33
ENDBRANCH  25  27
ENDBRANCH  24  25
ENDBRANCH  23  24
ENDBRANCH   1  23
TORSDOF 19
ENDMDL
MODEL 2
REMARK VINA RESULT:     -10.9      5.207      8.327
REMARK SMILES O=C(COc1ccnc(NCc2ccc(Br)cc2)n1)OCCOC(=O)c1ccc(-c2c3nc(c(-c4cc(S(=O)(=O)[O-])ccc4F)c4ccc([nH]4)c(-c4cc(S(=O)(=O)[O-])ccc4F)c4nc(c(-c5cc(S(=O)(=O)[O-])ccc5F)c5ccc2[nH]5)C=C4)C=C3)cc1
REMARK SMILES IDX 21 1 20 2 2 3 1 4 3 5 4 6 5 7 6 8 19 9 7 10 9 11 8 12 10 13
REMARK SMILES IDX 11 15 12 16 13 17 18 18 14 19 17 20 15 21 16 22 22 23 23 24
REMARK SMILES IDX 24 25 25 26 26 27 27 28 88 29 28 30 87 31 29 32 30 33 31 34
REMARK SMILES IDX 81 35 32 36 86 37 80 38 82 39 33 40 85 41 79 42 78 43 34 45
REMARK SMILES IDX 66 46 46 47 65 48 47 49 50 50 64 51 83 52 48 53 49 54 63 56
REMARK SMILES IDX 84 57 51 58 35 59 36 60 44 61 37 62 43 63 45 64 42 65 38 66
REMARK SMILES IDX 39 67 40 68 41 69 67 70 68 71 76 72 69 73 75 74 77 75 74 76
REMARK SMILES IDX 70 77 71 78 72 79 73 80 52 81 53 82 61 83 54 84 60 85 62 86
REMARK SMILES IDX 59 87 55 88 56 89 57 90 58 91
REMARK H PARENT 10 14 82 44 50 55
REMARK Flexibility Score: inf
ROOT
ATOM      1  C   UNL A   1      31.779  28.814  27.240  1.00  0.00     0.274 C 
ENDROOT
BRANCH   1   2
ATOM      2  O   UNL A   1      31.446  27.864  26.206  1.00  0.00    -0.460 OA
BRANCH   2   3
ATOM      3  C   UNL A   1      31.670  26.530  26.308  1.00  0.00     0.344 C 
ATOM      4  O   UNL A   1      30.738  25.754  26.507  1.00  0.00    -0.248 OA
BRANCH   3   5
ATOM      5  C   UNL A   1      33.076  26.020  26.058  1.00  0.00     0.353 C 
BRANCH   5   6
ATOM      6  O   UNL A   1      33.633  26.744  24.964  1.00  0.00    -0.466 OA
BRANCH   6   7
ATOM      7  C   UNL A   1      33.533  25.985  23.829  1.00  0.00     0.218 A 
ATOM      8  C   UNL A   1      33.401  26.588  22.603  1.00  0.00     0.088 A 
ATOM      9  N   UNL A   1      33.556  24.663  24.033  1.00  0.00    -0.177 NA
ATOM     10  C   UNL A   1      33.258  25.721  21.557  1.00  0.00     0.121 A 
ATOM     11  C   UNL A   1      33.408  23.903  22.947  1.00  0.00     0.226 A 
ATOM     12  N   UNL A   1      33.266  24.385  21.705  1.00  0.00    -0.221 NA
BRANCH  11  13
ATOM     13  N   UNL A   1      33.349  22.548  23.057  1.00  0.00    -0.350 N 
ATOM     14  H   UNL A   1      34.181  22.030  22.964  1.00  0.00     0.164 HD
BRANCH  13  15
ATOM     15  C   UNL A   1      32.121  21.843  23.304  1.00  0.00     0.152 C 
BRANCH  15  16
ATOM     16  C   UNL A   1      32.491  20.456  23.776  1.00  0.00    -0.029 A 
ATOM     17  C   UNL A   1      32.747  20.212  25.134  1.00  0.00     0.007 A 
ATOM     18  C   UNL A   1      32.428  19.377  22.882  1.00  0.00     0.007 A 
ATOM     19  C   UNL A   1      32.902  18.904  25.595  1.00  0.00     0.016 A 
ATOM     20  C   UNL A   1      32.581  18.073  23.344  1.00  0.00     0.016 A 
ATOM     21  C   UNL A   1      32.804  17.841  24.698  1.00  0.00     0.017 A 
ATOM     22  Br  UNL A   1      32.923  16.058  25.298  1.00  0.00    -0.051 Br
ENDBRANCH  15  16
ENDBRANCH  13  15
ENDBRANCH  11  13
ENDBRANCH   6   7
ENDBRANCH   5   6
ENDBRANCH   3   5
ENDBRANCH   2   3
ENDBRANCH   1   2
BRANCH   1  23
ATOM     23  C   UNL A   1      31.927  30.221  26.659  1.00  0.00     0.275 C 
BRANCH  23  24
ATOM     24  O   UNL A   1      33.318  30.547  26.481  1.00  0.00    -0.458 OA
BRANCH  24  25
ATOM     25  C   UNL A   1      33.794  31.535  27.290  1.00  0.00     0.338 C 
ATOM     26  O   UNL A   1      33.186  32.514  27.664  1.00  0.00    -0.246 OA
BRANCH  25  27
ATOM     27  C   UNL A   1      35.124  31.135  27.805  1.00  0.00     0.060 A 
ATOM     28  C   UNL A   1      35.338  29.785  28.109  1.00  0.00     0.016 A 
ATOM     29  C   UNL A   1      36.145  32.068  28.003  1.00  0.00     0.016 A 
ATOM     30  C   UNL A   1      36.565  29.371  28.641  1.00  0.00     0.010 A 
ATOM     31  C   UNL A   1      37.368  31.655  28.542  1.00  0.00     0.010 A 
ATOM     32  C   UNL A   1      37.577  30.309  28.888  1.00  0.00    -0.014 A 
BRANCH  32  33
ATOM     33  C   UNL A   1      38.788  29.919  29.656  1.00  0.00     0.031 A 
ATOM     34  C   UNL A   1      39.684  28.840  29.100  1.00  0.00     0.074 A 
ATOM     35  C   UNL A   1      39.093  30.495  30.833  1.00  0.00     0.049 A 
ATOM     36  N   UNL A   1      40.755  28.296  29.619  1.00  0.00    -0.248 NA
ATOM     37  C   UNL A   1      39.308  28.299  27.785  1.00  0.00     0.031 C 
ATOM     38  C   UNL A   1      38.328  31.553  31.495  1.00  0.00     0.029 A 
ATOM     39  N   UNL A   1      40.136  30.250  31.691  1.00  0.00    -0.354 N 
ATOM     40  C   UNL A   1      41.192  27.357  28.691  1.00  0.00     0.074 A 
ATOM     41  C   UNL A   1      40.237  27.371  27.602  1.00  0.00     0.031 C 
ATOM     42  C   UNL A   1      38.914  31.842  32.673  1.00  0.00     0.029 A 
ATOM     43  C   UNL A   1      40.083  30.984  32.851  1.00  0.00     0.049 A 
ATOM     44  H   UNL A   1      40.855  29.606  31.494  1.00  0.00     0.167 HD
ATOM     45  C   UNL A   1      42.292  26.563  28.728  1.00  0.00     0.034 A 
ATOM     46  C   UNL A   1      40.875  30.945  33.938  1.00  0.00     0.034 A 
ATOM     47  C   UNL A   1      43.234  26.525  29.820  1.00  0.00     0.049 A 
ATOM     48  C   UNL A   1      42.044  29.991  33.994  1.00  0.00     0.074 A 
ATOM     49  C   UNL A   1      44.392  25.773  29.935  1.00  0.00     0.029 A 
ATOM     50  N   UNL A   1      43.120  27.253  30.994  1.00  0.00    -0.354 N 
ATOM     51  N   UNL A   1      42.444  29.110  33.110  1.00  0.00    -0.248 NA
ATOM     52  C   UNL A   1      42.871  30.040  35.211  1.00  0.00     0.031 C 
ATOM     53  C   UNL A   1      44.940  25.997  31.203  1.00  0.00     0.029 A 
ATOM     54  C   UNL A   1      44.166  26.943  31.850  1.00  0.00     0.049 A 
ATOM     55  H   UNL A   1      42.401  27.896  31.190  1.00  0.00     0.167 HD
ATOM     56  C   UNL A   1      43.575  28.512  33.662  1.00  0.00     0.074 A 
ATOM     57  C   UNL A   1      43.802  29.140  34.944  1.00  0.00     0.031 C 
ATOM     58  C   UNL A   1      44.364  27.537  33.148  1.00  0.00     0.034 A 
BRANCH  45  59
ATOM     59  C   UNL A   1      42.513  25.641  27.556  1.00  0.00     0.023 A 
ATOM     60  C   UNL A   1      41.953  24.352  27.521  1.00  0.00     0.031 A 
ATOM     61  C   UNL A   1      43.308  26.048  26.471  1.00  0.00     0.131 A 
ATOM     62  C   UNL A   1      42.253  23.491  26.457  1.00  0.00     0.055 A 
ATOM     63  C   UNL A   1      43.541  25.210  25.378  1.00  0.00     0.041 A 
ATOM     64  F   UNL A   1      43.885  27.260  26.461  1.00  0.00    -0.206 F 
ATOM     65  C   UNL A   1      43.023  23.918  25.373  1.00  0.00     0.022 A 
BRANCH  62  66
ATOM     66  S   UNL A   1      41.736  21.757  26.578  1.00  0.00     0.124 S 
ATOM     67  O   UNL A   1      42.623  21.117  25.610  1.00  0.00    -0.237 OA
ATOM     68  O   UNL A   1      41.990  21.448  27.979  1.00  0.00    -0.237 OA
ATOM     69  O   UNL A   1      40.327  21.792  26.191  1.00  0.00    -0.744 OA
ENDBRANCH  62  66
ENDBRANCH  45  59
BRANCH  46  70
ATOM     70  C   UNL A   1      40.583  31.749  35.151  1.00  0.00     0.023 A 
ATOM     71  C   UNL A   1      39.575  31.355  36.044  1.00  0.00     0.031 A 
ATOM     72  C   UNL A   1      41.141  33.031  35.279  1.00  0.00     0.131 A 
ATOM     73  C   UNL A   1      39.074  32.287  36.964  1.00  0.00     0.055 A 
ATOM     74  C   UNL A   1      40.664  33.940  36.220  1.00  0.00     0.041 A 
ATOM     75  F   UNL A   1      42.121  33.429  34.452  1.00  0.00    -0.206 F 
ATOM     76  C   UNL A   1      39.603  33.578  37.048  1.00  0.00     0.022 A 
BRANCH  73  77
ATOM     77  S   UNL A   1      37.666  31.824  38.009  1.00  0.00     0.124 S 
ATOM     78  O   UNL A   1      37.402  30.464  37.554  1.00  0.00    -0.237 OA
ATOM     79  O   UNL A   1      38.218  31.951  39.355  1.00  0.00    -0.237 OA
ATOM     80  O   UNL A   1      36.650  32.813  37.662  1.00  0.00    -0.744 OA
ENDBRANCH  73  77
ENDBRANCH  46  70
BRANCH  58  81
ATOM     81  C   UNL A   1      45.558  27.122  33.971  1.00  0.00     0.023 A 
ATOM     82  C   UNL A   1      45.492  26.058  34.887  1.00  0.00     0.031 A 
ATOM     83  C   UNL A   1      46.764  27.837  33.870  1.00  0.00     0.131 A 
ATOM     84  C   UNL A   1      46.594  25.773  35.708  1.00  0.00     0.055 A 
ATOM     85  C   UNL A   1      47.876  27.514  34.650  1.00  0.00     0.041 A 
ATOM     86  F   UNL A   1      46.879  28.867  33.018  1.00  0.00    -0.206 F 
ATOM     87  C   UNL A   1      47.790  26.487  35.585  1.00  0.00     0.022 A 
BRANCH  84  88
ATOM     88  S   UNL A   1      46.419  24.516  37.005  1.00  0.00     0.124 S 
ATOM     89  O   UNL A   1      44.987  24.231  36.960  1.00  0.00    -0.237 OA
ATOM     90  O   UNL A   1      47.295  23.451  36.528  1.00  0.00    -0.237 OA
ATOM     91  O   UNL A   1      46.878  25.200  38.212  1.00  0.00    -0.744 OA
ENDBRANCH  84  88
ENDBRANCH  58  81
ENDBRANCH  32  33
ENDBRANCH  25  27
ENDBRANCH  24  25
ENDBRANCH  23  24
ENDBRANCH   1  23
TORSDOF 19
ENDMDL
MODEL 3
REMARK VINA RESULT:     -10.7      5.742     12.092
REMARK SMILES O=C(COc1ccnc(NCc2ccc(Br)cc2)n1)OCCOC(=O)c1ccc(-c2c3nc(c(-c4cc(S(=O)(=O)[O-])ccc4F)c4ccc([nH]4)c(-c4cc(S(=O)(=O)[O-])ccc4F)c4nc(c(-c5cc(S(=O)(=O)[O-])ccc5F)c5ccc2[nH]5)C=C4)C=C3)cc1
REMARK SMILES IDX 21 1 20 2 2 3 1 4 3 5 4 6 5 7 6 8 19 9 7 10 9 11 8 12 10 13
REMARK SMILES IDX 11 15 12 16 13 17 18 18 14 19 17 20 15 21 16 22 22 23 23 24
REMARK SMILES IDX 24 25 25 26 26 27 27 28 88 29 28 30 87 31 29 32 30 33 31 34
REMARK SMILES IDX 81 35 32 36 86 37 80 38 82 39 33 40 85 41 79 42 78 43 34 45
REMARK SMILES IDX 66 46 46 47 65 48 47 49 50 50 64 51 83 52 48 53 49 54 63 56
REMARK SMILES IDX 84 57 51 58 35 59 36 60 44 61 37 62 43 63 45 64 42 65 38 66
REMARK SMILES IDX 39 67 40 68 41 69 67 70 68 71 76 72 69 73 75 74 77 75 74 76
REMARK SMILES IDX 70 77 71 78 72 79 73 80 52 81 53 82 61 83 54 84 60 85 62 86
REMARK SMILES IDX 59 87 55 88 56 89 57 90 58 91
REMARK H PARENT 10 14 82 44 50 55
REMARK Flexibility Score: inf
ROOT
ATOM      1  C   UNL A   1      33.604  35.328  28.588  1.00  0.00     0.274 C 
ENDROOT
BRANCH   1   2
ATOM      2  O   UNL A   1      32.570  35.785  29.485  1.00  0.00    -0.460 OA
BRANCH   2   3
ATOM      3  C   UNL A   1      32.816  36.431  30.652  1.00  0.00     0.344 C 
ATOM      4  O   UNL A   1      33.014  37.645  30.664  1.00  0.00    -0.248 OA
BRANCH   3   5
ATOM      5  C   UNL A   1      32.731  35.638  31.941  1.00  0.00     0.353 C 
BRANCH   5   6
ATOM      6  O   UNL A   1      33.298  34.349  31.719  1.00  0.00    -0.466 OA
BRANCH   6   7
ATOM      7  C   UNL A   1      34.457  34.240  32.441  1.00  0.00     0.218 A 
ATOM      8  C   UNL A   1      34.416  33.855  33.757  1.00  0.00     0.088 A 
ATOM      9  N   UNL A   1      35.570  34.551  31.767  1.00  0.00    -0.177 NA
ATOM     10  C   UNL A   1      35.633  33.836  34.380  1.00  0.00     0.121 A 
ATOM     11  C   UNL A   1      36.705  34.502  32.465  1.00  0.00     0.226 A 
ATOM     12  N   UNL A   1      36.781  34.146  33.755  1.00  0.00    -0.221 NA
BRANCH  11  13
ATOM     13  N   UNL A   1      37.883  34.867  31.890  1.00  0.00    -0.350 N 
ATOM     14  H   UNL A   1      37.864  35.477  31.117  1.00  0.00     0.164 HD
BRANCH  13  15
ATOM     15  C   UNL A   1      39.156  34.396  32.364  1.00  0.00     0.152 C 
BRANCH  15  16
ATOM     16  C   UNL A   1      40.119  34.471  31.204  1.00  0.00    -0.029 A 
ATOM     17  C   UNL A   1      39.651  34.733  29.907  1.00  0.00     0.007 A 
ATOM     18  C   UNL A   1      41.502  34.432  31.442  1.00  0.00     0.007 A 
ATOM     19  C   UNL A   1      40.553  34.989  28.873  1.00  0.00     0.016 A 
ATOM     20  C   UNL A   1      42.399  34.689  30.410  1.00  0.00     0.016 A 
ATOM     21  C   UNL A   1      41.922  34.979  29.135  1.00  0.00     0.017 A 
ATOM     22  Br  UNL A   1      43.167  35.403  27.783  1.00  0.00    -0.051 Br
ENDBRANCH  15  16
ENDBRANCH  13  15
ENDBRANCH  11  13
ENDBRANCH   6   7
ENDBRANCH   5   6
ENDBRANCH   3   5
ENDBRANCH   2   3
ENDBRANCH   1   2
BRANCH   1  23
ATOM     23  C   UNL A   1      33.343  33.887  28.147  1.00  0.00     0.275 C 
BRANCH  23  24
ATOM     24  O   UNL A   1      34.577  33.147  28.094  1.00  0.00    -0.458 OA
BRANCH  24  25
ATOM     25  C   UNL A   1      34.443  31.802  27.911  1.00  0.00     0.338 C 
ATOM     26  O   UNL A   1      33.487  31.232  27.433  1.00  0.00    -0.246 OA
BRANCH  25  27
ATOM     27  C   UNL A   1      35.736  31.147  28.216  1.00  0.00     0.060 A 
ATOM     28  C   UNL A   1      35.772  29.748  28.277  1.00  0.00     0.016 A 
ATOM     29  C   UNL A   1      36.896  31.889  28.456  1.00  0.00     0.016 A 
ATOM     30  C   UNL A   1      36.963  29.091  28.608  1.00  0.00     0.010 A 
ATOM     31  C   UNL A   1      38.084  31.232  28.794  1.00  0.00     0.010 A 
ATOM     32  C   UNL A   1      38.118  29.830  28.898  1.00  0.00    -0.014 A 
BRANCH  32  33
ATOM     33  C   UNL A   1      39.316  29.157  29.466  1.00  0.00     0.031 A 
ATOM     34  C   UNL A   1      39.919  29.698  30.738  1.00  0.00     0.074 A 
ATOM     35  C   UNL A   1      39.874  28.089  28.866  1.00  0.00     0.049 A 
ATOM     36  N   UNL A   1      40.992  29.314  31.381  1.00  0.00    -0.248 NA
ATOM     37  C   UNL A   1      39.218  30.834  31.356  1.00  0.00     0.031 C 
ATOM     38  C   UNL A   1      39.403  27.451  27.637  1.00  0.00     0.029 A 
ATOM     39  N   UNL A   1      40.985  27.362  29.216  1.00  0.00    -0.354 N 
ATOM     40  C   UNL A   1      41.091  30.150  32.488  1.00  0.00     0.074 A 
ATOM     41  C   UNL A   1      39.996  31.095  32.397  1.00  0.00     0.031 C 
ATOM     42  C   UNL A   1      40.240  26.444  27.321  1.00  0.00     0.029 A 
ATOM     43  C   UNL A   1      41.308  26.378  28.315  1.00  0.00     0.049 A 
ATOM     44  H   UNL A   1      41.502  27.532  30.037  1.00  0.00     0.167 HD
ATOM     45  C   UNL A   1      41.997  30.131  33.498  1.00  0.00     0.034 A 
ATOM     46  C   UNL A   1      42.361  25.540  28.288  1.00  0.00     0.034 A 
ATOM     47  C   UNL A   1      43.104  29.210  33.583  1.00  0.00     0.049 A 
ATOM     48  C   UNL A   1      43.405  25.594  29.378  1.00  0.00     0.074 A 
ATOM     49  C   UNL A   1      44.057  29.097  34.582  1.00  0.00     0.029 A 
ATOM     50  N   UNL A   1      43.420  28.256  32.628  1.00  0.00    -0.354 N 
ATOM     51  N   UNL A   1      43.484  26.389  30.416  1.00  0.00    -0.248 NA
ATOM     52  C   UNL A   1      44.505  24.620  29.280  1.00  0.00     0.031 C 
ATOM     53  C   UNL A   1      44.986  28.122  34.199  1.00  0.00     0.029 A 
ATOM     54  C   UNL A   1      44.571  27.576  32.997  1.00  0.00     0.049 A 
ATOM     55  H   UNL A   1      42.903  28.088  31.808  1.00  0.00     0.167 HD
ATOM     56  C   UNL A   1      44.635  25.999  31.098  1.00  0.00     0.074 A 
ATOM     57  C   UNL A   1      45.209  24.893  30.365  1.00  0.00     0.031 C 
ATOM     58  C   UNL A   1      45.166  26.505  32.240  1.00  0.00     0.034 A 
BRANCH  45  59
ATOM     59  C   UNL A   1      41.841  31.169  34.580  1.00  0.00     0.023 A 
ATOM     60  C   UNL A   1      42.527  32.394  34.525  1.00  0.00     0.031 A 
ATOM     61  C   UNL A   1      41.013  30.922  35.688  1.00  0.00     0.131 A 
ATOM     62  C   UNL A   1      42.428  33.297  35.592  1.00  0.00     0.055 A 
ATOM     63  C   UNL A   1      40.859  31.860  36.712  1.00  0.00     0.041 A 
ATOM     64  F   UNL A   1      40.350  29.760  35.803  1.00  0.00    -0.206 F 
ATOM     65  C   UNL A   1      41.579  33.050  36.674  1.00  0.00     0.022 A 
BRANCH  62  66
ATOM     66  S   UNL A   1      43.530  34.737  35.611  1.00  0.00     0.124 S 
ATOM     67  O   UNL A   1      44.845  34.103  35.579  1.00  0.00    -0.237 OA
ATOM     68  O   UNL A   1      43.135  35.452  34.404  1.00  0.00    -0.237 OA
ATOM     69  O   UNL A   1      43.198  35.404  36.869  1.00  0.00    -0.744 OA
ENDBRANCH  62  66
ENDBRANCH  45  59
BRANCH  46  70
ATOM     70  C   UNL A   1      42.595  24.611  27.154  1.00  0.00     0.023 A 
ATOM     71  C   UNL A   1      42.010  23.336  27.142  1.00  0.00     0.031 A 
ATOM     72  C   UNL A   1      43.595  24.908  26.215  1.00  0.00     0.131 A 
ATOM     73  C   UNL A   1      42.516  22.360  26.272  1.00  0.00     0.055 A 
ATOM     74  C   UNL A   1      44.068  23.945  25.327  1.00  0.00     0.041 A 
ATOM     75  F   UNL A   1      44.159  26.126  26.188  1.00  0.00    -0.206 F 
ATOM     76  C   UNL A   1      43.548  22.653  25.376  1.00  0.00     0.022 A 
BRANCH  73  77
ATOM     77  S   UNL A   1      41.864  20.670  26.369  1.00  0.00     0.124 S 
ATOM     78  O   UNL A   1      42.645  19.998  25.336  1.00  0.00    -0.237 OA
ATOM     79  O   UNL A   1      42.169  20.294  27.746  1.00  0.00    -0.237 OA
ATOM     80  O   UNL A   1      40.444  20.839  26.074  1.00  0.00    -0.744 OA
ENDBRANCH  73  77
ENDBRANCH  46  70
BRANCH  58  81
ATOM     81  C   UNL A   1      46.411  25.836  32.766  1.00  0.00     0.023 A 
ATOM     82  C   UNL A   1      47.680  26.100  32.222  1.00  0.00     0.031 A 
ATOM     83  C   UNL A   1      46.316  24.884  33.796  1.00  0.00     0.131 A 
ATOM     84  C   UNL A   1      48.797  25.378  32.671  1.00  0.00     0.055 A 
ATOM     85  C   UNL A   1      47.438  24.208  34.277  1.00  0.00     0.041 A 
ATOM     86  F   UNL A   1      45.127  24.587  34.345  1.00  0.00    -0.206 F 
ATOM     87  C   UNL A   1      48.685  24.443  33.705  1.00  0.00     0.022 A 
BRANCH  84  88
ATOM     88  S   UNL A   1      50.386  25.609  31.826  1.00  0.00     0.124 S 
ATOM     89  O   UNL A   1      50.155  26.840  31.077  1.00  0.00    -0.237 OA
ATOM     90  O   UNL A   1      51.322  25.707  32.942  1.00  0.00    -0.237 OA
ATOM     91  O   UNL A   1      50.521  24.403  31.011  1.00  0.00    -0.744 OA
ENDBRANCH  84  88
ENDBRANCH  58  81
ENDBRANCH  32  33
ENDBRANCH  25  27
ENDBRANCH  24  25
ENDBRANCH  23  24
ENDBRANCH   1  23
TORSDOF 19
ENDMDL
