MODEL 1
REMARK VINA RESULT:     -11.7      0.000      0.000
REMARK SMILES CCCc1c(C(=O)OCCOC(=O)c2ccc(-c3c4nc(c(-c5cc(S(=O)(=O)[O-])ccc5F)c5ccc([nH]5)c(-c5cc(S(=O)(=O)[O-])ccc5F)c5nc(c(-c6cc(S(=O)(=O)[O-])ccc6F)c6ccc3[nH]6)C=C5)C=C4)cc2)nnn1-c1ccccc1[N+](=O)[O-]
REMARK SMILES IDX 10 1 9 2 8 3 6 4 7 5 5 6 4 7 79 8 77 9 78 10 3 11 2 12 1 13
REMARK SMILES IDX 80 14 81 15 85 16 82 17 84 18 83 19 86 20 87 21 88 22 11 23
REMARK SMILES IDX 12 24 13 25 14 26 15 27 76 28 16 29 75 30 17 31 18 32 19 33
REMARK SMILES IDX 69 34 20 35 74 36 68 37 70 38 21 39 73 40 67 41 66 42 22 44
REMARK SMILES IDX 54 45 34 46 53 47 35 48 38 49 52 50 71 51 36 52 37 53 51 55
REMARK SMILES IDX 72 56 39 57 23 58 24 59 32 60 25 61 31 62 33 63 30 64 26 65
REMARK SMILES IDX 27 66 28 67 29 68 55 69 56 70 64 71 57 72 63 73 65 74 62 75
REMARK SMILES IDX 58 76 59 77 60 78 61 79 40 80 41 81 49 82 42 83 48 84 50 85
REMARK SMILES IDX 47 86 43 87 44 88 45 89 46 90
REMARK H PARENT 70 43 38 54
REMARK Flexibility Score: inf
ROOT
ATOM      1  C   UNL A   1      33.454  30.677  27.043  1.00  0.00     0.275 C 
ENDROOT
BRANCH   1   2
ATOM      2  C   UNL A   1      33.066  29.721  25.922  1.00  0.00     0.275 C 
BRANCH   2   3
ATOM      3  O   UNL A   1      31.747  29.185  26.121  1.00  0.00    -0.457 OA
BRANCH   3   4
ATOM      4  C   UNL A   1      31.667  28.010  26.818  1.00  0.00     0.360 C 
ATOM      5  O   UNL A   1      31.690  27.955  28.048  1.00  0.00    -0.244 OA
BRANCH   4   6
ATOM      6  C   UNL A   1      31.490  26.832  25.973  1.00  0.00     0.194 A 
ATOM      7  C   UNL A   1      32.423  25.897  25.503  1.00  0.00     0.080 A 
ATOM      8  N   UNL A   1      31.618  24.997  24.818  1.00  0.00    -0.210 N 
ATOM      9  N   UNL A   1      30.264  26.562  25.411  1.00  0.00    -0.122 NA
ATOM     10  N   UNL A   1      30.388  25.514  24.621  1.00  0.00    -0.061 NA
BRANCH   7  11
ATOM     11  C   UNL A   1      33.927  25.968  25.560  1.00  0.00     0.059 C 
BRANCH  11  12
ATOM     12  C   UNL A   1      34.783  24.794  25.104  1.00  0.00     0.003 C 
ATOM     13  C   UNL A   1      35.009  23.724  26.162  1.00  0.00     0.004 C 
ENDBRANCH  11  12
ENDBRANCH   7  11
BRANCH   8  14
ATOM     14  C   UNL A   1      31.827  23.655  24.458  1.00  0.00     0.144 A 
ATOM     15  C   UNL A   1      32.165  23.381  23.123  1.00  0.00     0.036 A 
ATOM     16  C   UNL A   1      31.676  22.598  25.365  1.00  0.00     0.294 A 
ATOM     17  C   UNL A   1      32.471  22.073  22.740  1.00  0.00     0.003 A 
ATOM     18  C   UNL A   1      31.989  21.287  24.975  1.00  0.00     0.088 A 
ATOM     19  C   UNL A   1      32.406  21.033  23.668  1.00  0.00     0.007 A 
BRANCH  16  20
ATOM     20  N   UNL A   1      31.096  22.780  26.699  1.00  0.00     0.065 N 
ATOM     21  O   UNL A   1      31.887  22.942  27.641  1.00  0.00    -0.258 OA
ATOM     22  O   UNL A   1      29.867  22.729  26.817  1.00  0.00    -0.258 OA
ENDBRANCH  16  20
ENDBRANCH   8  14
ENDBRANCH   4   6
ENDBRANCH   3   4
ENDBRANCH   2   3
ENDBRANCH   1   2
BRANCH   1  23
ATOM     23  O   UNL A   1      34.667  30.270  27.671  1.00  0.00    -0.458 OA
BRANCH  23  24
ATOM     24  C   UNL A   1      35.510  31.283  27.981  1.00  0.00     0.338 C 
ATOM     25  O   UNL A   1      35.518  32.401  27.490  1.00  0.00    -0.246 OA
BRANCH  24  26
ATOM     26  C   UNL A   1      36.574  30.780  28.852  1.00  0.00     0.060 A 
ATOM     27  C   UNL A   1      37.653  31.633  29.107  1.00  0.00     0.016 A 
ATOM     28  C   UNL A   1      36.637  29.402  29.096  1.00  0.00     0.016 A 
ATOM     29  C   UNL A   1      38.871  31.074  29.432  1.00  0.00     0.010 A 
ATOM     30  C   UNL A   1      37.857  28.847  29.377  1.00  0.00     0.010 A 
ATOM     31  C   UNL A   1      38.970  29.684  29.474  1.00  0.00    -0.014 A 
BRANCH  31  32
ATOM     32  C   UNL A   1      40.272  29.077  29.655  1.00  0.00     0.031 A 
ATOM     33  C   UNL A   1      40.662  28.900  31.072  1.00  0.00     0.074 A 
ATOM     34  C   UNL A   1      40.919  28.523  28.613  1.00  0.00     0.049 A 
ATOM     35  N   UNL A   1      41.676  29.398  31.696  1.00  0.00    -0.248 NA
ATOM     36  C   UNL A   1      39.702  28.208  31.951  1.00  0.00     0.031 C 
ATOM     37  C   UNL A   1      40.414  28.348  27.248  1.00  0.00     0.029 A 
ATOM     38  N   UNL A   1      42.091  27.839  28.600  1.00  0.00    -0.354 N 
ATOM     39  C   UNL A   1      41.597  28.890  32.989  1.00  0.00     0.074 A 
ATOM     40  C   UNL A   1      40.258  28.404  33.143  1.00  0.00     0.031 C 
ATOM     41  C   UNL A   1      41.144  27.393  26.632  1.00  0.00     0.029 A 
ATOM     42  C   UNL A   1      42.214  26.968  27.523  1.00  0.00     0.049 A 
ATOM     43  H   UNL A   1      42.788  27.948  29.287  1.00  0.00     0.167 HD
ATOM     44  C   UNL A   1      42.713  28.645  33.727  1.00  0.00     0.034 A 
ATOM     45  C   UNL A   1      43.038  25.889  27.446  1.00  0.00     0.034 A 
ATOM     46  C   UNL A   1      43.847  29.379  33.204  1.00  0.00     0.049 A 
ATOM     47  C   UNL A   1      44.100  26.081  28.474  1.00  0.00     0.074 A 
ATOM     48  C   UNL A   1      44.075  30.716  32.927  1.00  0.00     0.029 A 
ATOM     49  N   UNL A   1      44.820  28.692  32.507  1.00  0.00    -0.354 N 
ATOM     50  N   UNL A   1      44.971  27.056  28.445  1.00  0.00    -0.248 NA
ATOM     51  C   UNL A   1      43.890  25.490  29.789  1.00  0.00     0.031 C 
ATOM     52  C   UNL A   1      44.806  30.716  31.703  1.00  0.00     0.029 A 
ATOM     53  C   UNL A   1      45.053  29.390  31.347  1.00  0.00     0.049 A 
ATOM     54  H   UNL A   1      45.264  27.859  32.789  1.00  0.00     0.167 HD
ATOM     55  C   UNL A   1      45.092  27.478  29.761  1.00  0.00     0.074 A 
ATOM     56  C   UNL A   1      44.481  26.412  30.555  1.00  0.00     0.031 C 
ATOM     57  C   UNL A   1      45.400  28.773  30.078  1.00  0.00     0.034 A 
BRANCH  44  58
ATOM     58  C   UNL A   1      42.864  27.458  34.665  1.00  0.00     0.023 A 
ATOM     59  C   UNL A   1      43.703  26.418  34.227  1.00  0.00     0.031 A 
ATOM     60  C   UNL A   1      42.054  27.148  35.784  1.00  0.00     0.131 A 
ATOM     61  C   UNL A   1      43.610  25.129  34.776  1.00  0.00     0.055 A 
ATOM     62  C   UNL A   1      42.019  25.881  36.376  1.00  0.00     0.041 A 
ATOM     63  F   UNL A   1      41.189  28.006  36.332  1.00  0.00    -0.206 F 
ATOM     64  C   UNL A   1      42.767  24.850  35.846  1.00  0.00     0.022 A 
BRANCH  61  65
ATOM     65  S   UNL A   1      44.459  23.782  33.922  1.00  0.00     0.124 S 
ATOM     66  O   UNL A   1      43.374  23.212  33.129  1.00  0.00    -0.237 OA
ATOM     67  O   UNL A   1      45.488  24.503  33.182  1.00  0.00    -0.237 OA
ATOM     68  O   UNL A   1      44.944  22.942  35.014  1.00  0.00    -0.744 OA
ENDBRANCH  61  65
ENDBRANCH  44  58
BRANCH  45  69
ATOM     69  C   UNL A   1      42.699  24.583  26.807  1.00  0.00     0.023 A 
ATOM     70  C   UNL A   1      43.590  23.882  25.969  1.00  0.00     0.031 A 
ATOM     71  C   UNL A   1      41.516  23.895  27.176  1.00  0.00     0.131 A 
ATOM     72  C   UNL A   1      43.267  22.578  25.516  1.00  0.00     0.055 A 
ATOM     73  C   UNL A   1      41.191  22.622  26.707  1.00  0.00     0.041 A 
ATOM     74  F   UNL A   1      40.662  24.406  28.078  1.00  0.00    -0.206 F 
ATOM     75  C   UNL A   1      42.069  21.954  25.875  1.00  0.00     0.022 A 
BRANCH  72  76
ATOM     76  S   UNL A   1      44.455  21.625  24.516  1.00  0.00     0.124 S 
ATOM     77  O   UNL A   1      43.951  20.263  24.649  1.00  0.00    -0.237 OA
ATOM     78  O   UNL A   1      44.322  22.241  23.202  1.00  0.00    -0.237 OA
ATOM     79  O   UNL A   1      45.737  21.872  25.179  1.00  0.00    -0.744 OA
ENDBRANCH  72  76
ENDBRANCH  45  69
BRANCH  57  80
ATOM     80  C   UNL A   1      45.903  29.705  28.992  1.00  0.00     0.023 A 
ATOM     81  C   UNL A   1      45.097  30.626  28.285  1.00  0.00     0.031 A 
ATOM     82  C   UNL A   1      47.294  29.768  28.787  1.00  0.00     0.131 A 
ATOM     83  C   UNL A   1      45.692  31.561  27.414  1.00  0.00     0.055 A 
ATOM     84  C   UNL A   1      47.880  30.707  27.939  1.00  0.00     0.041 A 
ATOM     85  F   UNL A   1      48.120  28.942  29.451  1.00  0.00    -0.206 F 
ATOM     86  C   UNL A   1      47.080  31.606  27.246  1.00  0.00     0.022 A 
BRANCH  83  87
ATOM     87  S   UNL A   1      44.670  32.742  26.476  1.00  0.00     0.124 S 
ATOM     88  O   UNL A   1      45.648  33.532  25.739  1.00  0.00    -0.237 OA
ATOM     89  O   UNL A   1      43.822  31.862  25.676  1.00  0.00    -0.237 OA
ATOM     90  O   UNL A   1      43.958  33.480  27.521  1.00  0.00    -0.744 OA
ENDBRANCH  83  87
ENDBRANCH  57  80
ENDBRANCH  31  32
ENDBRANCH  24  26
ENDBRANCH  23  24
ENDBRANCH   1  23
TORSDOF 18
ENDMDL
MODEL 2
REMARK VINA RESULT:     -11.5      3.950      8.324
REMARK SMILES CCCc1c(C(=O)OCCOC(=O)c2ccc(-c3c4nc(c(-c5cc(S(=O)(=O)[O-])ccc5F)c5ccc([nH]5)c(-c5cc(S(=O)(=O)[O-])ccc5F)c5nc(c(-c6cc(S(=O)(=O)[O-])ccc6F)c6ccc3[nH]6)C=C5)C=C4)cc2)nnn1-c1ccccc1[N+](=O)[O-]
REMARK SMILES IDX 10 1 9 2 8 3 6 4 7 5 5 6 4 7 79 8 77 9 78 10 3 11 2 12 1 13
REMARK SMILES IDX 80 14 81 15 85 16 82 17 84 18 83 19 86 20 87 21 88 22 11 23
REMARK SMILES IDX 12 24 13 25 14 26 15 27 76 28 16 29 75 30 17 31 18 32 19 33
REMARK SMILES IDX 69 34 20 35 74 36 68 37 70 38 21 39 73 40 67 41 66 42 22 44
REMARK SMILES IDX 54 45 34 46 53 47 35 48 38 49 52 50 71 51 36 52 37 53 51 55
REMARK SMILES IDX 72 56 39 57 23 58 24 59 32 60 25 61 31 62 33 63 30 64 26 65
REMARK SMILES IDX 27 66 28 67 29 68 55 69 56 70 64 71 57 72 63 73 65 74 62 75
REMARK SMILES IDX 58 76 59 77 60 78 61 79 40 80 41 81 49 82 42 83 48 84 50 85
REMARK SMILES IDX 47 86 43 87 44 88 45 89 46 90
REMARK H PARENT 70 43 38 54
REMARK Flexibility Score: inf
ROOT
ATOM      1  C   UNL A   1      40.203  22.557  26.940  1.00  0.00     0.275 C 
ENDROOT
BRANCH   1   2
ATOM      2  C   UNL A   1      39.410  21.564  26.100  1.00  0.00     0.275 C 
BRANCH   2   3
ATOM      3  O   UNL A   1      38.187  22.143  25.616  1.00  0.00    -0.457 OA
BRANCH   3   4
ATOM      4  C   UNL A   1      37.413  21.348  24.815  1.00  0.00     0.360 C 
ATOM      5  O   UNL A   1      37.643  20.152  24.631  1.00  0.00    -0.244 OA
BRANCH   4   6
ATOM      6  C   UNL A   1      36.254  22.031  24.246  1.00  0.00     0.194 A 
ATOM      7  C   UNL A   1      34.885  21.873  24.501  1.00  0.00     0.080 A 
ATOM      8  N   UNL A   1      34.321  22.854  23.697  1.00  0.00    -0.210 N 
ATOM      9  N   UNL A   1      36.417  22.922  23.210  1.00  0.00    -0.122 NA
ATOM     10  N   UNL A   1      35.225  23.322  22.812  1.00  0.00    -0.061 NA
BRANCH   7  11
ATOM     11  C   UNL A   1      34.201  20.787  25.290  1.00  0.00     0.059 C 
BRANCH  11  12
ATOM     12  C   UNL A   1      33.599  19.575  24.591  1.00  0.00     0.003 C 
ATOM     13  C   UNL A   1      32.772  18.669  25.491  1.00  0.00     0.004 C 
ENDBRANCH  11  12
ENDBRANCH   7  11
BRANCH   8  14
ATOM     14  C   UNL A   1      33.076  23.503  23.762  1.00  0.00     0.144 A 
ATOM     15  C   UNL A   1      32.012  22.951  23.031  1.00  0.00     0.036 A 
ATOM     16  C   UNL A   1      32.877  24.683  24.493  1.00  0.00     0.294 A 
ATOM     17  C   UNL A   1      30.736  23.508  23.138  1.00  0.00     0.003 A 
ATOM     18  C   UNL A   1      31.591  25.234  24.599  1.00  0.00     0.088 A 
ATOM     19  C   UNL A   1      30.521  24.632  23.937  1.00  0.00     0.007 A 
BRANCH  16  20
ATOM     20  N   UNL A   1      33.984  25.444  25.079  1.00  0.00     0.065 N 
ATOM     21  O   UNL A   1      34.551  24.948  26.064  1.00  0.00    -0.258 OA
ATOM     22  O   UNL A   1      34.267  26.541  24.587  1.00  0.00    -0.258 OA
ENDBRANCH  16  20
ENDBRANCH   8  14
ENDBRANCH   4   6
ENDBRANCH   3   4
ENDBRANCH   2   3
ENDBRANCH   1   2
BRANCH   1  23
ATOM     23  O   UNL A   1      39.572  23.836  26.959  1.00  0.00    -0.458 OA
BRANCH  23  24
ATOM     24  C   UNL A   1      40.390  24.873  26.660  1.00  0.00     0.338 C 
ATOM     25  O   UNL A   1      41.476  24.809  26.109  1.00  0.00    -0.246 OA
BRANCH  24  26
ATOM     26  C   UNL A   1      39.880  26.090  27.294  1.00  0.00     0.060 A 
ATOM     27  C   UNL A   1      40.290  27.315  26.756  1.00  0.00     0.016 A 
ATOM     28  C   UNL A   1      39.313  25.988  28.571  1.00  0.00     0.016 A 
ATOM     29  C   UNL A   1      40.306  28.422  27.578  1.00  0.00     0.010 A 
ATOM     30  C   UNL A   1      39.371  27.079  29.398  1.00  0.00     0.010 A 
ATOM     31  C   UNL A   1      39.929  28.262  28.910  1.00  0.00    -0.014 A 
BRANCH  31  32
ATOM     32  C   UNL A   1      40.091  29.371  29.825  1.00  0.00     0.031 A 
ATOM     33  C   UNL A   1      38.873  30.194  29.998  1.00  0.00     0.074 A 
ATOM     34  C   UNL A   1      41.185  29.462  30.604  1.00  0.00     0.049 A 
ATOM     35  N   UNL A   1      38.705  31.448  29.743  1.00  0.00    -0.248 NA
ATOM     36  C   UNL A   1      37.628  29.484  30.346  1.00  0.00     0.031 C 
ATOM     37  C   UNL A   1      42.262  28.475  30.737  1.00  0.00     0.029 A 
ATOM     38  N   UNL A   1      41.474  30.367  31.573  1.00  0.00    -0.354 N 
ATOM     39  C   UNL A   1      37.393  31.727  30.117  1.00  0.00     0.074 A 
ATOM     40  C   UNL A   1      36.733  30.460  30.219  1.00  0.00     0.031 C 
ATOM     41  C   UNL A   1      42.923  28.704  31.892  1.00  0.00     0.029 A 
ATOM     42  C   UNL A   1      42.378  29.899  32.520  1.00  0.00     0.049 A 
ATOM     43  H   UNL A   1      41.081  31.269  31.604  1.00  0.00     0.167 HD
ATOM     44  C   UNL A   1      37.034  32.948  30.596  1.00  0.00     0.034 A 
ATOM     45  C   UNL A   1      42.548  30.378  33.781  1.00  0.00     0.034 A 
ATOM     46  C   UNL A   1      38.011  33.952  30.228  1.00  0.00     0.049 A 
ATOM     47  C   UNL A   1      41.970  31.752  33.804  1.00  0.00     0.074 A 
ATOM     48  C   UNL A   1      38.557  34.358  29.022  1.00  0.00     0.029 A 
ATOM     49  N   UNL A   1      38.871  34.432  31.195  1.00  0.00    -0.354 N 
ATOM     50  N   UNL A   1      42.440  32.747  33.099  1.00  0.00    -0.248 NA
ATOM     51  C   UNL A   1      40.583  31.901  34.223  1.00  0.00     0.031 C 
ATOM     52  C   UNL A   1      39.938  34.581  29.302  1.00  0.00     0.029 A 
ATOM     53  C   UNL A   1      40.138  34.382  30.669  1.00  0.00     0.049 A 
ATOM     54  H   UNL A   1      38.621  34.749  32.093  1.00  0.00     0.167 HD
ATOM     55  C   UNL A   1      41.322  33.423  32.631  1.00  0.00     0.074 A 
ATOM     56  C   UNL A   1      40.212  32.917  33.438  1.00  0.00     0.031 C 
ATOM     57  C   UNL A   1      41.335  34.105  31.445  1.00  0.00     0.034 A 
BRANCH  44  58
ATOM     58  C   UNL A   1      36.022  33.157  31.711  1.00  0.00     0.023 A 
ATOM     59  C   UNL A   1      34.958  34.034  31.434  1.00  0.00     0.031 A 
ATOM     60  C   UNL A   1      36.170  32.799  33.073  1.00  0.00     0.131 A 
ATOM     61  C   UNL A   1      34.213  34.621  32.469  1.00  0.00     0.055 A 
ATOM     62  C   UNL A   1      35.375  33.330  34.094  1.00  0.00     0.041 A 
ATOM     63  F   UNL A   1      37.128  31.985  33.525  1.00  0.00    -0.206 F 
ATOM     64  C   UNL A   1      34.418  34.280  33.802  1.00  0.00     0.022 A 
BRANCH  61  65
ATOM     65  S   UNL A   1      33.116  35.995  32.048  1.00  0.00     0.124 S 
ATOM     66  O   UNL A   1      31.808  35.428  32.364  1.00  0.00    -0.237 OA
ATOM     67  O   UNL A   1      33.598  37.042  32.941  1.00  0.00    -0.237 OA
ATOM     68  O   UNL A   1      33.377  36.212  30.628  1.00  0.00    -0.744 OA
ENDBRANCH  61  65
ENDBRANCH  44  58
BRANCH  45  69
ATOM     69  C   UNL A   1      42.822  29.550  34.994  1.00  0.00     0.023 A 
ATOM     70  C   UNL A   1      42.085  28.393  35.318  1.00  0.00     0.031 A 
ATOM     71  C   UNL A   1      43.977  29.797  35.778  1.00  0.00     0.131 A 
ATOM     72  C   UNL A   1      42.491  27.569  36.398  1.00  0.00     0.055 A 
ATOM     73  C   UNL A   1      44.358  28.996  36.855  1.00  0.00     0.041 A 
ATOM     74  F   UNL A   1      44.831  30.788  35.474  1.00  0.00    -0.206 F 
ATOM     75  C   UNL A   1      43.616  27.873  37.169  1.00  0.00     0.022 A 
BRANCH  72  76
ATOM     76  S   UNL A   1      41.605  26.018  36.763  1.00  0.00     0.124 S 
ATOM     77  O   UNL A   1      42.683  25.142  37.207  1.00  0.00    -0.237 OA
ATOM     78  O   UNL A   1      40.647  26.438  37.779  1.00  0.00    -0.237 OA
ATOM     79  O   UNL A   1      41.009  25.654  35.476  1.00  0.00    -0.744 OA
ENDBRANCH  72  76
ENDBRANCH  45  69
BRANCH  57  80
ATOM     80  C   UNL A   1      42.660  34.379  30.760  1.00  0.00     0.023 A 
ATOM     81  C   UNL A   1      43.149  33.668  29.640  1.00  0.00     0.031 A 
ATOM     82  C   UNL A   1      43.375  35.520  31.167  1.00  0.00     0.131 A 
ATOM     83  C   UNL A   1      44.312  34.110  28.976  1.00  0.00     0.055 A 
ATOM     84  C   UNL A   1      44.515  35.965  30.497  1.00  0.00     0.041 A 
ATOM     85  F   UNL A   1      42.947  36.259  32.205  1.00  0.00    -0.206 F 
ATOM     86  C   UNL A   1      44.990  35.258  29.399  1.00  0.00     0.022 A 
BRANCH  83  87
ATOM     87  S   UNL A   1      44.972  33.196  27.546  1.00  0.00     0.124 S 
ATOM     88  O   UNL A   1      44.722  34.090  26.422  1.00  0.00    -0.237 OA
ATOM     89  O   UNL A   1      46.373  33.002  27.912  1.00  0.00    -0.237 OA
ATOM     90  O   UNL A   1      44.176  31.967  27.530  1.00  0.00    -0.744 OA
ENDBRANCH  83  87
ENDBRANCH  57  80
ENDBRANCH  31  32
ENDBRANCH  24  26
ENDBRANCH  23  24
ENDBRANCH   1  23
TORSDOF 18
ENDMDL
MODEL 3
REMARK VINA RESULT:     -11.5      1.526      2.051
REMARK SMILES CCCc1c(C(=O)OCCOC(=O)c2ccc(-c3c4nc(c(-c5cc(S(=O)(=O)[O-])ccc5F)c5ccc([nH]5)c(-c5cc(S(=O)(=O)[O-])ccc5F)c5nc(c(-c6cc(S(=O)(=O)[O-])ccc6F)c6ccc3[nH]6)C=C5)C=C4)cc2)nnn1-c1ccccc1[N+](=O)[O-]
REMARK SMILES IDX 10 1 9 2 8 3 6 4 7 5 5 6 4 7 79 8 77 9 78 10 3 11 2 12 1 13
REMARK SMILES IDX 80 14 81 15 85 16 82 17 84 18 83 19 86 20 87 21 88 22 11 23
REMARK SMILES IDX 12 24 13 25 14 26 15 27 76 28 16 29 75 30 17 31 18 32 19 33
REMARK SMILES IDX 69 34 20 35 74 36 68 37 70 38 21 39 73 40 67 41 66 42 22 44
REMARK SMILES IDX 54 45 34 46 53 47 35 48 38 49 52 50 71 51 36 52 37 53 51 55
REMARK SMILES IDX 72 56 39 57 23 58 24 59 32 60 25 61 31 62 33 63 30 64 26 65
REMARK SMILES IDX 27 66 28 67 29 68 55 69 56 70 64 71 57 72 63 73 65 74 62 75
REMARK SMILES IDX 58 76 59 77 60 78 61 79 40 80 41 81 49 82 42 83 48 84 50 85
REMARK SMILES IDX 47 86 43 87 44 88 45 89 46 90
REMARK H PARENT 70 43 38 54
REMARK Flexibility Score: inf
ROOT
ATOM      1  C   UNL A   1      33.552  30.932  27.467  1.00  0.00     0.275 C 
ENDROOT
BRANCH   1   2
ATOM      2  C   UNL A   1      32.767  29.887  26.683  1.00  0.00     0.275 C 
BRANCH   2   3
ATOM      3  O   UNL A   1      31.857  30.501  25.755  1.00  0.00    -0.457 OA
BRANCH   3   4
ATOM      4  C   UNL A   1      31.353  29.691  24.773  1.00  0.00     0.360 C 
ATOM      5  O   UNL A   1      30.291  29.918  24.193  1.00  0.00    -0.244 OA
BRANCH   4   6
ATOM      6  C   UNL A   1      32.221  28.566  24.432  1.00  0.00     0.194 A 
ATOM      7  C   UNL A   1      32.178  27.225  24.837  1.00  0.00     0.080 A 
ATOM      8  N   UNL A   1      33.224  26.666  24.115  1.00  0.00    -0.210 N 
ATOM      9  N   UNL A   1      33.352  28.771  23.677  1.00  0.00    -0.122 NA
ATOM     10  N   UNL A   1      34.010  27.630  23.594  1.00  0.00    -0.061 NA
BRANCH   7  11
ATOM     11  C   UNL A   1      31.340  26.603  25.925  1.00  0.00     0.059 C 
BRANCH  11  12
ATOM     12  C   UNL A   1      30.105  25.780  25.585  1.00  0.00     0.003 C 
ATOM     13  C   UNL A   1      29.330  26.269  24.372  1.00  0.00     0.004 C 
ENDBRANCH  11  12
ENDBRANCH   7  11
BRANCH   8  14
ATOM     14  C   UNL A   1      33.485  25.338  23.739  1.00  0.00     0.144 A 
ATOM     15  C   UNL A   1      34.223  24.540  24.627  1.00  0.00     0.036 A 
ATOM     16  C   UNL A   1      33.069  24.806  22.511  1.00  0.00     0.294 A 
ATOM     17  C   UNL A   1      34.428  23.189  24.338  1.00  0.00     0.003 A 
ATOM     18  C   UNL A   1      33.275  23.447  22.229  1.00  0.00     0.088 A 
ATOM     19  C   UNL A   1      33.936  22.639  23.154  1.00  0.00     0.007 A 
BRANCH  16  20
ATOM     20  N   UNL A   1      32.511  25.636  21.440  1.00  0.00     0.065 N 
ATOM     21  O   UNL A   1      33.245  25.874  20.469  1.00  0.00    -0.258 OA
ATOM     22  O   UNL A   1      31.364  26.076  21.575  1.00  0.00    -0.258 OA
ENDBRANCH  16  20
ENDBRANCH   8  14
ENDBRANCH   4   6
ENDBRANCH   3   4
ENDBRANCH   2   3
ENDBRANCH   1   2
BRANCH   1  23
ATOM     23  O   UNL A   1      34.869  30.472  27.763  1.00  0.00    -0.458 OA
BRANCH  23  24
ATOM     24  C   UNL A   1      35.745  31.448  28.102  1.00  0.00     0.338 C 
ATOM     25  O   UNL A   1      35.796  32.574  27.635  1.00  0.00    -0.246 OA
BRANCH  24  26
ATOM     26  C   UNL A   1      36.782  30.888  28.969  1.00  0.00     0.060 A 
ATOM     27  C   UNL A   1      37.869  31.712  29.286  1.00  0.00     0.016 A 
ATOM     28  C   UNL A   1      36.821  29.499  29.150  1.00  0.00     0.016 A 
ATOM     29  C   UNL A   1      39.071  31.119  29.609  1.00  0.00     0.010 A 
ATOM     30  C   UNL A   1      38.026  28.912  29.429  1.00  0.00     0.010 A 
ATOM     31  C   UNL A   1      39.149  29.727  29.587  1.00  0.00    -0.014 A 
BRANCH  31  32
ATOM     32  C   UNL A   1      40.437  29.093  29.766  1.00  0.00     0.031 A 
ATOM     33  C   UNL A   1      40.804  28.860  31.181  1.00  0.00     0.074 A 
ATOM     34  C   UNL A   1      41.092  28.564  28.715  1.00  0.00     0.049 A 
ATOM     35  N   UNL A   1      41.816  29.318  31.837  1.00  0.00    -0.248 NA
ATOM     36  C   UNL A   1      39.819  28.154  32.021  1.00  0.00     0.031 C 
ATOM     37  C   UNL A   1      40.604  28.445  27.337  1.00  0.00     0.029 A 
ATOM     38  N   UNL A   1      42.252  27.861  28.695  1.00  0.00    -0.354 N 
ATOM     39  C   UNL A   1      41.709  28.768  33.111  1.00  0.00     0.074 A 
ATOM     40  C   UNL A   1      40.360  28.299  33.228  1.00  0.00     0.031 C 
ATOM     41  C   UNL A   1      41.329  27.500  26.699  1.00  0.00     0.029 A 
ATOM     42  C   UNL A   1      42.377  27.027  27.590  1.00  0.00     0.049 A 
ATOM     43  H   UNL A   1      42.940  27.934  29.396  1.00  0.00     0.167 HD
ATOM     44  C   UNL A   1      42.809  28.478  33.856  1.00  0.00     0.034 A 
ATOM     45  C   UNL A   1      43.185  25.937  27.488  1.00  0.00     0.034 A 
ATOM     46  C   UNL A   1      43.963  29.210  33.376  1.00  0.00     0.049 A 
ATOM     47  C   UNL A   1      44.234  26.075  28.538  1.00  0.00     0.074 A 
ATOM     48  C   UNL A   1      44.217  30.552  33.149  1.00  0.00     0.029 A 
ATOM     49  N   UNL A   1      44.935  28.532  32.669  1.00  0.00    -0.354 N 
ATOM     50  N   UNL A   1      45.121  27.035  28.555  1.00  0.00    -0.248 NA
ATOM     51  C   UNL A   1      43.994  25.442  29.828  1.00  0.00     0.031 C 
ATOM     52  C   UNL A   1      44.966  30.583  31.936  1.00  0.00     0.029 A 
ATOM     53  C   UNL A   1      45.197  29.265  31.538  1.00  0.00     0.049 A 
ATOM     54  H   UNL A   1      45.361  27.683  32.928  1.00  0.00     0.167 HD
ATOM     55  C   UNL A   1      45.228  27.409  29.887  1.00  0.00     0.074 A 
ATOM     56  C   UNL A   1      44.589  26.327  30.634  1.00  0.00     0.031 C 
ATOM     57  C   UNL A   1      45.553  28.687  30.253  1.00  0.00     0.034 A 
BRANCH  44  58
ATOM     58  C   UNL A   1      42.927  27.257  34.754  1.00  0.00     0.023 A 
ATOM     59  C   UNL A   1      43.758  26.220  34.294  1.00  0.00     0.031 A 
ATOM     60  C   UNL A   1      42.093  26.920  35.848  1.00  0.00     0.131 A 
ATOM     61  C   UNL A   1      43.635  24.914  34.796  1.00  0.00     0.055 A 
ATOM     62  C   UNL A   1      42.029  25.635  36.395  1.00  0.00     0.041 A 
ATOM     63  F   UNL A   1      41.232  27.772  36.412  1.00  0.00    -0.206 F 
ATOM     64  C   UNL A   1      42.770  24.611  35.841  1.00  0.00     0.022 A 
BRANCH  61  65
ATOM     65  S   UNL A   1      44.479  23.584  33.908  1.00  0.00     0.124 S 
ATOM     66  O   UNL A   1      43.450  23.172  32.958  1.00  0.00    -0.237 OA
ATOM     67  O   UNL A   1      45.629  24.285  33.350  1.00  0.00    -0.237 OA
ATOM     68  O   UNL A   1      44.784  22.617  34.959  1.00  0.00    -0.744 OA
ENDBRANCH  61  65
ENDBRANCH  44  58
BRANCH  45  69
ATOM     69  C   UNL A   1      42.834  24.659  26.799  1.00  0.00     0.023 A 
ATOM     70  C   UNL A   1      43.737  23.956  25.976  1.00  0.00     0.031 A 
ATOM     71  C   UNL A   1      41.619  23.997  27.102  1.00  0.00     0.131 A 
ATOM     72  C   UNL A   1      43.396  22.676  25.473  1.00  0.00     0.055 A 
ATOM     73  C   UNL A   1      41.277  22.748  26.584  1.00  0.00     0.041 A 
ATOM     74  F   UNL A   1      40.745  24.507  27.985  1.00  0.00    -0.206 F 
ATOM     75  C   UNL A   1      42.167  22.077  25.767  1.00  0.00     0.022 A 
BRANCH  72  76
ATOM     76  S   UNL A   1      44.594  21.716  24.491  1.00  0.00     0.124 S 
ATOM     77  O   UNL A   1      44.126  20.348  24.680  1.00  0.00    -0.237 OA
ATOM     78  O   UNL A   1      44.430  22.281  23.158  1.00  0.00    -0.237 OA
ATOM     79  O   UNL A   1      45.878  22.018  25.128  1.00  0.00    -0.744 OA
ENDBRANCH  72  76
ENDBRANCH  45  69
BRANCH  57  80
ATOM     80  C   UNL A   1      46.088  29.647  29.208  1.00  0.00     0.023 A 
ATOM     81  C   UNL A   1      45.286  30.494  28.408  1.00  0.00     0.031 A 
ATOM     82  C   UNL A   1      47.482  29.822  29.143  1.00  0.00     0.131 A 
ATOM     83  C   UNL A   1      45.890  31.467  27.586  1.00  0.00     0.055 A 
ATOM     84  C   UNL A   1      48.075  30.799  28.343  1.00  0.00     0.041 A 
ATOM     85  F   UNL A   1      48.300  29.072  29.901  1.00  0.00    -0.206 F 
ATOM     86  C   UNL A   1      47.280  31.624  27.557  1.00  0.00     0.022 A 
BRANCH  83  87
ATOM     87  S   UNL A   1      44.877  32.552  26.530  1.00  0.00     0.124 S 
ATOM     88  O   UNL A   1      44.233  33.452  27.480  1.00  0.00    -0.237 OA
ATOM     89  O   UNL A   1      45.873  33.156  25.649  1.00  0.00    -0.237 OA
ATOM     90  O   UNL A   1      43.965  31.622  25.862  1.00  0.00    -0.744 OA
ENDBRANCH  83  87
ENDBRANCH  57  80
ENDBRANCH  31  32
ENDBRANCH  24  26
ENDBRANCH  23  24
ENDBRANCH   1  23
TORSDOF 18
ENDMDL
