MODEL 1
REMARK VINA RESULT:     -14.9      0.000      0.000
REMARK SMILES O=C(OCCOC(=O)c1cnccc1C(=O)Nc1ccc(Cl)c(Cl)c1)c1ccc(-c2c3nc(c(-c4cc(S(=O)(=O)[O-])ccc4F)c4ccc([nH]4)c(-c4cc(S(=O)(=O)[O-])ccc4F)c4nc(c(-c5cc(S(=O)(=O)[O-])ccc5F)c5ccc2[nH]5)C=C4)C=C3)cc1
REMARK SMILES IDX 4 1 3 2 2 3 1 4 26 5 27 6 88 7 28 8 87 9 29 10 30 11 31 12
REMARK SMILES IDX 81 13 32 14 86 15 80 16 82 17 33 18 85 19 79 20 78 21 34 23
REMARK SMILES IDX 66 24 46 25 65 26 47 27 50 28 64 29 83 30 48 31 49 32 63 34
REMARK SMILES IDX 84 35 51 36 35 37 36 38 44 39 37 40 43 41 45 42 42 43 38 44
REMARK SMILES IDX 39 45 40 46 41 47 67 48 68 49 76 50 69 51 75 52 77 53 74 54
REMARK SMILES IDX 70 55 71 56 72 57 73 58 52 59 53 60 61 61 54 62 60 63 62 64
REMARK SMILES IDX 59 65 55 66 56 67 57 68 58 69 5 70 6 71 7 72 8 73 9 74 10 75
REMARK SMILES IDX 14 76 11 77 13 78 12 79 15 80 16 81 17 82 18 84 19 85 25 86
REMARK SMILES IDX 20 87 23 88 21 89 24 90 22 91
REMARK H PARENT 82 22 50 33 17 83
REMARK Flexibility Score: inf
ROOT
ATOM      1  C   UNL A   1      31.053  31.905  26.276  1.00  0.00     0.275 C 
ENDROOT
BRANCH   1   2
ATOM      2  O   UNL A   1      31.839  33.095  27.321  1.00  0.00    -0.458 OA
BRANCH   2   3
ATOM      3  C   UNL A   1      32.923  33.623  28.133  1.00  0.00     0.338 C 
ATOM      4  O   UNL A   1      32.628  34.603  28.831  1.00  0.00    -0.246 OA
BRANCH   3   5
ATOM      5  C   UNL A   1      34.500  33.244  28.270  1.00  0.00     0.060 A 
ATOM      6  C   UNL A   1      34.957  31.936  28.407  1.00  0.00     0.016 A 
ATOM      7  C   UNL A   1      35.609  34.099  28.258  1.00  0.00     0.016 A 
ATOM      8  C   UNL A   1      36.093  31.445  29.005  1.00  0.00     0.010 A 
ATOM      9  C   UNL A   1      36.962  33.581  28.480  1.00  0.00     0.010 A 
ATOM     10  C   UNL A   1      37.202  32.227  28.864  1.00  0.00    -0.014 A 
BRANCH  10  11
ATOM     11  C   UNL A   1      38.404  31.578  29.468  1.00  0.00     0.031 A 
ATOM     12  C   UNL A   1      38.567  31.847  30.933  1.00  0.00     0.074 A 
ATOM     13  C   UNL A   1      39.012  30.481  28.940  1.00  0.00     0.049 A 
ATOM     14  N   UNL A   1      39.358  31.286  31.803  1.00  0.00    -0.248 NA
ATOM     15  C   UNL A   1      37.618  32.816  31.504  1.00  0.00     0.031 C 
ATOM     16  C   UNL A   1      38.637  29.847  27.677  1.00  0.00     0.029 A 
ATOM     17  N   UNL A   1      40.004  29.645  29.406  1.00  0.00    -0.354 N 
ATOM     18  C   UNL A   1      38.996  31.839  33.024  1.00  0.00     0.074 A 
ATOM     19  C   UNL A   1      37.929  32.777  32.782  1.00  0.00     0.031 C 
ATOM     20  C   UNL A   1      39.425  28.785  27.428  1.00  0.00     0.029 A 
ATOM     21  C   UNL A   1      40.365  28.634  28.528  1.00  0.00     0.049 A 
ATOM     22  H   UNL A   1      40.421  29.756  30.291  1.00  0.00     0.167 HD
ATOM     23  C   UNL A   1      39.516  31.585  34.246  1.00  0.00     0.034 A 
ATOM     24  C   UNL A   1      41.337  27.695  28.607  1.00  0.00     0.034 A 
ATOM     25  C   UNL A   1      40.607  30.677  34.448  1.00  0.00     0.049 A 
ATOM     26  C   UNL A   1      42.108  27.629  29.903  1.00  0.00     0.074 A 
ATOM     27  C   UNL A   1      41.348  30.461  35.592  1.00  0.00     0.029 A 
ATOM     28  N   UNL A   1      41.129  29.842  33.464  1.00  0.00    -0.354 N 
ATOM     29  N   UNL A   1      41.875  28.280  31.022  1.00  0.00    -0.248 NA
ATOM     30  C   UNL A   1      43.244  26.703  29.969  1.00  0.00     0.031 C 
ATOM     31  C   UNL A   1      42.373  29.564  35.275  1.00  0.00     0.029 A 
ATOM     32  C   UNL A   1      42.213  29.142  33.963  1.00  0.00     0.049 A 
ATOM     33  H   UNL A   1      40.779  29.762  32.547  1.00  0.00     0.167 HD
ATOM     34  C   UNL A   1      42.809  27.810  31.937  1.00  0.00     0.074 A 
ATOM     35  C   UNL A   1      43.600  26.813  31.241  1.00  0.00     0.031 C 
ATOM     36  C   UNL A   1      42.988  28.161  33.237  1.00  0.00     0.034 A 
BRANCH  23  37
ATOM     37  C   UNL A   1      39.008  32.465  35.358  1.00  0.00     0.023 A 
ATOM     38  C   UNL A   1      39.428  33.800  35.509  1.00  0.00     0.031 A 
ATOM     39  C   UNL A   1      38.261  31.881  36.394  1.00  0.00     0.131 A 
ATOM     40  C   UNL A   1      39.196  34.462  36.725  1.00  0.00     0.055 A 
ATOM     41  C   UNL A   1      37.949  32.582  37.559  1.00  0.00     0.041 A 
ATOM     42  F   UNL A   1      37.883  30.595  36.324  1.00  0.00    -0.206 F 
ATOM     43  C   UNL A   1      38.436  33.873  37.739  1.00  0.00     0.022 A 
BRANCH  40  44
ATOM     44  S   UNL A   1      40.087  36.011  37.056  1.00  0.00     0.124 S 
ATOM     45  O   UNL A   1      40.006  36.678  35.759  1.00  0.00    -0.237 OA
ATOM     46  O   UNL A   1      39.301  36.605  38.131  1.00  0.00    -0.237 OA
ATOM     47  O   UNL A   1      41.424  35.562  37.437  1.00  0.00    -0.744 OA
ENDBRANCH  40  44
ENDBRANCH  23  37
BRANCH  24  48
ATOM     48  C   UNL A   1      41.702  26.800  27.450  1.00  0.00     0.023 A 
ATOM     49  C   UNL A   1      41.367  25.432  27.412  1.00  0.00     0.031 A 
ATOM     50  C   UNL A   1      42.518  27.286  26.408  1.00  0.00     0.131 A 
ATOM     51  C   UNL A   1      41.878  24.599  26.393  1.00  0.00     0.055 A 
ATOM     52  C   UNL A   1      42.987  26.466  25.376  1.00  0.00     0.041 A 
ATOM     53  F   UNL A   1      42.898  28.574  26.388  1.00  0.00    -0.206 F 
ATOM     54  C   UNL A   1      42.679  25.111  25.371  1.00  0.00     0.022 A 
BRANCH  51  55
ATOM     55  S   UNL A   1      41.569  22.807  26.469  1.00  0.00     0.124 S 
ATOM     56  O   UNL A   1      40.114  22.752  26.410  1.00  0.00    -0.237 OA
ATOM     57  O   UNL A   1      42.281  22.328  25.289  1.00  0.00    -0.237 OA
ATOM     58  O   UNL A   1      42.155  22.412  27.749  1.00  0.00    -0.744 OA
ENDBRANCH  51  55
ENDBRANCH  24  48
BRANCH  36  59
ATOM     59  C   UNL A   1      44.055  27.420  33.998  1.00  0.00     0.023 A 
ATOM     60  C   UNL A   1      43.799  26.183  34.611  1.00  0.00     0.031 A 
ATOM     61  C   UNL A   1      45.347  27.962  34.105  1.00  0.00     0.131 A 
ATOM     62  C   UNL A   1      44.804  25.561  35.362  1.00  0.00     0.055 A 
ATOM     63  C   UNL A   1      46.365  27.299  34.786  1.00  0.00     0.041 A 
ATOM     64  F   UNL A   1      45.642  29.145  33.539  1.00  0.00    -0.206 F 
ATOM     65  C   UNL A   1      46.093  26.098  35.434  1.00  0.00     0.022 A 
BRANCH  62  66
ATOM     66  S   UNL A   1      44.370  24.099  36.342  1.00  0.00     0.124 S 
ATOM     67  O   UNL A   1      44.012  24.693  37.626  1.00  0.00    -0.237 OA
ATOM     68  O   UNL A   1      43.267  23.527  35.576  1.00  0.00    -0.237 OA
ATOM     69  O   UNL A   1      45.600  23.310  36.343  1.00  0.00    -0.744 OA
ENDBRANCH  62  66
ENDBRANCH  36  59
ENDBRANCH  10  11
ENDBRANCH   3   5
ENDBRANCH   2   3
ENDBRANCH   1   2
BRANCH   1  70
ATOM     70  C   UNL A   1      31.784  30.178  25.921  1.00  0.00     0.275 C 
BRANCH  70  71
ATOM     71  O   UNL A   1      31.006  29.127  24.362  1.00  0.00    -0.458 OA
BRANCH  71  72
ATOM     72  C   UNL A   1      30.908  28.563  23.072  1.00  0.00     0.340 C 
ATOM     73  O   UNL A   1      30.373  29.044  22.075  1.00  0.00    -0.246 OA
BRANCH  72  74
ATOM     74  C   UNL A   1      31.706  27.377  22.879  1.00  0.00     0.091 A 
ATOM     75  C   UNL A   1      32.838  27.589  22.070  1.00  0.00     0.127 A 
ATOM     76  C   UNL A   1      31.298  26.093  23.187  1.00  0.00     0.057 A 
ATOM     77  N   UNL A   1      33.582  26.611  21.519  1.00  0.00    -0.264 NA
ATOM     78  C   UNL A   1      32.031  25.070  22.529  1.00  0.00     0.035 A 
ATOM     79  C   UNL A   1      33.145  25.362  21.737  1.00  0.00     0.112 A 
BRANCH  76  80
ATOM     80  C   UNL A   1      30.171  25.645  24.094  1.00  0.00     0.256 C 
ATOM     81  O   UNL A   1      29.030  25.931  23.710  1.00  0.00    -0.269 OA
ATOM     82  N   UNL A   1      30.231  24.940  25.306  1.00  0.00    -0.322 N 
ATOM     83  H   UNL A   1      29.431  25.011  25.875  1.00  0.00     0.170 HD
BRANCH  82  84
ATOM     84  C   UNL A   1      31.281  24.141  25.831  1.00  0.00     0.043 A 
ATOM     85  C   UNL A   1      32.787  25.001  26.226  1.00  0.00     0.028 A 
ATOM     86  C   UNL A   1      31.294  22.615  25.033  1.00  0.00     0.048 A 
ATOM     87  C   UNL A   1      34.391  24.414  25.656  1.00  0.00     0.024 A 
ATOM     88  C   UNL A   1      32.836  21.936  24.458  1.00  0.00     0.061 A 
ATOM     89  C   UNL A   1      34.446  22.902  24.655  1.00  0.00     0.059 A 
ATOM     90  Cl  UNL A   1      32.302  20.076  25.162  1.00  0.00    -0.083 Cl
ATOM     91  Cl  UNL A   1      35.873  22.855  23.652  1.00  0.00    -0.083 Cl
ENDBRANCH  82  84
ENDBRANCH  76  80
ENDBRANCH  72  74
ENDBRANCH  71  72
ENDBRANCH  70  71
ENDBRANCH   1  70
TORSDOF 16
ENDMDL
MODEL 2
REMARK VINA RESULT:     -14.6      1.272      2.332
REMARK SMILES O=C(OCCOC(=O)c1cnccc1C(=O)Nc1ccc(Cl)c(Cl)c1)c1ccc(-c2c3nc(c(-c4cc(S(=O)(=O)[O-])ccc4F)c4ccc([nH]4)c(-c4cc(S(=O)(=O)[O-])ccc4F)c4nc(c(-c5cc(S(=O)(=O)[O-])ccc5F)c5ccc2[nH]5)C=C4)C=C3)cc1
REMARK SMILES IDX 4 1 3 2 2 3 1 4 26 5 27 6 88 7 28 8 87 9 29 10 30 11 31 12
REMARK SMILES IDX 81 13 32 14 86 15 80 16 82 17 33 18 85 19 79 20 78 21 34 23
REMARK SMILES IDX 66 24 46 25 65 26 47 27 50 28 64 29 83 30 48 31 49 32 63 34
REMARK SMILES IDX 84 35 51 36 35 37 36 38 44 39 37 40 43 41 45 42 42 43 38 44
REMARK SMILES IDX 39 45 40 46 41 47 67 48 68 49 76 50 69 51 75 52 77 53 74 54
REMARK SMILES IDX 70 55 71 56 72 57 73 58 52 59 53 60 61 61 54 62 60 63 62 64
REMARK SMILES IDX 59 65 55 66 56 67 57 68 58 69 5 70 6 71 7 72 8 73 9 74 10 75
REMARK SMILES IDX 14 76 11 77 13 78 12 79 15 80 16 81 17 82 18 84 19 85 25 86
REMARK SMILES IDX 20 87 23 88 21 89 24 90 22 91
REMARK H PARENT 82 22 50 33 17 83
REMARK Flexibility Score: inf
ROOT
ATOM      1  C   UNL A   1      31.472  30.507  26.475  1.00  0.00     0.275 C 
ENDROOT
BRANCH   1   2
ATOM      2  O   UNL A   1      32.113  32.004  27.166  1.00  0.00    -0.458 OA
BRANCH   2   3
ATOM      3  C   UNL A   1      33.134  32.847  27.766  1.00  0.00     0.338 C 
ATOM      4  O   UNL A   1      32.758  33.983  28.084  1.00  0.00    -0.246 OA
BRANCH   3   5
ATOM      5  C   UNL A   1      34.724  32.641  28.049  1.00  0.00     0.060 A 
ATOM      6  C   UNL A   1      35.340  31.393  28.041  1.00  0.00     0.016 A 
ATOM      7  C   UNL A   1      35.697  33.612  28.316  1.00  0.00     0.016 A 
ATOM      8  C   UNL A   1      36.461  30.946  28.700  1.00  0.00     0.010 A 
ATOM      9  C   UNL A   1      37.076  33.229  28.631  1.00  0.00     0.010 A 
ATOM     10  C   UNL A   1      37.458  31.867  28.829  1.00  0.00    -0.014 A 
BRANCH  10  11
ATOM     11  C   UNL A   1      38.665  31.273  29.479  1.00  0.00     0.031 A 
ATOM     12  C   UNL A   1      38.770  31.562  30.945  1.00  0.00     0.074 A 
ATOM     13  C   UNL A   1      39.333  30.197  28.983  1.00  0.00     0.049 A 
ATOM     14  N   UNL A   1      39.553  31.042  31.846  1.00  0.00    -0.248 NA
ATOM     15  C   UNL A   1      37.765  32.498  31.475  1.00  0.00     0.031 C 
ATOM     16  C   UNL A   1      39.026  29.536  27.715  1.00  0.00     0.029 A 
ATOM     17  N   UNL A   1      40.342  29.405  29.490  1.00  0.00    -0.354 N 
ATOM     18  C   UNL A   1      39.131  31.592  33.049  1.00  0.00     0.074 A 
ATOM     19  C   UNL A   1      38.036  32.484  32.763  1.00  0.00     0.031 C 
ATOM     20  C   UNL A   1      39.863  28.504  27.503  1.00  0.00     0.029 A 
ATOM     21  C   UNL A   1      40.772  28.401  28.635  1.00  0.00     0.049 A 
ATOM     22  H   UNL A   1      40.726  29.542  30.386  1.00  0.00     0.167 HD
ATOM     23  C   UNL A   1      39.620  31.371  34.289  1.00  0.00     0.034 A 
ATOM     24  C   UNL A   1      41.777  27.503  28.754  1.00  0.00     0.034 A 
ATOM     25  C   UNL A   1      40.739  30.509  34.537  1.00  0.00     0.049 A 
ATOM     26  C   UNL A   1      42.507  27.480  30.076  1.00  0.00     0.074 A 
ATOM     27  C   UNL A   1      41.451  30.334  35.706  1.00  0.00     0.029 A 
ATOM     28  N   UNL A   1      41.326  29.686  33.579  1.00  0.00    -0.354 N 
ATOM     29  N   UNL A   1      42.213  28.132  31.179  1.00  0.00    -0.248 NA
ATOM     30  C   UNL A   1      43.677  26.601  30.188  1.00  0.00     0.031 C 
ATOM     31  C   UNL A   1      42.521  29.476  35.432  1.00  0.00     0.029 A 
ATOM     32  C   UNL A   1      42.420  29.035  34.120  1.00  0.00     0.049 A 
ATOM     33  H   UNL A   1      41.009  29.583  32.652  1.00  0.00     0.167 HD
ATOM     34  C   UNL A   1      43.134  27.709  32.129  1.00  0.00     0.074 A 
ATOM     35  C   UNL A   1      43.986  26.738  31.469  1.00  0.00     0.031 C 
ATOM     36  C   UNL A   1      43.257  28.079  33.430  1.00  0.00     0.034 A 
BRANCH  23  37
ATOM     37  C   UNL A   1      39.041  32.240  35.375  1.00  0.00     0.023 A 
ATOM     38  C   UNL A   1      39.426  33.584  35.544  1.00  0.00     0.031 A 
ATOM     39  C   UNL A   1      38.258  31.641  36.376  1.00  0.00     0.131 A 
ATOM     40  C   UNL A   1      39.122  34.241  36.747  1.00  0.00     0.055 A 
ATOM     41  C   UNL A   1      37.877  32.336  37.523  1.00  0.00     0.041 A 
ATOM     42  F   UNL A   1      37.912  30.347  36.289  1.00  0.00    -0.206 F 
ATOM     43  C   UNL A   1      38.328  33.636  37.724  1.00  0.00     0.022 A 
BRANCH  40  44
ATOM     44  S   UNL A   1      39.964  35.809  37.118  1.00  0.00     0.124 S 
ATOM     45  O   UNL A   1      39.253  36.246  38.317  1.00  0.00    -0.237 OA
ATOM     46  O   UNL A   1      41.346  35.387  37.313  1.00  0.00    -0.237 OA
ATOM     47  O   UNL A   1      39.722  36.618  35.926  1.00  0.00    -0.744 OA
ENDBRANCH  40  44
ENDBRANCH  23  37
BRANCH  24  48
ATOM     48  C   UNL A   1      42.214  26.612  27.620  1.00  0.00     0.023 A 
ATOM     49  C   UNL A   1      41.759  25.287  27.474  1.00  0.00     0.031 A 
ATOM     50  C   UNL A   1      43.213  27.045  26.724  1.00  0.00     0.131 A 
ATOM     51  C   UNL A   1      42.327  24.439  26.499  1.00  0.00     0.055 A 
ATOM     52  C   UNL A   1      43.743  26.215  25.730  1.00  0.00     0.041 A 
ATOM     53  F   UNL A   1      43.714  28.288  26.815  1.00  0.00    -0.206 F 
ATOM     54  C   UNL A   1      43.311  24.899  25.621  1.00  0.00     0.022 A 
BRANCH  51  55
ATOM     55  S   UNL A   1      41.840  22.687  26.450  1.00  0.00     0.124 S 
ATOM     56  O   UNL A   1      42.451  22.240  25.204  1.00  0.00    -0.237 OA
ATOM     57  O   UNL A   1      42.436  22.174  27.680  1.00  0.00    -0.237 OA
ATOM     58  O   UNL A   1      40.378  22.737  26.445  1.00  0.00    -0.744 OA
ENDBRANCH  51  55
ENDBRANCH  24  48
BRANCH  36  59
ATOM     59  C   UNL A   1      44.327  27.388  34.233  1.00  0.00     0.023 A 
ATOM     60  C   UNL A   1      44.137  26.103  34.764  1.00  0.00     0.031 A 
ATOM     61  C   UNL A   1      45.556  28.030  34.464  1.00  0.00     0.131 A 
ATOM     62  C   UNL A   1      45.136  25.526  35.557  1.00  0.00     0.055 A 
ATOM     63  C   UNL A   1      46.577  27.418  35.188  1.00  0.00     0.041 A 
ATOM     64  F   UNL A   1      45.786  29.263  33.981  1.00  0.00    -0.206 F 
ATOM     65  C   UNL A   1      46.364  26.164  35.753  1.00  0.00     0.022 A 
BRANCH  62  66
ATOM     66  S   UNL A   1      44.762  23.981  36.428  1.00  0.00     0.124 S 
ATOM     67  O   UNL A   1      44.576  24.446  37.799  1.00  0.00    -0.237 OA
ATOM     68  O   UNL A   1      43.558  23.520  35.744  1.00  0.00    -0.237 OA
ATOM     69  O   UNL A   1      45.954  23.166  36.205  1.00  0.00    -0.744 OA
ENDBRANCH  62  66
ENDBRANCH  36  59
ENDBRANCH  10  11
ENDBRANCH   3   5
ENDBRANCH   2   3
ENDBRANCH   1   2
BRANCH   1  70
ATOM     70  C   UNL A   1      31.793  28.785  27.231  1.00  0.00     0.275 C 
BRANCH  70  71
ATOM     71  O   UNL A   1      30.937  27.180  26.318  1.00  0.00    -0.458 OA
BRANCH  71  72
ATOM     72  C   UNL A   1      30.759  26.135  25.387  1.00  0.00     0.340 C 
ATOM     73  O   UNL A   1      30.378  26.216  24.221  1.00  0.00    -0.246 OA
BRANCH  72  74
ATOM     74  C   UNL A   1      31.278  24.859  25.818  1.00  0.00     0.091 A 
ATOM     75  C   UNL A   1      30.341  24.083  26.525  1.00  0.00     0.127 A 
ATOM     76  C   UNL A   1      32.616  24.511  25.817  1.00  0.00     0.057 A 
ATOM     77  N   UNL A   1      30.644  22.996  27.260  1.00  0.00    -0.264 NA
ATOM     78  C   UNL A   1      32.938  23.419  26.665  1.00  0.00     0.035 A 
ATOM     79  C   UNL A   1      31.949  22.698  27.339  1.00  0.00     0.112 A 
BRANCH  76  80
ATOM     80  C   UNL A   1      33.764  25.151  25.066  1.00  0.00     0.256 C 
ATOM     81  O   UNL A   1      34.110  26.269  25.469  1.00  0.00    -0.269 OA
ATOM     82  N   UNL A   1      34.505  24.655  23.982  1.00  0.00    -0.322 N 
ATOM     83  H   UNL A   1      34.994  25.331  23.461  1.00  0.00     0.170 HD
BRANCH  82  84
ATOM     84  C   UNL A   1      34.651  23.317  23.529  1.00  0.00     0.043 A 
ATOM     85  C   UNL A   1      33.173  22.541  22.914  1.00  0.00     0.028 A 
ATOM     86  C   UNL A   1      35.751  22.479  24.556  1.00  0.00     0.048 A 
ATOM     87  C   UNL A   1      32.655  20.910  23.474  1.00  0.00     0.024 A 
ATOM     88  C   UNL A   1      35.342  20.848  25.139  1.00  0.00     0.061 A 
ATOM     89  C   UNL A   1      33.687  20.054  24.696  1.00  0.00     0.059 A 
ATOM     90  Cl  UNL A   1      37.266  20.213  24.771  1.00  0.00    -0.083 Cl
ATOM     91  Cl  UNL A   1      32.760  18.891  25.607  1.00  0.00    -0.083 Cl
ENDBRANCH  82  84
ENDBRANCH  76  80
ENDBRANCH  72  74
ENDBRANCH  71  72
ENDBRANCH  70  71
ENDBRANCH   1  70
TORSDOF 16
ENDMDL
MODEL 3
REMARK VINA RESULT:     -14.5      4.884     10.332
REMARK SMILES O=C(OCCOC(=O)c1cnccc1C(=O)Nc1ccc(Cl)c(Cl)c1)c1ccc(-c2c3nc(c(-c4cc(S(=O)(=O)[O-])ccc4F)c4ccc([nH]4)c(-c4cc(S(=O)(=O)[O-])ccc4F)c4nc(c(-c5cc(S(=O)(=O)[O-])ccc5F)c5ccc2[nH]5)C=C4)C=C3)cc1
REMARK SMILES IDX 4 1 3 2 2 3 1 4 26 5 27 6 88 7 28 8 87 9 29 10 30 11 31 12
REMARK SMILES IDX 81 13 32 14 86 15 80 16 82 17 33 18 85 19 79 20 78 21 34 23
REMARK SMILES IDX 66 24 46 25 65 26 47 27 50 28 64 29 83 30 48 31 49 32 63 34
REMARK SMILES IDX 84 35 51 36 35 37 36 38 44 39 37 40 43 41 45 42 42 43 38 44
REMARK SMILES IDX 39 45 40 46 41 47 67 48 68 49 76 50 69 51 75 52 77 53 74 54
REMARK SMILES IDX 70 55 71 56 72 57 73 58 52 59 53 60 61 61 54 62 60 63 62 64
REMARK SMILES IDX 59 65 55 66 56 67 57 68 58 69 5 70 6 71 7 72 8 73 9 74 10 75
REMARK SMILES IDX 14 76 11 77 13 78 12 79 15 80 16 81 17 82 18 84 19 85 25 86
REMARK SMILES IDX 20 87 23 88 21 89 24 90 22 91
REMARK H PARENT 82 22 50 33 17 83
REMARK Flexibility Score: inf
ROOT
ATOM      1  C   UNL A   1      36.610  20.495  24.830  1.00  0.00     0.275 C 
ENDROOT
BRANCH   1   2
ATOM      2  O   UNL A   1      38.308  20.164  25.193  1.00  0.00    -0.458 OA
BRANCH   2   3
ATOM      3  C   UNL A   1      39.614  20.451  25.766  1.00  0.00     0.338 C 
ATOM      4  O   UNL A   1      40.500  19.632  25.489  1.00  0.00    -0.246 OA
BRANCH   3   5
ATOM      5  C   UNL A   1      40.156  21.603  26.779  1.00  0.00     0.060 A 
ATOM      6  C   UNL A   1      39.629  22.891  26.816  1.00  0.00     0.016 A 
ATOM      7  C   UNL A   1      41.168  21.513  27.742  1.00  0.00     0.016 A 
ATOM      8  C   UNL A   1      40.208  24.083  27.184  1.00  0.00     0.010 A 
ATOM      9  C   UNL A   1      41.581  22.690  28.513  1.00  0.00     0.010 A 
ATOM     10  C   UNL A   1      41.090  23.998  28.220  1.00  0.00    -0.014 A 
BRANCH  10  11
ATOM     11  C   UNL A   1      41.603  25.347  28.607  1.00  0.00     0.031 A 
ATOM     12  C   UNL A   1      42.930  25.688  28.002  1.00  0.00     0.074 A 
ATOM     13  C   UNL A   1      40.803  26.364  29.026  1.00  0.00     0.049 A 
ATOM     14  N   UNL A   1      43.559  26.828  27.952  1.00  0.00    -0.248 NA
ATOM     15  C   UNL A   1      43.581  24.598  27.257  1.00  0.00     0.031 C 
ATOM     16  C   UNL A   1      39.360  26.256  29.242  1.00  0.00     0.029 A 
ATOM     17  N   UNL A   1      41.037  27.701  29.270  1.00  0.00    -0.354 N 
ATOM     18  C   UNL A   1      44.678  26.586  27.168  1.00  0.00     0.074 A 
ATOM     19  C   UNL A   1      44.647  25.200  26.774  1.00  0.00     0.031 C 
ATOM     20  C   UNL A   1      38.854  27.432  29.655  1.00  0.00     0.029 A 
ATOM     21  C   UNL A   1      39.932  28.407  29.720  1.00  0.00     0.049 A 
ATOM     22  H   UNL A   1      41.918  28.120  29.134  1.00  0.00     0.167 HD
ATOM     23  C   UNL A   1      45.653  27.451  26.809  1.00  0.00     0.034 A 
ATOM     24  C   UNL A   1      39.805  29.691  30.132  1.00  0.00     0.034 A 
ATOM     25  C   UNL A   1      45.678  28.815  27.253  1.00  0.00     0.049 A 
ATOM     26  C   UNL A   1      41.024  30.569  29.984  1.00  0.00     0.074 A 
ATOM     27  C   UNL A   1      46.688  29.746  27.120  1.00  0.00     0.029 A 
ATOM     28  N   UNL A   1      44.641  29.438  27.942  1.00  0.00    -0.354 N 
ATOM     29  N   UNL A   1      42.161  30.289  29.386  1.00  0.00    -0.248 NA
ATOM     30  C   UNL A   1      40.950  31.928  30.533  1.00  0.00     0.031 C 
ATOM     31  C   UNL A   1      46.298  30.901  27.806  1.00  0.00     0.029 A 
ATOM     32  C   UNL A   1      45.006  30.729  28.280  1.00  0.00     0.049 A 
ATOM     33  H   UNL A   1      43.776  29.021  28.156  1.00  0.00     0.167 HD
ATOM     34  C   UNL A   1      42.921  31.450  29.449  1.00  0.00     0.074 A 
ATOM     35  C   UNL A   1      42.107  32.436  30.134  1.00  0.00     0.031 C 
ATOM     36  C   UNL A   1      44.172  31.684  28.974  1.00  0.00     0.034 A 
BRANCH  23  37
ATOM     37  C   UNL A   1      46.817  26.841  26.074  1.00  0.00     0.023 A 
ATOM     38  C   UNL A   1      47.862  26.176  26.745  1.00  0.00     0.031 A 
ATOM     39  C   UNL A   1      46.979  27.124  24.708  1.00  0.00     0.131 A 
ATOM     40  C   UNL A   1      49.066  25.925  26.068  1.00  0.00     0.055 A 
ATOM     41  C   UNL A   1      48.142  26.780  24.019  1.00  0.00     0.041 A 
ATOM     42  F   UNL A   1      46.037  27.804  24.035  1.00  0.00    -0.206 F 
ATOM     43  C   UNL A   1      49.203  26.198  24.704  1.00  0.00     0.022 A 
BRANCH  40  44
ATOM     44  S   UNL A   1      50.527  25.450  27.039  1.00  0.00     0.124 S 
ATOM     45  O   UNL A   1      51.509  25.199  25.987  1.00  0.00    -0.237 OA
ATOM     46  O   UNL A   1      50.759  26.632  27.861  1.00  0.00    -0.237 OA
ATOM     47  O   UNL A   1      50.084  24.263  27.766  1.00  0.00    -0.744 OA
ENDBRANCH  40  44
ENDBRANCH  23  37
BRANCH  24  48
ATOM     48  C   UNL A   1      38.550  30.221  30.776  1.00  0.00     0.023 A 
ATOM     49  C   UNL A   1      37.545  30.888  30.048  1.00  0.00     0.031 A 
ATOM     50  C   UNL A   1      38.400  30.177  32.177  1.00  0.00     0.131 A 
ATOM     51  C   UNL A   1      36.474  31.517  30.720  1.00  0.00     0.055 A 
ATOM     52  C   UNL A   1      37.314  30.763  32.836  1.00  0.00     0.041 A 
ATOM     53  F   UNL A   1      39.329  29.577  32.941  1.00  0.00    -0.206 F 
ATOM     54  C   UNL A   1      36.349  31.450  32.109  1.00  0.00     0.022 A 
BRANCH  51  55
ATOM     55  S   UNL A   1      35.289  32.516  29.767  1.00  0.00     0.124 S 
ATOM     56  O   UNL A   1      34.303  32.861  30.783  1.00  0.00    -0.237 OA
ATOM     57  O   UNL A   1      36.131  33.607  29.288  1.00  0.00    -0.237 OA
ATOM     58  O   UNL A   1      34.820  31.596  28.731  1.00  0.00    -0.744 OA
ENDBRANCH  51  55
ENDBRANCH  24  48
BRANCH  36  59
ATOM     59  C   UNL A   1      44.710  33.081  29.141  1.00  0.00     0.023 A 
ATOM     60  C   UNL A   1      44.539  34.060  28.150  1.00  0.00     0.031 A 
ATOM     61  C   UNL A   1      45.400  33.432  30.313  1.00  0.00     0.131 A 
ATOM     62  C   UNL A   1      45.112  35.326  28.320  1.00  0.00     0.055 A 
ATOM     63  C   UNL A   1      45.898  34.718  30.513  1.00  0.00     0.041 A 
ATOM     64  F   UNL A   1      45.593  32.530  31.290  1.00  0.00    -0.206 F 
ATOM     65  C   UNL A   1      45.769  35.670  29.506  1.00  0.00     0.022 A 
BRANCH  62  66
ATOM     66  S   UNL A   1      45.088  36.481  26.924  1.00  0.00     0.124 S 
ATOM     67  O   UNL A   1      43.655  36.679  26.722  1.00  0.00    -0.237 OA
ATOM     68  O   UNL A   1      45.820  37.626  27.453  1.00  0.00    -0.237 OA
ATOM     69  O   UNL A   1      45.769  35.745  25.860  1.00  0.00    -0.744 OA
ENDBRANCH  62  66
ENDBRANCH  36  59
ENDBRANCH  10  11
ENDBRANCH   3   5
ENDBRANCH   2   3
ENDBRANCH   1   2
BRANCH   1  70
ATOM     70  C   UNL A   1      35.988  22.174  24.169  1.00  0.00     0.275 C 
BRANCH  70  71
ATOM     71  O   UNL A   1      34.008  22.340  23.730  1.00  0.00    -0.458 OA
BRANCH  71  72
ATOM     72  C   UNL A   1      32.809  22.907  23.248  1.00  0.00     0.340 C 
ATOM     73  O   UNL A   1      31.703  22.378  23.159  1.00  0.00    -0.246 OA
BRANCH  72  74
ATOM     74  C   UNL A   1      32.872  24.331  23.023  1.00  0.00     0.091 A 
ATOM     75  C   UNL A   1      32.972  24.680  21.664  1.00  0.00     0.127 A 
ATOM     76  C   UNL A   1      33.105  25.275  24.006  1.00  0.00     0.057 A 
ATOM     77  N   UNL A   1      33.316  25.899  21.207  1.00  0.00    -0.264 NA
ATOM     78  C   UNL A   1      33.555  26.530  23.519  1.00  0.00     0.035 A 
ATOM     79  C   UNL A   1      33.630  26.800  22.150  1.00  0.00     0.112 A 
BRANCH  76  80
ATOM     80  C   UNL A   1      32.975  25.135  25.508  1.00  0.00     0.256 C 
ATOM     81  O   UNL A   1      33.883  24.508  26.068  1.00  0.00    -0.269 OA
ATOM     82  N   UNL A   1      31.976  25.626  26.364  1.00  0.00    -0.322 N 
ATOM     83  H   UNL A   1      31.917  25.182  27.240  1.00  0.00     0.170 HD
BRANCH  82  84
ATOM     84  C   UNL A   1      31.038  26.670  26.147  1.00  0.00     0.043 A 
ATOM     85  C   UNL A   1      29.776  26.339  24.938  1.00  0.00     0.028 A 
ATOM     86  C   UNL A   1      31.844  28.190  26.220  1.00  0.00     0.048 A 
ATOM     87  C   UNL A   1      29.401  27.503  23.617  1.00  0.00     0.024 A 
ATOM     88  C   UNL A   1      31.518  29.419  24.975  1.00  0.00     0.061 A 
ATOM     89  C   UNL A   1      30.349  29.049  23.539  1.00  0.00     0.059 A 
ATOM     90  Cl  UNL A   1      31.436  30.886  26.417  1.00  0.00    -0.083 Cl
ATOM     91  Cl  UNL A   1      30.372  29.700  21.921  1.00  0.00    -0.083 Cl
ENDBRANCH  82  84
ENDBRANCH  76  80
ENDBRANCH  72  74
ENDBRANCH  71  72
ENDBRANCH  70  71
ENDBRANCH   1  70
TORSDOF 16
ENDMDL
