MODEL 1
REMARK VINA RESULT:     -12.7      0.000      0.000
REMARK SMILES Cc1cc2c(=O)c3ccccc3oc2c(C(=O)OCCOC(=O)c2ccc(-c3c4nc(c(-c5cc(S(=O)(=O)[O-])ccc5F)c5ccc([nH]5)c(-c5cc(S(=O)(=O)[O-])ccc5F)c5nc(c(-c6cc(S(=O)(=O)[O-])ccc6F)c6ccc3[nH]6)C=C5)C=C4)cc2)c1C
REMARK SMILES IDX 21 1 20 2 19 3 18 4 16 5 17 6 15 7 1 8 2 9 3 10 87 11 4 12
REMARK SMILES IDX 88 13 5 14 14 15 6 16 7 17 13 18 8 19 12 20 9 21 11 22 10 23
REMARK SMILES IDX 22 24 23 25 24 26 25 27 86 28 26 29 85 30 27 31 28 32 29 33
REMARK SMILES IDX 79 34 30 35 84 36 78 37 80 38 31 39 83 40 77 41 76 42 32 44
REMARK SMILES IDX 64 45 44 46 63 47 45 48 48 49 62 50 81 51 46 52 47 53 61 55
REMARK SMILES IDX 82 56 49 57 33 58 34 59 42 60 35 61 41 62 43 63 40 64 36 65
REMARK SMILES IDX 37 66 38 67 39 68 65 69 66 70 74 71 67 72 73 73 75 74 72 75
REMARK SMILES IDX 68 76 69 77 70 78 71 79 50 80 51 81 59 82 52 83 58 84 60 85
REMARK SMILES IDX 57 86 53 87 54 88 55 89 56 90
REMARK H PARENT 80 43 48 54
REMARK Flexibility Score: inf
ROOT
ATOM      1  O   UNL A   1      32.529  29.812  26.388  1.00  0.00    -0.458 OA
ENDROOT
BRANCH   1   2
ATOM      2  C   UNL A   1      32.579  29.703  24.956  1.00  0.00     0.275 C 
BRANCH   2   3
ATOM      3  C   UNL A   1      33.471  28.526  24.551  1.00  0.00     0.275 C 
BRANCH   3   4
ATOM      4  O   UNL A   1      33.366  28.274  23.133  1.00  0.00    -0.458 OA
BRANCH   4   5
ATOM      5  C   UNL A   1      33.050  27.020  22.720  1.00  0.00     0.342 C 
ATOM      6  O   UNL A   1      33.648  26.391  21.864  1.00  0.00    -0.246 OA
BRANCH   5   7
ATOM      7  C   UNL A   1      31.853  26.507  23.471  1.00  0.00     0.106 A 
ATOM      8  C   UNL A   1      28.029  27.009  23.876  1.00  0.00     0.044 C 
ATOM      9  C   UNL A   1      29.456  26.549  24.023  1.00  0.00    -0.046 A 
ATOM     10  C   UNL A   1      29.693  25.574  24.997  1.00  0.00     0.019 A 
ATOM     11  C   UNL A   1      30.549  27.076  23.291  1.00  0.00    -0.030 A 
ATOM     12  C   UNL A   1      30.965  25.038  25.174  1.00  0.00     0.067 A 
ATOM     13  C   UNL A   1      30.333  28.246  22.359  1.00  0.00     0.046 C 
ATOM     14  C   UNL A   1      31.181  24.080  26.268  1.00  0.00     0.200 A 
ATOM     15  C   UNL A   1      32.031  25.427  24.368  1.00  0.00     0.153 A 
ATOM     16  O   UNL A   1      30.268  23.739  27.010  1.00  0.00    -0.288 OA
ATOM     17  C   UNL A   1      32.537  23.561  26.424  1.00  0.00     0.065 A 
ATOM     18  O   UNL A   1      33.242  24.764  24.419  1.00  0.00    -0.455 OA
ATOM     19  C   UNL A   1      32.886  22.790  27.538  1.00  0.00     0.016 A 
ATOM     20  C   UNL A   1      33.457  23.845  25.423  1.00  0.00     0.138 A 
ATOM     21  C   UNL A   1      34.171  22.259  27.625  1.00  0.00     0.001 A 
ATOM     22  C   UNL A   1      34.707  23.227  25.467  1.00  0.00     0.048 A 
ATOM     23  C   UNL A   1      35.068  22.447  26.574  1.00  0.00     0.004 A 
ENDBRANCH   5   7
ENDBRANCH   4   5
ENDBRANCH   3   4
ENDBRANCH   2   3
ENDBRANCH   1   2
BRANCH   1  24
ATOM     24  C   UNL A   1      32.893  31.021  26.877  1.00  0.00     0.338 C 
ATOM     25  O   UNL A   1      32.235  32.049  26.862  1.00  0.00    -0.246 OA
BRANCH  24  26
ATOM     26  C   UNL A   1      34.131  30.843  27.655  1.00  0.00     0.060 A 
ATOM     27  C   UNL A   1      34.965  31.910  28.001  1.00  0.00     0.016 A 
ATOM     28  C   UNL A   1      34.461  29.542  28.028  1.00  0.00     0.016 A 
ATOM     29  C   UNL A   1      36.167  31.657  28.675  1.00  0.00     0.010 A 
ATOM     30  C   UNL A   1      35.649  29.301  28.707  1.00  0.00     0.010 A 
ATOM     31  C   UNL A   1      36.536  30.342  28.998  1.00  0.00    -0.014 A 
BRANCH  31  32
ATOM     32  C   UNL A   1      37.757  30.038  29.783  1.00  0.00     0.031 A 
ATOM     33  C   UNL A   1      37.967  30.553  31.179  1.00  0.00     0.074 A 
ATOM     34  C   UNL A   1      38.754  29.393  29.153  1.00  0.00     0.049 A 
ATOM     35  N   UNL A   1      38.982  30.365  31.985  1.00  0.00    -0.248 NA
ATOM     36  C   UNL A   1      36.936  31.448  31.720  1.00  0.00     0.031 C 
ATOM     37  C   UNL A   1      38.718  28.992  27.747  1.00  0.00     0.029 A 
ATOM     38  N   UNL A   1      39.979  28.974  29.596  1.00  0.00    -0.354 N 
ATOM     39  C   UNL A   1      38.731  31.138  33.118  1.00  0.00     0.074 A 
ATOM     40  C   UNL A   1      37.491  31.842  32.862  1.00  0.00     0.031 C 
ATOM     41  C   UNL A   1      39.852  28.344  27.453  1.00  0.00     0.029 A 
ATOM     42  C   UNL A   1      40.691  28.281  28.648  1.00  0.00     0.049 A 
ATOM     43  H   UNL A   1      40.316  29.152  30.504  1.00  0.00     0.167 HD
ATOM     44  C   UNL A   1      39.462  31.221  34.260  1.00  0.00     0.034 A 
ATOM     45  C   UNL A   1      41.862  27.621  28.744  1.00  0.00     0.034 A 
ATOM     46  C   UNL A   1      40.653  30.430  34.497  1.00  0.00     0.049 A 
ATOM     47  C   UNL A   1      42.545  27.552  30.083  1.00  0.00     0.074 A 
ATOM     48  C   UNL A   1      41.371  30.293  35.675  1.00  0.00     0.029 A 
ATOM     49  N   UNL A   1      41.293  29.631  33.557  1.00  0.00    -0.354 N 
ATOM     50  N   UNL A   1      42.215  28.140  31.210  1.00  0.00    -0.248 NA
ATOM     51  C   UNL A   1      43.735  26.698  30.180  1.00  0.00     0.031 C 
ATOM     52  C   UNL A   1      42.471  29.468  35.432  1.00  0.00     0.029 A 
ATOM     53  C   UNL A   1      42.400  29.016  34.125  1.00  0.00     0.049 A 
ATOM     54  H   UNL A   1      41.001  29.518  32.623  1.00  0.00     0.167 HD
ATOM     55  C   UNL A   1      43.150  27.720  32.151  1.00  0.00     0.074 A 
ATOM     56  C   UNL A   1      44.023  26.784  31.472  1.00  0.00     0.031 C 
ATOM     57  C   UNL A   1      43.281  28.089  33.450  1.00  0.00     0.034 A 
BRANCH  44  58
ATOM     58  C   UNL A   1      38.995  32.114  35.399  1.00  0.00     0.023 A 
ATOM     59  C   UNL A   1      39.475  33.439  35.508  1.00  0.00     0.031 A 
ATOM     60  C   UNL A   1      38.248  31.604  36.476  1.00  0.00     0.131 A 
ATOM     61  C   UNL A   1      39.250  34.175  36.683  1.00  0.00     0.055 A 
ATOM     62  C   UNL A   1      37.969  32.365  37.613  1.00  0.00     0.041 A 
ATOM     63  F   UNL A   1      37.790  30.341  36.453  1.00  0.00    -0.206 F 
ATOM     64  C   UNL A   1      38.487  33.650  37.729  1.00  0.00     0.022 A 
BRANCH  61  65
ATOM     65  S   UNL A   1      40.032  35.793  36.956  1.00  0.00     0.124 S 
ATOM     66  O   UNL A   1      39.415  36.217  38.210  1.00  0.00    -0.237 OA
ATOM     67  O   UNL A   1      41.445  35.434  37.049  1.00  0.00    -0.237 OA
ATOM     68  O   UNL A   1      39.653  36.570  35.782  1.00  0.00    -0.744 OA
ENDBRANCH  61  65
ENDBRANCH  44  58
BRANCH  45  69
ATOM     69  C   UNL A   1      42.331  26.843  27.564  1.00  0.00     0.023 A 
ATOM     70  C   UNL A   1      42.010  25.483  27.417  1.00  0.00     0.031 A 
ATOM     71  C   UNL A   1      43.249  27.412  26.665  1.00  0.00     0.131 A 
ATOM     72  C   UNL A   1      42.667  24.720  26.443  1.00  0.00     0.055 A 
ATOM     73  C   UNL A   1      43.839  26.666  25.645  1.00  0.00     0.041 A 
ATOM     74  F   UNL A   1      43.609  28.700  26.790  1.00  0.00    -0.206 F 
ATOM     75  C   UNL A   1      43.563  25.308  25.544  1.00  0.00     0.022 A 
BRANCH  72  76
ATOM     76  S   UNL A   1      42.511  22.913  26.420  1.00  0.00     0.124 S 
ATOM     77  O   UNL A   1      41.170  22.716  26.960  1.00  0.00    -0.237 OA
ATOM     78  O   UNL A   1      42.670  22.620  24.998  1.00  0.00    -0.237 OA
ATOM     79  O   UNL A   1      43.608  22.463  27.271  1.00  0.00    -0.744 OA
ENDBRANCH  72  76
ENDBRANCH  45  69
BRANCH  57  80
ATOM     80  C   UNL A   1      44.433  27.513  34.246  1.00  0.00     0.023 A 
ATOM     81  C   UNL A   1      44.282  26.305  34.955  1.00  0.00     0.031 A 
ATOM     82  C   UNL A   1      45.643  28.217  34.397  1.00  0.00     0.131 A 
ATOM     83  C   UNL A   1      45.310  25.851  35.793  1.00  0.00     0.055 A 
ATOM     84  C   UNL A   1      46.686  27.733  35.188  1.00  0.00     0.041 A 
ATOM     85  F   UNL A   1      45.835  29.386  33.762  1.00  0.00    -0.206 F 
ATOM     86  C   UNL A   1      46.516  26.551  35.901  1.00  0.00     0.022 A 
BRANCH  83  87
ATOM     87  S   UNL A   1      45.094  24.386  36.841  1.00  0.00     0.124 S 
ATOM     88  O   UNL A   1      44.068  24.836  37.780  1.00  0.00    -0.237 OA
ATOM     89  O   UNL A   1      44.656  23.380  35.877  1.00  0.00    -0.237 OA
ATOM     90  O   UNL A   1      46.414  24.167  37.421  1.00  0.00    -0.744 OA
ENDBRANCH  83  87
ENDBRANCH  57  80
ENDBRANCH  31  32
ENDBRANCH  24  26
ENDBRANCH   1  24
TORSDOF 14
ENDMDL
MODEL 2
REMARK VINA RESULT:     -12.7      1.318      1.607
REMARK SMILES Cc1cc2c(=O)c3ccccc3oc2c(C(=O)OCCOC(=O)c2ccc(-c3c4nc(c(-c5cc(S(=O)(=O)[O-])ccc5F)c5ccc([nH]5)c(-c5cc(S(=O)(=O)[O-])ccc5F)c5nc(c(-c6cc(S(=O)(=O)[O-])ccc6F)c6ccc3[nH]6)C=C5)C=C4)cc2)c1C
REMARK SMILES IDX 21 1 20 2 19 3 18 4 16 5 17 6 15 7 1 8 2 9 3 10 87 11 4 12
REMARK SMILES IDX 88 13 5 14 14 15 6 16 7 17 13 18 8 19 12 20 9 21 11 22 10 23
REMARK SMILES IDX 22 24 23 25 24 26 25 27 86 28 26 29 85 30 27 31 28 32 29 33
REMARK SMILES IDX 79 34 30 35 84 36 78 37 80 38 31 39 83 40 77 41 76 42 32 44
REMARK SMILES IDX 64 45 44 46 63 47 45 48 48 49 62 50 81 51 46 52 47 53 61 55
REMARK SMILES IDX 82 56 49 57 33 58 34 59 42 60 35 61 41 62 43 63 40 64 36 65
REMARK SMILES IDX 37 66 38 67 39 68 65 69 66 70 74 71 67 72 73 73 75 74 72 75
REMARK SMILES IDX 68 76 69 77 70 78 71 79 50 80 51 81 59 82 52 83 58 84 60 85
REMARK SMILES IDX 57 86 53 87 54 88 55 89 56 90
REMARK H PARENT 80 43 48 54
REMARK Flexibility Score: inf
ROOT
ATOM      1  O   UNL A   1      32.744  29.814  26.442  1.00  0.00    -0.458 OA
ENDROOT
BRANCH   1   2
ATOM      2  C   UNL A   1      32.652  29.714  25.012  1.00  0.00     0.275 C 
BRANCH   2   3
ATOM      3  C   UNL A   1      33.560  28.590  24.505  1.00  0.00     0.275 C 
BRANCH   3   4
ATOM      4  O   UNL A   1      33.345  28.359  23.096  1.00  0.00    -0.458 OA
BRANCH   4   5
ATOM      5  C   UNL A   1      33.032  27.103  22.685  1.00  0.00     0.342 C 
ATOM      6  O   UNL A   1      33.624  26.480  21.821  1.00  0.00    -0.246 OA
BRANCH   5   7
ATOM      7  C   UNL A   1      31.848  26.582  23.451  1.00  0.00     0.106 A 
ATOM      8  C   UNL A   1      28.021  27.032  23.877  1.00  0.00     0.044 C 
ATOM      9  C   UNL A   1      29.454  26.595  24.020  1.00  0.00    -0.046 A 
ATOM     10  C   UNL A   1      29.713  25.634  25.003  1.00  0.00     0.019 A 
ATOM     11  C   UNL A   1      30.534  27.130  23.274  1.00  0.00    -0.030 A 
ATOM     12  C   UNL A   1      30.994  25.120  25.177  1.00  0.00     0.067 A 
ATOM     13  C   UNL A   1      30.295  28.285  22.330  1.00  0.00     0.046 C 
ATOM     14  C   UNL A   1      31.232  24.178  26.280  1.00  0.00     0.200 A 
ATOM     15  C   UNL A   1      32.049  25.515  24.359  1.00  0.00     0.153 A 
ATOM     16  O   UNL A   1      30.330  23.832  27.033  1.00  0.00    -0.288 OA
ATOM     17  C   UNL A   1      32.597  23.681  26.433  1.00  0.00     0.065 A 
ATOM     18  O   UNL A   1      33.269  24.871  24.409  1.00  0.00    -0.455 OA
ATOM     19  C   UNL A   1      32.965  22.928  27.553  1.00  0.00     0.016 A 
ATOM     20  C   UNL A   1      33.506  23.967  25.422  1.00  0.00     0.138 A 
ATOM     21  C   UNL A   1      34.258  22.417  27.637  1.00  0.00     0.001 A 
ATOM     22  C   UNL A   1      34.764  23.368  25.464  1.00  0.00     0.048 A 
ATOM     23  C   UNL A   1      35.145  22.607  26.577  1.00  0.00     0.004 A 
ENDBRANCH   5   7
ENDBRANCH   4   5
ENDBRANCH   3   4
ENDBRANCH   2   3
ENDBRANCH   1   2
BRANCH   1  24
ATOM     24  C   UNL A   1      33.162  31.017  26.900  1.00  0.00     0.338 C 
ATOM     25  O   UNL A   1      32.539  32.066  26.887  1.00  0.00    -0.246 OA
BRANCH  24  26
ATOM     26  C   UNL A   1      34.418  30.810  27.643  1.00  0.00     0.060 A 
ATOM     27  C   UNL A   1      35.316  31.848  27.910  1.00  0.00     0.016 A 
ATOM     28  C   UNL A   1      34.695  29.512  28.065  1.00  0.00     0.016 A 
ATOM     29  C   UNL A   1      36.528  31.563  28.554  1.00  0.00     0.010 A 
ATOM     30  C   UNL A   1      35.893  29.241  28.715  1.00  0.00     0.010 A 
ATOM     31  C   UNL A   1      36.841  30.246  28.926  1.00  0.00    -0.014 A 
BRANCH  31  32
ATOM     32  C   UNL A   1      38.073  29.915  29.683  1.00  0.00     0.031 A 
ATOM     33  C   UNL A   1      38.343  30.454  31.060  1.00  0.00     0.074 A 
ATOM     34  C   UNL A   1      39.026  29.220  29.040  1.00  0.00     0.049 A 
ATOM     35  N   UNL A   1      39.373  30.246  31.840  1.00  0.00    -0.248 NA
ATOM     36  C   UNL A   1      37.361  31.398  31.608  1.00  0.00     0.031 C 
ATOM     37  C   UNL A   1      38.934  28.788  27.646  1.00  0.00     0.029 A 
ATOM     38  N   UNL A   1      40.248  28.765  29.458  1.00  0.00    -0.354 N 
ATOM     39  C   UNL A   1      39.185  31.053  32.961  1.00  0.00     0.074 A 
ATOM     40  C   UNL A   1      37.964  31.797  32.724  1.00  0.00     0.031 C 
ATOM     41  C   UNL A   1      40.035  28.092  27.334  1.00  0.00     0.029 A 
ATOM     42  C   UNL A   1      40.906  28.024  28.507  1.00  0.00     0.049 A 
ATOM     43  H   UNL A   1      40.618  28.951  30.351  1.00  0.00     0.167 HD
ATOM     44  C   UNL A   1      39.951  31.135  34.080  1.00  0.00     0.034 A 
ATOM     45  C   UNL A   1      42.054  27.324  28.585  1.00  0.00     0.034 A 
ATOM     46  C   UNL A   1      41.119  30.306  34.302  1.00  0.00     0.049 A 
ATOM     47  C   UNL A   1      42.773  27.260  29.905  1.00  0.00     0.074 A 
ATOM     48  C   UNL A   1      41.866  30.169  35.461  1.00  0.00     0.029 A 
ATOM     49  N   UNL A   1      41.701  29.463  33.363  1.00  0.00    -0.354 N 
ATOM     50  N   UNL A   1      42.498  27.885  31.026  1.00  0.00    -0.248 NA
ATOM     51  C   UNL A   1      43.933  26.364  29.989  1.00  0.00     0.031 C 
ATOM     52  C   UNL A   1      42.927  29.299  35.207  1.00  0.00     0.029 A 
ATOM     53  C   UNL A   1      42.802  28.820  33.913  1.00  0.00     0.049 A 
ATOM     54  H   UNL A   1      41.378  29.339  32.441  1.00  0.00     0.167 HD
ATOM     55  C   UNL A   1      43.444  27.452  31.950  1.00  0.00     0.074 A 
ATOM     56  C   UNL A   1      44.263  26.469  31.269  1.00  0.00     0.031 C 
ATOM     57  C   UNL A   1      43.628  27.846  33.236  1.00  0.00     0.034 A 
BRANCH  44  58
ATOM     58  C   UNL A   1      39.550  32.071  35.210  1.00  0.00     0.023 A 
ATOM     59  C   UNL A   1      38.897  31.565  36.356  1.00  0.00     0.031 A 
ATOM     60  C   UNL A   1      39.625  33.469  35.069  1.00  0.00     0.131 A 
ATOM     61  C   UNL A   1      38.303  32.447  37.275  1.00  0.00     0.055 A 
ATOM     62  C   UNL A   1      39.093  34.341  36.021  1.00  0.00     0.041 A 
ATOM     63  F   UNL A   1      40.202  34.017  33.987  1.00  0.00    -0.206 F 
ATOM     64  C   UNL A   1      38.411  33.831  37.120  1.00  0.00     0.022 A 
BRANCH  61  65
ATOM     65  S   UNL A   1      37.267  31.841  38.640  1.00  0.00     0.124 S 
ATOM     66  O   UNL A   1      37.034  30.453  38.248  1.00  0.00    -0.237 OA
ATOM     67  O   UNL A   1      38.147  32.023  39.791  1.00  0.00    -0.237 OA
ATOM     68  O   UNL A   1      36.092  32.705  38.598  1.00  0.00    -0.744 OA
ENDBRANCH  61  65
ENDBRANCH  44  58
BRANCH  45  69
ATOM     69  C   UNL A   1      42.459  26.502  27.411  1.00  0.00     0.023 A 
ATOM     70  C   UNL A   1      42.016  25.177  27.264  1.00  0.00     0.031 A 
ATOM     71  C   UNL A   1      43.434  26.982  26.519  1.00  0.00     0.131 A 
ATOM     72  C   UNL A   1      42.608  24.354  26.298  1.00  0.00     0.055 A 
ATOM     73  C   UNL A   1      43.961  26.181  25.505  1.00  0.00     0.041 A 
ATOM     74  F   UNL A   1      43.909  28.231  26.643  1.00  0.00    -0.206 F 
ATOM     75  C   UNL A   1      43.562  24.853  25.405  1.00  0.00     0.022 A 
BRANCH  72  76
ATOM     76  S   UNL A   1      42.287  22.569  26.278  1.00  0.00     0.124 S 
ATOM     77  O   UNL A   1      43.038  22.111  27.443  1.00  0.00    -0.237 OA
ATOM     78  O   UNL A   1      40.832  22.527  26.409  1.00  0.00    -0.237 OA
ATOM     79  O   UNL A   1      42.805  22.140  24.983  1.00  0.00    -0.744 OA
ENDBRANCH  72  76
ENDBRANCH  45  69
BRANCH  57  80
ATOM     80  C   UNL A   1      44.780  27.245  34.012  1.00  0.00     0.023 A 
ATOM     81  C   UNL A   1      44.605  26.062  34.757  1.00  0.00     0.031 A 
ATOM     82  C   UNL A   1      46.020  27.905  34.108  1.00  0.00     0.131 A 
ATOM     83  C   UNL A   1      45.641  25.590  35.576  1.00  0.00     0.055 A 
ATOM     84  C   UNL A   1      47.068  27.400  34.880  1.00  0.00     0.041 A 
ATOM     85  F   UNL A   1      46.237  29.049  33.437  1.00  0.00    -0.206 F 
ATOM     86  C   UNL A   1      46.875  26.244  35.629  1.00  0.00     0.022 A 
BRANCH  83  87
ATOM     87  S   UNL A   1      45.400  24.162  36.668  1.00  0.00     0.124 S 
ATOM     88  O   UNL A   1      46.775  23.729  36.906  1.00  0.00    -0.237 OA
ATOM     89  O   UNL A   1      44.730  24.764  37.818  1.00  0.00    -0.237 OA
ATOM     90  O   UNL A   1      44.587  23.244  35.878  1.00  0.00    -0.744 OA
ENDBRANCH  83  87
ENDBRANCH  57  80
ENDBRANCH  31  32
ENDBRANCH  24  26
ENDBRANCH   1  24
TORSDOF 14
ENDMDL
MODEL 3
REMARK VINA RESULT:     -12.7      4.876      9.980
REMARK SMILES Cc1cc2c(=O)c3ccccc3oc2c(C(=O)OCCOC(=O)c2ccc(-c3c4nc(c(-c5cc(S(=O)(=O)[O-])ccc5F)c5ccc([nH]5)c(-c5cc(S(=O)(=O)[O-])ccc5F)c5nc(c(-c6cc(S(=O)(=O)[O-])ccc6F)c6ccc3[nH]6)C=C5)C=C4)cc2)c1C
REMARK SMILES IDX 21 1 20 2 19 3 18 4 16 5 17 6 15 7 1 8 2 9 3 10 87 11 4 12
REMARK SMILES IDX 88 13 5 14 14 15 6 16 7 17 13 18 8 19 12 20 9 21 11 22 10 23
REMARK SMILES IDX 22 24 23 25 24 26 25 27 86 28 26 29 85 30 27 31 28 32 29 33
REMARK SMILES IDX 79 34 30 35 84 36 78 37 80 38 31 39 83 40 77 41 76 42 32 44
REMARK SMILES IDX 64 45 44 46 63 47 45 48 48 49 62 50 81 51 46 52 47 53 61 55
REMARK SMILES IDX 82 56 49 57 33 58 34 59 42 60 35 61 41 62 43 63 40 64 36 65
REMARK SMILES IDX 37 66 38 67 39 68 65 69 66 70 74 71 67 72 73 73 75 74 72 75
REMARK SMILES IDX 68 76 69 77 70 78 71 79 50 80 51 81 59 82 52 83 58 84 60 85
REMARK SMILES IDX 57 86 53 87 54 88 55 89 56 90
REMARK H PARENT 80 43 48 54
REMARK Flexibility Score: inf
ROOT
ATOM      1  O   UNL A   1      37.776  22.087  25.378  1.00  0.00    -0.458 OA
ENDROOT
BRANCH   1   2
ATOM      2  C   UNL A   1      36.505  21.529  25.747  1.00  0.00     0.275 C 
BRANCH   2   3
ATOM      3  C   UNL A   1      35.612  22.615  26.355  1.00  0.00     0.275 C 
BRANCH   3   4
ATOM      4  O   UNL A   1      34.449  22.027  26.976  1.00  0.00    -0.458 OA
BRANCH   4   5
ATOM      5  C   UNL A   1      33.229  22.557  26.700  1.00  0.00     0.342 C 
ATOM      6  O   UNL A   1      32.456  23.007  27.527  1.00  0.00    -0.246 OA
BRANCH   5   7
ATOM      7  C   UNL A   1      32.963  22.514  25.221  1.00  0.00     0.106 A 
ATOM      8  C   UNL A   1      32.097  20.092  22.320  1.00  0.00     0.044 C 
ATOM      9  C   UNL A   1      32.452  21.303  23.141  1.00  0.00    -0.046 A 
ATOM     10  C   UNL A   1      32.592  22.505  22.441  1.00  0.00     0.019 A 
ATOM     11  C   UNL A   1      32.701  21.281  24.536  1.00  0.00    -0.030 A 
ATOM     12  C   UNL A   1      32.860  23.694  23.112  1.00  0.00     0.067 A 
ATOM     13  C   UNL A   1      32.720  19.963  25.275  1.00  0.00     0.046 C 
ATOM     14  C   UNL A   1      33.085  24.914  22.324  1.00  0.00     0.200 A 
ATOM     15  C   UNL A   1      32.963  23.732  24.501  1.00  0.00     0.153 A 
ATOM     16  O   UNL A   1      33.028  24.906  21.101  1.00  0.00    -0.288 OA
ATOM     17  C   UNL A   1      33.382  26.132  23.074  1.00  0.00     0.065 A 
ATOM     18  O   UNL A   1      33.042  24.934  25.176  1.00  0.00    -0.455 OA
ATOM     19  C   UNL A   1      33.788  27.298  22.418  1.00  0.00     0.016 A 
ATOM     20  C   UNL A   1      33.230  26.093  24.455  1.00  0.00     0.138 A 
ATOM     21  C   UNL A   1      34.003  28.459  23.157  1.00  0.00     0.001 A 
ATOM     22  C   UNL A   1      33.348  27.283  25.174  1.00  0.00     0.048 A 
ATOM     23  C   UNL A   1      33.748  28.460  24.528  1.00  0.00     0.004 A 
ENDBRANCH   5   7
ENDBRANCH   4   5
ENDBRANCH   3   4
ENDBRANCH   2   3
ENDBRANCH   1   2
BRANCH   1  24
ATOM     24  C   UNL A   1      38.812  21.704  26.161  1.00  0.00     0.338 C 
ATOM     25  O   UNL A   1      39.241  20.571  26.311  1.00  0.00    -0.246 OA
BRANCH  24  26
ATOM     26  C   UNL A   1      39.503  22.918  26.629  1.00  0.00     0.060 A 
ATOM     27  C   UNL A   1      40.507  22.887  27.601  1.00  0.00     0.016 A 
ATOM     28  C   UNL A   1      39.100  24.129  26.071  1.00  0.00     0.016 A 
ATOM     29  C   UNL A   1      41.065  24.090  28.055  1.00  0.00     0.010 A 
ATOM     30  C   UNL A   1      39.668  25.316  26.518  1.00  0.00     0.010 A 
ATOM     31  C   UNL A   1      40.619  25.318  27.542  1.00  0.00    -0.014 A 
BRANCH  31  32
ATOM     32  C   UNL A   1      41.241  26.606  27.933  1.00  0.00     0.031 A 
ATOM     33  C   UNL A   1      42.656  26.962  27.572  1.00  0.00     0.074 A 
ATOM     34  C   UNL A   1      40.541  27.407  28.755  1.00  0.00     0.049 A 
ATOM     35  N   UNL A   1      43.329  28.051  27.843  1.00  0.00    -0.248 NA
ATOM     36  C   UNL A   1      43.440  25.937  26.870  1.00  0.00     0.031 C 
ATOM     37  C   UNL A   1      39.223  27.082  29.298  1.00  0.00     0.029 A 
ATOM     38  N   UNL A   1      40.834  28.636  29.281  1.00  0.00    -0.354 N 
ATOM     39  C   UNL A   1      44.624  27.839  27.374  1.00  0.00     0.074 A 
ATOM     40  C   UNL A   1      44.650  26.487  26.853  1.00  0.00     0.031 C 
ATOM     41  C   UNL A   1      38.799  28.107  30.049  1.00  0.00     0.029 A 
ATOM     42  C   UNL A   1      39.812  29.161  30.034  1.00  0.00     0.049 A 
ATOM     43  H   UNL A   1      41.691  29.097  29.135  1.00  0.00     0.167 HD
ATOM     44  C   UNL A   1      45.670  28.707  27.364  1.00  0.00     0.034 A 
ATOM     45  C   UNL A   1      39.682  30.375  30.604  1.00  0.00     0.034 A 
ATOM     46  C   UNL A   1      45.566  30.078  27.823  1.00  0.00     0.049 A 
ATOM     47  C   UNL A   1      40.770  31.393  30.394  1.00  0.00     0.074 A 
ATOM     48  C   UNL A   1      46.496  31.097  27.697  1.00  0.00     0.029 A 
ATOM     49  N   UNL A   1      44.470  30.630  28.475  1.00  0.00    -0.354 N 
ATOM     50  N   UNL A   1      41.929  31.250  29.795  1.00  0.00    -0.248 NA
ATOM     51  C   UNL A   1      40.520  32.748  30.900  1.00  0.00     0.031 C 
ATOM     52  C   UNL A   1      45.993  32.238  28.324  1.00  0.00     0.029 A 
ATOM     53  C   UNL A   1      44.711  31.965  28.769  1.00  0.00     0.049 A 
ATOM     54  H   UNL A   1      43.643  30.144  28.695  1.00  0.00     0.167 HD
ATOM     55  C   UNL A   1      42.542  32.499  29.842  1.00  0.00     0.074 A 
ATOM     56  C   UNL A   1      41.600  33.395  30.480  1.00  0.00     0.031 C 
ATOM     57  C   UNL A   1      43.778  32.862  29.414  1.00  0.00     0.034 A 
BRANCH  44  58
ATOM     58  C   UNL A   1      47.006  28.280  26.777  1.00  0.00     0.023 A 
ATOM     59  C   UNL A   1      47.196  28.261  25.376  1.00  0.00     0.031 A 
ATOM     60  C   UNL A   1      48.011  27.703  27.576  1.00  0.00     0.131 A 
ATOM     61  C   UNL A   1      48.326  27.633  24.827  1.00  0.00     0.055 A 
ATOM     62  C   UNL A   1      49.165  27.141  27.026  1.00  0.00     0.041 A 
ATOM     63  F   UNL A   1      47.879  27.656  28.911  1.00  0.00    -0.206 F 
ATOM     64  C   UNL A   1      49.317  27.086  25.645  1.00  0.00     0.022 A 
BRANCH  61  65
ATOM     65  S   UNL A   1      48.501  27.391  23.034  1.00  0.00     0.124 S 
ATOM     66  O   UNL A   1      49.860  27.873  22.797  1.00  0.00    -0.237 OA
ATOM     67  O   UNL A   1      48.322  25.947  22.905  1.00  0.00    -0.237 OA
ATOM     68  O   UNL A   1      47.441  28.213  22.463  1.00  0.00    -0.744 OA
ENDBRANCH  61  65
ENDBRANCH  44  58
BRANCH  45  69
ATOM     69  C   UNL A   1      38.387  30.709  31.260  1.00  0.00     0.023 A 
ATOM     70  C   UNL A   1      37.335  31.296  30.535  1.00  0.00     0.031 A 
ATOM     71  C   UNL A   1      38.257  30.605  32.655  1.00  0.00     0.131 A 
ATOM     72  C   UNL A   1      36.236  31.827  31.221  1.00  0.00     0.055 A 
ATOM     73  C   UNL A   1      37.123  31.063  33.326  1.00  0.00     0.041 A 
ATOM     74  F   UNL A   1      39.252  30.081  33.390  1.00  0.00    -0.206 F 
ATOM     75  C   UNL A   1      36.115  31.696  32.609  1.00  0.00     0.022 A 
BRANCH  72  76
ATOM     76  S   UNL A   1      35.015  32.855  30.361  1.00  0.00     0.124 S 
ATOM     77  O   UNL A   1      34.513  31.942  29.339  1.00  0.00    -0.237 OA
ATOM     78  O   UNL A   1      34.080  33.171  31.439  1.00  0.00    -0.237 OA
ATOM     79  O   UNL A   1      35.799  33.984  29.871  1.00  0.00    -0.744 OA
ENDBRANCH  72  76
ENDBRANCH  45  69
BRANCH  57  80
ATOM     80  C   UNL A   1      44.223  34.292  29.638  1.00  0.00     0.023 A 
ATOM     81  C   UNL A   1      43.889  35.301  28.713  1.00  0.00     0.031 A 
ATOM     82  C   UNL A   1      45.073  34.634  30.707  1.00  0.00     0.131 A 
ATOM     83  C   UNL A   1      44.418  36.590  28.862  1.00  0.00     0.055 A 
ATOM     84  C   UNL A   1      45.551  35.934  30.883  1.00  0.00     0.041 A 
ATOM     85  F   UNL A   1      45.442  33.708  31.607  1.00  0.00    -0.206 F 
ATOM     86  C   UNL A   1      45.233  36.915  29.950  1.00  0.00     0.022 A 
BRANCH  83  87
ATOM     87  S   UNL A   1      44.140  37.873  27.610  1.00  0.00     0.124 S 
ATOM     88  O   UNL A   1      43.651  38.986  28.420  1.00  0.00    -0.237 OA
ATOM     89  O   UNL A   1      45.478  38.051  27.051  1.00  0.00    -0.237 OA
ATOM     90  O   UNL A   1      43.157  37.281  26.708  1.00  0.00    -0.744 OA
ENDBRANCH  83  87
ENDBRANCH  57  80
ENDBRANCH  31  32
ENDBRANCH  24  26
ENDBRANCH   1  24
TORSDOF 14
ENDMDL
