MODEL 1
REMARK VINA RESULT:     -12.9      0.000      0.000
REMARK SMILES CC[C@@H](NS(=O)(=O)c1cc(C)ccc1C)C(=O)OCCOC(=O)c1ccc(-c2c3nc(c(-c4cc(S(=O)(=O)[O-])ccc4F)c4ccc([nH]4)c(-c4cc(S(=O)(=O)[O-])ccc4F)c4nc(c(-c5cc(S(=O)(=O)[O-])ccc5F)c5ccc2[nH]5)C=C4)C=C3)cc1
REMARK SMILES IDX 19 1 18 2 16 3 17 4 3 5 2 6 1 7 4 8 5 10 6 11 7 12 8 13 9 14
REMARK SMILES IDX 14 15 10 16 13 17 15 18 11 19 12 20 20 21 21 22 22 23 23 24
REMARK SMILES IDX 24 25 25 26 86 27 26 28 85 29 27 30 28 31 29 32 79 33 30 34
REMARK SMILES IDX 84 35 78 36 80 37 31 38 83 39 77 40 76 41 32 43 64 44 44 45
REMARK SMILES IDX 63 46 45 47 48 48 62 49 81 50 46 51 47 52 61 54 82 55 49 56
REMARK SMILES IDX 33 57 34 58 42 59 35 60 41 61 43 62 40 63 36 64 37 65 38 66
REMARK SMILES IDX 39 67 65 68 66 69 74 70 67 71 73 72 75 73 72 74 68 75 69 76
REMARK SMILES IDX 70 77 71 78 50 79 51 80 59 81 52 82 58 83 60 84 57 85 53 86
REMARK SMILES IDX 54 87 55 88 56 89
REMARK H PARENT 4 9 80 42 48 53
REMARK Flexibility Score: inf
ROOT
ATOM      1  C   UNL A   1      43.157  41.590  25.267  1.00  0.00     0.274 C 
ENDROOT
BRANCH   1   2
ATOM      2  O   UNL A   1      42.436  41.815  24.047  1.00  0.00    -0.461 OA
BRANCH   2   3
ATOM      3  C   UNL A   1      43.063  42.774  23.183  1.00  0.00     0.324 C 
ATOM      4  O   UNL A   1      43.633  43.588  23.983  1.00  0.00    -0.250 OA
BRANCH   3   5
ATOM      5  C   UNL A   1      43.151  42.703  21.008  1.00  0.00     0.179 C 
BRANCH   5   6
ATOM      6  C   UNL A   1      41.940  42.939  19.752  1.00  0.00     0.028 C 
ATOM      7  C   UNL A   1      41.394  44.376  19.606  1.00  0.00     0.006 C 
ENDBRANCH   5   6
BRANCH   5   8
ATOM      8  N   UNL A   1      44.645  43.184  20.050  1.00  0.00    -0.197 NA
ATOM      9  H   UNL A   1      44.421  43.018  19.068  1.00  0.00     0.142 HD
BRANCH   8  10
ATOM     10  S   UNL A   1      45.360  44.903  20.141  1.00  0.00     0.241 S 
ATOM     11  O   UNL A   1      45.219  45.262  21.546  1.00  0.00    -0.207 OA
ATOM     12  O   UNL A   1      46.704  44.792  19.623  1.00  0.00    -0.207 OA
BRANCH  10  13
ATOM     13  C   UNL A   1      44.386  46.465  19.072  1.00  0.00     0.085 A 
ATOM     14  C   UNL A   1      43.913  45.786  17.977  1.00  0.00     0.025 A 
ATOM     15  C   UNL A   1      44.521  48.007  18.945  1.00  0.00    -0.031 A 
ATOM     16  C   UNL A   1      43.415  46.536  16.927  1.00  0.00    -0.050 A 
ATOM     17  C   UNL A   1      44.349  48.597  17.684  1.00  0.00     0.005 A 
ATOM     18  C   UNL A   1      44.515  49.279  19.897  1.00  0.00     0.046 C 
ATOM     19  C   UNL A   1      42.137  46.019  16.392  1.00  0.00     0.044 C 
ATOM     20  C   UNL A   1      43.726  47.881  16.704  1.00  0.00     0.004 A 
ENDBRANCH  10  13
ENDBRANCH   8  10
ENDBRANCH   5   8
ENDBRANCH   3   5
ENDBRANCH   2   3
ENDBRANCH   1   2
BRANCH   1  21
ATOM     21  C   UNL A   1      42.297  40.768  26.216  1.00  0.00     0.275 C 
BRANCH  21  22
ATOM     22  O   UNL A   1      42.898  39.946  27.286  1.00  0.00    -0.458 OA
BRANCH  22  23
ATOM     23  C   UNL A   1      44.140  39.531  27.656  1.00  0.00     0.338 C 
ATOM     24  O   UNL A   1      45.120  40.255  27.516  1.00  0.00    -0.246 OA
BRANCH  23  25
ATOM     25  C   UNL A   1      44.408  38.096  27.955  1.00  0.00     0.060 A 
ATOM     26  C   UNL A   1      43.727  37.093  26.668  1.00  0.00     0.016 A 
ATOM     27  C   UNL A   1      44.393  37.524  29.652  1.00  0.00     0.016 A 
ATOM     28  C   UNL A   1      42.804  35.601  27.185  1.00  0.00     0.010 A 
ATOM     29  C   UNL A   1      43.576  35.986  30.144  1.00  0.00     0.010 A 
ATOM     30  C   UNL A   1      42.635  35.024  28.974  1.00  0.00    -0.014 A 
BRANCH  30  31
ATOM     31  C   UNL A   1      41.735  33.696  29.800  1.00  0.00     0.031 A 
ATOM     32  C   UNL A   1      42.461  32.373  29.693  1.00  0.00     0.074 A 
ATOM     33  C   UNL A   1      40.480  33.394  30.461  1.00  0.00     0.049 A 
ATOM     34  N   UNL A   1      41.887  31.319  29.194  1.00  0.00    -0.248 NA
ATOM     35  C   UNL A   1      43.872  32.161  30.024  1.00  0.00     0.031 C 
ATOM     36  C   UNL A   1      39.200  34.109  30.560  1.00  0.00     0.029 A 
ATOM     37  N   UNL A   1      40.073  32.309  31.346  1.00  0.00    -0.354 N 
ATOM     38  C   UNL A   1      42.799  30.286  29.262  1.00  0.00     0.074 A 
ATOM     39  C   UNL A   1      44.037  30.871  29.708  1.00  0.00     0.031 C 
ATOM     40  C   UNL A   1      38.472  33.866  31.659  1.00  0.00     0.029 A 
ATOM     41  C   UNL A   1      38.993  32.659  32.267  1.00  0.00     0.049 A 
ATOM     42  H   UNL A   1      40.490  31.417  31.326  1.00  0.00     0.167 HD
ATOM     43  C   UNL A   1      42.376  28.998  29.180  1.00  0.00     0.034 A 
ATOM     44  C   UNL A   1      38.071  31.990  33.051  1.00  0.00     0.034 A 
ATOM     45  C   UNL A   1      41.105  28.884  28.505  1.00  0.00     0.049 A 
ATOM     46  C   UNL A   1      37.715  30.727  32.406  1.00  0.00     0.074 A 
ATOM     47  C   UNL A   1      40.660  28.959  27.203  1.00  0.00     0.029 A 
ATOM     48  N   UNL A   1      40.007  29.040  29.304  1.00  0.00    -0.354 N 
ATOM     49  N   UNL A   1      36.966  30.637  31.346  1.00  0.00    -0.248 NA
ATOM     50  C   UNL A   1      38.505  29.558  32.742  1.00  0.00     0.031 C 
ATOM     51  C   UNL A   1      39.264  29.254  27.263  1.00  0.00     0.029 A 
ATOM     52  C   UNL A   1      38.849  29.268  28.593  1.00  0.00     0.049 A 
ATOM     53  H   UNL A   1      40.041  28.996  30.288  1.00  0.00     0.167 HD
ATOM     54  C   UNL A   1      37.533  29.600  30.637  1.00  0.00     0.074 A 
ATOM     55  C   UNL A   1      38.380  28.891  31.596  1.00  0.00     0.031 C 
ATOM     56  C   UNL A   1      37.607  29.654  29.276  1.00  0.00     0.034 A 
BRANCH  43  57
ATOM     57  C   UNL A   1      42.874  27.952  30.150  1.00  0.00     0.023 A 
ATOM     58  C   UNL A   1      42.709  28.141  31.536  1.00  0.00     0.031 A 
ATOM     59  C   UNL A   1      43.778  26.933  29.762  1.00  0.00     0.131 A 
ATOM     60  C   UNL A   1      43.438  27.355  32.452  1.00  0.00     0.055 A 
ATOM     61  C   UNL A   1      44.455  26.123  30.672  1.00  0.00     0.041 A 
ATOM     62  F   UNL A   1      44.132  26.746  28.482  1.00  0.00    -0.206 F 
ATOM     63  C   UNL A   1      44.299  26.342  32.028  1.00  0.00     0.022 A 
BRANCH  60  64
ATOM     64  S   UNL A   1      43.371  27.764  34.220  1.00  0.00     0.124 S 
ATOM     65  O   UNL A   1      43.773  26.505  34.838  1.00  0.00    -0.237 OA
ATOM     66  O   UNL A   1      44.325  28.863  34.314  1.00  0.00    -0.237 OA
ATOM     67  O   UNL A   1      41.973  28.139  34.429  1.00  0.00    -0.744 OA
ENDBRANCH  60  64
ENDBRANCH  43  57
BRANCH  44  68
ATOM     68  C   UNL A   1      37.421  32.430  34.354  1.00  0.00     0.023 A 
ATOM     69  C   UNL A   1      38.040  32.422  35.646  1.00  0.00     0.031 A 
ATOM     70  C   UNL A   1      36.203  33.134  34.270  1.00  0.00     0.131 A 
ATOM     71  C   UNL A   1      37.476  33.160  36.731  1.00  0.00     0.055 A 
ATOM     72  C   UNL A   1      35.668  33.872  35.333  1.00  0.00     0.041 A 
ATOM     73  F   UNL A   1      35.520  33.188  33.117  1.00  0.00    -0.206 F 
ATOM     74  C   UNL A   1      36.314  33.910  36.557  1.00  0.00     0.022 A 
BRANCH  71  75
ATOM     75  S   UNL A   1      38.287  33.284  38.380  1.00  0.00     0.124 S 
ATOM     76  O   UNL A   1      39.388  32.334  38.265  1.00  0.00    -0.237 OA
ATOM     77  O   UNL A   1      38.648  34.694  38.459  1.00  0.00    -0.237 OA
ATOM     78  O   UNL A   1      37.231  32.878  39.311  1.00  0.00    -0.744 OA
ENDBRANCH  71  75
ENDBRANCH  44  68
BRANCH  56  79
ATOM     79  C   UNL A   1      36.417  30.205  28.488  1.00  0.00     0.023 A 
ATOM     80  C   UNL A   1      35.377  29.471  27.853  1.00  0.00     0.031 A 
ATOM     81  C   UNL A   1      36.323  31.610  28.412  1.00  0.00     0.131 A 
ATOM     82  C   UNL A   1      34.261  30.144  27.285  1.00  0.00     0.055 A 
ATOM     83  C   UNL A   1      35.219  32.270  27.870  1.00  0.00     0.041 A 
ATOM     84  F   UNL A   1      37.314  32.388  28.877  1.00  0.00    -0.206 F 
ATOM     85  C   UNL A   1      34.175  31.540  27.321  1.00  0.00     0.022 A 
BRANCH  82  86
ATOM     86  S   UNL A   1      32.867  29.252  26.477  1.00  0.00     0.124 S 
ATOM     87  O   UNL A   1      32.122  28.694  27.597  1.00  0.00    -0.237 OA
ATOM     88  O   UNL A   1      32.167  30.291  25.726  1.00  0.00    -0.237 OA
ATOM     89  O   UNL A   1      33.560  28.277  25.636  1.00  0.00    -0.744 OA
ENDBRANCH  82  86
ENDBRANCH  56  79
ENDBRANCH  30  31
ENDBRANCH  23  25
ENDBRANCH  22  23
ENDBRANCH  21  22
ENDBRANCH   1  21
TORSDOF 18
ENDMDL
MODEL 2
REMARK VINA RESULT:     -12.6      6.263     11.234
REMARK SMILES CC[C@@H](NS(=O)(=O)c1cc(C)ccc1C)C(=O)OCCOC(=O)c1ccc(-c2c3nc(c(-c4cc(S(=O)(=O)[O-])ccc4F)c4ccc([nH]4)c(-c4cc(S(=O)(=O)[O-])ccc4F)c4nc(c(-c5cc(S(=O)(=O)[O-])ccc5F)c5ccc2[nH]5)C=C4)C=C3)cc1
REMARK SMILES IDX 19 1 18 2 16 3 17 4 3 5 2 6 1 7 4 8 5 10 6 11 7 12 8 13 9 14
REMARK SMILES IDX 14 15 10 16 13 17 15 18 11 19 12 20 20 21 21 22 22 23 23 24
REMARK SMILES IDX 24 25 25 26 86 27 26 28 85 29 27 30 28 31 29 32 79 33 30 34
REMARK SMILES IDX 84 35 78 36 80 37 31 38 83 39 77 40 76 41 32 43 64 44 44 45
REMARK SMILES IDX 63 46 45 47 48 48 62 49 81 50 46 51 47 52 61 54 82 55 49 56
REMARK SMILES IDX 33 57 34 58 42 59 35 60 41 61 43 62 40 63 36 64 37 65 38 66
REMARK SMILES IDX 39 67 65 68 66 69 74 70 67 71 73 72 75 73 72 74 68 75 69 76
REMARK SMILES IDX 70 77 71 78 50 79 51 80 59 81 52 82 58 83 60 84 57 85 53 86
REMARK SMILES IDX 54 87 55 88 56 89
REMARK H PARENT 4 9 80 42 48 53
REMARK Flexibility Score: inf
ROOT
ATOM      1  C   UNL A   1      41.534  40.071  26.500  1.00  0.00     0.274 C 
ENDROOT
BRANCH   1   2
ATOM      2  O   UNL A   1      42.747  40.836  26.451  1.00  0.00    -0.461 OA
BRANCH   2   3
ATOM      3  C   UNL A   1      42.964  41.479  25.186  1.00  0.00     0.324 C 
ATOM      4  O   UNL A   1      41.840  41.382  24.591  1.00  0.00    -0.250 OA
BRANCH   3   5
ATOM      5  C   UNL A   1      44.763  42.531  24.554  1.00  0.00     0.179 C 
BRANCH   5   6
ATOM      6  C   UNL A   1      45.767  43.757  25.322  1.00  0.00     0.028 C 
ATOM      7  C   UNL A   1      46.501  43.315  26.607  1.00  0.00     0.006 C 
ENDBRANCH   5   6
BRANCH   5   8
ATOM      8  N   UNL A   1      46.033  41.775  23.459  1.00  0.00    -0.197 NA
ATOM      9  H   UNL A   1      45.766  40.797  23.344  1.00  0.00     0.142 HD
BRANCH   8  10
ATOM     10  S   UNL A   1      46.371  42.430  21.748  1.00  0.00     0.241 S 
ATOM     11  O   UNL A   1      47.328  43.506  21.972  1.00  0.00    -0.207 OA
ATOM     12  O   UNL A   1      46.828  41.294  20.981  1.00  0.00    -0.207 OA
BRANCH  10  13
ATOM     13  C   UNL A   1      44.771  43.332  20.672  1.00  0.00     0.085 A 
ATOM     14  C   UNL A   1      43.691  42.653  21.178  1.00  0.00     0.025 A 
ATOM     15  C   UNL A   1      44.583  44.040  19.301  1.00  0.00    -0.031 A 
ATOM     16  C   UNL A   1      42.478  42.814  20.535  1.00  0.00    -0.050 A 
ATOM     17  C   UNL A   1      43.413  43.791  18.570  1.00  0.00     0.005 A 
ATOM     18  C   UNL A   1      45.200  45.271  18.510  1.00  0.00     0.046 C 
ATOM     19  C   UNL A   1      41.347  43.034  21.462  1.00  0.00     0.044 C 
ATOM     20  C   UNL A   1      42.339  43.248  19.212  1.00  0.00     0.004 A 
ENDBRANCH  10  13
ENDBRANCH   8  10
ENDBRANCH   5   8
ENDBRANCH   3   5
ENDBRANCH   2   3
ENDBRANCH   1   2
BRANCH   1  21
ATOM     21  C   UNL A   1      41.858  38.640  26.904  1.00  0.00     0.275 C 
BRANCH  21  22
ATOM     22  O   UNL A   1      43.221  38.088  26.762  1.00  0.00    -0.458 OA
BRANCH  22  23
ATOM     23  C   UNL A   1      43.897  36.971  27.141  1.00  0.00     0.338 C 
ATOM     24  O   UNL A   1      45.106  37.002  27.351  1.00  0.00    -0.246 OA
BRANCH  23  25
ATOM     25  C   UNL A   1      43.275  35.623  27.022  1.00  0.00     0.060 A 
ATOM     26  C   UNL A   1      43.087  34.920  28.633  1.00  0.00     0.016 A 
ATOM     27  C   UNL A   1      43.675  34.581  25.621  1.00  0.00     0.016 A 
ATOM     28  C   UNL A   1      43.562  33.165  28.829  1.00  0.00     0.010 A 
ATOM     29  C   UNL A   1      44.033  32.817  25.803  1.00  0.00     0.010 A 
ATOM     30  C   UNL A   1      44.127  32.053  27.412  1.00  0.00    -0.014 A 
BRANCH  30  31
ATOM     31  C   UNL A   1      44.745  30.362  27.294  1.00  0.00     0.031 A 
ATOM     32  C   UNL A   1      43.667  29.347  27.609  1.00  0.00     0.074 A 
ATOM     33  C   UNL A   1      45.958  29.590  27.106  1.00  0.00     0.049 A 
ATOM     34  N   UNL A   1      43.826  28.451  28.537  1.00  0.00    -0.248 NA
ATOM     35  C   UNL A   1      42.333  29.324  27.007  1.00  0.00     0.031 C 
ATOM     36  C   UNL A   1      47.384  29.942  27.127  1.00  0.00     0.029 A 
ATOM     37  N   UNL A   1      46.188  28.200  26.732  1.00  0.00    -0.354 N 
ATOM     38  C   UNL A   1      42.686  27.674  28.555  1.00  0.00     0.074 A 
ATOM     39  C   UNL A   1      41.759  28.300  27.648  1.00  0.00     0.031 C 
ATOM     40  C   UNL A   1      48.192  29.173  26.382  1.00  0.00     0.029 A 
ATOM     41  C   UNL A   1      47.465  27.963  26.060  1.00  0.00     0.049 A 
ATOM     42  H   UNL A   1      45.539  27.482  26.915  1.00  0.00     0.167 HD
ATOM     43  C   UNL A   1      42.708  26.446  29.134  1.00  0.00     0.034 A 
ATOM     44  C   UNL A   1      48.282  26.881  25.784  1.00  0.00     0.034 A 
ATOM     45  C   UNL A   1      43.760  26.325  30.116  1.00  0.00     0.049 A 
ATOM     46  C   UNL A   1      48.150  25.893  26.854  1.00  0.00     0.074 A 
ATOM     47  C   UNL A   1      43.977  26.772  31.401  1.00  0.00     0.029 A 
ATOM     48  N   UNL A   1      44.977  25.952  29.619  1.00  0.00    -0.354 N 
ATOM     49  N   UNL A   1      48.649  26.041  28.046  1.00  0.00    -0.248 NA
ATOM     50  C   UNL A   1      47.133  24.871  26.699  1.00  0.00     0.031 C 
ATOM     51  C   UNL A   1      45.388  26.731  31.616  1.00  0.00     0.029 A 
ATOM     52  C   UNL A   1      46.012  26.178  30.500  1.00  0.00     0.049 A 
ATOM     53  H   UNL A   1      45.102  25.563  28.723  1.00  0.00     0.167 HD
ATOM     54  C   UNL A   1      47.700  25.471  28.866  1.00  0.00     0.074 A 
ATOM     55  C   UNL A   1      46.866  24.653  27.985  1.00  0.00     0.031 C 
ATOM     56  C   UNL A   1      47.411  26.027  30.077  1.00  0.00     0.034 A 
BRANCH  43  57
ATOM     57  C   UNL A   1      42.111  25.246  28.436  1.00  0.00     0.023 A 
ATOM     58  C   UNL A   1      42.923  24.418  27.638  1.00  0.00     0.031 A 
ATOM     59  C   UNL A   1      40.712  25.081  28.285  1.00  0.00     0.131 A 
ATOM     60  C   UNL A   1      42.339  23.505  26.736  1.00  0.00     0.055 A 
ATOM     61  C   UNL A   1      40.141  24.139  27.431  1.00  0.00     0.041 A 
ATOM     62  F   UNL A   1      39.830  25.900  28.878  1.00  0.00    -0.206 F 
ATOM     63  C   UNL A   1      40.955  23.353  26.638  1.00  0.00     0.022 A 
BRANCH  60  64
ATOM     64  S   UNL A   1      43.403  22.609  25.569  1.00  0.00     0.124 S 
ATOM     65  O   UNL A   1      44.601  22.377  26.368  1.00  0.00    -0.237 OA
ATOM     66  O   UNL A   1      42.594  21.434  25.262  1.00  0.00    -0.237 OA
ATOM     67  O   UNL A   1      43.566  23.552  24.464  1.00  0.00    -0.744 OA
ENDBRANCH  60  64
ENDBRANCH  43  57
BRANCH  44  68
ATOM     68  C   UNL A   1      49.243  26.677  24.623  1.00  0.00     0.023 A 
ATOM     69  C   UNL A   1      48.891  26.658  23.235  1.00  0.00     0.031 A 
ATOM     70  C   UNL A   1      50.624  26.757  24.898  1.00  0.00     0.131 A 
ATOM     71  C   UNL A   1      49.892  26.798  22.225  1.00  0.00     0.055 A 
ATOM     72  C   UNL A   1      51.596  26.916  23.903  1.00  0.00     0.041 A 
ATOM     73  F   UNL A   1      51.073  26.757  26.161  1.00  0.00    -0.206 F 
ATOM     74  C   UNL A   1      51.234  26.964  22.568  1.00  0.00     0.022 A 
BRANCH  71  75
ATOM     75  S   UNL A   1      49.490  26.898  20.431  1.00  0.00     0.124 S 
ATOM     76  O   UNL A   1      50.141  28.139  20.028  1.00  0.00    -0.237 OA
ATOM     77  O   UNL A   1      50.057  25.663  19.902  1.00  0.00    -0.237 OA
ATOM     78  O   UNL A   1      48.026  26.947  20.411  1.00  0.00    -0.744 OA
ENDBRANCH  71  75
ENDBRANCH  44  68
BRANCH  56  79
ATOM     79  C   UNL A   1      48.554  26.568  30.938  1.00  0.00     0.023 A 
ATOM     80  C   UNL A   1      49.439  25.833  31.774  1.00  0.00     0.031 A 
ATOM     81  C   UNL A   1      48.777  27.958  30.868  1.00  0.00     0.131 A 
ATOM     82  C   UNL A   1      50.546  26.474  32.396  1.00  0.00     0.055 A 
ATOM     83  C   UNL A   1      49.872  28.585  31.464  1.00  0.00     0.041 A 
ATOM     84  F   UNL A   1      47.925  28.755  30.201  1.00  0.00    -0.206 F 
ATOM     85  C   UNL A   1      50.772  27.843  32.215  1.00  0.00     0.022 A 
BRANCH  82  86
ATOM     86  S   UNL A   1      51.746  25.573  33.464  1.00  0.00     0.124 S 
ATOM     87  O   UNL A   1      50.921  25.051  34.543  1.00  0.00    -0.237 OA
ATOM     88  O   UNL A   1      52.321  24.563  32.580  1.00  0.00    -0.237 OA
ATOM     89  O   UNL A   1      52.684  26.629  33.846  1.00  0.00    -0.744 OA
ENDBRANCH  82  86
ENDBRANCH  56  79
ENDBRANCH  30  31
ENDBRANCH  23  25
ENDBRANCH  22  23
ENDBRANCH  21  22
ENDBRANCH   1  21
TORSDOF 18
ENDMDL
MODEL 3
REMARK VINA RESULT:     -12.4      6.604     12.420
REMARK SMILES CC[C@@H](NS(=O)(=O)c1cc(C)ccc1C)C(=O)OCCOC(=O)c1ccc(-c2c3nc(c(-c4cc(S(=O)(=O)[O-])ccc4F)c4ccc([nH]4)c(-c4cc(S(=O)(=O)[O-])ccc4F)c4nc(c(-c5cc(S(=O)(=O)[O-])ccc5F)c5ccc2[nH]5)C=C4)C=C3)cc1
REMARK SMILES IDX 19 1 18 2 16 3 17 4 3 5 2 6 1 7 4 8 5 10 6 11 7 12 8 13 9 14
REMARK SMILES IDX 14 15 10 16 13 17 15 18 11 19 12 20 20 21 21 22 22 23 23 24
REMARK SMILES IDX 24 25 25 26 86 27 26 28 85 29 27 30 28 31 29 32 79 33 30 34
REMARK SMILES IDX 84 35 78 36 80 37 31 38 83 39 77 40 76 41 32 43 64 44 44 45
REMARK SMILES IDX 63 46 45 47 48 48 62 49 81 50 46 51 47 52 61 54 82 55 49 56
REMARK SMILES IDX 33 57 34 58 42 59 35 60 41 61 43 62 40 63 36 64 37 65 38 66
REMARK SMILES IDX 39 67 65 68 66 69 74 70 67 71 73 72 75 73 72 74 68 75 69 76
REMARK SMILES IDX 70 77 71 78 50 79 51 80 59 81 52 82 58 83 60 84 57 85 53 86
REMARK SMILES IDX 54 87 55 88 56 89
REMARK H PARENT 4 9 80 42 48 53
REMARK Flexibility Score: inf
ROOT
ATOM      1  C   UNL A   1      45.029  23.760  24.642  1.00  0.00     0.274 C 
ENDROOT
BRANCH   1   2
ATOM      2  O   UNL A   1      44.782  24.462  25.869  1.00  0.00    -0.461 OA
BRANCH   2   3
ATOM      3  C   UNL A   1      44.692  25.884  25.705  1.00  0.00     0.324 C 
ATOM      4  O   UNL A   1      43.571  26.059  25.121  1.00  0.00    -0.250 OA
BRANCH   3   5
ATOM      5  C   UNL A   1      46.086  27.373  26.467  1.00  0.00     0.179 C 
BRANCH   5   6
ATOM      6  C   UNL A   1      46.643  27.775  28.089  1.00  0.00     0.028 C 
ATOM      7  C   UNL A   1      47.406  26.657  28.833  1.00  0.00     0.006 C 
ENDBRANCH   5   6
BRANCH   5   8
ATOM      8  N   UNL A   1      47.551  27.952  25.517  1.00  0.00    -0.197 NA
ATOM      9  H   UNL A   1      48.368  27.728  26.086  1.00  0.00     0.142 HD
BRANCH   8  10
ATOM     10  S   UNL A   1      47.921  27.325  23.801  1.00  0.00     0.241 S 
ATOM     11  O   UNL A   1      47.548  25.917  23.860  1.00  0.00    -0.207 OA
ATOM     12  O   UNL A   1      47.161  28.169  22.908  1.00  0.00    -0.207 OA
BRANCH  10  13
ATOM     13  C   UNL A   1      49.941  27.332  23.131  1.00  0.00     0.085 A 
ATOM     14  C   UNL A   1      50.600  26.916  24.260  1.00  0.00     0.025 A 
ATOM     15  C   UNL A   1      50.778  28.087  22.061  1.00  0.00    -0.031 A 
ATOM     16  C   UNL A   1      51.978  27.023  24.271  1.00  0.00    -0.050 A 
ATOM     17  C   UNL A   1      52.088  28.473  22.380  1.00  0.00     0.005 A 
ATOM     18  C   UNL A   1      50.739  28.347  20.494  1.00  0.00     0.046 C 
ATOM     19  C   UNL A   1      52.656  25.818  24.795  1.00  0.00     0.044 C 
ATOM     20  C   UNL A   1      52.707  27.881  23.440  1.00  0.00     0.004 A 
ENDBRANCH  10  13
ENDBRANCH   8  10
ENDBRANCH   5   8
ENDBRANCH   3   5
ENDBRANCH   2   3
ENDBRANCH   1   2
BRANCH   1  21
ATOM     21  C   UNL A   1      43.998  22.652  24.480  1.00  0.00     0.275 C 
BRANCH  21  22
ATOM     22  O   UNL A   1      42.649  22.761  25.072  1.00  0.00    -0.458 OA
BRANCH  22  23
ATOM     23  C   UNL A   1      41.917  22.126  26.027  1.00  0.00     0.338 C 
ATOM     24  O   UNL A   1      41.497  20.987  25.852  1.00  0.00    -0.246 OA
BRANCH  23  25
ATOM     25  C   UNL A   1      41.342  22.881  27.176  1.00  0.00     0.060 A 
ATOM     26  C   UNL A   1      39.795  23.588  26.696  1.00  0.00     0.016 A 
ATOM     27  C   UNL A   1      42.429  23.759  28.296  1.00  0.00     0.016 A 
ATOM     28  C   UNL A   1      39.492  25.323  27.187  1.00  0.00     0.010 A 
ATOM     29  C   UNL A   1      42.069  25.436  28.872  1.00  0.00     0.010 A 
ATOM     30  C   UNL A   1      40.668  26.347  28.251  1.00  0.00    -0.014 A 
BRANCH  30  31
ATOM     31  C   UNL A   1      40.709  28.063  28.807  1.00  0.00     0.031 A 
ATOM     32  C   UNL A   1      41.835  28.838  28.157  1.00  0.00     0.074 A 
ATOM     33  C   UNL A   1      40.109  28.979  29.757  1.00  0.00     0.049 A 
ATOM     34  N   UNL A   1      42.728  29.463  28.864  1.00  0.00    -0.248 NA
ATOM     35  C   UNL A   1      42.103  28.881  26.718  1.00  0.00     0.031 C 
ATOM     36  C   UNL A   1      39.241  28.786  30.926  1.00  0.00     0.029 A 
ATOM     37  N   UNL A   1      40.078  30.435  29.830  1.00  0.00    -0.354 N 
ATOM     38  C   UNL A   1      43.588  30.083  27.981  1.00  0.00     0.074 A 
ATOM     39  C   UNL A   1      43.210  29.630  26.667  1.00  0.00     0.031 C 
ATOM     40  C   UNL A   1      38.426  29.807  31.231  1.00  0.00     0.029 A 
ATOM     41  C   UNL A   1      38.912  30.976  30.528  1.00  0.00     0.049 A 
ATOM     42  H   UNL A   1      40.780  31.005  29.442  1.00  0.00     0.167 HD
ATOM     43  C   UNL A   1      44.375  31.106  28.402  1.00  0.00     0.034 A 
ATOM     44  C   UNL A   1      38.549  32.171  31.122  1.00  0.00     0.034 A 
ATOM     45  C   UNL A   1      44.601  31.070  29.827  1.00  0.00     0.049 A 
ATOM     46  C   UNL A   1      39.739  32.817  31.673  1.00  0.00     0.074 A 
ATOM     47  C   UNL A   1      45.366  30.319  30.694  1.00  0.00     0.029 A 
ATOM     48  N   UNL A   1      43.645  31.687  30.583  1.00  0.00    -0.354 N 
ATOM     49  N   UNL A   1      40.359  32.409  32.741  1.00  0.00    -0.248 NA
ATOM     50  C   UNL A   1      40.464  33.731  30.812  1.00  0.00     0.031 C 
ATOM     51  C   UNL A   1      44.769  30.449  31.985  1.00  0.00     0.029 A 
ATOM     52  C   UNL A   1      43.703  31.343  31.916  1.00  0.00     0.049 A 
ATOM     53  H   UNL A   1      42.980  32.313  30.213  1.00  0.00     0.167 HD
ATOM     54  C   UNL A   1      41.686  32.636  32.449  1.00  0.00     0.074 A 
ATOM     55  C   UNL A   1      41.683  33.567  31.322  1.00  0.00     0.031 C 
ATOM     56  C   UNL A   1      42.642  31.747  32.848  1.00  0.00     0.034 A 
BRANCH  43  57
ATOM     57  C   UNL A   1      44.492  32.380  27.597  1.00  0.00     0.023 A 
ATOM     58  C   UNL A   1      43.827  33.546  28.023  1.00  0.00     0.031 A 
ATOM     59  C   UNL A   1      44.979  32.389  26.267  1.00  0.00     0.131 A 
ATOM     60  C   UNL A   1      43.657  34.631  27.138  1.00  0.00     0.055 A 
ATOM     61  C   UNL A   1      44.856  33.485  25.415  1.00  0.00     0.041 A 
ATOM     62  F   UNL A   1      45.503  31.296  25.693  1.00  0.00    -0.206 F 
ATOM     63  C   UNL A   1      44.178  34.611  25.843  1.00  0.00     0.022 A 
BRANCH  60  64
ATOM     64  S   UNL A   1      42.614  36.029  27.640  1.00  0.00     0.124 S 
ATOM     65  O   UNL A   1      41.359  35.732  26.958  1.00  0.00    -0.237 OA
ATOM     66  O   UNL A   1      42.606  35.896  29.093  1.00  0.00    -0.237 OA
ATOM     67  O   UNL A   1      43.336  37.193  27.131  1.00  0.00    -0.744 OA
ENDBRANCH  60  64
ENDBRANCH  43  57
BRANCH  44  68
ATOM     68  C   UNL A   1      37.163  32.779  31.284  1.00  0.00     0.023 A 
ATOM     69  C   UNL A   1      36.380  33.375  30.243  1.00  0.00     0.031 A 
ATOM     70  C   UNL A   1      36.478  32.526  32.489  1.00  0.00     0.131 A 
ATOM     71  C   UNL A   1      34.982  33.605  30.422  1.00  0.00     0.055 A 
ATOM     72  C   UNL A   1      35.103  32.735  32.648  1.00  0.00     0.041 A 
ATOM     73  F   UNL A   1      37.115  31.994  33.542  1.00  0.00    -0.206 F 
ATOM     74  C   UNL A   1      34.345  33.248  31.609  1.00  0.00     0.022 A 
BRANCH  71  75
ATOM     75  S   UNL A   1      33.901  34.258  29.081  1.00  0.00     0.124 S 
ATOM     76  O   UNL A   1      32.734  34.732  29.817  1.00  0.00    -0.237 OA
ATOM     77  O   UNL A   1      34.737  35.277  28.458  1.00  0.00    -0.237 OA
ATOM     78  O   UNL A   1      33.652  33.084  28.240  1.00  0.00    -0.744 OA
ENDBRANCH  71  75
ENDBRANCH  44  68
BRANCH  56  79
ATOM     79  C   UNL A   1      42.537  31.118  34.239  1.00  0.00     0.023 A 
ATOM     80  C   UNL A   1      42.276  29.758  34.563  1.00  0.00     0.031 A 
ATOM     81  C   UNL A   1      42.759  31.985  35.328  1.00  0.00     0.131 A 
ATOM     82  C   UNL A   1      42.358  29.307  35.909  1.00  0.00     0.055 A 
ATOM     83  C   UNL A   1      42.857  31.540  36.647  1.00  0.00     0.041 A 
ATOM     84  F   UNL A   1      42.897  33.307  35.133  1.00  0.00    -0.206 F 
ATOM     85  C   UNL A   1      42.675  30.197  36.942  1.00  0.00     0.022 A 
BRANCH  82  86
ATOM     86  S   UNL A   1      42.063  27.555  36.392  1.00  0.00     0.124 S 
ATOM     87  O   UNL A   1      40.759  27.592  37.039  1.00  0.00    -0.237 OA
ATOM     88  O   UNL A   1      42.104  26.825  35.127  1.00  0.00    -0.237 OA
ATOM     89  O   UNL A   1      43.195  27.275  37.275  1.00  0.00    -0.744 OA
ENDBRANCH  82  86
ENDBRANCH  56  79
ENDBRANCH  30  31
ENDBRANCH  23  25
ENDBRANCH  22  23
ENDBRANCH  21  22
ENDBRANCH   1  21
TORSDOF 18
ENDMDL
