MODEL 1
REMARK VINA RESULT:     -10.0      0.000      0.000
REMARK SMILES C[C@@H](C(=O)OCCOC(=O)c1ccc(-c2c3nc(c(-c4cc(S(=O)(=O)[O-])ccc4F)c4ccc([nH]4)c(-c4cc(S(=O)(=O)[O-])ccc4F)c4nc(c(-c5cc(S(=O)(=O)[O-])ccc5F)c5ccc2[nH]5)C=C4)C=C3)cc1)c1ccc(-c2ccccc2)cc1
REMARK SMILES IDX 7 1 6 2 5 3 3 4 4 5 2 6 1 7 74 8 75 9 85 10 76 11 84 12
REMARK SMILES IDX 77 13 78 14 79 15 83 16 80 17 82 18 81 19 8 20 9 21 10 22
REMARK SMILES IDX 11 23 12 24 73 25 13 26 72 27 14 28 15 29 16 30 66 31 17 32
REMARK SMILES IDX 71 33 65 34 67 35 18 36 70 37 64 38 63 39 19 41 51 42 31 43
REMARK SMILES IDX 50 44 32 45 35 46 49 47 68 48 33 49 34 50 48 52 69 53 36 54
REMARK SMILES IDX 20 55 21 56 29 57 22 58 28 59 30 60 27 61 23 62 24 63 25 64
REMARK SMILES IDX 26 65 52 66 53 67 61 68 54 69 60 70 62 71 59 72 55 73 56 74
REMARK SMILES IDX 57 75 58 76 37 77 38 78 46 79 39 80 45 81 47 82 44 83 40 84
REMARK SMILES IDX 41 85 42 86 43 87
REMARK H PARENT 67 40 35 51
REMARK Flexibility Score: inf
ROOT
ATOM      1  C   UNL A   1      41.230  19.777  26.148  1.00  0.00     0.275 C 
ENDROOT
BRANCH   1   2
ATOM      2  C   UNL A   1      42.709  20.029  26.416  1.00  0.00     0.274 C 
BRANCH   2   3
ATOM      3  O   UNL A   1      43.353  20.517  25.222  1.00  0.00    -0.462 OA
BRANCH   3   4
ATOM      4  C   UNL A   1      43.596  21.858  25.156  1.00  0.00     0.313 C 
ATOM      5  O   UNL A   1      42.720  22.700  24.992  1.00  0.00    -0.252 OA
BRANCH   4   6
ATOM      6  C   UNL A   1      45.093  22.189  25.233  1.00  0.00     0.126 C 
ATOM      7  C   UNL A   1      45.997  20.970  25.016  1.00  0.00     0.025 C 
BRANCH   6   8
ATOM      8  C   UNL A   1      45.431  22.970  26.499  1.00  0.00    -0.034 A 
ATOM      9  C   UNL A   1      44.631  22.941  27.645  1.00  0.00     0.005 A 
ATOM     10  C   UNL A   1      46.557  23.804  26.516  1.00  0.00     0.005 A 
ATOM     11  C   UNL A   1      44.929  23.748  28.756  1.00  0.00     0.009 A 
ATOM     12  C   UNL A   1      46.853  24.605  27.630  1.00  0.00     0.009 A 
ATOM     13  C   UNL A   1      46.030  24.624  28.769  1.00  0.00    -0.018 A 
BRANCH  13  14
ATOM     14  C   UNL A   1      46.256  25.579  29.890  1.00  0.00    -0.018 A 
ATOM     15  C   UNL A   1      47.486  25.653  30.572  1.00  0.00     0.009 A 
ATOM     16  C   UNL A   1      45.223  26.412  30.367  1.00  0.00     0.009 A 
ATOM     17  C   UNL A   1      47.666  26.490  31.681  1.00  0.00     0.001 A 
ATOM     18  C   UNL A   1      45.406  27.266  31.461  1.00  0.00     0.001 A 
ATOM     19  C   UNL A   1      46.625  27.296  32.126  1.00  0.00     0.000 A 
ENDBRANCH  13  14
ENDBRANCH   6   8
ENDBRANCH   4   6
ENDBRANCH   3   4
ENDBRANCH   2   3
ENDBRANCH   1   2
BRANCH   1  20
ATOM     20  O   UNL A   1      40.445  20.593  27.034  1.00  0.00    -0.458 OA
BRANCH  20  21
ATOM     21  C   UNL A   1      39.633  21.500  26.446  1.00  0.00     0.338 C 
ATOM     22  O   UNL A   1      38.801  21.289  25.574  1.00  0.00    -0.246 OA
BRANCH  21  23
ATOM     23  C   UNL A   1      39.900  22.835  27.005  1.00  0.00     0.060 A 
ATOM     24  C   UNL A   1      39.238  23.949  26.495  1.00  0.00     0.016 A 
ATOM     25  C   UNL A   1      40.898  22.993  27.969  1.00  0.00     0.016 A 
ATOM     26  C   UNL A   1      39.647  25.227  26.877  1.00  0.00     0.010 A 
ATOM     27  C   UNL A   1      41.242  24.276  28.411  1.00  0.00     0.010 A 
ATOM     28  C   UNL A   1      40.659  25.417  27.831  1.00  0.00    -0.014 A 
BRANCH  28  29
ATOM     29  C   UNL A   1      41.155  26.793  28.153  1.00  0.00     0.031 A 
ATOM     30  C   UNL A   1      42.520  27.240  27.681  1.00  0.00     0.074 A 
ATOM     31  C   UNL A   1      40.378  27.669  28.822  1.00  0.00     0.049 A 
ATOM     32  N   UNL A   1      43.204  28.310  28.001  1.00  0.00    -0.248 NA
ATOM     33  C   UNL A   1      43.221  26.348  26.743  1.00  0.00     0.031 C 
ATOM     34  C   UNL A   1      39.013  27.413  29.282  1.00  0.00     0.029 A 
ATOM     35  N   UNL A   1      40.607  28.972  29.194  1.00  0.00    -0.354 N 
ATOM     36  C   UNL A   1      44.440  28.179  27.373  1.00  0.00     0.074 A 
ATOM     37  C   UNL A   1      44.409  26.927  26.649  1.00  0.00     0.031 C 
ATOM     38  C   UNL A   1      38.493  28.547  29.775  1.00  0.00     0.029 A 
ATOM     39  C   UNL A   1      39.518  29.583  29.772  1.00  0.00     0.049 A 
ATOM     40  H   UNL A   1      41.470  29.426  29.059  1.00  0.00     0.167 HD
ATOM     41  C   UNL A   1      45.504  29.021  27.411  1.00  0.00     0.034 A 
ATOM     42  C   UNL A   1      39.365  30.829  30.264  1.00  0.00     0.034 A 
ATOM     43  C   UNL A   1      45.488  30.309  28.064  1.00  0.00     0.049 A 
ATOM     44  C   UNL A   1      40.548  31.761  30.270  1.00  0.00     0.074 A 
ATOM     45  C   UNL A   1      46.513  31.234  28.176  1.00  0.00     0.029 A 
ATOM     46  N   UNL A   1      44.381  30.869  28.688  1.00  0.00    -0.354 N 
ATOM     47  N   UNL A   1      41.753  31.569  29.785  1.00  0.00    -0.248 NA
ATOM     48  C   UNL A   1      40.359  33.065  30.918  1.00  0.00     0.031 C 
ATOM     49  C   UNL A   1      46.039  32.333  28.903  1.00  0.00     0.029 A 
ATOM     50  C   UNL A   1      44.701  32.121  29.194  1.00  0.00     0.049 A 
ATOM     51  H   UNL A   1      43.499  30.440  28.762  1.00  0.00     0.167 HD
ATOM     52  C   UNL A   1      42.470  32.721  30.093  1.00  0.00     0.074 A 
ATOM     53  C   UNL A   1      41.549  33.623  30.751  1.00  0.00     0.031 C 
ATOM     54  C   UNL A   1      43.780  32.999  29.871  1.00  0.00     0.034 A 
BRANCH  41  55
ATOM     55  C   UNL A   1      46.797  28.543  26.795  1.00  0.00     0.023 A 
ATOM     56  C   UNL A   1      46.973  28.419  25.406  1.00  0.00     0.031 A 
ATOM     57  C   UNL A   1      47.873  28.183  27.629  1.00  0.00     0.131 A 
ATOM     58  C   UNL A   1      48.172  27.890  24.899  1.00  0.00     0.055 A 
ATOM     59  C   UNL A   1      49.088  27.728  27.115  1.00  0.00     0.041 A 
ATOM     60  F   UNL A   1      47.757  28.262  28.965  1.00  0.00    -0.206 F 
ATOM     61  C   UNL A   1      49.238  27.565  25.742  1.00  0.00     0.022 A 
BRANCH  58  62
ATOM     62  S   UNL A   1      48.272  27.507  23.129  1.00  0.00     0.124 S 
ATOM     63  O   UNL A   1      48.206  26.047  23.137  1.00  0.00    -0.237 OA
ATOM     64  O   UNL A   1      47.105  28.196  22.592  1.00  0.00    -0.237 OA
ATOM     65  O   UNL A   1      49.564  28.062  22.730  1.00  0.00    -0.744 OA
ENDBRANCH  58  62
ENDBRANCH  41  55
BRANCH  42  66
ATOM     66  C   UNL A   1      38.058  31.258  30.844  1.00  0.00     0.023 A 
ATOM     67  C   UNL A   1      37.101  31.916  30.056  1.00  0.00     0.031 A 
ATOM     68  C   UNL A   1      37.759  31.043  32.201  1.00  0.00     0.131 A 
ATOM     69  C   UNL A   1      35.902  32.358  30.636  1.00  0.00     0.055 A 
ATOM     70  C   UNL A   1      36.540  31.433  32.760  1.00  0.00     0.041 A 
ATOM     71  F   UNL A   1      38.642  30.428  33.004  1.00  0.00    -0.206 F 
ATOM     72  C   UNL A   1      35.607  32.104  31.978  1.00  0.00     0.022 A 
BRANCH  69  73
ATOM     73  S   UNL A   1      34.757  33.339  29.628  1.00  0.00     0.124 S 
ATOM     74  O   UNL A   1      35.660  34.298  29.000  1.00  0.00    -0.237 OA
ATOM     75  O   UNL A   1      34.184  32.325  28.749  1.00  0.00    -0.237 OA
ATOM     76  O   UNL A   1      33.834  33.903  30.610  1.00  0.00    -0.744 OA
ENDBRANCH  69  73
ENDBRANCH  42  66
BRANCH  54  77
ATOM     77  C   UNL A   1      44.278  34.339  30.347  1.00  0.00     0.023 A 
ATOM     78  C   UNL A   1      44.852  34.494  31.622  1.00  0.00     0.031 A 
ATOM     79  C   UNL A   1      44.159  35.476  29.531  1.00  0.00     0.131 A 
ATOM     80  C   UNL A   1      45.239  35.766  32.065  1.00  0.00     0.055 A 
ATOM     81  C   UNL A   1      44.591  36.733  29.958  1.00  0.00     0.041 A 
ATOM     82  F   UNL A   1      43.617  35.384  28.307  1.00  0.00    -0.206 F 
ATOM     83  C   UNL A   1      45.122  36.886  31.236  1.00  0.00     0.022 A 
BRANCH  80  84
ATOM     84  S   UNL A   1      45.822  35.957  33.773  1.00  0.00     0.124 S 
ATOM     85  O   UNL A   1      46.400  37.296  33.749  1.00  0.00    -0.237 OA
ATOM     86  O   UNL A   1      44.590  35.807  34.542  1.00  0.00    -0.237 OA
ATOM     87  O   UNL A   1      46.785  34.868  33.930  1.00  0.00    -0.744 OA
ENDBRANCH  80  84
ENDBRANCH  54  77
ENDBRANCH  28  29
ENDBRANCH  21  23
ENDBRANCH  20  21
ENDBRANCH   1  20
TORSDOF 16
ENDMDL
MODEL 2
REMARK VINA RESULT:     -10.0      4.446     10.684
REMARK SMILES C[C@@H](C(=O)OCCOC(=O)c1ccc(-c2c3nc(c(-c4cc(S(=O)(=O)[O-])ccc4F)c4ccc([nH]4)c(-c4cc(S(=O)(=O)[O-])ccc4F)c4nc(c(-c5cc(S(=O)(=O)[O-])ccc5F)c5ccc2[nH]5)C=C4)C=C3)cc1)c1ccc(-c2ccccc2)cc1
REMARK SMILES IDX 7 1 6 2 5 3 3 4 4 5 2 6 1 7 74 8 75 9 85 10 76 11 84 12
REMARK SMILES IDX 77 13 78 14 79 15 83 16 80 17 82 18 81 19 8 20 9 21 10 22
REMARK SMILES IDX 11 23 12 24 73 25 13 26 72 27 14 28 15 29 16 30 66 31 17 32
REMARK SMILES IDX 71 33 65 34 67 35 18 36 70 37 64 38 63 39 19 41 51 42 31 43
REMARK SMILES IDX 50 44 32 45 35 46 49 47 68 48 33 49 34 50 48 52 69 53 36 54
REMARK SMILES IDX 20 55 21 56 29 57 22 58 28 59 30 60 27 61 23 62 24 63 25 64
REMARK SMILES IDX 26 65 52 66 53 67 61 68 54 69 60 70 62 71 59 72 55 73 56 74
REMARK SMILES IDX 57 75 58 76 37 77 38 78 46 79 39 80 45 81 47 82 44 83 40 84
REMARK SMILES IDX 41 85 42 86 43 87
REMARK H PARENT 67 40 35 51
REMARK Flexibility Score: inf
ROOT
ATOM      1  C   UNL A   1      35.855  21.137  25.615  1.00  0.00     0.275 C 
ENDROOT
BRANCH   1   2
ATOM      2  C   UNL A   1      34.697  21.130  24.622  1.00  0.00     0.274 C 
BRANCH   2   3
ATOM      3  O   UNL A   1      33.881  22.304  24.806  1.00  0.00    -0.462 OA
BRANCH   3   4
ATOM      4  C   UNL A   1      33.619  23.054  23.697  1.00  0.00     0.313 C 
ATOM      5  O   UNL A   1      33.177  22.590  22.652  1.00  0.00    -0.252 OA
BRANCH   4   6
ATOM      6  C   UNL A   1      34.013  24.527  23.876  1.00  0.00     0.126 C 
ATOM      7  C   UNL A   1      34.774  24.799  25.179  1.00  0.00     0.025 C 
BRANCH   6   8
ATOM      8  C   UNL A   1      32.821  25.456  23.672  1.00  0.00    -0.034 A 
ATOM      9  C   UNL A   1      32.679  26.270  22.543  1.00  0.00     0.005 A 
ATOM     10  C   UNL A   1      31.843  25.557  24.671  1.00  0.00     0.005 A 
ATOM     11  C   UNL A   1      31.613  27.179  22.438  1.00  0.00     0.009 A 
ATOM     12  C   UNL A   1      30.778  26.464  24.558  1.00  0.00     0.009 A 
ATOM     13  C   UNL A   1      30.650  27.324  23.454  1.00  0.00    -0.018 A 
BRANCH  13  14
ATOM     14  C   UNL A   1      29.609  28.388  23.399  1.00  0.00    -0.018 A 
ATOM     15  C   UNL A   1      28.253  28.095  23.156  1.00  0.00     0.009 A 
ATOM     16  C   UNL A   1      29.944  29.753  23.524  1.00  0.00     0.009 A 
ATOM     17  C   UNL A   1      27.293  29.106  23.019  1.00  0.00     0.001 A 
ATOM     18  C   UNL A   1      28.984  30.764  23.409  1.00  0.00     0.001 A 
ATOM     19  C   UNL A   1      27.659  30.441  23.144  1.00  0.00     0.000 A 
ENDBRANCH  13  14
ENDBRANCH   6   8
ENDBRANCH   4   6
ENDBRANCH   3   4
ENDBRANCH   2   3
ENDBRANCH   1   2
BRANCH   1  20
ATOM     20  O   UNL A   1      37.032  21.640  24.961  1.00  0.00    -0.458 OA
BRANCH  20  21
ATOM     21  C   UNL A   1      38.215  21.276  25.502  1.00  0.00     0.338 C 
ATOM     22  O   UNL A   1      38.717  20.159  25.496  1.00  0.00    -0.246 OA
BRANCH  21  23
ATOM     23  C   UNL A   1      38.846  22.443  26.139  1.00  0.00     0.060 A 
ATOM     24  C   UNL A   1      38.271  23.705  26.006  1.00  0.00     0.016 A 
ATOM     25  C   UNL A   1      40.078  22.299  26.779  1.00  0.00     0.016 A 
ATOM     26  C   UNL A   1      38.978  24.832  26.425  1.00  0.00     0.010 A 
ATOM     27  C   UNL A   1      40.741  23.428  27.275  1.00  0.00     0.010 A 
ATOM     28  C   UNL A   1      40.226  24.718  27.057  1.00  0.00    -0.014 A 
BRANCH  28  29
ATOM     29  C   UNL A   1      41.017  25.941  27.407  1.00  0.00     0.031 A 
ATOM     30  C   UNL A   1      40.468  26.948  28.392  1.00  0.00     0.074 A 
ATOM     31  C   UNL A   1      42.247  26.140  26.890  1.00  0.00     0.049 A 
ATOM     32  N   UNL A   1      40.904  28.146  28.691  1.00  0.00    -0.248 NA
ATOM     33  C   UNL A   1      39.247  26.564  29.119  1.00  0.00     0.031 C 
ATOM     34  C   UNL A   1      42.944  25.228  25.982  1.00  0.00     0.029 A 
ATOM     35  N   UNL A   1      43.153  27.155  27.089  1.00  0.00    -0.354 N 
ATOM     36  C   UNL A   1      39.971  28.687  29.572  1.00  0.00     0.074 A 
ATOM     37  C   UNL A   1      38.947  27.683  29.763  1.00  0.00     0.031 C 
ATOM     38  C   UNL A   1      44.196  25.667  25.790  1.00  0.00     0.029 A 
ATOM     39  C   UNL A   1      44.362  26.949  26.465  1.00  0.00     0.049 A 
ATOM     40  H   UNL A   1      42.954  27.955  27.627  1.00  0.00     0.167 HD
ATOM     41  C   UNL A   1      39.966  29.913  30.155  1.00  0.00     0.034 A 
ATOM     42  C   UNL A   1      45.473  27.711  26.423  1.00  0.00     0.034 A 
ATOM     43  C   UNL A   1      41.040  30.870  30.025  1.00  0.00     0.049 A 
ATOM     44  C   UNL A   1      45.459  29.056  27.102  1.00  0.00     0.074 A 
ATOM     45  C   UNL A   1      41.131  32.144  30.560  1.00  0.00     0.029 A 
ATOM     46  N   UNL A   1      42.226  30.645  29.338  1.00  0.00    -0.354 N 
ATOM     47  N   UNL A   1      44.513  29.607  27.825  1.00  0.00    -0.248 NA
ATOM     48  C   UNL A   1      46.654  29.893  26.930  1.00  0.00     0.031 C 
ATOM     49  C   UNL A   1      42.350  32.705  30.161  1.00  0.00     0.029 A 
ATOM     50  C   UNL A   1      43.048  31.759  29.427  1.00  0.00     0.049 A 
ATOM     51  H   UNL A   1      42.449  29.816  28.857  1.00  0.00     0.167 HD
ATOM     52  C   UNL A   1      44.991  30.866  28.173  1.00  0.00     0.074 A 
ATOM     53  C   UNL A   1      46.330  30.970  27.632  1.00  0.00     0.031 C 
ATOM     54  C   UNL A   1      44.370  31.858  28.861  1.00  0.00     0.034 A 
BRANCH  41  55
ATOM     55  C   UNL A   1      38.728  30.319  30.920  1.00  0.00     0.023 A 
ATOM     56  C   UNL A   1      37.650  30.985  30.314  1.00  0.00     0.031 A 
ATOM     57  C   UNL A   1      38.644  30.046  32.299  1.00  0.00     0.131 A 
ATOM     58  C   UNL A   1      36.563  31.408  31.097  1.00  0.00     0.055 A 
ATOM     59  C   UNL A   1      37.527  30.405  33.056  1.00  0.00     0.041 A 
ATOM     60  F   UNL A   1      39.651  29.429  32.936  1.00  0.00    -0.206 F 
ATOM     61  C   UNL A   1      36.484  31.103  32.459  1.00  0.00     0.022 A 
BRANCH  58  62
ATOM     62  S   UNL A   1      35.312  32.481  30.339  1.00  0.00     0.124 S 
ATOM     63  O   UNL A   1      34.844  31.653  29.230  1.00  0.00    -0.237 OA
ATOM     64  O   UNL A   1      34.366  32.681  31.430  1.00  0.00    -0.237 OA
ATOM     65  O   UNL A   1      36.070  33.667  29.944  1.00  0.00    -0.744 OA
ENDBRANCH  58  62
ENDBRANCH  41  55
BRANCH  42  66
ATOM     66  C   UNL A   1      46.676  27.253  25.669  1.00  0.00     0.023 A 
ATOM     67  C   UNL A   1      46.968  27.768  24.396  1.00  0.00     0.031 A 
ATOM     68  C   UNL A   1      47.536  26.272  26.195  1.00  0.00     0.131 A 
ATOM     69  C   UNL A   1      48.075  27.283  23.682  1.00  0.00     0.055 A 
ATOM     70  C   UNL A   1      48.669  25.835  25.506  1.00  0.00     0.041 A 
ATOM     71  F   UNL A   1      47.299  25.738  27.404  1.00  0.00    -0.206 F 
ATOM     72  C   UNL A   1      48.938  26.334  24.237  1.00  0.00     0.022 A 
BRANCH  69  73
ATOM     73  S   UNL A   1      48.333  27.857  21.981  1.00  0.00     0.124 S 
ATOM     74  O   UNL A   1      47.170  28.712  21.775  1.00  0.00    -0.237 OA
ATOM     75  O   UNL A   1      49.620  28.537  22.084  1.00  0.00    -0.237 OA
ATOM     76  O   UNL A   1      48.345  26.621  21.202  1.00  0.00    -0.744 OA
ENDBRANCH  69  73
ENDBRANCH  42  66
BRANCH  54  77
ATOM     77  C   UNL A   1      45.146  33.134  29.061  1.00  0.00     0.023 A 
ATOM     78  C   UNL A   1      45.042  34.202  28.151  1.00  0.00     0.031 A 
ATOM     79  C   UNL A   1      46.015  33.276  30.156  1.00  0.00     0.131 A 
ATOM     80  C   UNL A   1      45.833  35.346  28.325  1.00  0.00     0.055 A 
ATOM     81  C   UNL A   1      46.763  34.439  30.351  1.00  0.00     0.041 A 
ATOM     82  F   UNL A   1      46.152  32.287  31.052  1.00  0.00    -0.206 F 
ATOM     83  C   UNL A   1      46.685  35.476  29.425  1.00  0.00     0.022 A 
BRANCH  80  84
ATOM     84  S   UNL A   1      45.798  36.634  27.046  1.00  0.00     0.124 S 
ATOM     85  O   UNL A   1      44.371  36.915  26.938  1.00  0.00    -0.237 OA
ATOM     86  O   UNL A   1      46.612  37.689  27.643  1.00  0.00    -0.237 OA
ATOM     87  O   UNL A   1      46.391  35.978  25.882  1.00  0.00    -0.744 OA
ENDBRANCH  80  84
ENDBRANCH  54  77
ENDBRANCH  28  29
ENDBRANCH  21  23
ENDBRANCH  20  21
ENDBRANCH   1  20
TORSDOF 16
ENDMDL
MODEL 3
REMARK VINA RESULT:      -9.9      1.724      7.912
REMARK SMILES C[C@@H](C(=O)OCCOC(=O)c1ccc(-c2c3nc(c(-c4cc(S(=O)(=O)[O-])ccc4F)c4ccc([nH]4)c(-c4cc(S(=O)(=O)[O-])ccc4F)c4nc(c(-c5cc(S(=O)(=O)[O-])ccc5F)c5ccc2[nH]5)C=C4)C=C3)cc1)c1ccc(-c2ccccc2)cc1
REMARK SMILES IDX 7 1 6 2 5 3 3 4 4 5 2 6 1 7 74 8 75 9 85 10 76 11 84 12
REMARK SMILES IDX 77 13 78 14 79 15 83 16 80 17 82 18 81 19 8 20 9 21 10 22
REMARK SMILES IDX 11 23 12 24 73 25 13 26 72 27 14 28 15 29 16 30 66 31 17 32
REMARK SMILES IDX 71 33 65 34 67 35 18 36 70 37 64 38 63 39 19 41 51 42 31 43
REMARK SMILES IDX 50 44 32 45 35 46 49 47 68 48 33 49 34 50 48 52 69 53 36 54
REMARK SMILES IDX 20 55 21 56 29 57 22 58 28 59 30 60 27 61 23 62 24 63 25 64
REMARK SMILES IDX 26 65 52 66 53 67 61 68 54 69 60 70 62 71 59 72 55 73 56 74
REMARK SMILES IDX 57 75 58 76 37 77 38 78 46 79 39 80 45 81 47 82 44 83 40 84
REMARK SMILES IDX 41 85 42 86 43 87
REMARK H PARENT 67 40 35 51
REMARK Flexibility Score: inf
ROOT
ATOM      1  C   UNL A   1      40.815  20.012  26.157  1.00  0.00     0.275 C 
ENDROOT
BRANCH   1   2
ATOM      2  C   UNL A   1      42.286  20.224  26.497  1.00  0.00     0.274 C 
BRANCH   2   3
ATOM      3  O   UNL A   1      43.039  20.488  25.296  1.00  0.00    -0.462 OA
BRANCH   3   4
ATOM      4  C   UNL A   1      43.395  21.784  25.064  1.00  0.00     0.313 C 
ATOM      5  O   UNL A   1      42.592  22.709  25.007  1.00  0.00    -0.252 OA
BRANCH   4   6
ATOM      6  C   UNL A   1      44.900  21.944  24.807  1.00  0.00     0.126 C 
ATOM      7  C   UNL A   1      45.641  20.607  24.680  1.00  0.00     0.025 C 
BRANCH   6   8
ATOM      8  C   UNL A   1      45.544  22.894  25.812  1.00  0.00    -0.034 A 
ATOM      9  C   UNL A   1      46.620  23.726  25.488  1.00  0.00     0.005 A 
ATOM     10  C   UNL A   1      45.091  22.908  27.138  1.00  0.00     0.005 A 
ATOM     11  C   UNL A   1      47.243  24.518  26.467  1.00  0.00     0.009 A 
ATOM     12  C   UNL A   1      45.714  23.704  28.112  1.00  0.00     0.009 A 
ATOM     13  C   UNL A   1      46.828  24.507  27.812  1.00  0.00    -0.018 A 
BRANCH  13  14
ATOM     14  C   UNL A   1      47.583  25.237  28.869  1.00  0.00    -0.018 A 
ATOM     15  C   UNL A   1      48.990  25.255  28.904  1.00  0.00     0.009 A 
ATOM     16  C   UNL A   1      46.919  25.892  29.927  1.00  0.00     0.009 A 
ATOM     17  C   UNL A   1      49.694  25.868  29.949  1.00  0.00     0.001 A 
ATOM     18  C   UNL A   1      47.620  26.525  30.960  1.00  0.00     0.001 A 
ATOM     19  C   UNL A   1      49.008  26.503  30.977  1.00  0.00     0.000 A 
ENDBRANCH  13  14
ENDBRANCH   6   8
ENDBRANCH   4   6
ENDBRANCH   3   4
ENDBRANCH   2   3
ENDBRANCH   1   2
BRANCH   1  20
ATOM     20  O   UNL A   1      40.009  20.830  27.021  1.00  0.00    -0.458 OA
BRANCH  20  21
ATOM     21  C   UNL A   1      39.300  21.812  26.421  1.00  0.00     0.338 C 
ATOM     22  O   UNL A   1      38.461  21.683  25.540  1.00  0.00    -0.246 OA
BRANCH  21  23
ATOM     23  C   UNL A   1      39.694  23.115  26.981  1.00  0.00     0.060 A 
ATOM     24  C   UNL A   1      39.115  24.286  26.495  1.00  0.00     0.016 A 
ATOM     25  C   UNL A   1      40.727  23.181  27.917  1.00  0.00     0.016 A 
ATOM     26  C   UNL A   1      39.640  25.521  26.873  1.00  0.00     0.010 A 
ATOM     27  C   UNL A   1      41.191  24.428  28.356  1.00  0.00     0.010 A 
ATOM     28  C   UNL A   1      40.690  25.618  27.800  1.00  0.00    -0.014 A 
BRANCH  28  29
ATOM     29  C   UNL A   1      41.309  26.945  28.115  1.00  0.00     0.031 A 
ATOM     30  C   UNL A   1      40.556  27.959  28.946  1.00  0.00     0.074 A 
ATOM     31  C   UNL A   1      42.561  27.237  27.707  1.00  0.00     0.049 A 
ATOM     32  N   UNL A   1      40.832  29.217  29.177  1.00  0.00    -0.248 NA
ATOM     33  C   UNL A   1      39.309  27.500  29.579  1.00  0.00     0.031 C 
ATOM     34  C   UNL A   1      43.441  26.339  26.959  1.00  0.00     0.029 A 
ATOM     35  N   UNL A   1      43.331  28.359  27.902  1.00  0.00    -0.354 N 
ATOM     36  C   UNL A   1      39.759  29.720  29.908  1.00  0.00     0.074 A 
ATOM     37  C   UNL A   1      38.828  28.626  30.086  1.00  0.00     0.031 C 
ATOM     38  C   UNL A   1      44.656  26.899  26.853  1.00  0.00     0.029 A 
ATOM     39  C   UNL A   1      44.615  28.240  27.423  1.00  0.00     0.049 A 
ATOM     40  H   UNL A   1      42.995  29.172  28.344  1.00  0.00     0.167 HD
ATOM     41  C   UNL A   1      39.565  30.980  30.375  1.00  0.00     0.034 A 
ATOM     42  C   UNL A   1      45.641  29.115  27.423  1.00  0.00     0.034 A 
ATOM     43  C   UNL A   1      40.544  32.037  30.267  1.00  0.00     0.049 A 
ATOM     44  C   UNL A   1      45.416  30.499  27.973  1.00  0.00     0.074 A 
ATOM     45  C   UNL A   1      40.446  33.352  30.691  1.00  0.00     0.029 A 
ATOM     46  N   UNL A   1      41.814  31.891  29.724  1.00  0.00    -0.354 N 
ATOM     47  N   UNL A   1      44.346  30.998  28.546  1.00  0.00    -0.248 NA
ATOM     48  C   UNL A   1      46.531  31.448  27.845  1.00  0.00     0.031 C 
ATOM     49  C   UNL A   1      41.637  34.011  30.366  1.00  0.00     0.029 A 
ATOM     50  C   UNL A   1      42.503  33.093  29.794  1.00  0.00     0.049 A 
ATOM     51  H   UNL A   1      42.172  31.057  29.345  1.00  0.00     0.167 HD
ATOM     52  C   UNL A   1      44.652  32.326  28.825  1.00  0.00     0.074 A 
ATOM     53  C   UNL A   1      46.024  32.534  28.412  1.00  0.00     0.031 C 
ATOM     54  C   UNL A   1      43.862  33.293  29.355  1.00  0.00     0.034 A 
BRANCH  41  55
ATOM     55  C   UNL A   1      38.218  31.305  30.974  1.00  0.00     0.023 A 
ATOM     56  C   UNL A   1      37.187  31.908  30.233  1.00  0.00     0.031 A 
ATOM     57  C   UNL A   1      37.973  31.019  32.331  1.00  0.00     0.131 A 
ATOM     58  C   UNL A   1      35.985  32.259  30.869  1.00  0.00     0.055 A 
ATOM     59  C   UNL A   1      36.749  31.304  32.937  1.00  0.00     0.041 A 
ATOM     60  F   UNL A   1      38.926  30.460  33.093  1.00  0.00    -0.206 F 
ATOM     61  C   UNL A   1      35.750  31.942  32.209  1.00  0.00     0.022 A 
BRANCH  58  62
ATOM     62  S   UNL A   1      34.779  33.259  29.954  1.00  0.00     0.124 S 
ATOM     63  O   UNL A   1      34.132  32.251  29.117  1.00  0.00    -0.237 OA
ATOM     64  O   UNL A   1      33.961  33.821  31.023  1.00  0.00    -0.237 OA
ATOM     65  O   UNL A   1      35.607  34.220  29.230  1.00  0.00    -0.744 OA
ENDBRANCH  58  62
ENDBRANCH  41  55
BRANCH  42  66
ATOM     66  C   UNL A   1      46.959  28.736  26.836  1.00  0.00     0.023 A 
ATOM     67  C   UNL A   1      47.080  28.435  25.470  1.00  0.00     0.031 A 
ATOM     68  C   UNL A   1      48.112  28.639  27.636  1.00  0.00     0.131 A 
ATOM     69  C   UNL A   1      48.319  28.028  24.951  1.00  0.00     0.055 A 
ATOM     70  C   UNL A   1      49.354  28.290  27.104  1.00  0.00     0.041 A 
ATOM     71  F   UNL A   1      48.051  28.905  28.951  1.00  0.00    -0.206 F 
ATOM     72  C   UNL A   1      49.461  27.972  25.755  1.00  0.00     0.022 A 
BRANCH  69  73
ATOM     73  S   UNL A   1      48.405  27.498  23.218  1.00  0.00     0.124 S 
ATOM     74  O   UNL A   1      49.659  28.104  22.784  1.00  0.00    -0.237 OA
ATOM     75  O   UNL A   1      48.405  26.045  23.346  1.00  0.00    -0.237 OA
ATOM     76  O   UNL A   1      47.198  28.070  22.627  1.00  0.00    -0.744 OA
ENDBRANCH  69  73
ENDBRANCH  42  66
BRANCH  54  77
ATOM     77  C   UNL A   1      44.478  34.659  29.515  1.00  0.00     0.023 A 
ATOM     78  C   UNL A   1      44.405  35.618  28.489  1.00  0.00     0.031 A 
ATOM     79  C   UNL A   1      45.163  34.999  30.694  1.00  0.00     0.131 A 
ATOM     80  C   UNL A   1      45.051  36.853  28.639  1.00  0.00     0.055 A 
ATOM     81  C   UNL A   1      45.762  36.249  30.858  1.00  0.00     0.041 A 
ATOM     82  F   UNL A   1      45.263  34.120  31.703  1.00  0.00    -0.206 F 
ATOM     83  C   UNL A   1      45.720  37.179  29.822  1.00  0.00     0.022 A 
BRANCH  80  84
ATOM     84  S   UNL A   1      45.077  38.002  27.234  1.00  0.00     0.124 S 
ATOM     85  O   UNL A   1      45.930  37.298  26.283  1.00  0.00    -0.237 OA
ATOM     86  O   UNL A   1      43.664  38.092  26.878  1.00  0.00    -0.237 OA
ATOM     87  O   UNL A   1      45.653  39.221  27.799  1.00  0.00    -0.744 OA
ENDBRANCH  80  84
ENDBRANCH  54  77
ENDBRANCH  28  29
ENDBRANCH  21  23
ENDBRANCH  20  21
ENDBRANCH   1  20
TORSDOF 16
ENDMDL
