MODEL 1
REMARK VINA RESULT:     -12.5      0.000      0.000
REMARK SMILES Cc1c(NS(=O)(=O)c2ncn(C)c2Cl)cccc1C(=O)OCCOC(=O)c1ccc(-c2c3nc(c(-c4cc(S(=O)(=O)[O-])ccc4F)c4ccc([nH]4)c(-c4cc(S(=O)(=O)[O-])ccc4F)c4nc(c(-c5cc(S(=O)(=O)[O-])ccc5F)c5ccc2[nH]5)C=C4)C=C3)cc1
REMARK SMILES IDX 22 1 21 2 19 3 20 4 18 5 1 6 2 7 3 8 15 9 17 10 16 11 4 12
REMARK SMILES IDX 5 14 6 15 7 16 8 17 9 18 13 19 10 20 11 21 14 22 12 23 23 24
REMARK SMILES IDX 24 25 25 26 26 27 27 28 28 29 89 30 29 31 88 32 30 33 31 34
REMARK SMILES IDX 32 35 82 36 33 37 87 38 81 39 83 40 34 41 86 42 80 43 79 44
REMARK SMILES IDX 35 46 67 47 47 48 66 49 48 50 51 51 65 52 84 53 49 54 50 55
REMARK SMILES IDX 64 57 85 58 52 59 36 60 37 61 45 62 38 63 44 64 46 65 43 66
REMARK SMILES IDX 39 67 40 68 41 69 42 70 68 71 69 72 77 73 70 74 76 75 78 76
REMARK SMILES IDX 75 77 71 78 72 79 73 80 74 81 53 82 54 83 62 84 55 85 61 86
REMARK SMILES IDX 63 87 60 88 56 89 57 90 58 91 59 92
REMARK H PARENT 4 13 83 45 51 56
REMARK Flexibility Score: inf
ROOT
ATOM      1  C   UNL A   1      37.050  21.741  24.949  1.00  0.00     0.275 C 
ENDROOT
BRANCH   1   2
ATOM      2  O   UNL A   1      35.693  21.859  24.483  1.00  0.00    -0.458 OA
BRANCH   2   3
ATOM      3  C   UNL A   1      34.833  20.924  24.933  1.00  0.00     0.338 C 
ATOM      4  O   UNL A   1      34.875  19.731  24.696  1.00  0.00    -0.246 OA
BRANCH   3   5
ATOM      5  C   UNL A   1      33.742  21.552  25.713  1.00  0.00     0.065 A 
ATOM      6  C   UNL A   1      32.408  22.066  23.638  1.00  0.00     0.047 C 
ATOM      7  C   UNL A   1      32.632  22.206  25.119  1.00  0.00    -0.012 A 
ATOM      8  C   UNL A   1      31.831  23.034  25.943  1.00  0.00     0.053 A 
ATOM      9  C   UNL A   1      32.087  23.042  27.323  1.00  0.00     0.027 A 
ATOM     10  C   UNL A   1      33.954  21.584  27.094  1.00  0.00     0.016 A 
ATOM     11  C   UNL A   1      33.099  22.295  27.906  1.00  0.00     0.003 A 
BRANCH   8  12
ATOM     12  N   UNL A   1      30.657  23.704  25.426  1.00  0.00    -0.278 N 
ATOM     13  H   UNL A   1      29.826  23.188  25.309  1.00  0.00     0.180 HD
BRANCH  12  14
ATOM     14  S   UNL A   1      30.669  25.356  25.011  1.00  0.00     0.282 S 
ATOM     15  O   UNL A   1      31.369  25.479  23.749  1.00  0.00    -0.199 OA
ATOM     16  O   UNL A   1      29.306  25.827  25.151  1.00  0.00    -0.199 OA
BRANCH  14  17
ATOM     17  C   UNL A   1      31.577  26.326  26.137  1.00  0.00     0.213 A 
ATOM     18  N   UNL A   1      30.982  27.224  27.022  1.00  0.00    -0.222 NA
ATOM     19  C   UNL A   1      32.943  26.502  26.154  1.00  0.00     0.149 A 
ATOM     20  C   UNL A   1      31.957  28.011  27.419  1.00  0.00     0.202 A 
ATOM     21  N   UNL A   1      33.140  27.692  26.802  1.00  0.00    -0.324 N 
ATOM     22  Cl  UNL A   1      34.216  25.716  25.348  1.00  0.00    -0.061 Cl
ATOM     23  C   UNL A   1      34.197  28.657  26.593  1.00  0.00     0.152 C 
ENDBRANCH  14  17
ENDBRANCH  12  14
ENDBRANCH   8  12
ENDBRANCH   3   5
ENDBRANCH   2   3
ENDBRANCH   1   2
BRANCH   1  24
ATOM     24  C   UNL A   1      37.827  23.069  25.173  1.00  0.00     0.275 C 
BRANCH  24  25
ATOM     25  O   UNL A   1      38.309  23.447  26.486  1.00  0.00    -0.458 OA
BRANCH  25  26
ATOM     26  C   UNL A   1      39.647  23.554  26.716  1.00  0.00     0.338 C 
ATOM     27  O   UNL A   1      40.483  22.735  26.392  1.00  0.00    -0.246 OA
BRANCH  26  28
ATOM     28  C   UNL A   1      39.947  24.917  27.210  1.00  0.00     0.060 A 
ATOM     29  C   UNL A   1      40.499  25.897  26.368  1.00  0.00     0.016 A 
ATOM     30  C   UNL A   1      39.364  25.260  28.425  1.00  0.00     0.016 A 
ATOM     31  C   UNL A   1      40.415  27.233  26.738  1.00  0.00     0.010 A 
ATOM     32  C   UNL A   1      38.997  26.552  28.621  1.00  0.00     0.010 A 
ATOM     33  C   UNL A   1      39.651  27.526  27.864  1.00  0.00    -0.014 A 
BRANCH  33  34
ATOM     34  C   UNL A   1      39.810  28.712  28.679  1.00  0.00     0.031 A 
ATOM     35  C   UNL A   1      38.805  29.769  28.610  1.00  0.00     0.074 A 
ATOM     36  C   UNL A   1      40.726  28.457  29.647  1.00  0.00     0.049 A 
ATOM     37  N   UNL A   1      39.006  30.983  28.959  1.00  0.00    -0.248 NA
ATOM     38  C   UNL A   1      37.464  29.563  28.060  1.00  0.00     0.031 C 
ATOM     39  C   UNL A   1      40.977  29.014  30.960  1.00  0.00     0.029 A 
ATOM     40  N   UNL A   1      41.743  27.501  29.517  1.00  0.00    -0.354 N 
ATOM     41  C   UNL A   1      37.759  31.554  29.121  1.00  0.00     0.074 A 
ATOM     42  C   UNL A   1      36.875  30.734  28.335  1.00  0.00     0.031 C 
ATOM     43  C   UNL A   1      42.222  28.649  31.344  1.00  0.00     0.029 A 
ATOM     44  C   UNL A   1      42.846  27.917  30.240  1.00  0.00     0.049 A 
ATOM     45  H   UNL A   1      41.683  26.669  28.993  1.00  0.00     0.167 HD
ATOM     46  C   UNL A   1      37.606  32.486  30.106  1.00  0.00     0.034 A 
ATOM     47  C   UNL A   1      43.900  28.324  29.471  1.00  0.00     0.034 A 
ATOM     48  C   UNL A   1      38.883  32.630  30.820  1.00  0.00     0.049 A 
ATOM     49  C   UNL A   1      43.938  29.837  29.481  1.00  0.00     0.074 A 
ATOM     50  C   UNL A   1      39.338  32.093  32.013  1.00  0.00     0.029 A 
ATOM     51  N   UNL A   1      40.007  33.055  30.124  1.00  0.00    -0.354 N 
ATOM     52  N   UNL A   1      42.890  30.608  29.633  1.00  0.00    -0.248 NA
ATOM     53  C   UNL A   1      45.191  30.574  29.479  1.00  0.00     0.031 C 
ATOM     54  C   UNL A   1      40.763  32.094  31.965  1.00  0.00     0.029 A 
ATOM     55  C   UNL A   1      41.164  32.624  30.749  1.00  0.00     0.049 A 
ATOM     56  H   UNL A   1      39.984  33.591  29.298  1.00  0.00     0.167 HD
ATOM     57  C   UNL A   1      43.301  31.891  29.857  1.00  0.00     0.074 A 
ATOM     58  C   UNL A   1      44.753  31.817  29.734  1.00  0.00     0.031 C 
ATOM     59  C   UNL A   1      42.459  32.929  30.160  1.00  0.00     0.034 A 
BRANCH  46  60
ATOM     60  C   UNL A   1      36.315  33.047  30.671  1.00  0.00     0.023 A 
ATOM     61  C   UNL A   1      35.509  33.834  29.816  1.00  0.00     0.031 A 
ATOM     62  C   UNL A   1      35.810  32.879  31.974  1.00  0.00     0.131 A 
ATOM     63  C   UNL A   1      34.320  34.441  30.259  1.00  0.00     0.055 A 
ATOM     64  C   UNL A   1      34.625  33.490  32.421  1.00  0.00     0.041 A 
ATOM     65  F   UNL A   1      36.406  32.097  32.879  1.00  0.00    -0.206 F 
ATOM     66  C   UNL A   1      33.874  34.280  31.564  1.00  0.00     0.022 A 
BRANCH  63  67
ATOM     67  S   UNL A   1      33.368  35.448  29.090  1.00  0.00     0.124 S 
ATOM     68  O   UNL A   1      32.536  34.446  28.431  1.00  0.00    -0.237 OA
ATOM     69  O   UNL A   1      32.679  36.382  29.973  1.00  0.00    -0.237 OA
ATOM     70  O   UNL A   1      34.398  36.047  28.242  1.00  0.00    -0.744 OA
ENDBRANCH  63  67
ENDBRANCH  46  60
BRANCH  47  71
ATOM     71  C   UNL A   1      44.157  27.410  28.291  1.00  0.00     0.023 A 
ATOM     72  C   UNL A   1      44.368  26.033  28.569  1.00  0.00     0.031 A 
ATOM     73  C   UNL A   1      43.900  27.744  26.953  1.00  0.00     0.131 A 
ATOM     74  C   UNL A   1      44.188  25.047  27.581  1.00  0.00     0.055 A 
ATOM     75  C   UNL A   1      43.787  26.757  25.951  1.00  0.00     0.041 A 
ATOM     76  F   UNL A   1      43.664  29.014  26.595  1.00  0.00    -0.206 F 
ATOM     77  C   UNL A   1      43.895  25.401  26.268  1.00  0.00     0.022 A 
BRANCH  74  78
ATOM     78  S   UNL A   1      44.089  23.306  28.104  1.00  0.00     0.124 S 
ATOM     79  O   UNL A   1      44.501  22.601  26.896  1.00  0.00    -0.237 OA
ATOM     80  O   UNL A   1      45.031  23.265  29.222  1.00  0.00    -0.237 OA
ATOM     81  O   UNL A   1      42.689  23.142  28.481  1.00  0.00    -0.744 OA
ENDBRANCH  74  78
ENDBRANCH  47  71
BRANCH  59  82
ATOM     82  C   UNL A   1      42.842  34.374  29.983  1.00  0.00     0.023 A 
ATOM     83  C   UNL A   1      42.598  35.048  28.786  1.00  0.00     0.031 A 
ATOM     84  C   UNL A   1      43.372  35.158  31.035  1.00  0.00     0.131 A 
ATOM     85  C   UNL A   1      43.030  36.362  28.597  1.00  0.00     0.055 A 
ATOM     86  C   UNL A   1      43.657  36.515  30.893  1.00  0.00     0.041 A 
ATOM     87  F   UNL A   1      43.627  34.647  32.249  1.00  0.00    -0.206 F 
ATOM     88  C   UNL A   1      43.524  37.120  29.652  1.00  0.00     0.022 A 
BRANCH  85  89
ATOM     89  S   UNL A   1      43.075  36.965  26.897  1.00  0.00     0.124 S 
ATOM     90  O   UNL A   1      42.035  37.993  26.923  1.00  0.00    -0.237 OA
ATOM     91  O   UNL A   1      44.442  37.458  26.771  1.00  0.00    -0.237 OA
ATOM     92  O   UNL A   1      42.757  35.780  26.105  1.00  0.00    -0.744 OA
ENDBRANCH  85  89
ENDBRANCH  59  82
ENDBRANCH  33  34
ENDBRANCH  26  28
ENDBRANCH  25  26
ENDBRANCH  24  25
ENDBRANCH   1  24
TORSDOF 17
ENDMDL
MODEL 2
REMARK VINA RESULT:     -12.5      3.529      9.351
REMARK SMILES Cc1c(NS(=O)(=O)c2ncn(C)c2Cl)cccc1C(=O)OCCOC(=O)c1ccc(-c2c3nc(c(-c4cc(S(=O)(=O)[O-])ccc4F)c4ccc([nH]4)c(-c4cc(S(=O)(=O)[O-])ccc4F)c4nc(c(-c5cc(S(=O)(=O)[O-])ccc5F)c5ccc2[nH]5)C=C4)C=C3)cc1
REMARK SMILES IDX 22 1 21 2 19 3 20 4 18 5 1 6 2 7 3 8 15 9 17 10 16 11 4 12
REMARK SMILES IDX 5 14 6 15 7 16 8 17 9 18 13 19 10 20 11 21 14 22 12 23 23 24
REMARK SMILES IDX 24 25 25 26 26 27 27 28 28 29 89 30 29 31 88 32 30 33 31 34
REMARK SMILES IDX 32 35 82 36 33 37 87 38 81 39 83 40 34 41 86 42 80 43 79 44
REMARK SMILES IDX 35 46 67 47 47 48 66 49 48 50 51 51 65 52 84 53 49 54 50 55
REMARK SMILES IDX 64 57 85 58 52 59 36 60 37 61 45 62 38 63 44 64 46 65 43 66
REMARK SMILES IDX 39 67 40 68 41 69 42 70 68 71 69 72 77 73 70 74 76 75 78 76
REMARK SMILES IDX 75 77 71 78 72 79 73 80 74 81 53 82 54 83 62 84 55 85 61 86
REMARK SMILES IDX 63 87 60 88 56 89 57 90 58 91 59 92
REMARK H PARENT 4 13 83 45 51 56
REMARK Flexibility Score: inf
ROOT
ATOM      1  C   UNL A   1      31.860  29.328  24.896  1.00  0.00     0.275 C 
ENDROOT
BRANCH   1   2
ATOM      2  O   UNL A   1      30.605  29.092  24.233  1.00  0.00    -0.458 OA
BRANCH   2   3
ATOM      3  C   UNL A   1      30.683  28.602  22.981  1.00  0.00     0.338 C 
ATOM      4  O   UNL A   1      30.324  29.162  21.963  1.00  0.00    -0.246 OA
BRANCH   3   5
ATOM      5  C   UNL A   1      31.204  27.216  22.997  1.00  0.00     0.065 A 
ATOM      6  C   UNL A   1      29.127  26.334  24.120  1.00  0.00     0.047 C 
ATOM      7  C   UNL A   1      30.537  26.137  23.635  1.00  0.00    -0.012 A 
ATOM      8  C   UNL A   1      31.269  24.945  23.858  1.00  0.00     0.053 A 
ATOM      9  C   UNL A   1      32.555  24.843  23.307  1.00  0.00     0.027 A 
ATOM     10  C   UNL A   1      32.484  27.065  22.458  1.00  0.00     0.016 A 
ATOM     11  C   UNL A   1      33.144  25.862  22.574  1.00  0.00     0.003 A 
BRANCH   8  12
ATOM     12  N   UNL A   1      30.652  23.785  24.465  1.00  0.00    -0.278 N 
ATOM     13  H   UNL A   1      30.062  23.217  23.918  1.00  0.00     0.180 HD
BRANCH  12  14
ATOM     14  S   UNL A   1      30.916  23.370  26.096  1.00  0.00     0.282 S 
ATOM     15  O   UNL A   1      30.989  24.606  26.849  1.00  0.00    -0.199 OA
ATOM     16  O   UNL A   1      29.935  22.357  26.429  1.00  0.00    -0.199 OA
BRANCH  14  17
ATOM     17  C   UNL A   1      32.450  22.585  26.351  1.00  0.00     0.213 A 
ATOM     18  N   UNL A   1      33.484  23.156  27.092  1.00  0.00    -0.222 NA
ATOM     19  C   UNL A   1      32.913  21.460  25.707  1.00  0.00     0.149 A 
ATOM     20  C   UNL A   1      34.559  22.478  26.757  1.00  0.00     0.202 A 
ATOM     21  N   UNL A   1      34.277  21.529  25.808  1.00  0.00    -0.324 N 
ATOM     22  Cl  UNL A   1      32.162  20.317  24.698  1.00  0.00    -0.061 Cl
ATOM     23  C   UNL A   1      35.266  21.042  24.872  1.00  0.00     0.152 C 
ENDBRANCH  14  17
ENDBRANCH  12  14
ENDBRANCH   8  12
ENDBRANCH   3   5
ENDBRANCH   2   3
ENDBRANCH   1   2
BRANCH   1  24
ATOM     24  C   UNL A   1      31.889  29.103  26.434  1.00  0.00     0.275 C 
BRANCH  24  25
ATOM     25  O   UNL A   1      32.957  29.637  27.255  1.00  0.00    -0.458 OA
BRANCH  25  26
ATOM     26  C   UNL A   1      33.177  30.980  27.298  1.00  0.00     0.338 C 
ATOM     27  O   UNL A   1      32.322  31.836  27.185  1.00  0.00    -0.246 OA
BRANCH  26  28
ATOM     28  C   UNL A   1      34.570  31.230  27.732  1.00  0.00     0.060 A 
ATOM     29  C   UNL A   1      35.153  32.505  27.628  1.00  0.00     0.016 A 
ATOM     30  C   UNL A   1      35.139  30.242  28.528  1.00  0.00     0.016 A 
ATOM     31  C   UNL A   1      36.289  32.792  28.373  1.00  0.00     0.010 A 
ATOM     32  C   UNL A   1      36.029  30.618  29.482  1.00  0.00     0.010 A 
ATOM     33  C   UNL A   1      36.696  31.831  29.295  1.00  0.00    -0.014 A 
BRANCH  33  34
ATOM     34  C   UNL A   1      38.045  31.698  29.801  1.00  0.00     0.031 A 
ATOM     35  C   UNL A   1      38.862  30.565  29.374  1.00  0.00     0.074 A 
ATOM     36  C   UNL A   1      38.431  32.884  30.336  1.00  0.00     0.049 A 
ATOM     37  N   UNL A   1      39.882  30.127  30.011  1.00  0.00    -0.248 NA
ATOM     38  C   UNL A   1      38.554  29.758  28.192  1.00  0.00     0.031 C 
ATOM     39  C   UNL A   1      39.717  33.507  30.568  1.00  0.00     0.029 A 
ATOM     40  N   UNL A   1      37.532  33.827  30.852  1.00  0.00    -0.354 N 
ATOM     41  C   UNL A   1      40.590  29.345  29.121  1.00  0.00     0.074 A 
ATOM     42  C   UNL A   1      39.627  28.959  28.122  1.00  0.00     0.031 C 
ATOM     43  C   UNL A   1      39.544  34.519  31.449  1.00  0.00     0.029 A 
ATOM     44  C   UNL A   1      38.146  34.516  31.882  1.00  0.00     0.049 A 
ATOM     45  H   UNL A   1      36.611  33.975  30.534  1.00  0.00     0.167 HD
ATOM     46  C   UNL A   1      41.952  29.346  29.212  1.00  0.00     0.034 A 
ATOM     47  C   UNL A   1      37.667  34.211  33.125  1.00  0.00     0.034 A 
ATOM     48  C   UNL A   1      42.350  30.272  30.281  1.00  0.00     0.049 A 
ATOM     49  C   UNL A   1      38.661  33.294  33.804  1.00  0.00     0.074 A 
ATOM     50  C   UNL A   1      42.795  31.584  30.248  1.00  0.00     0.029 A 
ATOM     51  N   UNL A   1      41.925  30.033  31.582  1.00  0.00    -0.354 N 
ATOM     52  N   UNL A   1      39.460  32.466  33.177  1.00  0.00    -0.248 NA
ATOM     53  C   UNL A   1      38.927  33.371  35.231  1.00  0.00     0.031 C 
ATOM     54  C   UNL A   1      42.514  32.163  31.520  1.00  0.00     0.029 A 
ATOM     55  C   UNL A   1      41.901  31.207  32.315  1.00  0.00     0.049 A 
ATOM     56  H   UNL A   1      41.675  29.149  31.935  1.00  0.00     0.167 HD
ATOM     57  C   UNL A   1      40.396  31.992  34.052  1.00  0.00     0.074 A 
ATOM     58  C   UNL A   1      40.006  32.579  35.329  1.00  0.00     0.031 C 
ATOM     59  C   UNL A   1      41.445  31.185  33.696  1.00  0.00     0.034 A 
BRANCH  46  60
ATOM     60  C   UNL A   1      42.958  28.816  28.208  1.00  0.00     0.023 A 
ATOM     61  C   UNL A   1      44.018  29.670  27.825  1.00  0.00     0.031 A 
ATOM     62  C   UNL A   1      42.966  27.549  27.595  1.00  0.00     0.131 A 
ATOM     63  C   UNL A   1      44.972  29.293  26.863  1.00  0.00     0.055 A 
ATOM     64  C   UNL A   1      43.915  27.172  26.628  1.00  0.00     0.041 A 
ATOM     65  F   UNL A   1      42.084  26.595  27.909  1.00  0.00    -0.206 F 
ATOM     66  C   UNL A   1      44.924  28.047  26.254  1.00  0.00     0.022 A 
BRANCH  63  67
ATOM     67  S   UNL A   1      46.281  30.469  26.426  1.00  0.00     0.124 S 
ATOM     68  O   UNL A   1      46.760  30.895  27.737  1.00  0.00    -0.237 OA
ATOM     69  O   UNL A   1      47.191  29.644  25.640  1.00  0.00    -0.237 OA
ATOM     70  O   UNL A   1      45.571  31.498  25.666  1.00  0.00    -0.744 OA
ENDBRANCH  63  67
ENDBRANCH  46  60
BRANCH  47  71
ATOM     71  C   UNL A   1      36.155  34.114  33.168  1.00  0.00     0.023 A 
ATOM     72  C   UNL A   1      35.425  35.332  33.169  1.00  0.00     0.031 A 
ATOM     73  C   UNL A   1      35.423  32.949  32.897  1.00  0.00     0.131 A 
ATOM     74  C   UNL A   1      34.075  35.381  32.779  1.00  0.00     0.055 A 
ATOM     75  C   UNL A   1      34.051  32.993  32.572  1.00  0.00     0.041 A 
ATOM     76  F   UNL A   1      36.028  31.753  32.850  1.00  0.00    -0.206 F 
ATOM     77  C   UNL A   1      33.379  34.214  32.478  1.00  0.00     0.022 A 
BRANCH  74  78
ATOM     78  S   UNL A   1      33.332  37.006  32.429  1.00  0.00     0.124 S 
ATOM     79  O   UNL A   1      31.986  36.849  32.966  1.00  0.00    -0.237 OA
ATOM     80  O   UNL A   1      34.213  37.913  33.163  1.00  0.00    -0.237 OA
ATOM     81  O   UNL A   1      33.420  37.116  30.977  1.00  0.00    -0.744 OA
ENDBRANCH  74  78
ENDBRANCH  47  71
BRANCH  59  82
ATOM     82  C   UNL A   1      42.199  30.336  34.685  1.00  0.00     0.023 A 
ATOM     83  C   UNL A   1      41.890  28.988  34.866  1.00  0.00     0.031 A 
ATOM     84  C   UNL A   1      43.316  30.816  35.408  1.00  0.00     0.131 A 
ATOM     85  C   UNL A   1      42.533  28.226  35.843  1.00  0.00     0.055 A 
ATOM     86  C   UNL A   1      44.060  30.008  36.267  1.00  0.00     0.041 A 
ATOM     87  F   UNL A   1      43.744  32.083  35.306  1.00  0.00    -0.206 F 
ATOM     88  C   UNL A   1      43.646  28.710  36.522  1.00  0.00     0.022 A 
BRANCH  85  89
ATOM     89  S   UNL A   1      41.755  26.662  36.296  1.00  0.00     0.124 S 
ATOM     90  O   UNL A   1      41.119  26.275  35.037  1.00  0.00    -0.237 OA
ATOM     91  O   UNL A   1      42.894  25.846  36.701  1.00  0.00    -0.237 OA
ATOM     92  O   UNL A   1      40.835  27.036  37.367  1.00  0.00    -0.744 OA
ENDBRANCH  85  89
ENDBRANCH  59  82
ENDBRANCH  33  34
ENDBRANCH  26  28
ENDBRANCH  25  26
ENDBRANCH  24  25
ENDBRANCH   1  24
TORSDOF 17
ENDMDL
MODEL 3
REMARK VINA RESULT:     -12.2      3.480      9.767
REMARK SMILES Cc1c(NS(=O)(=O)c2ncn(C)c2Cl)cccc1C(=O)OCCOC(=O)c1ccc(-c2c3nc(c(-c4cc(S(=O)(=O)[O-])ccc4F)c4ccc([nH]4)c(-c4cc(S(=O)(=O)[O-])ccc4F)c4nc(c(-c5cc(S(=O)(=O)[O-])ccc5F)c5ccc2[nH]5)C=C4)C=C3)cc1
REMARK SMILES IDX 22 1 21 2 19 3 20 4 18 5 1 6 2 7 3 8 15 9 17 10 16 11 4 12
REMARK SMILES IDX 5 14 6 15 7 16 8 17 9 18 13 19 10 20 11 21 14 22 12 23 23 24
REMARK SMILES IDX 24 25 25 26 26 27 27 28 28 29 89 30 29 31 88 32 30 33 31 34
REMARK SMILES IDX 32 35 82 36 33 37 87 38 81 39 83 40 34 41 86 42 80 43 79 44
REMARK SMILES IDX 35 46 67 47 47 48 66 49 48 50 51 51 65 52 84 53 49 54 50 55
REMARK SMILES IDX 64 57 85 58 52 59 36 60 37 61 45 62 38 63 44 64 46 65 43 66
REMARK SMILES IDX 39 67 40 68 41 69 42 70 68 71 69 72 77 73 70 74 76 75 78 76
REMARK SMILES IDX 75 77 71 78 72 79 73 80 74 81 53 82 54 83 62 84 55 85 61 86
REMARK SMILES IDX 63 87 60 88 56 89 57 90 58 91 59 92
REMARK H PARENT 4 13 83 45 51 56
REMARK Flexibility Score: inf
ROOT
ATOM      1  C   UNL A   1      32.671  29.427  26.216  1.00  0.00     0.275 C 
ENDROOT
BRANCH   1   2
ATOM      2  O   UNL A   1      33.098  28.951  24.926  1.00  0.00    -0.458 OA
BRANCH   2   3
ATOM      3  C   UNL A   1      32.118  28.555  24.090  1.00  0.00     0.338 C 
ATOM      4  O   UNL A   1      31.213  29.245  23.661  1.00  0.00    -0.246 OA
BRANCH   3   5
ATOM      5  C   UNL A   1      32.230  27.106  23.808  1.00  0.00     0.065 A 
ATOM      6  C   UNL A   1      30.054  26.602  24.976  1.00  0.00     0.047 C 
ATOM      7  C   UNL A   1      31.324  26.138  24.315  1.00  0.00    -0.012 A 
ATOM      8  C   UNL A   1      31.703  24.776  24.248  1.00  0.00     0.053 A 
ATOM      9  C   UNL A   1      32.877  24.447  23.553  1.00  0.00     0.027 A 
ATOM     10  C   UNL A   1      33.385  26.731  23.117  1.00  0.00     0.016 A 
ATOM     11  C   UNL A   1      33.687  25.398  22.951  1.00  0.00     0.003 A 
BRANCH   8  12
ATOM     12  N   UNL A   1      30.820  23.724  24.705  1.00  0.00    -0.278 N 
ATOM     13  H   UNL A   1      30.105  23.407  24.107  1.00  0.00     0.180 HD
BRANCH  12  14
ATOM     14  S   UNL A   1      30.980  23.016  26.247  1.00  0.00     0.282 S 
ATOM     15  O   UNL A   1      31.108  24.095  27.205  1.00  0.00    -0.199 OA
ATOM     16  O   UNL A   1      29.915  22.041  26.367  1.00  0.00    -0.199 OA
BRANCH  14  17
ATOM     17  C   UNL A   1      32.440  22.081  26.410  1.00  0.00     0.213 A 
ATOM     18  N   UNL A   1      33.357  22.275  27.442  1.00  0.00    -0.222 NA
ATOM     19  C   UNL A   1      32.976  21.225  25.474  1.00  0.00     0.149 A 
ATOM     20  C   UNL A   1      34.459  21.682  27.037  1.00  0.00     0.202 A 
ATOM     21  N   UNL A   1      34.309  21.154  25.780  1.00  0.00    -0.324 N 
ATOM     22  Cl  UNL A   1      32.368  20.571  24.028  1.00  0.00    -0.061 Cl
ATOM     23  C   UNL A   1      35.422  20.957  24.878  1.00  0.00     0.152 C 
ENDBRANCH  14  17
ENDBRANCH  12  14
ENDBRANCH   8  12
ENDBRANCH   3   5
ENDBRANCH   2   3
ENDBRANCH   1   2
BRANCH   1  24
ATOM     24  C   UNL A   1      33.631  30.405  26.950  1.00  0.00     0.275 C 
BRANCH  24  25
ATOM     25  O   UNL A   1      34.847  29.934  27.583  1.00  0.00    -0.458 OA
BRANCH  25  26
ATOM     26  C   UNL A   1      35.510  30.731  28.465  1.00  0.00     0.338 C 
ATOM     27  O   UNL A   1      35.057  31.731  28.986  1.00  0.00    -0.246 OA
BRANCH  26  28
ATOM     28  C   UNL A   1      36.772  30.068  28.865  1.00  0.00     0.060 A 
ATOM     29  C   UNL A   1      36.881  29.374  30.083  1.00  0.00     0.016 A 
ATOM     30  C   UNL A   1      37.709  29.894  27.853  1.00  0.00     0.016 A 
ATOM     31  C   UNL A   1      37.917  28.466  30.254  1.00  0.00     0.010 A 
ATOM     32  C   UNL A   1      38.504  28.794  27.893  1.00  0.00     0.010 A 
ATOM     33  C   UNL A   1      38.704  28.193  29.138  1.00  0.00    -0.014 A 
BRANCH  33  34
ATOM     34  C   UNL A   1      40.060  27.689  29.192  1.00  0.00     0.031 A 
ATOM     35  C   UNL A   1      40.327  26.306  28.807  1.00  0.00     0.074 A 
ATOM     36  C   UNL A   1      40.914  28.741  29.271  1.00  0.00     0.049 A 
ATOM     37  N   UNL A   1      41.361  25.643  29.161  1.00  0.00    -0.248 NA
ATOM     38  C   UNL A   1      39.390  25.501  28.020  1.00  0.00     0.031 C 
ATOM     39  C   UNL A   1      42.304  28.931  28.914  1.00  0.00     0.029 A 
ATOM     40  N   UNL A   1      40.560  29.986  29.810  1.00  0.00    -0.354 N 
ATOM     41  C   UNL A   1      41.445  24.564  28.303  1.00  0.00     0.074 A 
ATOM     42  C   UNL A   1      40.108  24.392  27.797  1.00  0.00     0.031 C 
ATOM     43  C   UNL A   1      42.752  30.048  29.533  1.00  0.00     0.029 A 
ATOM     44  C   UNL A   1      41.678  30.560  30.386  1.00  0.00     0.049 A 
ATOM     45  H   UNL A   1      39.660  30.386  29.784  1.00  0.00     0.167 HD
ATOM     46  C   UNL A   1      42.687  24.129  27.942  1.00  0.00     0.034 A 
ATOM     47  C   UNL A   1      41.653  30.591  31.752  1.00  0.00     0.034 A 
ATOM     48  C   UNL A   1      43.691  25.002  28.568  1.00  0.00     0.049 A 
ATOM     49  C   UNL A   1      42.557  29.493  32.268  1.00  0.00     0.074 A 
ATOM     50  C   UNL A   1      44.411  26.079  28.077  1.00  0.00     0.029 A 
ATOM     51  N   UNL A   1      43.752  25.085  29.953  1.00  0.00    -0.354 N 
ATOM     52  N   UNL A   1      42.810  28.376  31.633  1.00  0.00    -0.248 NA
ATOM     53  C   UNL A   1      43.361  29.660  33.467  1.00  0.00     0.031 C 
ATOM     54  C   UNL A   1      44.802  26.876  29.193  1.00  0.00     0.029 A 
ATOM     55  C   UNL A   1      44.316  26.284  30.349  1.00  0.00     0.049 A 
ATOM     56  H   UNL A   1      43.437  24.385  30.569  1.00  0.00     0.167 HD
ATOM     57  C   UNL A   1      43.853  27.736  32.241  1.00  0.00     0.074 A 
ATOM     58  C   UNL A   1      44.150  28.577  33.395  1.00  0.00     0.031 C 
ATOM     59  C   UNL A   1      44.437  26.591  31.766  1.00  0.00     0.034 A 
BRANCH  46  60
ATOM     60  C   UNL A   1      43.055  23.174  26.823  1.00  0.00     0.023 A 
ATOM     61  C   UNL A   1      42.685  21.816  26.967  1.00  0.00     0.031 A 
ATOM     62  C   UNL A   1      43.740  23.479  25.631  1.00  0.00     0.131 A 
ATOM     63  C   UNL A   1      43.025  20.843  26.011  1.00  0.00     0.055 A 
ATOM     64  C   UNL A   1      44.086  22.506  24.677  1.00  0.00     0.041 A 
ATOM     65  F   UNL A   1      44.086  24.727  25.303  1.00  0.00    -0.206 F 
ATOM     66  C   UNL A   1      43.732  21.179  24.865  1.00  0.00     0.022 A 
BRANCH  63  67
ATOM     67  S   UNL A   1      42.520  19.125  26.298  1.00  0.00     0.124 S 
ATOM     68  O   UNL A   1      42.444  19.069  27.755  1.00  0.00    -0.237 OA
ATOM     69  O   UNL A   1      41.254  19.049  25.580  1.00  0.00    -0.237 OA
ATOM     70  O   UNL A   1      43.611  18.349  25.709  1.00  0.00    -0.744 OA
ENDBRANCH  63  67
ENDBRANCH  46  60
BRANCH  47  71
ATOM     71  C   UNL A   1      40.304  31.002  32.308  1.00  0.00     0.023 A 
ATOM     72  C   UNL A   1      39.721  32.189  31.787  1.00  0.00     0.031 A 
ATOM     73  C   UNL A   1      39.458  30.165  33.049  1.00  0.00     0.131 A 
ATOM     74  C   UNL A   1      38.340  32.435  31.889  1.00  0.00     0.055 A 
ATOM     75  C   UNL A   1      38.085  30.450  33.208  1.00  0.00     0.041 A 
ATOM     76  F   UNL A   1      39.910  29.011  33.561  1.00  0.00    -0.206 F 
ATOM     77  C   UNL A   1      37.513  31.569  32.599  1.00  0.00     0.022 A 
BRANCH  74  78
ATOM     78  S   UNL A   1      37.618  33.759  30.868  1.00  0.00     0.124 S 
ATOM     79  O   UNL A   1      38.249  34.951  31.423  1.00  0.00    -0.237 OA
ATOM     80  O   UNL A   1      38.043  33.377  29.522  1.00  0.00    -0.237 OA
ATOM     81  O   UNL A   1      36.186  33.635  31.112  1.00  0.00    -0.744 OA
ENDBRANCH  74  78
ENDBRANCH  47  71
BRANCH  59  82
ATOM     82  C   UNL A   1      45.265  25.675  32.628  1.00  0.00     0.023 A 
ATOM     83  C   UNL A   1      44.687  24.607  33.315  1.00  0.00     0.031 A 
ATOM     84  C   UNL A   1      46.674  25.774  32.713  1.00  0.00     0.131 A 
ATOM     85  C   UNL A   1      45.443  23.812  34.179  1.00  0.00     0.055 A 
ATOM     86  C   UNL A   1      47.448  24.879  33.452  1.00  0.00     0.041 A 
ATOM     87  F   UNL A   1      47.363  26.733  32.078  1.00  0.00    -0.206 F 
ATOM     88  C   UNL A   1      46.828  23.911  34.227  1.00  0.00     0.022 A 
BRANCH  85  89
ATOM     89  S   UNL A   1      44.527  22.780  35.342  1.00  0.00     0.124 S 
ATOM     90  O   UNL A   1      44.494  21.501  34.635  1.00  0.00    -0.237 OA
ATOM     91  O   UNL A   1      45.370  22.819  36.532  1.00  0.00    -0.237 OA
ATOM     92  O   UNL A   1      43.239  23.458  35.460  1.00  0.00    -0.744 OA
ENDBRANCH  85  89
ENDBRANCH  59  82
ENDBRANCH  33  34
ENDBRANCH  26  28
ENDBRANCH  25  26
ENDBRANCH  24  25
ENDBRANCH   1  24
TORSDOF 17
ENDMDL
