MODEL 1
REMARK VINA RESULT:     -11.5      0.000      0.000
REMARK SMILES N#C/C(=C\c1ccc(Oc2ccccc2Cl)c([N+](=O)[O-])c1)C(=O)OCCOC(=O)c1ccc(-c2c3nc(c(-c4cc(S(=O)(=O)[O-])ccc4F)c4ccc([nH]4)c(-c4cc(S(=O)(=O)[O-])ccc4F)c4nc(c(-c5cc(S(=O)(=O)[O-])ccc5F)c5ccc2[nH]5)C=C4)C=C3)cc1
REMARK SMILES IDX 25 1 24 2 22 3 23 4 3 5 4 6 2 7 1 8 5 9 6 10 21 11 7 12
REMARK SMILES IDX 17 13 8 14 18 15 19 16 20 17 9 18 10 19 11 20 15 21 12 22
REMARK SMILES IDX 14 23 16 24 13 25 26 26 27 27 28 28 29 29 30 30 31 31 92 32
REMARK SMILES IDX 32 33 91 34 33 35 34 36 35 37 85 38 36 39 90 40 84 41 86 42
REMARK SMILES IDX 37 43 89 44 83 45 82 46 38 48 70 49 50 50 69 51 51 52 54 53
REMARK SMILES IDX 68 54 87 55 52 56 53 57 67 59 88 60 55 61 39 62 40 63 48 64
REMARK SMILES IDX 41 65 47 66 49 67 46 68 42 69 43 70 44 71 45 72 71 73 72 74
REMARK SMILES IDX 80 75 73 76 79 77 81 78 78 79 74 80 75 81 76 82 77 83 56 84
REMARK SMILES IDX 57 85 65 86 58 87 64 88 66 89 63 90 59 91 60 92 61 93 62 94
REMARK H PARENT 86 47 54 58
REMARK Flexibility Score: inf
ROOT
ATOM      1  C   UNL A   1      35.697  20.103  25.314  1.00  0.00     0.275 C 
ENDROOT
BRANCH   1   2
ATOM      2  O   UNL A   1      34.547  19.569  24.633  1.00  0.00    -0.458 OA
BRANCH   2   3
ATOM      3  C   UNL A   1      33.340  19.857  25.186  1.00  0.00     0.349 C 
ATOM      4  O   UNL A   1      32.609  19.059  25.754  1.00  0.00    -0.245 OA
BRANCH   3   5
ATOM      5  C   UNL A   1      33.017  21.285  25.023  1.00  0.00     0.138 C 
ATOM      6  C   UNL A   1      33.401  22.144  26.000  1.00  0.00     0.035 C 
BRANCH   5   7
ATOM      7  C   UNL A   1      32.553  21.843  23.688  1.00  0.00     0.107 C 
ATOM      8  N   UNL A   1      32.168  22.307  22.582  1.00  0.00    -0.192 NA
ENDBRANCH   5   7
BRANCH   6   9
ATOM      9  C   UNL A   1      33.412  23.613  25.846  1.00  0.00    -0.017 A 
ATOM     10  C   UNL A   1      34.487  24.235  25.202  1.00  0.00     0.012 A 
ATOM     11  C   UNL A   1      32.322  24.398  26.224  1.00  0.00     0.098 A 
ATOM     12  C   UNL A   1      34.446  25.607  24.910  1.00  0.00     0.055 A 
ATOM     13  C   UNL A   1      32.245  25.744  25.830  1.00  0.00     0.312 A 
ATOM     14  C   UNL A   1      33.318  26.390  25.209  1.00  0.00     0.204 A 
BRANCH  13  15
ATOM     15  N   UNL A   1      30.932  26.334  25.979  1.00  0.00     0.066 N 
ATOM     16  O   UNL A   1      30.142  26.186  25.039  1.00  0.00    -0.258 OA
ATOM     17  O   UNL A   1      30.689  26.886  27.060  1.00  0.00    -0.258 OA
ENDBRANCH  13  15
BRANCH  14  18
ATOM     18  O   UNL A   1      33.473  27.706  24.821  1.00  0.00    -0.449 OA
BRANCH  18  19
ATOM     19  C   UNL A   1      33.411  28.716  25.747  1.00  0.00     0.146 A 
ATOM     20  C   UNL A   1      34.417  28.723  26.717  1.00  0.00     0.049 A 
ATOM     21  C   UNL A   1      32.409  29.693  25.768  1.00  0.00     0.083 A 
ATOM     22  C   UNL A   1      34.497  29.774  27.630  1.00  0.00     0.004 A 
ATOM     23  C   UNL A   1      32.509  30.759  26.665  1.00  0.00     0.024 A 
ATOM     24  Cl  UNL A   1      31.066  29.647  24.684  1.00  0.00    -0.080 Cl
ATOM     25  C   UNL A   1      33.561  30.807  27.582  1.00  0.00     0.002 A 
ENDBRANCH  18  19
ENDBRANCH  14  18
ENDBRANCH   6   9
ENDBRANCH   3   5
ENDBRANCH   2   3
ENDBRANCH   1   2
BRANCH   1  26
ATOM     26  C   UNL A   1      36.555  20.916  24.341  1.00  0.00     0.275 C 
BRANCH  26  27
ATOM     27  O   UNL A   1      37.307  21.933  25.033  1.00  0.00    -0.458 OA
BRANCH  27  28
ATOM     28  C   UNL A   1      38.420  21.487  25.662  1.00  0.00     0.338 C 
ATOM     29  O   UNL A   1      38.959  20.402  25.511  1.00  0.00    -0.246 OA
BRANCH  28  30
ATOM     30  C   UNL A   1      39.035  22.561  26.454  1.00  0.00     0.060 A 
ATOM     31  C   UNL A   1      38.594  23.854  26.224  1.00  0.00     0.016 A 
ATOM     32  C   UNL A   1      40.178  22.350  27.220  1.00  0.00     0.016 A 
ATOM     33  C   UNL A   1      39.372  24.939  26.594  1.00  0.00     0.010 A 
ATOM     34  C   UNL A   1      40.869  23.457  27.741  1.00  0.00     0.010 A 
ATOM     35  C   UNL A   1      40.501  24.771  27.392  1.00  0.00    -0.014 A 
BRANCH  35  36
ATOM     36  C   UNL A   1      41.289  25.973  27.805  1.00  0.00     0.031 A 
ATOM     37  C   UNL A   1      40.655  27.033  28.667  1.00  0.00     0.074 A 
ATOM     38  C   UNL A   1      42.590  26.094  27.459  1.00  0.00     0.049 A 
ATOM     39  N   UNL A   1      41.073  28.243  28.937  1.00  0.00    -0.248 NA
ATOM     40  C   UNL A   1      39.365  26.693  29.286  1.00  0.00     0.031 C 
ATOM     41  C   UNL A   1      43.368  25.102  26.709  1.00  0.00     0.029 A 
ATOM     42  N   UNL A   1      43.498  27.096  27.702  1.00  0.00    -0.354 N 
ATOM     43  C   UNL A   1      40.072  28.830  29.707  1.00  0.00     0.074 A 
ATOM     44  C   UNL A   1      39.017  27.847  29.836  1.00  0.00     0.031 C 
ATOM     45  C   UNL A   1      44.637  25.515  26.605  1.00  0.00     0.029 A 
ATOM     46  C   UNL A   1      44.735  26.865  27.141  1.00  0.00     0.049 A 
ATOM     47  H   UNL A   1      43.286  27.901  28.227  1.00  0.00     0.167 HD
ATOM     48  C   UNL A   1      40.045  30.073  30.250  1.00  0.00     0.034 A 
ATOM     49  C   UNL A   1      45.807  27.666  26.994  1.00  0.00     0.034 A 
ATOM     50  C   UNL A   1      41.136  31.014  30.140  1.00  0.00     0.049 A 
ATOM     51  C   UNL A   1      45.723  29.072  27.519  1.00  0.00     0.074 A 
ATOM     52  C   UNL A   1      41.217  32.306  30.632  1.00  0.00     0.029 A 
ATOM     53  N   UNL A   1      42.346  30.761  29.501  1.00  0.00    -0.354 N 
ATOM     54  N   UNL A   1      44.730  29.660  28.145  1.00  0.00    -0.248 NA
ATOM     55  C   UNL A   1      46.894  29.927  27.305  1.00  0.00     0.031 C 
ATOM     56  C   UNL A   1      42.439  32.856  30.227  1.00  0.00     0.029 A 
ATOM     57  C   UNL A   1      43.164  31.881  29.561  1.00  0.00     0.049 A 
ATOM     58  H   UNL A   1      42.588  29.910  29.070  1.00  0.00     0.167 HD
ATOM     59  C   UNL A   1      45.166  30.951  28.417  1.00  0.00     0.074 A 
ATOM     60  C   UNL A   1      46.518  31.048  27.904  1.00  0.00     0.031 C 
ATOM     61  C   UNL A   1      44.507  31.967  29.032  1.00  0.00     0.034 A 
BRANCH  48  62
ATOM     62  C   UNL A   1      38.767  30.505  30.938  1.00  0.00     0.023 A 
ATOM     63  C   UNL A   1      37.790  31.286  30.295  1.00  0.00     0.031 A 
ATOM     64  C   UNL A   1      38.550  30.168  32.287  1.00  0.00     0.131 A 
ATOM     65  C   UNL A   1      36.692  31.773  31.024  1.00  0.00     0.055 A 
ATOM     66  C   UNL A   1      37.408  30.578  32.979  1.00  0.00     0.041 A 
ATOM     67  F   UNL A   1      39.454  29.446  32.968  1.00  0.00    -0.206 F 
ATOM     68  C   UNL A   1      36.479  31.402  32.352  1.00  0.00     0.022 A 
BRANCH  65  69
ATOM     69  S   UNL A   1      35.636  33.038  30.262  1.00  0.00     0.124 S 
ATOM     70  O   UNL A   1      34.301  32.536  30.577  1.00  0.00    -0.237 OA
ATOM     71  O   UNL A   1      36.046  34.253  30.956  1.00  0.00    -0.237 OA
ATOM     72  O   UNL A   1      35.996  32.978  28.846  1.00  0.00    -0.744 OA
ENDBRANCH  65  69
ENDBRANCH  48  62
BRANCH  49  73
ATOM     73  C   UNL A   1      46.997  27.193  26.225  1.00  0.00     0.023 A 
ATOM     74  C   UNL A   1      48.061  26.528  26.854  1.00  0.00     0.031 A 
ATOM     75  C   UNL A   1      47.094  27.421  24.838  1.00  0.00     0.131 A 
ATOM     76  C   UNL A   1      49.184  26.141  26.104  1.00  0.00     0.055 A 
ATOM     77  C   UNL A   1      48.181  26.974  24.086  1.00  0.00     0.041 A 
ATOM     78  F   UNL A   1      46.113  28.062  24.183  1.00  0.00    -0.206 F 
ATOM     79  C   UNL A   1      49.242  26.340  24.722  1.00  0.00     0.022 A 
BRANCH  76  80
ATOM     80  S   UNL A   1      50.618  25.450  26.974  1.00  0.00     0.124 S 
ATOM     81  O   UNL A   1      51.013  26.565  27.826  1.00  0.00    -0.237 OA
ATOM     82  O   UNL A   1      50.037  24.297  27.653  1.00  0.00    -0.237 OA
ATOM     83  O   UNL A   1      51.549  25.130  25.895  1.00  0.00    -0.744 OA
ENDBRANCH  76  80
ENDBRANCH  49  73
BRANCH  61  84
ATOM     84  C   UNL A   1      45.272  33.253  29.225  1.00  0.00     0.023 A 
ATOM     85  C   UNL A   1      45.278  34.266  28.250  1.00  0.00     0.031 A 
ATOM     86  C   UNL A   1      46.025  33.456  30.395  1.00  0.00     0.131 A 
ATOM     87  C   UNL A   1      46.072  35.408  28.435  1.00  0.00     0.055 A 
ATOM     88  C   UNL A   1      46.757  34.625  30.604  1.00  0.00     0.041 A 
ATOM     89  F   UNL A   1      46.061  32.519  31.356  1.00  0.00    -0.206 F 
ATOM     90  C   UNL A   1      46.796  35.603  29.614  1.00  0.00     0.022 A 
BRANCH  87  91
ATOM     91  S   UNL A   1      46.233  36.588  27.066  1.00  0.00     0.124 S 
ATOM     92  O   UNL A   1      47.449  37.308  27.429  1.00  0.00    -0.237 OA
ATOM     93  O   UNL A   1      46.333  35.709  25.905  1.00  0.00    -0.237 OA
ATOM     94  O   UNL A   1      45.002  37.372  27.144  1.00  0.00    -0.744 OA
ENDBRANCH  87  91
ENDBRANCH  61  84
ENDBRANCH  35  36
ENDBRANCH  28  30
ENDBRANCH  27  28
ENDBRANCH  26  27
ENDBRANCH   1  26
TORSDOF 19
ENDMDL
MODEL 2
REMARK VINA RESULT:     -11.4      4.681     10.093
REMARK SMILES N#C/C(=C\c1ccc(Oc2ccccc2Cl)c([N+](=O)[O-])c1)C(=O)OCCOC(=O)c1ccc(-c2c3nc(c(-c4cc(S(=O)(=O)[O-])ccc4F)c4ccc([nH]4)c(-c4cc(S(=O)(=O)[O-])ccc4F)c4nc(c(-c5cc(S(=O)(=O)[O-])ccc5F)c5ccc2[nH]5)C=C4)C=C3)cc1
REMARK SMILES IDX 25 1 24 2 22 3 23 4 3 5 4 6 2 7 1 8 5 9 6 10 21 11 7 12
REMARK SMILES IDX 17 13 8 14 18 15 19 16 20 17 9 18 10 19 11 20 15 21 12 22
REMARK SMILES IDX 14 23 16 24 13 25 26 26 27 27 28 28 29 29 30 30 31 31 92 32
REMARK SMILES IDX 32 33 91 34 33 35 34 36 35 37 85 38 36 39 90 40 84 41 86 42
REMARK SMILES IDX 37 43 89 44 83 45 82 46 38 48 70 49 50 50 69 51 51 52 54 53
REMARK SMILES IDX 68 54 87 55 52 56 53 57 67 59 88 60 55 61 39 62 40 63 48 64
REMARK SMILES IDX 41 65 47 66 49 67 46 68 42 69 43 70 44 71 45 72 71 73 72 74
REMARK SMILES IDX 80 75 73 76 79 77 81 78 78 79 74 80 75 81 76 82 77 83 56 84
REMARK SMILES IDX 57 85 65 86 58 87 64 88 66 89 63 90 59 91 60 92 61 93 62 94
REMARK H PARENT 86 47 54 58
REMARK Flexibility Score: inf
ROOT
ATOM      1  C   UNL A   1      31.496  29.579  24.525  1.00  0.00     0.275 C 
ENDROOT
BRANCH   1   2
ATOM      2  O   UNL A   1      31.780  29.023  23.229  1.00  0.00    -0.458 OA
BRANCH   2   3
ATOM      3  C   UNL A   1      30.708  28.580  22.522  1.00  0.00     0.349 C 
ATOM      4  O   UNL A   1      30.097  29.222  21.680  1.00  0.00    -0.245 OA
BRANCH   3   5
ATOM      5  C   UNL A   1      30.371  27.196  22.894  1.00  0.00     0.138 C 
ATOM      6  C   UNL A   1      31.375  26.284  22.950  1.00  0.00     0.035 C 
BRANCH   5   7
ATOM      7  C   UNL A   1      29.020  26.845  23.495  1.00  0.00     0.107 C 
ATOM      8  N   UNL A   1      27.900  26.555  23.993  1.00  0.00    -0.192 NA
ENDBRANCH   5   7
BRANCH   6   9
ATOM      9  C   UNL A   1      31.244  24.956  23.581  1.00  0.00    -0.017 A 
ATOM     10  C   UNL A   1      31.628  23.811  22.874  1.00  0.00     0.012 A 
ATOM     11  C   UNL A   1      30.854  24.812  24.913  1.00  0.00     0.098 A 
ATOM     12  C   UNL A   1      31.656  22.558  23.506  1.00  0.00     0.055 A 
ATOM     13  C   UNL A   1      30.992  23.574  25.564  1.00  0.00     0.312 A 
ATOM     14  C   UNL A   1      31.349  22.415  24.869  1.00  0.00     0.204 A 
BRANCH  13  15
ATOM     15  N   UNL A   1      30.888  23.646  27.006  1.00  0.00     0.066 N 
ATOM     16  O   UNL A   1      31.668  24.410  27.586  1.00  0.00    -0.258 OA
ATOM     17  O   UNL A   1      29.988  22.979  27.532  1.00  0.00    -0.258 OA
ENDBRANCH  13  15
BRANCH  14  18
ATOM     18  O   UNL A   1      31.458  21.107  25.299  1.00  0.00    -0.449 OA
BRANCH  18  19
ATOM     19  C   UNL A   1      32.624  20.410  25.114  1.00  0.00     0.146 A 
ATOM     20  C   UNL A   1      32.501  19.155  24.509  1.00  0.00     0.049 A 
ATOM     21  C   UNL A   1      33.884  20.878  25.507  1.00  0.00     0.083 A 
ATOM     22  C   UNL A   1      33.642  18.425  24.182  1.00  0.00     0.004 A 
ATOM     23  C   UNL A   1      35.026  20.156  25.152  1.00  0.00     0.024 A 
ATOM     24  Cl  UNL A   1      34.076  22.351  26.387  1.00  0.00    -0.080 Cl
ATOM     25  C   UNL A   1      34.904  18.940  24.475  1.00  0.00     0.002 A 
ENDBRANCH  18  19
ENDBRANCH  14  18
ENDBRANCH   6   9
ENDBRANCH   3   5
ENDBRANCH   2   3
ENDBRANCH   1   2
BRANCH   1  26
ATOM     26  C   UNL A   1      32.779  29.663  25.356  1.00  0.00     0.275 C 
BRANCH  26  27
ATOM     27  O   UNL A   1      32.491  30.006  26.727  1.00  0.00    -0.458 OA
BRANCH  27  28
ATOM     28  C   UNL A   1      33.047  31.165  27.150  1.00  0.00     0.338 C 
ATOM     29  O   UNL A   1      32.473  32.225  27.339  1.00  0.00    -0.246 OA
BRANCH  28  30
ATOM     30  C   UNL A   1      34.449  30.957  27.540  1.00  0.00     0.060 A 
ATOM     31  C   UNL A   1      34.810  29.688  27.964  1.00  0.00     0.016 A 
ATOM     32  C   UNL A   1      35.329  32.019  27.723  1.00  0.00     0.016 A 
ATOM     33  C   UNL A   1      35.953  29.499  28.724  1.00  0.00     0.010 A 
ATOM     34  C   UNL A   1      36.568  31.786  28.343  1.00  0.00     0.010 A 
ATOM     35  C   UNL A   1      36.876  30.528  28.897  1.00  0.00    -0.014 A 
BRANCH  35  36
ATOM     36  C   UNL A   1      38.117  30.270  29.689  1.00  0.00     0.031 A 
ATOM     37  C   UNL A   1      39.195  29.375  29.135  1.00  0.00     0.074 A 
ATOM     38  C   UNL A   1      38.311  30.879  30.880  1.00  0.00     0.049 A 
ATOM     39  N   UNL A   1      40.222  28.839  29.742  1.00  0.00    -0.248 NA
ATOM     40  C   UNL A   1      39.085  29.016  27.714  1.00  0.00     0.031 C 
ATOM     41  C   UNL A   1      37.401  31.847  31.502  1.00  0.00     0.029 A 
ATOM     42  N   UNL A   1      39.345  30.787  31.782  1.00  0.00    -0.354 N 
ATOM     43  C   UNL A   1      40.848  28.033  28.795  1.00  0.00     0.074 A 
ATOM     44  C   UNL A   1      40.065  28.134  27.581  1.00  0.00     0.031 C 
ATOM     45  C   UNL A   1      37.938  32.298  32.641  1.00  0.00     0.029 A 
ATOM     46  C   UNL A   1      39.153  31.545  32.916  1.00  0.00     0.049 A 
ATOM     47  H   UNL A   1      40.145  30.234  31.631  1.00  0.00     0.167 HD
ATOM     48  C   UNL A   1      41.970  27.282  28.935  1.00  0.00     0.034 A 
ATOM     49  C   UNL A   1      39.823  31.581  34.084  1.00  0.00     0.034 A 
ATOM     50  C   UNL A   1      42.753  27.239  30.148  1.00  0.00     0.049 A 
ATOM     51  C   UNL A   1      41.008  30.671  34.253  1.00  0.00     0.074 A 
ATOM     52  C   UNL A   1      43.896  26.504  30.414  1.00  0.00     0.029 A 
ATOM     53  N   UNL A   1      42.483  27.973  31.299  1.00  0.00    -0.354 N 
ATOM     54  N   UNL A   1      41.527  29.825  33.394  1.00  0.00    -0.248 NA
ATOM     55  C   UNL A   1      41.687  30.708  35.552  1.00  0.00     0.031 C 
ATOM     56  C   UNL A   1      44.270  26.735  31.743  1.00  0.00     0.029 A 
ATOM     57  C   UNL A   1      43.417  27.684  32.283  1.00  0.00     0.049 A 
ATOM     58  H   UNL A   1      41.736  28.607  31.400  1.00  0.00     0.167 HD
ATOM     59  C   UNL A   1      42.608  29.241  34.044  1.00  0.00     0.074 A 
ATOM     60  C   UNL A   1      42.677  29.849  35.359  1.00  0.00     0.031 C 
ATOM     61  C   UNL A   1      43.465  28.288  33.597  1.00  0.00     0.034 A 
BRANCH  48  62
ATOM     62  C   UNL A   1      42.361  26.392  27.774  1.00  0.00     0.023 A 
ATOM     63  C   UNL A   1      41.833  25.101  27.601  1.00  0.00     0.031 A 
ATOM     64  C   UNL A   1      43.327  26.832  26.848  1.00  0.00     0.131 A 
ATOM     65  C   UNL A   1      42.335  24.268  26.586  1.00  0.00     0.055 A 
ATOM     66  C   UNL A   1      43.752  26.033  25.785  1.00  0.00     0.041 A 
ATOM     67  F   UNL A   1      43.890  28.045  26.970  1.00  0.00    -0.206 F 
ATOM     68  C   UNL A   1      43.270  24.735  25.661  1.00  0.00     0.022 A 
BRANCH  65  69
ATOM     69  S   UNL A   1      41.878  22.512  26.597  1.00  0.00     0.124 S 
ATOM     70  O   UNL A   1      42.542  22.027  25.389  1.00  0.00    -0.237 OA
ATOM     71  O   UNL A   1      42.429  22.049  27.864  1.00  0.00    -0.237 OA
ATOM     72  O   UNL A   1      40.417  22.537  26.524  1.00  0.00    -0.744 OA
ENDBRANCH  65  69
ENDBRANCH  48  62
BRANCH  49  73
ATOM     73  C   UNL A   1      39.320  32.422  35.211  1.00  0.00     0.023 A 
ATOM     74  C   UNL A   1      39.794  33.725  35.424  1.00  0.00     0.031 A 
ATOM     75  C   UNL A   1      38.361  31.917  36.112  1.00  0.00     0.131 A 
ATOM     76  C   UNL A   1      39.332  34.467  36.524  1.00  0.00     0.055 A 
ATOM     77  C   UNL A   1      37.854  32.683  37.163  1.00  0.00     0.041 A 
ATOM     78  F   UNL A   1      37.878  30.673  35.966  1.00  0.00    -0.206 F 
ATOM     79  C   UNL A   1      38.350  33.963  37.381  1.00  0.00     0.022 A 
BRANCH  76  80
ATOM     80  S   UNL A   1      40.097  36.073  36.877  1.00  0.00     0.124 S 
ATOM     81  O   UNL A   1      41.482  35.693  37.129  1.00  0.00    -0.237 OA
ATOM     82  O   UNL A   1      39.846  36.808  35.642  1.00  0.00    -0.237 OA
ATOM     83  O   UNL A   1      39.360  36.551  38.044  1.00  0.00    -0.744 OA
ENDBRANCH  76  80
ENDBRANCH  49  73
BRANCH  61  84
ATOM     84  C   UNL A   1      44.581  27.887  34.529  1.00  0.00     0.023 A 
ATOM     85  C   UNL A   1      44.381  26.968  35.574  1.00  0.00     0.031 A 
ATOM     86  C   UNL A   1      45.860  28.454  34.382  1.00  0.00     0.131 A 
ATOM     87  C   UNL A   1      45.424  26.690  36.469  1.00  0.00     0.055 A 
ATOM     88  C   UNL A   1      46.913  28.120  35.234  1.00  0.00     0.041 A 
ATOM     89  F   UNL A   1      46.105  29.342  33.407  1.00  0.00    -0.206 F 
ATOM     90  C   UNL A   1      46.695  27.245  36.293  1.00  0.00     0.022 A 
BRANCH  87  91
ATOM     91  S   UNL A   1      45.072  25.676  37.931  1.00  0.00     0.124 S 
ATOM     92  O   UNL A   1      44.242  24.615  37.370  1.00  0.00    -0.237 OA
ATOM     93  O   UNL A   1      46.407  25.279  38.367  1.00  0.00    -0.237 OA
ATOM     94  O   UNL A   1      44.376  26.597  38.827  1.00  0.00    -0.744 OA
ENDBRANCH  87  91
ENDBRANCH  61  84
ENDBRANCH  35  36
ENDBRANCH  28  30
ENDBRANCH  27  28
ENDBRANCH  26  27
ENDBRANCH   1  26
TORSDOF 19
ENDMDL
MODEL 3
REMARK VINA RESULT:     -11.3      4.637      9.826
REMARK SMILES N#C/C(=C\c1ccc(Oc2ccccc2Cl)c([N+](=O)[O-])c1)C(=O)OCCOC(=O)c1ccc(-c2c3nc(c(-c4cc(S(=O)(=O)[O-])ccc4F)c4ccc([nH]4)c(-c4cc(S(=O)(=O)[O-])ccc4F)c4nc(c(-c5cc(S(=O)(=O)[O-])ccc5F)c5ccc2[nH]5)C=C4)C=C3)cc1
REMARK SMILES IDX 25 1 24 2 22 3 23 4 3 5 4 6 2 7 1 8 5 9 6 10 21 11 7 12
REMARK SMILES IDX 17 13 8 14 18 15 19 16 20 17 9 18 10 19 11 20 15 21 12 22
REMARK SMILES IDX 14 23 16 24 13 25 26 26 27 27 28 28 29 29 30 30 31 31 92 32
REMARK SMILES IDX 32 33 91 34 33 35 34 36 35 37 85 38 36 39 90 40 84 41 86 42
REMARK SMILES IDX 37 43 89 44 83 45 82 46 38 48 70 49 50 50 69 51 51 52 54 53
REMARK SMILES IDX 68 54 87 55 52 56 53 57 67 59 88 60 55 61 39 62 40 63 48 64
REMARK SMILES IDX 41 65 47 66 49 67 46 68 42 69 43 70 44 71 45 72 71 73 72 74
REMARK SMILES IDX 80 75 73 76 79 77 81 78 78 79 74 80 75 81 76 82 77 83 56 84
REMARK SMILES IDX 57 85 65 86 58 87 64 88 66 89 63 90 59 91 60 92 61 93 62 94
REMARK H PARENT 86 47 54 58
REMARK Flexibility Score: inf
ROOT
ATOM      1  C   UNL A   1      31.258  30.046  25.079  1.00  0.00     0.275 C 
ENDROOT
BRANCH   1   2
ATOM      2  O   UNL A   1      31.250  29.477  23.757  1.00  0.00    -0.458 OA
BRANCH   2   3
ATOM      3  C   UNL A   1      30.042  29.070  23.290  1.00  0.00     0.349 C 
ATOM      4  O   UNL A   1      29.172  29.799  22.837  1.00  0.00    -0.245 OA
BRANCH   3   5
ATOM      5  C   UNL A   1      29.908  27.607  23.389  1.00  0.00     0.138 C 
ATOM      6  C   UNL A   1      31.040  26.859  23.410  1.00  0.00     0.035 C 
BRANCH   5   7
ATOM      7  C   UNL A   1      28.587  26.958  23.766  1.00  0.00     0.107 C 
ATOM      8  N   UNL A   1      27.491  26.419  24.079  1.00  0.00    -0.192 NA
ENDBRANCH   5   7
BRANCH   6   9
ATOM      9  C   UNL A   1      31.077  25.434  23.796  1.00  0.00    -0.017 A 
ATOM     10  C   UNL A   1      31.641  24.494  22.926  1.00  0.00     0.012 A 
ATOM     11  C   UNL A   1      30.668  25.006  25.059  1.00  0.00     0.098 A 
ATOM     12  C   UNL A   1      31.825  23.164  23.334  1.00  0.00     0.055 A 
ATOM     13  C   UNL A   1      30.957  23.702  25.494  1.00  0.00     0.312 A 
ATOM     14  C   UNL A   1      31.496  22.742  24.633  1.00  0.00     0.204 A 
BRANCH  13  15
ATOM     15  N   UNL A   1      30.798  23.502  26.919  1.00  0.00     0.066 N 
ATOM     16  O   UNL A   1      29.655  23.620  27.377  1.00  0.00    -0.258 OA
ATOM     17  O   UNL A   1      31.809  23.170  27.551  1.00  0.00    -0.258 OA
ENDBRANCH  13  15
BRANCH  14  18
ATOM     18  O   UNL A   1      31.775  21.405  24.838  1.00  0.00    -0.449 OA
BRANCH  18  19
ATOM     19  C   UNL A   1      33.070  20.955  24.828  1.00  0.00     0.146 A 
ATOM     20  C   UNL A   1      34.046  21.883  25.203  1.00  0.00     0.049 A 
ATOM     21  C   UNL A   1      33.441  19.657  24.455  1.00  0.00     0.083 A 
ATOM     22  C   UNL A   1      35.375  21.482  25.328  1.00  0.00     0.004 A 
ATOM     23  C   UNL A   1      34.769  19.253  24.609  1.00  0.00     0.024 A 
ATOM     24  Cl  UNL A   1      32.295  18.519  23.846  1.00  0.00    -0.080 Cl
ATOM     25  C   UNL A   1      35.730  20.160  25.061  1.00  0.00     0.002 A 
ENDBRANCH  18  19
ENDBRANCH  14  18
ENDBRANCH   6   9
ENDBRANCH   3   5
ENDBRANCH   2   3
ENDBRANCH   1   2
BRANCH   1  26
ATOM     26  C   UNL A   1      32.512  29.603  25.836  1.00  0.00     0.275 C 
BRANCH  26  27
ATOM     27  O   UNL A   1      32.530  30.139  27.175  1.00  0.00    -0.458 OA
BRANCH  27  28
ATOM     28  C   UNL A   1      33.201  31.307  27.310  1.00  0.00     0.338 C 
ATOM     29  O   UNL A   1      32.722  32.429  27.320  1.00  0.00    -0.246 OA
BRANCH  28  30
ATOM     30  C   UNL A   1      34.615  31.059  27.629  1.00  0.00     0.060 A 
ATOM     31  C   UNL A   1      34.973  29.764  27.967  1.00  0.00     0.016 A 
ATOM     32  C   UNL A   1      35.517  32.099  27.833  1.00  0.00     0.016 A 
ATOM     33  C   UNL A   1      36.143  29.519  28.669  1.00  0.00     0.010 A 
ATOM     34  C   UNL A   1      36.777  31.815  28.388  1.00  0.00     0.010 A 
ATOM     35  C   UNL A   1      37.088  30.524  28.859  1.00  0.00    -0.014 A 
BRANCH  35  36
ATOM     36  C   UNL A   1      38.356  30.208  29.583  1.00  0.00     0.031 A 
ATOM     37  C   UNL A   1      39.369  29.280  28.964  1.00  0.00     0.074 A 
ATOM     38  C   UNL A   1      38.634  30.790  30.771  1.00  0.00     0.049 A 
ATOM     39  N   UNL A   1      40.403  28.696  29.511  1.00  0.00    -0.248 NA
ATOM     40  C   UNL A   1      39.174  28.947  27.545  1.00  0.00     0.031 C 
ATOM     41  C   UNL A   1      37.795  31.783  31.450  1.00  0.00     0.029 A 
ATOM     42  N   UNL A   1      39.707  30.646  31.617  1.00  0.00    -0.354 N 
ATOM     43  C   UNL A   1      40.948  27.881  28.523  1.00  0.00     0.074 A 
ATOM     44  C   UNL A   1      40.110  28.030  27.352  1.00  0.00     0.031 C 
ATOM     45  C   UNL A   1      38.406  32.197  32.567  1.00  0.00     0.029 A 
ATOM     46  C   UNL A   1      39.602  31.393  32.770  1.00  0.00     0.049 A 
ATOM     47  H   UNL A   1      40.476  30.065  31.419  1.00  0.00     0.167 HD
ATOM     48  C   UNL A   1      42.046  27.085  28.596  1.00  0.00     0.034 A 
ATOM     49  C   UNL A   1      40.331  31.386  33.902  1.00  0.00     0.034 A 
ATOM     50  C   UNL A   1      42.887  26.994  29.767  1.00  0.00     0.049 A 
ATOM     51  C   UNL A   1      41.487  30.429  34.000  1.00  0.00     0.074 A 
ATOM     52  C   UNL A   1      44.012  26.211  29.965  1.00  0.00     0.029 A 
ATOM     53  N   UNL A   1      42.704  27.720  30.939  1.00  0.00    -0.354 N 
ATOM     54  N   UNL A   1      41.928  29.576  33.104  1.00  0.00    -0.248 NA
ATOM     55  C   UNL A   1      42.231  30.421  35.263  1.00  0.00     0.031 C 
ATOM     56  C   UNL A   1      44.461  26.408  31.276  1.00  0.00     0.029 A 
ATOM     57  C   UNL A   1      43.675  27.381  31.871  1.00  0.00     0.049 A 
ATOM     58  H   UNL A   1      41.989  28.381  31.086  1.00  0.00     0.167 HD
ATOM     59  C   UNL A   1      43.017  28.942  33.691  1.00  0.00     0.074 A 
ATOM     60  C   UNL A   1      43.175  29.526  35.008  1.00  0.00     0.031 C 
ATOM     61  C   UNL A   1      43.812  27.963  33.188  1.00  0.00     0.034 A 
BRANCH  48  62
ATOM     62  C   UNL A   1      42.343  26.198  27.405  1.00  0.00     0.023 A 
ATOM     63  C   UNL A   1      41.894  24.868  27.323  1.00  0.00     0.031 A 
ATOM     64  C   UNL A   1      43.140  26.684  26.351  1.00  0.00     0.131 A 
ATOM     65  C   UNL A   1      42.316  24.049  26.262  1.00  0.00     0.055 A 
ATOM     66  C   UNL A   1      43.477  25.892  25.251  1.00  0.00     0.041 A 
ATOM     67  F   UNL A   1      43.622  27.936  26.378  1.00  0.00    -0.206 F 
ATOM     68  C   UNL A   1      43.081  24.559  25.212  1.00  0.00     0.022 A 
BRANCH  65  69
ATOM     69  S   UNL A   1      41.997  22.266  26.359  1.00  0.00     0.124 S 
ATOM     70  O   UNL A   1      42.862  21.753  25.300  1.00  0.00    -0.237 OA
ATOM     71  O   UNL A   1      42.394  21.946  27.725  1.00  0.00    -0.237 OA
ATOM     72  O   UNL A   1      40.564  22.158  26.086  1.00  0.00    -0.744 OA
ENDBRANCH  65  69
ENDBRANCH  48  62
BRANCH  49  73
ATOM     73  C   UNL A   1      39.919  32.229  35.065  1.00  0.00     0.023 A 
ATOM     74  C   UNL A   1      39.104  31.721  36.088  1.00  0.00     0.031 A 
ATOM     75  C   UNL A   1      40.327  33.575  35.157  1.00  0.00     0.131 A 
ATOM     76  C   UNL A   1      38.699  32.559  37.140  1.00  0.00     0.055 A 
ATOM     77  C   UNL A   1      39.979  34.383  36.240  1.00  0.00     0.041 A 
ATOM     78  F   UNL A   1      41.098  34.120  34.203  1.00  0.00    -0.206 F 
ATOM     79  C   UNL A   1      39.149  33.879  37.234  1.00  0.00     0.022 A 
BRANCH  76  80
ATOM     80  S   UNL A   1      37.500  31.929  38.346  1.00  0.00     0.124 S 
ATOM     81  O   UNL A   1      38.270  31.978  39.584  1.00  0.00    -0.237 OA
ATOM     82  O   UNL A   1      36.412  32.893  38.228  1.00  0.00    -0.237 OA
ATOM     83  O   UNL A   1      37.197  30.587  37.854  1.00  0.00    -0.744 OA
ENDBRANCH  76  80
ENDBRANCH  49  73
BRANCH  61  84
ATOM     84  C   UNL A   1      44.957  27.505  34.058  1.00  0.00     0.023 A 
ATOM     85  C   UNL A   1      46.221  28.117  34.001  1.00  0.00     0.031 A 
ATOM     86  C   UNL A   1      44.784  26.423  34.938  1.00  0.00     0.131 A 
ATOM     87  C   UNL A   1      47.280  27.603  34.765  1.00  0.00     0.055 A 
ATOM     88  C   UNL A   1      45.822  25.960  35.747  1.00  0.00     0.041 A 
ATOM     89  F   UNL A   1      43.599  25.797  35.027  1.00  0.00    -0.206 F 
ATOM     90  C   UNL A   1      47.083  26.541  35.652  1.00  0.00     0.022 A 
BRANCH  87  91
ATOM     91  S   UNL A   1      48.947  28.270  34.504  1.00  0.00     0.124 S 
ATOM     92  O   UNL A   1      49.785  27.113  34.798  1.00  0.00    -0.237 OA
ATOM     93  O   UNL A   1      48.902  28.687  33.107  1.00  0.00    -0.237 OA
ATOM     94  O   UNL A   1      49.034  29.361  35.473  1.00  0.00    -0.744 OA
ENDBRANCH  87  91
ENDBRANCH  61  84
ENDBRANCH  35  36
ENDBRANCH  28  30
ENDBRANCH  27  28
ENDBRANCH  26  27
ENDBRANCH   1  26
TORSDOF 19
ENDMDL
