MODEL 1
REMARK VINA RESULT:     -13.1      0.000      0.000
REMARK SMILES Cc1ccc(S(=O)(=O)n2cc(C(=O)C(=O)N[C@@H](Cc3c[nH]c4ccccc34)C(=O)OCCOC(=O)c3ccc(-c4c5nc(c(-c6cc(S(=O)(=O)[O-])ccc6F)c6ccc([nH]6)c(-c6cc(S(=O)(=O)[O-])ccc6F)c6nc(c(-c7cc(S(=O)(=O)[O-])ccc7F)c7ccc4[nH]7)C=C6)C=C5)cc3)c3ccccc32)cc1
REMARK SMILES IDX 31 1 30 2 28 3 29 4 17 5 16 6 14 7 15 8 12 10 13 11 11 12
REMARK SMILES IDX 9 13 10 14 104 15 99 16 103 17 100 18 102 19 101 20 6 21
REMARK SMILES IDX 7 22 8 23 5 24 1 25 2 26 3 27 106 28 4 29 105 30 18 31 19 32
REMARK SMILES IDX 20 33 27 34 21 35 22 36 26 37 23 39 25 40 24 41 32 42 33 43
REMARK SMILES IDX 34 44 35 45 36 46 37 47 98 48 38 49 97 50 39 51 40 52 41 53
REMARK SMILES IDX 91 54 42 55 96 56 90 57 92 58 43 59 95 60 89 61 88 62 44 64
REMARK SMILES IDX 76 65 56 66 75 67 57 68 60 69 74 70 93 71 58 72 59 73 73 75
REMARK SMILES IDX 94 76 61 77 45 78 46 79 54 80 47 81 53 82 55 83 52 84 48 85
REMARK SMILES IDX 49 86 50 87 51 88 77 89 78 90 86 91 79 92 85 93 87 94 84 95
REMARK SMILES IDX 80 96 81 97 82 98 83 99 62 100 63 101 71 102 64 103 70 104
REMARK SMILES IDX 72 105 69 106 65 107 66 108 67 109 68 110
REMARK H PARENT 16 9 21 38 92 63 60 74
REMARK Flexibility Score: inf
ROOT
ATOM      1  C   UNL A   1      33.528  33.416  27.527  1.00  0.00     0.274 C 
ENDROOT
BRANCH   1   2
ATOM      2  O   UNL A   1      33.160  32.045  27.349  1.00  0.00    -0.461 OA
BRANCH   2   3
ATOM      3  C   UNL A   1      31.922  31.873  26.804  1.00  0.00     0.329 C 
ATOM      4  O   UNL A   1      31.063  32.751  26.788  1.00  0.00    -0.250 OA
BRANCH   3   5
ATOM      5  C   UNL A   1      31.777  30.516  26.093  1.00  0.00     0.197 C 
BRANCH   5   6
ATOM      6  N   UNL A   1      31.413  29.410  27.026  1.00  0.00    -0.335 N 
ATOM      7  C   UNL A   1      32.074  28.226  27.353  1.00  0.00     0.293 C 
ATOM      8  O   UNL A   1      31.595  27.464  28.189  1.00  0.00    -0.265 OA
ATOM      9  H   UNL A   1      30.555  29.536  27.491  1.00  0.00     0.164 HD
BRANCH   7  10
ATOM     10  C   UNL A   1      33.366  27.828  26.626  1.00  0.00     0.252 C 
ATOM     11  O   UNL A   1      34.194  28.729  26.480  1.00  0.00    -0.283 OA
BRANCH  10  12
ATOM     12  C   UNL A   1      33.659  26.537  25.966  1.00  0.00     0.054 A 
ATOM     13  N   UNL A   1      34.629  24.589  25.419  1.00  0.00    -0.240 N 
ATOM     14  C   UNL A   1      34.768  25.975  25.306  1.00  0.00     0.117 A 
ATOM     15  C   UNL A   1      33.460  24.325  26.145  1.00  0.00     0.065 A 
ATOM     16  C   UNL A   1      32.705  25.477  26.033  1.00  0.00     0.012 A 
ATOM     17  C   UNL A   1      32.904  23.119  26.614  1.00  0.00     0.028 A 
ATOM     18  C   UNL A   1      31.304  25.381  26.157  1.00  0.00     0.011 A 
ATOM     19  C   UNL A   1      31.517  23.026  26.663  1.00  0.00     0.002 A 
ATOM     20  C   UNL A   1      30.723  24.129  26.380  1.00  0.00     0.001 A 
BRANCH  13  21
ATOM     21  S   UNL A   1      34.973  23.293  24.345  1.00  0.00     0.268 S 
ATOM     22  O   UNL A   1      36.429  23.262  24.347  1.00  0.00    -0.201 OA
ATOM     23  O   UNL A   1      34.232  23.715  23.159  1.00  0.00    -0.201 OA
BRANCH  21  24
ATOM     24  C   UNL A   1      34.546  21.598  24.367  1.00  0.00     0.088 A 
ATOM     25  C   UNL A   1      32.295  17.917  24.492  1.00  0.00     0.044 C 
ATOM     26  C   UNL A   1      33.138  19.156  24.401  1.00  0.00    -0.051 A 
ATOM     27  C   UNL A   1      32.554  20.264  23.812  1.00  0.00     0.005 A 
ATOM     28  C   UNL A   1      34.448  19.268  24.928  1.00  0.00     0.005 A 
ATOM     29  C   UNL A   1      33.255  21.450  23.787  1.00  0.00     0.022 A 
ATOM     30  C   UNL A   1      35.165  20.495  24.921  1.00  0.00     0.022 A 
ENDBRANCH  21  24
ENDBRANCH  13  21
ENDBRANCH  10  12
ENDBRANCH   7  10
ENDBRANCH   5   6
BRANCH   5  31
ATOM     31  C   UNL A   1      30.841  30.654  24.864  1.00  0.00     0.074 C 
BRANCH  31  32
ATOM     32  C   UNL A   1      30.767  29.389  24.055  1.00  0.00    -0.020 A 
ATOM     33  C   UNL A   1      29.751  28.455  24.083  1.00  0.00     0.087 A 
ATOM     34  C   UNL A   1      31.826  28.805  23.309  1.00  0.00     0.003 A 
ATOM     35  N   UNL A   1      30.185  27.306  23.489  1.00  0.00    -0.361 N 
ATOM     36  C   UNL A   1      31.482  27.474  23.070  1.00  0.00     0.046 A 
ATOM     37  C   UNL A   1      33.099  29.261  22.935  1.00  0.00     0.010 A 
ATOM     38  H   UNL A   1      29.653  26.485  23.378  1.00  0.00     0.166 HD
ATOM     39  C   UNL A   1      32.383  26.549  22.541  1.00  0.00     0.026 A 
ATOM     40  C   UNL A   1      34.013  28.353  22.403  1.00  0.00     0.001 A 
ATOM     41  C   UNL A   1      33.664  27.014  22.230  1.00  0.00     0.002 A 
ENDBRANCH  31  32
ENDBRANCH   5  31
ENDBRANCH   3   5
ENDBRANCH   2   3
ENDBRANCH   1   2
BRANCH   1  42
ATOM     42  C   UNL A   1      33.646  33.783  29.010  1.00  0.00     0.275 C 
BRANCH  42  43
ATOM     43  O   UNL A   1      34.848  33.471  29.780  1.00  0.00    -0.458 OA
BRANCH  43  44
ATOM     44  C   UNL A   1      35.026  32.411  30.613  1.00  0.00     0.338 C 
ATOM     45  O   UNL A   1      34.391  32.291  31.654  1.00  0.00    -0.246 OA
BRANCH  44  46
ATOM     46  C   UNL A   1      35.989  31.378  30.160  1.00  0.00     0.060 A 
ATOM     47  C   UNL A   1      36.386  31.322  28.808  1.00  0.00     0.016 A 
ATOM     48  C   UNL A   1      36.668  30.639  31.110  1.00  0.00     0.016 A 
ATOM     49  C   UNL A   1      37.592  30.700  28.443  1.00  0.00     0.010 A 
ATOM     50  C   UNL A   1      37.916  30.169  30.780  1.00  0.00     0.010 A 
ATOM     51  C   UNL A   1      38.401  30.185  29.454  1.00  0.00    -0.014 A 
BRANCH  51  52
ATOM     52  C   UNL A   1      39.682  29.477  29.328  1.00  0.00     0.031 A 
ATOM     53  C   UNL A   1      39.843  28.072  28.866  1.00  0.00     0.074 A 
ATOM     54  C   UNL A   1      40.724  30.328  29.445  1.00  0.00     0.049 A 
ATOM     55  N   UNL A   1      40.659  27.692  27.929  1.00  0.00    -0.248 NA
ATOM     56  C   UNL A   1      39.087  26.960  29.460  1.00  0.00     0.031 C 
ATOM     57  C   UNL A   1      42.120  30.188  29.103  1.00  0.00     0.029 A 
ATOM     58  N   UNL A   1      40.672  31.552  30.104  1.00  0.00    -0.354 N 
ATOM     59  C   UNL A   1      40.661  26.301  27.889  1.00  0.00     0.074 A 
ATOM     60  C   UNL A   1      39.600  25.903  28.813  1.00  0.00     0.031 C 
ATOM     61  C   UNL A   1      42.825  31.106  29.796  1.00  0.00     0.029 A 
ATOM     62  C   UNL A   1      41.898  31.777  30.706  1.00  0.00     0.049 A 
ATOM     63  H   UNL A   1      39.895  32.156  30.138  1.00  0.00     0.167 HD
ATOM     64  C   UNL A   1      41.836  25.606  27.898  1.00  0.00     0.034 A 
ATOM     65  C   UNL A   1      41.918  31.716  32.073  1.00  0.00     0.034 A 
ATOM     66  C   UNL A   1      42.893  26.334  28.547  1.00  0.00     0.049 A 
ATOM     67  C   UNL A   1      42.691  30.493  32.496  1.00  0.00     0.074 A 
ATOM     68  C   UNL A   1      43.854  27.223  28.113  1.00  0.00     0.029 A 
ATOM     69  N   UNL A   1      42.930  26.315  29.926  1.00  0.00    -0.354 N 
ATOM     70  N   UNL A   1      42.677  29.348  31.864  1.00  0.00    -0.248 NA
ATOM     71  C   UNL A   1      43.661  30.547  33.579  1.00  0.00     0.031 C 
ATOM     72  C   UNL A   1      44.427  27.810  29.270  1.00  0.00     0.029 A 
ATOM     73  C   UNL A   1      43.828  27.244  30.388  1.00  0.00     0.049 A 
ATOM     74  H   UNL A   1      42.390  25.721  30.495  1.00  0.00     0.167 HD
ATOM     75  C   UNL A   1      43.695  28.574  32.358  1.00  0.00     0.074 A 
ATOM     76  C   UNL A   1      44.258  29.354  33.447  1.00  0.00     0.031 C 
ATOM     77  C   UNL A   1      44.078  27.384  31.806  1.00  0.00     0.034 A 
BRANCH  64  78
ATOM     78  C   UNL A   1      42.085  24.460  26.952  1.00  0.00     0.023 A 
ATOM     79  C   UNL A   1      41.555  23.189  27.273  1.00  0.00     0.031 A 
ATOM     80  C   UNL A   1      42.876  24.527  25.791  1.00  0.00     0.131 A 
ATOM     81  C   UNL A   1      41.873  22.048  26.519  1.00  0.00     0.055 A 
ATOM     82  C   UNL A   1      43.160  23.392  25.013  1.00  0.00     0.041 A 
ATOM     83  F   UNL A   1      43.411  25.690  25.382  1.00  0.00    -0.206 F 
ATOM     84  C   UNL A   1      42.673  22.141  25.385  1.00  0.00     0.022 A 
BRANCH  81  85
ATOM     85  S   UNL A   1      41.299  20.429  27.110  1.00  0.00     0.124 S 
ATOM     86  O   UNL A   1      40.704  20.766  28.400  1.00  0.00    -0.237 OA
ATOM     87  O   UNL A   1      40.373  20.021  26.060  1.00  0.00    -0.237 OA
ATOM     88  O   UNL A   1      42.528  19.640  27.189  1.00  0.00    -0.744 OA
ENDBRANCH  81  85
ENDBRANCH  64  78
BRANCH  65  89
ATOM     89  C   UNL A   1      40.641  32.222  32.699  1.00  0.00     0.023 A 
ATOM     90  C   UNL A   1      40.102  31.457  33.764  1.00  0.00     0.031 A 
ATOM     91  C   UNL A   1      40.197  33.546  32.576  1.00  0.00     0.131 A 
ATOM     92  C   UNL A   1      39.310  32.063  34.754  1.00  0.00     0.055 A 
ATOM     93  C   UNL A   1      39.333  34.122  33.524  1.00  0.00     0.041 A 
ATOM     94  F   UNL A   1      40.670  34.343  31.606  1.00  0.00    -0.206 F 
ATOM     95  C   UNL A   1      38.920  33.395  34.642  1.00  0.00     0.022 A 
BRANCH  92  96
ATOM     96  S   UNL A   1      39.046  31.156  36.309  1.00  0.00     0.124 S 
ATOM     97  O   UNL A   1      37.596  31.211  36.455  1.00  0.00    -0.237 OA
ATOM     98  O   UNL A   1      39.608  29.843  35.996  1.00  0.00    -0.237 OA
ATOM     99  O   UNL A   1      39.806  31.924  37.292  1.00  0.00    -0.744 OA
ENDBRANCH  92  96
ENDBRANCH  65  89
BRANCH  77 100
ATOM    100  C   UNL A   1      44.860  26.319  32.533  1.00  0.00     0.023 A 
ATOM    101  C   UNL A   1      44.221  25.286  33.223  1.00  0.00     0.031 A 
ATOM    102  C   UNL A   1      46.271  26.236  32.483  1.00  0.00     0.131 A 
ATOM    103  C   UNL A   1      44.942  24.337  33.954  1.00  0.00     0.055 A 
ATOM    104  C   UNL A   1      46.993  25.221  33.122  1.00  0.00     0.041 A 
ATOM    105  F   UNL A   1      47.011  27.111  31.786  1.00  0.00    -0.206 F 
ATOM    106  C   UNL A   1      46.329  24.280  33.893  1.00  0.00     0.022 A 
BRANCH 103 107
ATOM    107  S   UNL A   1      43.997  23.269  35.064  1.00  0.00     0.124 S 
ATOM    108  O   UNL A   1      44.412  21.941  34.617  1.00  0.00    -0.237 OA
ATOM    109  O   UNL A   1      44.487  23.673  36.378  1.00  0.00    -0.237 OA
ATOM    110  O   UNL A   1      42.609  23.619  34.777  1.00  0.00    -0.744 OA
ENDBRANCH 103 107
ENDBRANCH  77 100
ENDBRANCH  51  52
ENDBRANCH  44  46
ENDBRANCH  43  44
ENDBRANCH  42  43
ENDBRANCH   1  42
TORSDOF 21
ENDMDL
MODEL 2
REMARK VINA RESULT:     -12.9      1.277      2.053
REMARK SMILES Cc1ccc(S(=O)(=O)n2cc(C(=O)C(=O)N[C@@H](Cc3c[nH]c4ccccc34)C(=O)OCCOC(=O)c3ccc(-c4c5nc(c(-c6cc(S(=O)(=O)[O-])ccc6F)c6ccc([nH]6)c(-c6cc(S(=O)(=O)[O-])ccc6F)c6nc(c(-c7cc(S(=O)(=O)[O-])ccc7F)c7ccc4[nH]7)C=C6)C=C5)cc3)c3ccccc32)cc1
REMARK SMILES IDX 31 1 30 2 28 3 29 4 17 5 16 6 14 7 15 8 12 10 13 11 11 12
REMARK SMILES IDX 9 13 10 14 104 15 99 16 103 17 100 18 102 19 101 20 6 21
REMARK SMILES IDX 7 22 8 23 5 24 1 25 2 26 3 27 106 28 4 29 105 30 18 31 19 32
REMARK SMILES IDX 20 33 27 34 21 35 22 36 26 37 23 39 25 40 24 41 32 42 33 43
REMARK SMILES IDX 34 44 35 45 36 46 37 47 98 48 38 49 97 50 39 51 40 52 41 53
REMARK SMILES IDX 91 54 42 55 96 56 90 57 92 58 43 59 95 60 89 61 88 62 44 64
REMARK SMILES IDX 76 65 56 66 75 67 57 68 60 69 74 70 93 71 58 72 59 73 73 75
REMARK SMILES IDX 94 76 61 77 45 78 46 79 54 80 47 81 53 82 55 83 52 84 48 85
REMARK SMILES IDX 49 86 50 87 51 88 77 89 78 90 86 91 79 92 85 93 87 94 84 95
REMARK SMILES IDX 80 96 81 97 82 98 83 99 62 100 63 101 71 102 64 103 70 104
REMARK SMILES IDX 72 105 69 106 65 107 66 108 67 109 68 110
REMARK H PARENT 16 9 21 38 92 63 60 74
REMARK Flexibility Score: inf
ROOT
ATOM      1  C   UNL A   1      33.674  33.341  27.705  1.00  0.00     0.274 C 
ENDROOT
BRANCH   1   2
ATOM      2  O   UNL A   1      32.769  32.257  27.475  1.00  0.00    -0.461 OA
BRANCH   2   3
ATOM      3  C   UNL A   1      33.377  31.113  27.048  1.00  0.00     0.329 C 
ATOM      4  O   UNL A   1      34.536  30.818  27.329  1.00  0.00    -0.250 OA
BRANCH   3   5
ATOM      5  C   UNL A   1      32.409  30.178  26.302  1.00  0.00     0.197 C 
BRANCH   5   6
ATOM      6  N   UNL A   1      31.942  29.038  27.144  1.00  0.00    -0.335 N 
ATOM      7  C   UNL A   1      32.270  27.682  27.121  1.00  0.00     0.293 C 
ATOM      8  O   UNL A   1      31.779  26.917  27.947  1.00  0.00    -0.265 OA
ATOM      9  H   UNL A   1      31.286  29.285  27.835  1.00  0.00     0.164 HD
BRANCH   7  10
ATOM     10  C   UNL A   1      33.188  27.120  26.028  1.00  0.00     0.252 C 
ATOM     11  O   UNL A   1      34.058  27.890  25.615  1.00  0.00    -0.283 OA
BRANCH  10  12
ATOM     12  C   UNL A   1      33.054  25.825  25.326  1.00  0.00     0.054 A 
ATOM     13  N   UNL A   1      32.752  24.287  23.720  1.00  0.00    -0.240 N 
ATOM     14  C   UNL A   1      32.077  25.220  24.512  1.00  0.00     0.117 A 
ATOM     15  C   UNL A   1      34.114  24.340  24.047  1.00  0.00     0.065 A 
ATOM     16  C   UNL A   1      34.155  24.917  25.301  1.00  0.00     0.012 A 
ATOM     17  C   UNL A   1      35.233  23.686  23.497  1.00  0.00     0.028 A 
ATOM     18  C   UNL A   1      35.253  24.633  26.139  1.00  0.00     0.011 A 
ATOM     19  C   UNL A   1      36.274  23.356  24.358  1.00  0.00     0.002 A 
ATOM     20  C   UNL A   1      36.257  23.775  25.682  1.00  0.00     0.001 A 
BRANCH  13  21
ATOM     21  S   UNL A   1      32.333  22.721  23.153  1.00  0.00     0.268 S 
ATOM     22  O   UNL A   1      32.938  22.693  21.829  1.00  0.00    -0.201 OA
ATOM     23  O   UNL A   1      30.882  22.749  23.316  1.00  0.00    -0.201 OA
BRANCH  21  24
ATOM     24  C   UNL A   1      32.663  21.116  23.766  1.00  0.00     0.088 A 
ATOM     25  C   UNL A   1      32.479  16.865  24.491  1.00  0.00     0.044 C 
ATOM     26  C   UNL A   1      32.628  18.340  24.254  1.00  0.00    -0.051 A 
ATOM     27  C   UNL A   1      32.253  18.811  23.007  1.00  0.00     0.005 A 
ATOM     28  C   UNL A   1      33.065  19.264  25.234  1.00  0.00     0.005 A 
ATOM     29  C   UNL A   1      32.286  20.169  22.773  1.00  0.00     0.022 A 
ATOM     30  C   UNL A   1      33.082  20.666  25.002  1.00  0.00     0.022 A 
ENDBRANCH  21  24
ENDBRANCH  13  21
ENDBRANCH  10  12
ENDBRANCH   7  10
ENDBRANCH   5   6
BRANCH   5  31
ATOM     31  C   UNL A   1      31.270  31.002  25.646  1.00  0.00     0.074 C 
BRANCH  31  32
ATOM     32  C   UNL A   1      30.630  30.277  24.494  1.00  0.00    -0.020 A 
ATOM     33  C   UNL A   1      31.105  29.140  23.873  1.00  0.00     0.087 A 
ATOM     34  C   UNL A   1      29.567  30.761  23.683  1.00  0.00     0.003 A 
ATOM     35  N   UNL A   1      30.458  28.978  22.682  1.00  0.00    -0.361 N 
ATOM     36  C   UNL A   1      29.559  30.002  22.512  1.00  0.00     0.046 A 
ATOM     37  C   UNL A   1      28.701  31.859  23.794  1.00  0.00     0.010 A 
ATOM     38  H   UNL A   1      30.612  28.243  22.045  1.00  0.00     0.166 HD
ATOM     39  C   UNL A   1      28.777  30.338  21.406  1.00  0.00     0.026 A 
ATOM     40  C   UNL A   1      27.911  32.210  22.701  1.00  0.00     0.001 A 
ATOM     41  C   UNL A   1      27.967  31.471  21.519  1.00  0.00     0.002 A 
ENDBRANCH  31  32
ENDBRANCH   5  31
ENDBRANCH   3   5
ENDBRANCH   2   3
ENDBRANCH   1   2
BRANCH   1  42
ATOM     42  C   UNL A   1      33.581  33.862  29.143  1.00  0.00     0.275 C 
BRANCH  42  43
ATOM     43  O   UNL A   1      34.720  33.793  30.055  1.00  0.00    -0.458 OA
BRANCH  43  44
ATOM     44  C   UNL A   1      35.095  32.724  30.807  1.00  0.00     0.338 C 
ATOM     45  O   UNL A   1      34.591  32.491  31.901  1.00  0.00    -0.246 OA
BRANCH  44  46
ATOM     46  C   UNL A   1      36.104  31.821  30.203  1.00  0.00     0.060 A 
ATOM     47  C   UNL A   1      36.779  32.198  29.023  1.00  0.00     0.016 A 
ATOM     48  C   UNL A   1      36.544  30.732  30.931  1.00  0.00     0.016 A 
ATOM     49  C   UNL A   1      38.018  31.623  28.695  1.00  0.00     0.010 A 
ATOM     50  C   UNL A   1      37.820  30.281  30.697  1.00  0.00     0.010 A 
ATOM     51  C   UNL A   1      38.578  30.709  29.584  1.00  0.00    -0.014 A 
BRANCH  51  52
ATOM     52  C   UNL A   1      39.837  29.962  29.456  1.00  0.00     0.031 A 
ATOM     53  C   UNL A   1      39.958  28.568  28.953  1.00  0.00     0.074 A 
ATOM     54  C   UNL A   1      40.904  30.773  29.617  1.00  0.00     0.049 A 
ATOM     55  N   UNL A   1      40.777  28.189  28.017  1.00  0.00    -0.248 NA
ATOM     56  C   UNL A   1      39.155  27.464  29.499  1.00  0.00     0.031 C 
ATOM     57  C   UNL A   1      42.301  30.596  29.292  1.00  0.00     0.029 A 
ATOM     58  N   UNL A   1      40.882  31.976  30.314  1.00  0.00    -0.354 N 
ATOM     59  C   UNL A   1      40.733  26.801  27.933  1.00  0.00     0.074 A 
ATOM     60  C   UNL A   1      39.644  26.410  28.826  1.00  0.00     0.031 C 
ATOM     61  C   UNL A   1      43.024  31.468  30.026  1.00  0.00     0.029 A 
ATOM     62  C   UNL A   1      42.104  32.141  30.942  1.00  0.00     0.049 A 
ATOM     63  H   UNL A   1      40.125  32.605  30.354  1.00  0.00     0.167 HD
ATOM     64  C   UNL A   1      41.884  26.066  27.939  1.00  0.00     0.034 A 
ATOM     65  C   UNL A   1      42.099  32.037  32.306  1.00  0.00     0.034 A 
ATOM     66  C   UNL A   1      42.953  26.737  28.627  1.00  0.00     0.049 A 
ATOM     67  C   UNL A   1      42.824  30.776  32.702  1.00  0.00     0.074 A 
ATOM     68  C   UNL A   1      43.950  27.606  28.237  1.00  0.00     0.029 A 
ATOM     69  N   UNL A   1      42.967  26.674  30.005  1.00  0.00    -0.354 N 
ATOM     70  N   UNL A   1      42.782  29.652  32.034  1.00  0.00    -0.248 NA
ATOM     71  C   UNL A   1      43.777  30.763  33.802  1.00  0.00     0.031 C 
ATOM     72  C   UNL A   1      44.523  28.137  29.421  1.00  0.00     0.029 A 
ATOM     73  C   UNL A   1      43.887  27.557  30.510  1.00  0.00     0.049 A 
ATOM     74  H   UNL A   1      42.397  26.081  30.547  1.00  0.00     0.167 HD
ATOM     75  C   UNL A   1      43.765  28.829  32.520  1.00  0.00     0.074 A 
ATOM     76  C   UNL A   1      44.335  29.555  33.642  1.00  0.00     0.031 C 
ATOM     77  C   UNL A   1      44.118  27.645  31.936  1.00  0.00     0.034 A 
BRANCH  64  78
ATOM     78  C   UNL A   1      42.110  24.943  26.961  1.00  0.00     0.023 A 
ATOM     79  C   UNL A   1      41.363  23.752  27.111  1.00  0.00     0.031 A 
ATOM     80  C   UNL A   1      43.072  24.946  25.935  1.00  0.00     0.131 A 
ATOM     81  C   UNL A   1      41.627  22.614  26.333  1.00  0.00     0.055 A 
ATOM     82  C   UNL A   1      43.309  23.819  25.129  1.00  0.00     0.041 A 
ATOM     83  F   UNL A   1      43.824  26.032  25.690  1.00  0.00    -0.206 F 
ATOM     84  C   UNL A   1      42.598  22.639  25.337  1.00  0.00     0.022 A 
BRANCH  81  85
ATOM     85  S   UNL A   1      40.746  21.073  26.720  1.00  0.00     0.124 S 
ATOM     86  O   UNL A   1      39.466  21.274  26.046  1.00  0.00    -0.237 OA
ATOM     87  O   UNL A   1      41.623  20.057  26.148  1.00  0.00    -0.237 OA
ATOM     88  O   UNL A   1      40.677  21.077  28.180  1.00  0.00    -0.744 OA
ENDBRANCH  81  85
ENDBRANCH  64  78
BRANCH  65  89
ATOM     89  C   UNL A   1      40.830  32.566  32.927  1.00  0.00     0.023 A 
ATOM     90  C   UNL A   1      39.981  31.621  33.557  1.00  0.00     0.031 A 
ATOM     91  C   UNL A   1      40.642  33.915  33.263  1.00  0.00     0.131 A 
ATOM     92  C   UNL A   1      39.129  32.007  34.605  1.00  0.00     0.055 A 
ATOM     93  C   UNL A   1      39.723  34.304  34.254  1.00  0.00     0.041 A 
ATOM     94  F   UNL A   1      41.414  34.871  32.726  1.00  0.00    -0.206 F 
ATOM     95  C   UNL A   1      38.994  33.347  34.960  1.00  0.00     0.022 A 
BRANCH  92  96
ATOM     96  S   UNL A   1      38.432  30.701  35.664  1.00  0.00     0.124 S 
ATOM     97  O   UNL A   1      37.790  29.826  34.690  1.00  0.00    -0.237 OA
ATOM     98  O   UNL A   1      39.628  30.165  36.314  1.00  0.00    -0.237 OA
ATOM     99  O   UNL A   1      37.527  31.422  36.555  1.00  0.00    -0.744 OA
ENDBRANCH  92  96
ENDBRANCH  65  89
BRANCH  77 100
ATOM    100  C   UNL A   1      44.850  26.532  32.641  1.00  0.00     0.023 A 
ATOM    101  C   UNL A   1      44.167  25.529  33.333  1.00  0.00     0.031 A 
ATOM    102  C   UNL A   1      46.255  26.371  32.567  1.00  0.00     0.131 A 
ATOM    103  C   UNL A   1      44.847  24.536  34.045  1.00  0.00     0.055 A 
ATOM    104  C   UNL A   1      46.930  25.312  33.186  1.00  0.00     0.041 A 
ATOM    105  F   UNL A   1      47.030  27.210  31.864  1.00  0.00    -0.206 F 
ATOM    106  C   UNL A   1      46.227  24.402  33.960  1.00  0.00     0.022 A 
BRANCH 103 107
ATOM    107  S   UNL A   1      43.862  23.511  35.161  1.00  0.00     0.124 S 
ATOM    108  O   UNL A   1      42.507  23.970  34.864  1.00  0.00    -0.237 OA
ATOM    109  O   UNL A   1      44.182  22.161  34.710  1.00  0.00    -0.237 OA
ATOM    110  O   UNL A   1      44.365  23.866  36.486  1.00  0.00    -0.744 OA
ENDBRANCH 103 107
ENDBRANCH  77 100
ENDBRANCH  51  52
ENDBRANCH  44  46
ENDBRANCH  43  44
ENDBRANCH  42  43
ENDBRANCH   1  42
TORSDOF 21
ENDMDL
MODEL 3
REMARK VINA RESULT:     -12.7      2.302      3.448
REMARK SMILES Cc1ccc(S(=O)(=O)n2cc(C(=O)C(=O)N[C@@H](Cc3c[nH]c4ccccc34)C(=O)OCCOC(=O)c3ccc(-c4c5nc(c(-c6cc(S(=O)(=O)[O-])ccc6F)c6ccc([nH]6)c(-c6cc(S(=O)(=O)[O-])ccc6F)c6nc(c(-c7cc(S(=O)(=O)[O-])ccc7F)c7ccc4[nH]7)C=C6)C=C5)cc3)c3ccccc32)cc1
REMARK SMILES IDX 31 1 30 2 28 3 29 4 17 5 16 6 14 7 15 8 12 10 13 11 11 12
REMARK SMILES IDX 9 13 10 14 104 15 99 16 103 17 100 18 102 19 101 20 6 21
REMARK SMILES IDX 7 22 8 23 5 24 1 25 2 26 3 27 106 28 4 29 105 30 18 31 19 32
REMARK SMILES IDX 20 33 27 34 21 35 22 36 26 37 23 39 25 40 24 41 32 42 33 43
REMARK SMILES IDX 34 44 35 45 36 46 37 47 98 48 38 49 97 50 39 51 40 52 41 53
REMARK SMILES IDX 91 54 42 55 96 56 90 57 92 58 43 59 95 60 89 61 88 62 44 64
REMARK SMILES IDX 76 65 56 66 75 67 57 68 60 69 74 70 93 71 58 72 59 73 73 75
REMARK SMILES IDX 94 76 61 77 45 78 46 79 54 80 47 81 53 82 55 83 52 84 48 85
REMARK SMILES IDX 49 86 50 87 51 88 77 89 78 90 86 91 79 92 85 93 87 94 84 95
REMARK SMILES IDX 80 96 81 97 82 98 83 99 62 100 63 101 71 102 64 103 70 104
REMARK SMILES IDX 72 105 69 106 65 107 66 108 67 109 68 110
REMARK H PARENT 16 9 21 38 92 63 60 74
REMARK Flexibility Score: inf
ROOT
ATOM      1  C   UNL A   1      33.415  30.874  27.302  1.00  0.00     0.274 C 
ENDROOT
BRANCH   1   2
ATOM      2  O   UNL A   1      32.886  29.565  27.531  1.00  0.00    -0.461 OA
BRANCH   2   3
ATOM      3  C   UNL A   1      33.197  28.666  26.554  1.00  0.00     0.329 C 
ATOM      4  O   UNL A   1      34.274  28.077  26.496  1.00  0.00    -0.250 OA
BRANCH   3   5
ATOM      5  C   UNL A   1      32.005  28.370  25.627  1.00  0.00     0.197 C 
BRANCH   5   6
ATOM      6  N   UNL A   1      31.025  27.420  26.229  1.00  0.00    -0.335 N 
ATOM      7  C   UNL A   1      30.765  26.075  25.965  1.00  0.00     0.293 C 
ATOM      8  O   UNL A   1      29.920  25.472  26.621  1.00  0.00    -0.265 OA
ATOM      9  H   UNL A   1      30.462  27.810  26.936  1.00  0.00     0.164 HD
BRANCH   7  10
ATOM     10  C   UNL A   1      31.477  25.354  24.812  1.00  0.00     0.252 C 
ATOM     11  O   UNL A   1      30.837  25.266  23.763  1.00  0.00    -0.283 OA
BRANCH  10  12
ATOM     12  C   UNL A   1      32.771  24.640  24.868  1.00  0.00     0.054 A 
ATOM     13  N   UNL A   1      34.950  24.184  25.154  1.00  0.00    -0.240 N 
ATOM     14  C   UNL A   1      34.046  24.823  24.300  1.00  0.00     0.117 A 
ATOM     15  C   UNL A   1      34.228  23.636  26.223  1.00  0.00     0.065 A 
ATOM     16  C   UNL A   1      32.930  23.536  25.760  1.00  0.00     0.012 A 
ATOM     17  C   UNL A   1      34.649  22.974  27.393  1.00  0.00     0.028 A 
ATOM     18  C   UNL A   1      32.083  22.564  26.330  1.00  0.00     0.011 A 
ATOM     19  C   UNL A   1      33.827  21.971  27.897  1.00  0.00     0.002 A 
ATOM     20  C   UNL A   1      32.581  21.728  27.334  1.00  0.00     0.001 A 
BRANCH  13  21
ATOM     21  S   UNL A   1      36.379  23.276  24.868  1.00  0.00     0.268 S 
ATOM     22  O   UNL A   1      36.765  23.711  23.533  1.00  0.00    -0.201 OA
ATOM     23  O   UNL A   1      35.893  21.918  25.103  1.00  0.00    -0.201 OA
BRANCH  21  24
ATOM     24  C   UNL A   1      37.910  23.187  25.708  1.00  0.00     0.088 A 
ATOM     25  C   UNL A   1      41.337  21.717  27.882  1.00  0.00     0.044 C 
ATOM     26  C   UNL A   1      40.197  22.287  27.089  1.00  0.00    -0.051 A 
ATOM     27  C   UNL A   1      39.551  21.426  26.218  1.00  0.00     0.005 A 
ATOM     28  C   UNL A   1      39.718  23.613  27.225  1.00  0.00     0.005 A 
ATOM     29  C   UNL A   1      38.442  21.879  25.537  1.00  0.00     0.022 A 
ATOM     30  C   UNL A   1      38.562  24.076  26.538  1.00  0.00     0.022 A 
ENDBRANCH  21  24
ENDBRANCH  13  21
ENDBRANCH  10  12
ENDBRANCH   7  10
ENDBRANCH   5   6
BRANCH   5  31
ATOM     31  C   UNL A   1      31.384  29.697  25.116  1.00  0.00     0.074 C 
BRANCH  31  32
ATOM     32  C   UNL A   1      30.607  29.512  23.842  1.00  0.00    -0.020 A 
ATOM     33  C   UNL A   1      30.918  28.651  22.808  1.00  0.00     0.087 A 
ATOM     34  C   UNL A   1      29.567  30.353  23.363  1.00  0.00     0.003 A 
ATOM     35  N   UNL A   1      30.196  29.001  21.704  1.00  0.00    -0.361 N 
ATOM     36  C   UNL A   1      29.412  30.089  22.001  1.00  0.00     0.046 A 
ATOM     37  C   UNL A   1      28.839  31.402  23.944  1.00  0.00     0.010 A 
ATOM     38  H   UNL A   1      30.232  28.546  20.832  1.00  0.00     0.166 HD
ATOM     39  C   UNL A   1      28.617  30.878  21.169  1.00  0.00     0.026 A 
ATOM     40  C   UNL A   1      28.038  32.201  23.130  1.00  0.00     0.001 A 
ATOM     41  C   UNL A   1      27.948  31.954  21.760  1.00  0.00     0.002 A 
ENDBRANCH  31  32
ENDBRANCH   5  31
ENDBRANCH   3   5
ENDBRANCH   2   3
ENDBRANCH   1   2
BRANCH   1  42
ATOM     42  C   UNL A   1      34.673  31.132  28.138  1.00  0.00     0.275 C 
BRANCH  42  43
ATOM     43  O   UNL A   1      34.776  32.289  29.024  1.00  0.00    -0.458 OA
BRANCH  43  44
ATOM     44  C   UNL A   1      35.073  32.272  30.351  1.00  0.00     0.338 C 
ATOM     45  O   UNL A   1      34.241  32.551  31.206  1.00  0.00    -0.246 OA
BRANCH  44  46
ATOM     46  C   UNL A   1      36.446  31.836  30.707  1.00  0.00     0.060 A 
ATOM     47  C   UNL A   1      36.640  30.759  31.596  1.00  0.00     0.016 A 
ATOM     48  C   UNL A   1      37.511  32.332  29.981  1.00  0.00     0.016 A 
ATOM     49  C   UNL A   1      37.848  30.041  31.593  1.00  0.00     0.010 A 
ATOM     50  C   UNL A   1      38.628  31.542  29.865  1.00  0.00     0.010 A 
ATOM     51  C   UNL A   1      38.823  30.392  30.662  1.00  0.00    -0.014 A 
BRANCH  51  52
ATOM     52  C   UNL A   1      40.161  29.815  30.477  1.00  0.00     0.031 A 
ATOM     53  C   UNL A   1      40.467  28.602  29.671  1.00  0.00     0.074 A 
ATOM     54  C   UNL A   1      41.121  30.655  30.920  1.00  0.00     0.049 A 
ATOM     55  N   UNL A   1      41.383  28.539  28.751  1.00  0.00    -0.248 NA
ATOM     56  C   UNL A   1      39.754  27.331  29.866  1.00  0.00     0.031 C 
ATOM     57  C   UNL A   1      42.547  30.688  30.692  1.00  0.00     0.029 A 
ATOM     58  N   UNL A   1      40.922  31.644  31.877  1.00  0.00    -0.354 N 
ATOM     59  C   UNL A   1      41.495  27.215  28.338  1.00  0.00     0.074 A 
ATOM     60  C   UNL A   1      40.398  26.522  29.011  1.00  0.00     0.031 C 
ATOM     61  C   UNL A   1      43.121  31.415  31.673  1.00  0.00     0.029 A 
ATOM     62  C   UNL A   1      42.075  31.759  32.634  1.00  0.00     0.049 A 
ATOM     63  H   UNL A   1      40.100  32.174  31.995  1.00  0.00     0.167 HD
ATOM     64  C   UNL A   1      42.716  26.606  28.275  1.00  0.00     0.034 A 
ATOM     65  C   UNL A   1      41.990  31.325  33.929  1.00  0.00     0.034 A 
ATOM     66  C   UNL A   1      43.658  27.182  29.196  1.00  0.00     0.049 A 
ATOM     67  C   UNL A   1      42.819  30.076  34.080  1.00  0.00     0.074 A 
ATOM     68  C   UNL A   1      44.579  28.206  29.114  1.00  0.00     0.029 A 
ATOM     69  N   UNL A   1      43.586  26.786  30.515  1.00  0.00    -0.354 N 
ATOM     70  N   UNL A   1      42.945  29.151  33.165  1.00  0.00    -0.248 NA
ATOM     71  C   UNL A   1      43.693  29.881  35.228  1.00  0.00     0.031 C 
ATOM     72  C   UNL A   1      45.010  28.480  30.437  1.00  0.00     0.029 A 
ATOM     73  C   UNL A   1      44.370  27.598  31.296  1.00  0.00     0.049 A 
ATOM     74  H   UNL A   1      43.050  26.030  30.848  1.00  0.00     0.167 HD
ATOM     75  C   UNL A   1      43.977  28.324  33.530  1.00  0.00     0.074 A 
ATOM     76  C   UNL A   1      44.388  28.803  34.838  1.00  0.00     0.031 C 
ATOM     77  C   UNL A   1      44.494  27.355  32.717  1.00  0.00     0.034 A 
BRANCH  64  78
ATOM     78  C   UNL A   1      43.128  25.780  27.084  1.00  0.00     0.023 A 
ATOM     79  C   UNL A   1      44.391  25.147  27.102  1.00  0.00     0.031 A 
ATOM     80  C   UNL A   1      42.381  25.641  25.900  1.00  0.00     0.131 A 
ATOM     81  C   UNL A   1      44.901  24.489  25.972  1.00  0.00     0.055 A 
ATOM     82  C   UNL A   1      42.875  24.947  24.782  1.00  0.00     0.041 A 
ATOM     83  F   UNL A   1      41.158  26.184  25.782  1.00  0.00    -0.206 F 
ATOM     84  C   UNL A   1      44.149  24.383  24.807  1.00  0.00     0.022 A 
BRANCH  81  85
ATOM     85  S   UNL A   1      46.607  23.866  26.025  1.00  0.00     0.124 S 
ATOM     86  O   UNL A   1      46.931  23.978  27.444  1.00  0.00    -0.237 OA
ATOM     87  O   UNL A   1      46.463  22.512  25.502  1.00  0.00    -0.237 OA
ATOM     88  O   UNL A   1      47.335  24.788  25.155  1.00  0.00    -0.744 OA
ENDBRANCH  81  85
ENDBRANCH  64  78
BRANCH  65  89
ATOM     89  C   UNL A   1      40.632  31.571  34.540  1.00  0.00     0.023 A 
ATOM     90  C   UNL A   1      40.030  32.828  34.280  1.00  0.00     0.031 A 
ATOM     91  C   UNL A   1      39.791  30.541  34.985  1.00  0.00     0.131 A 
ATOM     92  C   UNL A   1      38.632  32.970  34.287  1.00  0.00     0.055 A 
ATOM     93  C   UNL A   1      38.398  30.716  35.074  1.00  0.00     0.041 A 
ATOM     94  F   UNL A   1      40.278  29.317  35.238  1.00  0.00    -0.206 F 
ATOM     95  C   UNL A   1      37.808  31.919  34.683  1.00  0.00     0.022 A 
BRANCH  92  96
ATOM     96  S   UNL A   1      37.920  34.449  33.502  1.00  0.00     0.124 S 
ATOM     97  O   UNL A   1      38.147  35.474  34.515  1.00  0.00    -0.237 OA
ATOM     98  O   UNL A   1      38.723  34.565  32.285  1.00  0.00    -0.237 OA
ATOM     99  O   UNL A   1      36.523  34.086  33.277  1.00  0.00    -0.744 OA
ENDBRANCH  92  96
ENDBRANCH  65  89
BRANCH  77 100
ATOM    100  C   UNL A   1      45.295  26.174  33.203  1.00  0.00     0.023 A 
ATOM    101  C   UNL A   1      44.676  25.041  33.737  1.00  0.00     0.031 A 
ATOM    102  C   UNL A   1      46.700  26.090  33.062  1.00  0.00     0.131 A 
ATOM    103  C   UNL A   1      45.420  23.973  34.251  1.00  0.00     0.055 A 
ATOM    104  C   UNL A   1      47.438  24.974  33.473  1.00  0.00     0.041 A 
ATOM    105  F   UNL A   1      47.417  27.068  32.488  1.00  0.00    -0.206 F 
ATOM    106  C   UNL A   1      46.800  23.917  34.104  1.00  0.00     0.022 A 
BRANCH 103 107
ATOM    107  S   UNL A   1      44.517  22.734  35.207  1.00  0.00     0.124 S 
ATOM    108  O   UNL A   1      45.022  21.491  34.629  1.00  0.00    -0.237 OA
ATOM    109  O   UNL A   1      44.952  23.016  36.572  1.00  0.00    -0.237 OA
ATOM    110  O   UNL A   1      43.117  23.033  34.922  1.00  0.00    -0.744 OA
ENDBRANCH 103 107
ENDBRANCH  77 100
ENDBRANCH  51  52
ENDBRANCH  44  46
ENDBRANCH  43  44
ENDBRANCH  42  43
ENDBRANCH   1  42
TORSDOF 21
ENDMDL
