MODEL 1
REMARK VINA RESULT:     -10.7      0.000      0.000
REMARK SMILES CCCC[C@@H](C(=O)OCCOC(=O)c1ccc(-c2c3nc(c(-c4cc(S(=O)(=O)[O-])ccc4F)c4ccc([nH]4)c(-c4cc(S(=O)(=O)[O-])ccc4F)c4nc(c(-c5cc(S(=O)(=O)[O-])ccc5F)c5ccc2[nH]5)C=C4)C=C3)cc1)[C@](C)(O)c1cccc(Br)c1
REMARK SMILES IDX 9 1 8 2 6 3 7 4 5 5 4 6 3 7 2 8 1 9 77 10 78 11 79 12 80 14
REMARK SMILES IDX 81 15 86 16 82 17 84 18 83 19 85 20 10 21 11 22 12 23 13 24
REMARK SMILES IDX 14 25 15 26 76 27 16 28 75 29 17 30 18 31 19 32 69 33 20 34
REMARK SMILES IDX 74 35 68 36 70 37 21 38 73 39 67 40 66 41 22 43 54 44 34 45
REMARK SMILES IDX 53 46 35 47 38 48 52 49 71 50 36 51 37 52 51 54 72 55 39 56
REMARK SMILES IDX 23 57 24 58 32 59 25 60 31 61 33 62 30 63 26 64 27 65 28 66
REMARK SMILES IDX 29 67 55 68 56 69 64 70 57 71 63 72 65 73 62 74 58 75 59 76
REMARK SMILES IDX 60 77 61 78 40 79 41 80 49 81 42 82 48 83 50 84 47 85 43 86
REMARK SMILES IDX 44 87 45 88 46 89
REMARK H PARENT 79 13 70 42 38 53
REMARK Flexibility Score: inf
ROOT
ATOM      1  C   UNL A   1      34.711  20.779  24.866  1.00  0.00     0.274 C 
ENDROOT
BRANCH   1   2
ATOM      2  O   UNL A   1      34.015  21.759  24.066  1.00  0.00    -0.462 OA
BRANCH   2   3
ATOM      3  C   UNL A   1      32.721  21.974  24.444  1.00  0.00     0.312 C 
ATOM      4  O   UNL A   1      31.994  21.068  24.805  1.00  0.00    -0.252 OA
BRANCH   3   5
ATOM      5  C   UNL A   1      32.297  23.434  24.230  1.00  0.00     0.135 C 
BRANCH   5   6
ATOM      6  C   UNL A   1      33.346  24.140  23.332  1.00  0.00     0.019 C 
BRANCH   6   7
ATOM      7  C   UNL A   1      32.898  24.445  21.892  1.00  0.00     0.001 C 
BRANCH   7   8
ATOM      8  C   UNL A   1      32.746  25.929  21.552  1.00  0.00    -0.003 C 
ATOM      9  C   UNL A   1      33.630  26.834  22.397  1.00  0.00     0.004 C 
ENDBRANCH   7   8
ENDBRANCH   6   7
ENDBRANCH   5   6
BRANCH   5  10
ATOM     10  C   UNL A   1      32.033  24.184  25.600  1.00  0.00     0.100 C 
ATOM     11  C   UNL A   1      33.262  24.085  26.524  1.00  0.00     0.048 C 
BRANCH  10  12
ATOM     12  O   UNL A   1      30.967  23.523  26.302  1.00  0.00    -0.385 OA
ATOM     13  H   UNL A   1      31.059  23.684  27.255  1.00  0.00     0.211 HD
ENDBRANCH  10  12
BRANCH  10  14
ATOM     14  C   UNL A   1      31.663  25.676  25.486  1.00  0.00    -0.015 A 
ATOM     15  C   UNL A   1      32.339  26.676  26.212  1.00  0.00     0.007 A 
ATOM     16  C   UNL A   1      30.684  26.097  24.565  1.00  0.00     0.022 A 
ATOM     17  C   UNL A   1      32.220  28.024  25.864  1.00  0.00     0.002 A 
ATOM     18  C   UNL A   1      30.491  27.453  24.303  1.00  0.00     0.018 A 
ATOM     19  C   UNL A   1      31.305  28.413  24.893  1.00  0.00     0.016 A 
ATOM     20  Br  UNL A   1      29.091  28.005  23.167  1.00  0.00    -0.051 Br
ENDBRANCH  10  14
ENDBRANCH   5  10
ENDBRANCH   3   5
ENDBRANCH   2   3
ENDBRANCH   1   2
BRANCH   1  21
ATOM     21  C   UNL A   1      35.781  21.367  25.802  1.00  0.00     0.275 C 
BRANCH  21  22
ATOM     22  O   UNL A   1      36.971  21.811  25.114  1.00  0.00    -0.458 OA
BRANCH  22  23
ATOM     23  C   UNL A   1      38.143  21.327  25.599  1.00  0.00     0.338 C 
ATOM     24  O   UNL A   1      38.593  20.204  25.405  1.00  0.00    -0.246 OA
BRANCH  23  25
ATOM     25  C   UNL A   1      38.927  22.405  26.245  1.00  0.00     0.060 A 
ATOM     26  C   UNL A   1      38.553  23.724  25.968  1.00  0.00     0.016 A 
ATOM     27  C   UNL A   1      40.028  22.163  27.061  1.00  0.00     0.016 A 
ATOM     28  C   UNL A   1      39.221  24.807  26.531  1.00  0.00     0.010 A 
ATOM     29  C   UNL A   1      40.737  23.253  27.593  1.00  0.00     0.010 A 
ATOM     30  C   UNL A   1      40.337  24.581  27.334  1.00  0.00    -0.014 A 
BRANCH  30  31
ATOM     31  C   UNL A   1      41.172  25.724  27.781  1.00  0.00     0.031 A 
ATOM     32  C   UNL A   1      40.532  26.790  28.617  1.00  0.00     0.074 A 
ATOM     33  C   UNL A   1      42.479  25.811  27.471  1.00  0.00     0.049 A 
ATOM     34  N   UNL A   1      40.971  27.982  28.925  1.00  0.00    -0.248 NA
ATOM     35  C   UNL A   1      39.211  26.465  29.174  1.00  0.00     0.031 C 
ATOM     36  C   UNL A   1      43.247  24.783  26.776  1.00  0.00     0.029 A 
ATOM     37  N   UNL A   1      43.387  26.823  27.683  1.00  0.00    -0.354 N 
ATOM     38  C   UNL A   1      39.959  28.571  29.673  1.00  0.00     0.074 A 
ATOM     39  C   UNL A   1      38.886  27.602  29.770  1.00  0.00     0.031 C 
ATOM     40  C   UNL A   1      44.503  25.228  26.595  1.00  0.00     0.029 A 
ATOM     41  C   UNL A   1      44.612  26.593  27.098  1.00  0.00     0.049 A 
ATOM     42  H   UNL A   1      43.180  27.633  28.203  1.00  0.00     0.167 HD
ATOM     43  C   UNL A   1      39.931  29.815  30.213  1.00  0.00     0.034 A 
ATOM     44  C   UNL A   1      45.677  27.406  26.932  1.00  0.00     0.034 A 
ATOM     45  C   UNL A   1      41.017  30.756  30.098  1.00  0.00     0.049 A 
ATOM     46  C   UNL A   1      45.579  28.829  27.432  1.00  0.00     0.074 A 
ATOM     47  C   UNL A   1      41.090  32.051  30.580  1.00  0.00     0.029 A 
ATOM     48  N   UNL A   1      42.221  30.507  29.450  1.00  0.00    -0.354 N 
ATOM     49  N   UNL A   1      44.590  29.416  28.067  1.00  0.00    -0.248 NA
ATOM     50  C   UNL A   1      46.730  29.707  27.178  1.00  0.00     0.031 C 
ATOM     51  C   UNL A   1      42.300  32.609  30.157  1.00  0.00     0.029 A 
ATOM     52  C   UNL A   1      43.028  31.634  29.492  1.00  0.00     0.049 A 
ATOM     53  H   UNL A   1      42.466  29.653  29.023  1.00  0.00     0.167 HD
ATOM     54  C   UNL A   1      45.015  30.718  28.315  1.00  0.00     0.074 A 
ATOM     55  C   UNL A   1      46.351  30.831  27.769  1.00  0.00     0.031 C 
ATOM     56  C   UNL A   1      44.362  31.728  28.945  1.00  0.00     0.034 A 
BRANCH  43  57
ATOM     57  C   UNL A   1      38.651  30.246  30.885  1.00  0.00     0.023 A 
ATOM     58  C   UNL A   1      37.611  30.877  30.181  1.00  0.00     0.031 A 
ATOM     59  C   UNL A   1      38.493  30.067  32.271  1.00  0.00     0.131 A 
ATOM     60  C   UNL A   1      36.498  31.375  30.877  1.00  0.00     0.055 A 
ATOM     61  C   UNL A   1      37.344  30.484  32.943  1.00  0.00     0.041 A 
ATOM     62  F   UNL A   1      39.465  29.497  33.002  1.00  0.00    -0.206 F 
ATOM     63  C   UNL A   1      36.345  31.158  32.248  1.00  0.00     0.022 A 
BRANCH  60  64
ATOM     64  S   UNL A   1      35.332  32.447  29.994  1.00  0.00     0.124 S 
ATOM     65  O   UNL A   1      34.898  31.579  28.903  1.00  0.00    -0.237 OA
ATOM     66  O   UNL A   1      34.332  32.735  31.016  1.00  0.00    -0.237 OA
ATOM     67  O   UNL A   1      36.154  33.584  29.586  1.00  0.00    -0.744 OA
ENDBRANCH  60  64
ENDBRANCH  43  57
BRANCH  44  68
ATOM     68  C   UNL A   1      46.889  26.943  26.187  1.00  0.00     0.023 A 
ATOM     69  C   UNL A   1      47.957  26.314  26.850  1.00  0.00     0.031 A 
ATOM     70  C   UNL A   1      47.029  27.185  24.808  1.00  0.00     0.131 A 
ATOM     71  C   UNL A   1      49.128  25.991  26.145  1.00  0.00     0.055 A 
ATOM     72  C   UNL A   1      48.168  26.800  24.098  1.00  0.00     0.041 A 
ATOM     73  F   UNL A   1      46.053  27.803  24.121  1.00  0.00    -0.206 F 
ATOM     74  C   UNL A   1      49.233  26.212  24.770  1.00  0.00     0.022 A 
BRANCH  71  75
ATOM     75  S   UNL A   1      50.565  25.379  27.071  1.00  0.00     0.124 S 
ATOM     76  O   UNL A   1      50.976  26.573  27.801  1.00  0.00    -0.237 OA
ATOM     77  O   UNL A   1      49.980  24.307  27.869  1.00  0.00    -0.237 OA
ATOM     78  O   UNL A   1      51.485  24.941  26.023  1.00  0.00    -0.744 OA
ENDBRANCH  71  75
ENDBRANCH  44  68
BRANCH  56  79
ATOM     79  C   UNL A   1      45.110  33.024  29.142  1.00  0.00     0.023 A 
ATOM     80  C   UNL A   1      45.042  34.078  28.215  1.00  0.00     0.031 A 
ATOM     81  C   UNL A   1      45.885  33.210  30.303  1.00  0.00     0.131 A 
ATOM     82  C   UNL A   1      45.764  35.259  28.450  1.00  0.00     0.055 A 
ATOM     83  C   UNL A   1      46.551  34.408  30.557  1.00  0.00     0.041 A 
ATOM     84  F   UNL A   1      45.988  32.233  31.219  1.00  0.00    -0.206 F 
ATOM     85  C   UNL A   1      46.501  35.438  29.624  1.00  0.00     0.022 A 
BRANCH  82  86
ATOM     86  S   UNL A   1      45.786  36.540  27.165  1.00  0.00     0.124 S 
ATOM     87  O   UNL A   1      46.504  37.623  27.828  1.00  0.00    -0.237 OA
ATOM     88  O   UNL A   1      46.494  35.879  26.074  1.00  0.00    -0.237 OA
ATOM     89  O   UNL A   1      44.368  36.799  26.916  1.00  0.00    -0.744 OA
ENDBRANCH  82  86
ENDBRANCH  56  79
ENDBRANCH  30  31
ENDBRANCH  23  25
ENDBRANCH  22  23
ENDBRANCH  21  22
ENDBRANCH   1  21
TORSDOF 20
ENDMDL
MODEL 2
REMARK VINA RESULT:     -10.6      4.793      9.665
REMARK SMILES CCCC[C@@H](C(=O)OCCOC(=O)c1ccc(-c2c3nc(c(-c4cc(S(=O)(=O)[O-])ccc4F)c4ccc([nH]4)c(-c4cc(S(=O)(=O)[O-])ccc4F)c4nc(c(-c5cc(S(=O)(=O)[O-])ccc5F)c5ccc2[nH]5)C=C4)C=C3)cc1)[C@](C)(O)c1cccc(Br)c1
REMARK SMILES IDX 9 1 8 2 6 3 7 4 5 5 4 6 3 7 2 8 1 9 77 10 78 11 79 12 80 14
REMARK SMILES IDX 81 15 86 16 82 17 84 18 83 19 85 20 10 21 11 22 12 23 13 24
REMARK SMILES IDX 14 25 15 26 76 27 16 28 75 29 17 30 18 31 19 32 69 33 20 34
REMARK SMILES IDX 74 35 68 36 70 37 21 38 73 39 67 40 66 41 22 43 54 44 34 45
REMARK SMILES IDX 53 46 35 47 38 48 52 49 71 50 36 51 37 52 51 54 72 55 39 56
REMARK SMILES IDX 23 57 24 58 32 59 25 60 31 61 33 62 30 63 26 64 27 65 28 66
REMARK SMILES IDX 29 67 55 68 56 69 64 70 57 71 63 72 65 73 62 74 58 75 59 76
REMARK SMILES IDX 60 77 61 78 40 79 41 80 49 81 42 82 48 83 50 84 47 85 43 86
REMARK SMILES IDX 44 87 45 88 46 89
REMARK H PARENT 79 13 70 42 38 53
REMARK Flexibility Score: inf
ROOT
ATOM      1  C   UNL A   1      32.494  29.326  24.464  1.00  0.00     0.274 C 
ENDROOT
BRANCH   1   2
ATOM      2  O   UNL A   1      32.066  28.121  23.794  1.00  0.00    -0.462 OA
BRANCH   2   3
ATOM      3  C   UNL A   1      33.081  27.262  23.487  1.00  0.00     0.312 C 
ATOM      4  O   UNL A   1      34.023  27.594  22.794  1.00  0.00    -0.252 OA
BRANCH   3   5
ATOM      5  C   UNL A   1      32.806  25.843  24.007  1.00  0.00     0.135 C 
BRANCH   5   6
ATOM      6  C   UNL A   1      31.369  25.423  23.602  1.00  0.00     0.019 C 
BRANCH   6   7
ATOM      7  C   UNL A   1      31.167  23.927  23.307  1.00  0.00     0.001 C 
BRANCH   7   8
ATOM      8  C   UNL A   1      32.415  23.176  22.839  1.00  0.00    -0.003 C 
ATOM      9  C   UNL A   1      32.457  21.729  23.304  1.00  0.00     0.004 C 
ENDBRANCH   7   8
ENDBRANCH   6   7
ENDBRANCH   5   6
BRANCH   5  10
ATOM     10  C   UNL A   1      33.086  25.714  25.561  1.00  0.00     0.100 C 
ATOM     11  C   UNL A   1      31.789  25.912  26.368  1.00  0.00     0.048 C 
BRANCH  10  12
ATOM     12  O   UNL A   1      33.964  26.775  25.972  1.00  0.00    -0.385 OA
ATOM     13  H   UNL A   1      33.438  27.518  26.308  1.00  0.00     0.211 HD
ENDBRANCH  10  12
BRANCH  10  14
ATOM     14  C   UNL A   1      33.714  24.383  26.020  1.00  0.00    -0.015 A 
ATOM     15  C   UNL A   1      33.036  23.485  26.867  1.00  0.00     0.007 A 
ATOM     16  C   UNL A   1      34.967  23.979  25.520  1.00  0.00     0.022 A 
ATOM     17  C   UNL A   1      33.468  22.164  27.009  1.00  0.00     0.002 A 
ATOM     18  C   UNL A   1      35.446  22.691  25.761  1.00  0.00     0.018 A 
ATOM     19  C   UNL A   1      34.670  21.760  26.439  1.00  0.00     0.016 A 
ATOM     20  Br  UNL A   1      37.179  22.208  25.196  1.00  0.00    -0.051 Br
ENDBRANCH  10  14
ENDBRANCH   5  10
ENDBRANCH   3   5
ENDBRANCH   2   3
ENDBRANCH   1   2
BRANCH   1  21
ATOM     21  C   UNL A   1      31.572  29.777  25.610  1.00  0.00     0.275 C 
BRANCH  21  22
ATOM     22  O   UNL A   1      32.258  29.966  26.866  1.00  0.00    -0.458 OA
BRANCH  22  23
ATOM     23  C   UNL A   1      32.861  31.172  27.029  1.00  0.00     0.338 C 
ATOM     24  O   UNL A   1      32.331  32.266  26.875  1.00  0.00    -0.246 OA
BRANCH  23  25
ATOM     25  C   UNL A   1      34.209  31.008  27.619  1.00  0.00     0.060 A 
ATOM     26  C   UNL A   1      34.580  29.722  28.025  1.00  0.00     0.016 A 
ATOM     27  C   UNL A   1      35.086  32.070  27.824  1.00  0.00     0.016 A 
ATOM     28  C   UNL A   1      35.828  29.463  28.583  1.00  0.00     0.010 A 
ATOM     29  C   UNL A   1      36.328  31.823  28.433  1.00  0.00     0.010 A 
ATOM     30  C   UNL A   1      36.708  30.518  28.813  1.00  0.00    -0.014 A 
BRANCH  30  31
ATOM     31  C   UNL A   1      37.956  30.288  29.582  1.00  0.00     0.031 A 
ATOM     32  C   UNL A   1      39.015  29.416  28.977  1.00  0.00     0.074 A 
ATOM     33  C   UNL A   1      38.163  30.854  30.786  1.00  0.00     0.049 A 
ATOM     34  N   UNL A   1      40.067  28.877  29.533  1.00  0.00    -0.248 NA
ATOM     35  C   UNL A   1      38.855  29.106  27.549  1.00  0.00     0.031 C 
ATOM     36  C   UNL A   1      37.272  31.818  31.424  1.00  0.00     0.029 A 
ATOM     37  N   UNL A   1      39.180  30.681  31.697  1.00  0.00    -0.354 N 
ATOM     38  C   UNL A   1      40.672  28.123  28.536  1.00  0.00     0.074 A 
ATOM     39  C   UNL A   1      39.865  28.277  27.342  1.00  0.00     0.031 C 
ATOM     40  C   UNL A   1      37.768  32.132  32.633  1.00  0.00     0.029 A 
ATOM     41  C   UNL A   1      38.970  31.344  32.885  1.00  0.00     0.049 A 
ATOM     42  H   UNL A   1      39.979  30.137  31.515  1.00  0.00     0.167 HD
ATOM     43  C   UNL A   1      41.790  27.361  28.622  1.00  0.00     0.034 A 
ATOM     44  C   UNL A   1      39.631  31.278  34.060  1.00  0.00     0.034 A 
ATOM     45  C   UNL A   1      42.572  27.230  29.827  1.00  0.00     0.049 A 
ATOM     46  C   UNL A   1      40.802  30.330  34.174  1.00  0.00     0.074 A 
ATOM     47  C   UNL A   1      43.706  26.466  30.040  1.00  0.00     0.029 A 
ATOM     48  N   UNL A   1      42.296  27.873  31.028  1.00  0.00    -0.354 N 
ATOM     49  N   UNL A   1      41.327  29.550  33.255  1.00  0.00    -0.248 NA
ATOM     50  C   UNL A   1      41.460  30.235  35.484  1.00  0.00     0.031 C 
ATOM     51  C   UNL A   1      44.069  26.586  31.385  1.00  0.00     0.029 A 
ATOM     52  C   UNL A   1      43.220  27.499  31.992  1.00  0.00     0.049 A 
ATOM     53  H   UNL A   1      41.554  28.504  31.174  1.00  0.00     0.167 HD
ATOM     54  C   UNL A   1      42.394  28.901  33.870  1.00  0.00     0.074 A 
ATOM     55  C   UNL A   1      42.443  29.382  35.234  1.00  0.00     0.031 C 
ATOM     56  C   UNL A   1      43.259  27.992  33.350  1.00  0.00     0.034 A 
BRANCH  43  57
ATOM     57  C   UNL A   1      42.167  26.547  27.409  1.00  0.00     0.023 A 
ATOM     58  C   UNL A   1      41.820  25.191  27.280  1.00  0.00     0.031 A 
ATOM     59  C   UNL A   1      42.934  27.130  26.385  1.00  0.00     0.131 A 
ATOM     60  C   UNL A   1      42.304  24.446  26.193  1.00  0.00     0.055 A 
ATOM     61  C   UNL A   1      43.337  26.407  25.262  1.00  0.00     0.041 A 
ATOM     62  F   UNL A   1      43.321  28.413  26.466  1.00  0.00    -0.206 F 
ATOM     63  C   UNL A   1      43.038  25.051  25.170  1.00  0.00     0.022 A 
BRANCH  60  64
ATOM     64  S   UNL A   1      42.100  22.645  26.217  1.00  0.00     0.124 S 
ATOM     65  O   UNL A   1      42.715  22.293  27.494  1.00  0.00    -0.237 OA
ATOM     66  O   UNL A   1      40.651  22.490  26.143  1.00  0.00    -0.237 OA
ATOM     67  O   UNL A   1      42.837  22.200  25.036  1.00  0.00    -0.744 OA
ENDBRANCH  60  64
ENDBRANCH  43  57
BRANCH  44  68
ATOM     68  C   UNL A   1      39.162  32.053  35.251  1.00  0.00     0.023 A 
ATOM     69  C   UNL A   1      39.598  33.368  35.485  1.00  0.00     0.031 A 
ATOM     70  C   UNL A   1      38.321  31.464  36.214  1.00  0.00     0.131 A 
ATOM     71  C   UNL A   1      39.230  34.031  36.668  1.00  0.00     0.055 A 
ATOM     72  C   UNL A   1      37.901  32.151  37.354  1.00  0.00     0.041 A 
ATOM     73  F   UNL A   1      37.887  30.202  36.059  1.00  0.00    -0.206 F 
ATOM     74  C   UNL A   1      38.369  33.438  37.595  1.00  0.00     0.022 A 
BRANCH  71  75
ATOM     75  S   UNL A   1      39.983  35.640  37.039  1.00  0.00     0.124 S 
ATOM     76  O   UNL A   1      39.303  36.006  38.277  1.00  0.00    -0.237 OA
ATOM     77  O   UNL A   1      41.396  35.296  37.159  1.00  0.00    -0.237 OA
ATOM     78  O   UNL A   1      39.640  36.455  35.875  1.00  0.00    -0.744 OA
ENDBRANCH  71  75
ENDBRANCH  44  68
BRANCH  56  79
ATOM     79  C   UNL A   1      44.380  27.512  34.239  1.00  0.00     0.023 A 
ATOM     80  C   UNL A   1      45.602  28.199  34.341  1.00  0.00     0.031 A 
ATOM     81  C   UNL A   1      44.202  26.354  35.019  1.00  0.00     0.131 A 
ATOM     82  C   UNL A   1      46.611  27.702  35.182  1.00  0.00     0.055 A 
ATOM     83  C   UNL A   1      45.186  25.901  35.896  1.00  0.00     0.041 A 
ATOM     84  F   UNL A   1      43.056  25.657  34.956  1.00  0.00    -0.206 F 
ATOM     85  C   UNL A   1      46.403  26.570  35.974  1.00  0.00     0.022 A 
BRANCH  82  86
ATOM     86  S   UNL A   1      48.232  28.517  35.177  1.00  0.00     0.124 S 
ATOM     87  O   UNL A   1      47.864  29.928  35.148  1.00  0.00    -0.237 OA
ATOM     88  O   UNL A   1      48.827  28.039  36.421  1.00  0.00    -0.237 OA
ATOM     89  O   UNL A   1      48.864  28.016  33.957  1.00  0.00    -0.744 OA
ENDBRANCH  82  86
ENDBRANCH  56  79
ENDBRANCH  30  31
ENDBRANCH  23  25
ENDBRANCH  22  23
ENDBRANCH  21  22
ENDBRANCH   1  21
TORSDOF 20
ENDMDL
MODEL 3
REMARK VINA RESULT:     -10.5      1.514      1.890
REMARK SMILES CCCC[C@@H](C(=O)OCCOC(=O)c1ccc(-c2c3nc(c(-c4cc(S(=O)(=O)[O-])ccc4F)c4ccc([nH]4)c(-c4cc(S(=O)(=O)[O-])ccc4F)c4nc(c(-c5cc(S(=O)(=O)[O-])ccc5F)c5ccc2[nH]5)C=C4)C=C3)cc1)[C@](C)(O)c1cccc(Br)c1
REMARK SMILES IDX 9 1 8 2 6 3 7 4 5 5 4 6 3 7 2 8 1 9 77 10 78 11 79 12 80 14
REMARK SMILES IDX 81 15 86 16 82 17 84 18 83 19 85 20 10 21 11 22 12 23 13 24
REMARK SMILES IDX 14 25 15 26 76 27 16 28 75 29 17 30 18 31 19 32 69 33 20 34
REMARK SMILES IDX 74 35 68 36 70 37 21 38 73 39 67 40 66 41 22 43 54 44 34 45
REMARK SMILES IDX 53 46 35 47 38 48 52 49 71 50 36 51 37 52 51 54 72 55 39 56
REMARK SMILES IDX 23 57 24 58 32 59 25 60 31 61 33 62 30 63 26 64 27 65 28 66
REMARK SMILES IDX 29 67 55 68 56 69 64 70 57 71 63 72 65 73 62 74 58 75 59 76
REMARK SMILES IDX 60 77 61 78 40 79 41 80 49 81 42 82 48 83 50 84 47 85 43 86
REMARK SMILES IDX 44 87 45 88 46 89
REMARK H PARENT 79 13 70 42 38 53
REMARK Flexibility Score: inf
ROOT
ATOM      1  C   UNL A   1      34.823  20.677  25.213  1.00  0.00     0.274 C 
ENDROOT
BRANCH   1   2
ATOM      2  O   UNL A   1      34.055  21.765  25.769  1.00  0.00    -0.462 OA
BRANCH   2   3
ATOM      3  C   UNL A   1      32.801  21.892  25.243  1.00  0.00     0.312 C 
ATOM      4  O   UNL A   1      32.022  20.959  25.197  1.00  0.00    -0.252 OA
BRANCH   3   5
ATOM      5  C   UNL A   1      32.577  23.280  24.626  1.00  0.00     0.135 C 
BRANCH   5   6
ATOM      6  C   UNL A   1      33.938  24.016  24.524  1.00  0.00     0.019 C 
BRANCH   6   7
ATOM      7  C   UNL A   1      34.360  24.451  23.109  1.00  0.00     0.001 C 
BRANCH   7   8
ATOM      8  C   UNL A   1      33.249  24.423  22.057  1.00  0.00    -0.003 C 
ATOM      9  C   UNL A   1      32.900  25.800  21.514  1.00  0.00     0.004 C 
ENDBRANCH   7   8
ENDBRANCH   6   7
ENDBRANCH   5   6
BRANCH   5  10
ATOM     10  C   UNL A   1      31.471  24.105  25.403  1.00  0.00     0.100 C 
ATOM     11  C   UNL A   1      31.897  24.350  26.863  1.00  0.00     0.048 C 
BRANCH  10  12
ATOM     12  O   UNL A   1      30.265  23.326  25.477  1.00  0.00    -0.385 OA
ATOM     13  H   UNL A   1      30.144  23.004  26.385  1.00  0.00     0.211 HD
ENDBRANCH  10  12
BRANCH  10  14
ATOM     14  C   UNL A   1      31.105  25.474  24.795  1.00  0.00    -0.015 A 
ATOM     15  C   UNL A   1      30.092  25.621  23.828  1.00  0.00     0.007 A 
ATOM     16  C   UNL A   1      31.722  26.649  25.270  1.00  0.00     0.022 A 
ATOM     17  C   UNL A   1      29.557  26.877  23.532  1.00  0.00     0.002 A 
ATOM     18  C   UNL A   1      31.253  27.904  24.881  1.00  0.00     0.018 A 
ATOM     19  C   UNL A   1      30.127  28.022  24.074  1.00  0.00     0.016 A 
ATOM     20  Br  UNL A   1      32.168  29.462  25.420  1.00  0.00    -0.051 Br
ENDBRANCH  10  14
ENDBRANCH   5  10
ENDBRANCH   3   5
ENDBRANCH   2   3
ENDBRANCH   1   2
BRANCH   1  21
ATOM     21  C   UNL A   1      36.223  21.076  24.717  1.00  0.00     0.275 C 
BRANCH  21  22
ATOM     22  O   UNL A   1      36.971  21.865  25.667  1.00  0.00    -0.458 OA
BRANCH  22  23
ATOM     23  C   UNL A   1      38.271  21.508  25.831  1.00  0.00     0.338 C 
ATOM     24  O   UNL A   1      38.799  20.495  25.388  1.00  0.00    -0.246 OA
BRANCH  23  25
ATOM     25  C   UNL A   1      39.041  22.608  26.455  1.00  0.00     0.060 A 
ATOM     26  C   UNL A   1      38.620  23.916  26.193  1.00  0.00     0.016 A 
ATOM     27  C   UNL A   1      40.172  22.398  27.239  1.00  0.00     0.016 A 
ATOM     28  C   UNL A   1      39.272  25.017  26.738  1.00  0.00     0.010 A 
ATOM     29  C   UNL A   1      40.864  23.508  27.753  1.00  0.00     0.010 A 
ATOM     30  C   UNL A   1      40.417  24.823  27.508  1.00  0.00    -0.014 A 
BRANCH  30  31
ATOM     31  C   UNL A   1      41.231  25.990  27.933  1.00  0.00     0.031 A 
ATOM     32  C   UNL A   1      40.572  27.058  28.752  1.00  0.00     0.074 A 
ATOM     33  C   UNL A   1      42.535  26.097  27.618  1.00  0.00     0.049 A 
ATOM     34  N   UNL A   1      40.988  28.263  29.038  1.00  0.00    -0.248 NA
ATOM     35  C   UNL A   1      39.258  26.717  29.318  1.00  0.00     0.031 C 
ATOM     36  C   UNL A   1      43.322  25.072  26.939  1.00  0.00     0.029 A 
ATOM     37  N   UNL A   1      43.424  27.130  27.810  1.00  0.00    -0.354 N 
ATOM     38  C   UNL A   1      39.967  28.845  29.778  1.00  0.00     0.074 A 
ATOM     39  C   UNL A   1      38.914  27.857  29.895  1.00  0.00     0.031 C 
ATOM     40  C   UNL A   1      44.568  25.538  26.747  1.00  0.00     0.029 A 
ATOM     41  C   UNL A   1      44.651  26.914  27.226  1.00  0.00     0.049 A 
ATOM     42  H   UNL A   1      43.202  27.944  28.316  1.00  0.00     0.167 HD
ATOM     43  C   UNL A   1      39.916  30.097  30.296  1.00  0.00     0.034 A 
ATOM     44  C   UNL A   1      45.700  27.745  27.043  1.00  0.00     0.034 A 
ATOM     45  C   UNL A   1      40.983  31.058  30.163  1.00  0.00     0.049 A 
ATOM     46  C   UNL A   1      45.576  29.174  27.518  1.00  0.00     0.074 A 
ATOM     47  C   UNL A   1      41.032  32.362  30.621  1.00  0.00     0.029 A 
ATOM     48  N   UNL A   1      42.190  30.820  29.516  1.00  0.00    -0.354 N 
ATOM     49  N   UNL A   1      44.576  29.753  28.145  1.00  0.00    -0.248 NA
ATOM     50  C   UNL A   1      46.709  30.069  27.246  1.00  0.00     0.031 C 
ATOM     51  C   UNL A   1      42.230  32.936  30.186  1.00  0.00     0.029 A 
ATOM     52  C   UNL A   1      42.975  31.963  29.536  1.00  0.00     0.049 A 
ATOM     53  H   UNL A   1      42.451  29.965  29.103  1.00  0.00     0.167 HD
ATOM     54  C   UNL A   1      44.977  31.066  28.371  1.00  0.00     0.074 A 
ATOM     55  C   UNL A   1      46.309  31.195  27.818  1.00  0.00     0.031 C 
ATOM     56  C   UNL A   1      44.305  32.074  28.984  1.00  0.00     0.034 A 
BRANCH  43  57
ATOM     57  C   UNL A   1      38.629  30.515  30.965  1.00  0.00     0.023 A 
ATOM     58  C   UNL A   1      37.579  31.123  30.254  1.00  0.00     0.031 A 
ATOM     59  C   UNL A   1      38.474  30.348  32.352  1.00  0.00     0.131 A 
ATOM     60  C   UNL A   1      36.458  31.610  30.945  1.00  0.00     0.055 A 
ATOM     61  C   UNL A   1      37.318  30.754  33.020  1.00  0.00     0.041 A 
ATOM     62  F   UNL A   1      39.454  29.801  33.089  1.00  0.00    -0.206 F 
ATOM     63  C   UNL A   1      36.309  31.405  32.319  1.00  0.00     0.022 A 
BRANCH  60  64
ATOM     64  S   UNL A   1      35.276  32.654  30.051  1.00  0.00     0.124 S 
ATOM     65  O   UNL A   1      36.128  33.753  29.605  1.00  0.00    -0.237 OA
ATOM     66  O   UNL A   1      34.790  31.759  29.007  1.00  0.00    -0.237 OA
ATOM     67  O   UNL A   1      34.294  33.013  31.072  1.00  0.00    -0.744 OA
ENDBRANCH  60  64
ENDBRANCH  43  57
BRANCH  44  68
ATOM     68  C   UNL A   1      46.919  27.292  26.304  1.00  0.00     0.023 A 
ATOM     69  C   UNL A   1      47.143  27.663  24.967  1.00  0.00     0.031 A 
ATOM     70  C   UNL A   1      47.849  26.422  26.903  1.00  0.00     0.131 A 
ATOM     71  C   UNL A   1      48.238  27.132  24.264  1.00  0.00     0.055 A 
ATOM     72  C   UNL A   1      48.974  25.952  26.222  1.00  0.00     0.041 A 
ATOM     73  F   UNL A   1      47.681  26.013  28.172  1.00  0.00    -0.206 F 
ATOM     74  C   UNL A   1      49.165  26.295  24.889  1.00  0.00     0.022 A 
BRANCH  71  75
ATOM     75  S   UNL A   1      48.375  27.459  22.484  1.00  0.00     0.124 S 
ATOM     76  O   UNL A   1      49.609  28.236  22.421  1.00  0.00    -0.237 OA
ATOM     77  O   UNL A   1      48.436  26.112  21.929  1.00  0.00    -0.237 OA
ATOM     78  O   UNL A   1      47.154  28.203  22.178  1.00  0.00    -0.744 OA
ENDBRANCH  71  75
ENDBRANCH  44  68
BRANCH  56  79
ATOM     79  C   UNL A   1      45.029  33.387  29.157  1.00  0.00     0.023 A 
ATOM     80  C   UNL A   1      44.862  34.459  28.263  1.00  0.00     0.031 A 
ATOM     81  C   UNL A   1      45.882  33.572  30.261  1.00  0.00     0.131 A 
ATOM     82  C   UNL A   1      45.565  35.656  28.472  1.00  0.00     0.055 A 
ATOM     83  C   UNL A   1      46.531  34.783  30.495  1.00  0.00     0.041 A 
ATOM     84  F   UNL A   1      46.082  32.579  31.143  1.00  0.00    -0.206 F 
ATOM     85  C   UNL A   1      46.381  35.832  29.593  1.00  0.00     0.022 A 
BRANCH  82  86
ATOM     86  S   UNL A   1      45.454  36.966  27.221  1.00  0.00     0.124 S 
ATOM     87  O   UNL A   1      44.035  36.946  26.886  1.00  0.00    -0.237 OA
ATOM     88  O   UNL A   1      45.920  38.139  27.953  1.00  0.00    -0.237 OA
ATOM     89  O   UNL A   1      46.348  36.503  26.160  1.00  0.00    -0.744 OA
ENDBRANCH  82  86
ENDBRANCH  56  79
ENDBRANCH  30  31
ENDBRANCH  23  25
ENDBRANCH  22  23
ENDBRANCH  21  22
ENDBRANCH   1  21
TORSDOF 20
ENDMDL
