MODEL 1
REMARK VINA RESULT:     -11.6      0.000      0.000
REMARK SMILES O=C(CN(C(=O)[C@H]1CC[C@H]2CCCC[C@H]2[NH2+]1)C1CC1)OCCOC(=O)c1ccc(-c2c3nc(c(-c4cc(S(=O)(=O)[O-])ccc4F)c4ccc([nH]4)c(-c4cc(S(=O)(=O)[O-])ccc4F)c4nc(c(-c5cc(S(=O)(=O)[O-])ccc5F)c5ccc2[nH]5)C=C4)C=C3)cc1
REMARK SMILES IDX 21 1 20 2 2 3 1 4 3 5 4 6 5 7 6 8 7 9 8 10 16 11 9 12 15 13
REMARK SMILES IDX 10 16 14 17 11 18 13 19 12 20 17 21 18 22 19 23 22 24 23 25
REMARK SMILES IDX 24 26 25 27 26 28 27 29 88 30 28 31 87 32 29 33 30 34 31 35
REMARK SMILES IDX 81 36 32 37 86 38 80 39 82 40 33 41 85 42 79 43 78 44 34 46
REMARK SMILES IDX 66 47 46 48 65 49 47 50 50 51 64 52 83 53 48 54 49 55 63 57
REMARK SMILES IDX 84 58 51 59 35 60 36 61 44 62 37 63 43 64 45 65 42 66 38 67
REMARK SMILES IDX 39 68 40 69 41 70 67 71 68 72 76 73 69 74 75 75 77 76 74 77
REMARK SMILES IDX 70 78 71 79 72 80 73 81 52 82 53 83 61 84 54 85 60 86 62 87
REMARK SMILES IDX 59 88 55 89 56 90 57 91 58 92
REMARK H PARENT 16 14 16 15 82 45 50 56
REMARK Flexibility Score: inf
ROOT
ATOM      1  C   UNL A   1      31.417  30.812  26.574  1.00  0.00     0.274 C 
ENDROOT
BRANCH   1   2
ATOM      2  O   UNL A   1      32.633  30.406  25.917  1.00  0.00    -0.461 OA
BRANCH   2   3
ATOM      3  C   UNL A   1      33.040  29.125  25.743  1.00  0.00     0.325 C 
ATOM      4  O   UNL A   1      34.215  28.841  25.974  1.00  0.00    -0.250 OA
BRANCH   3   5
ATOM      5  C   UNL A   1      32.032  28.061  25.283  1.00  0.00     0.242 C 
BRANCH   5   6
ATOM      6  N   UNL A   1      32.093  27.700  23.872  1.00  0.00    -0.323 N 
BRANCH   6   7
ATOM      7  C   UNL A   1      31.825  28.568  22.813  1.00  0.00     0.281 C 
ATOM      8  O   UNL A   1      32.708  29.331  22.402  1.00  0.00    -0.268 OA
BRANCH   7   9
ATOM      9  C   UNL A   1      30.377  28.606  22.192  1.00  0.00     0.273 C 
ATOM     10  C   UNL A   1      29.382  28.136  23.279  1.00  0.00     0.076 C 
ATOM     11  N   UNL A   1      30.082  29.972  21.688  1.00  0.00    -0.333 N 
ATOM     12  C   UNL A   1      27.926  28.462  22.968  1.00  0.00     0.016 C 
ATOM     13  C   UNL A   1      28.666  30.223  21.380  1.00  0.00     0.186 C 
ATOM     14  H   UNL A   1      30.624  30.120  20.837  1.00  0.00     0.347 HD
ATOM     15  H   UNL A   1      30.330  30.615  22.440  1.00  0.00     0.347 HD
ATOM     16  C   UNL A   1      27.753  29.930  22.576  1.00  0.00     0.048 C 
ATOM     17  C   UNL A   1      28.484  31.689  20.952  1.00  0.00     0.065 C 
ATOM     18  C   UNL A   1      28.015  30.901  23.746  1.00  0.00     0.010 C 
ATOM     19  C   UNL A   1      28.794  32.665  22.084  1.00  0.00     0.006 C 
ATOM     20  C   UNL A   1      27.948  32.369  23.319  1.00  0.00     0.001 C 
ENDBRANCH   7   9
ENDBRANCH   6   7
BRANCH   6  21
ATOM     21  C   UNL A   1      32.386  26.310  23.584  1.00  0.00     0.086 C 
ATOM     22  C   UNL A   1      32.097  25.714  22.229  1.00  0.00     0.027 C 
ATOM     23  C   UNL A   1      33.515  25.918  22.657  1.00  0.00     0.027 C 
ENDBRANCH   6  21
ENDBRANCH   5   6
ENDBRANCH   3   5
ENDBRANCH   2   3
ENDBRANCH   1   2
BRANCH   1  24
ATOM     24  C   UNL A   1      31.416  32.321  26.840  1.00  0.00     0.275 C 
BRANCH  24  25
ATOM     25  O   UNL A   1      32.741  32.866  26.654  1.00  0.00    -0.458 OA
BRANCH  25  26
ATOM     26  C   UNL A   1      33.227  33.578  27.708  1.00  0.00     0.338 C 
ATOM     27  O   UNL A   1      32.644  34.475  28.294  1.00  0.00    -0.246 OA
BRANCH  26  28
ATOM     28  C   UNL A   1      34.477  32.951  28.212  1.00  0.00     0.060 A 
ATOM     29  C   UNL A   1      34.421  31.595  28.562  1.00  0.00     0.016 A 
ATOM     30  C   UNL A   1      35.695  33.636  28.294  1.00  0.00     0.016 A 
ATOM     31  C   UNL A   1      35.565  30.931  29.018  1.00  0.00     0.010 A 
ATOM     32  C   UNL A   1      36.841  32.969  28.758  1.00  0.00     0.010 A 
ATOM     33  C   UNL A   1      36.780  31.617  29.144  1.00  0.00    -0.014 A 
BRANCH  33  34
ATOM     34  C   UNL A   1      37.932  30.959  29.822  1.00  0.00     0.031 A 
ATOM     35  C   UNL A   1      38.236  31.323  31.252  1.00  0.00     0.074 A 
ATOM     36  C   UNL A   1      38.686  30.032  29.201  1.00  0.00     0.049 A 
ATOM     37  N   UNL A   1      39.173  30.867  32.043  1.00  0.00    -0.248 NA
ATOM     38  C   UNL A   1      37.364  32.335  31.868  1.00  0.00     0.031 C 
ATOM     39  C   UNL A   1      38.491  29.555  27.834  1.00  0.00     0.029 A 
ATOM     40  N   UNL A   1      39.781  29.327  29.647  1.00  0.00    -0.354 N 
ATOM     41  C   UNL A   1      39.001  31.528  33.254  1.00  0.00     0.074 A 
ATOM     42  C   UNL A   1      37.892  32.442  33.079  1.00  0.00     0.031 C 
ATOM     43  C   UNL A   1      39.446  28.651  27.546  1.00  0.00     0.029 A 
ATOM     44  C   UNL A   1      40.337  28.501  28.697  1.00  0.00     0.049 A 
ATOM     45  H   UNL A   1      40.136  29.409  30.562  1.00  0.00     0.167 HD
ATOM     46  C   UNL A   1      39.693  31.383  34.411  1.00  0.00     0.034 A 
ATOM     47  C   UNL A   1      41.446  27.731  28.741  1.00  0.00     0.034 A 
ATOM     48  C   UNL A   1      40.802  30.481  34.591  1.00  0.00     0.049 A 
ATOM     49  C   UNL A   1      42.270  27.672  30.010  1.00  0.00     0.074 A 
ATOM     50  C   UNL A   1      41.516  30.217  35.746  1.00  0.00     0.029 A 
ATOM     51  N   UNL A   1      41.377  29.718  33.587  1.00  0.00    -0.354 N 
ATOM     52  N   UNL A   1      42.051  28.255  31.165  1.00  0.00    -0.248 NA
ATOM     53  C   UNL A   1      43.488  26.848  29.979  1.00  0.00     0.031 C 
ATOM     54  C   UNL A   1      42.573  29.359  35.424  1.00  0.00     0.029 A 
ATOM     55  C   UNL A   1      42.474  29.030  34.083  1.00  0.00     0.049 A 
ATOM     56  H   UNL A   1      41.054  29.670  32.657  1.00  0.00     0.167 HD
ATOM     57  C   UNL A   1      43.088  27.841  32.002  1.00  0.00     0.074 A 
ATOM     58  C   UNL A   1      43.927  26.956  31.225  1.00  0.00     0.031 C 
ATOM     59  C   UNL A   1      43.319  28.159  33.302  1.00  0.00     0.034 A 
BRANCH  46  60
ATOM     60  C   UNL A   1      39.295  32.261  35.569  1.00  0.00     0.023 A 
ATOM     61  C   UNL A   1      39.722  33.596  35.664  1.00  0.00     0.031 A 
ATOM     62  C   UNL A   1      38.481  31.747  36.593  1.00  0.00     0.131 A 
ATOM     63  C   UNL A   1      39.377  34.356  36.791  1.00  0.00     0.055 A 
ATOM     64  C   UNL A   1      38.087  32.530  37.678  1.00  0.00     0.041 A 
ATOM     65  F   UNL A   1      38.064  30.472  36.559  1.00  0.00    -0.206 F 
ATOM     66  C   UNL A   1      38.545  33.840  37.788  1.00  0.00     0.022 A 
BRANCH  63  67
ATOM     67  S   UNL A   1      40.130  35.994  36.993  1.00  0.00     0.124 S 
ATOM     68  O   UNL A   1      41.539  35.651  37.171  1.00  0.00    -0.237 OA
ATOM     69  O   UNL A   1      39.785  36.657  35.741  1.00  0.00    -0.237 OA
ATOM     70  O   UNL A   1      39.473  36.528  38.185  1.00  0.00    -0.744 OA
ENDBRANCH  63  67
ENDBRANCH  46  60
BRANCH  47  71
ATOM     71  C   UNL A   1      41.910  26.994  27.528  1.00  0.00     0.023 A 
ATOM     72  C   UNL A   1      41.706  25.611  27.390  1.00  0.00     0.031 A 
ATOM     73  C   UNL A   1      42.661  27.652  26.537  1.00  0.00     0.131 A 
ATOM     74  C   UNL A   1      42.296  24.922  26.318  1.00  0.00     0.055 A 
ATOM     75  C   UNL A   1      43.199  26.971  25.445  1.00  0.00     0.041 A 
ATOM     76  F   UNL A   1      42.894  28.972  26.626  1.00  0.00    -0.206 F 
ATOM     77  C   UNL A   1      43.032  25.594  25.339  1.00  0.00     0.022 A 
BRANCH  74  78
ATOM     78  S   UNL A   1      42.185  23.111  26.282  1.00  0.00     0.124 S 
ATOM     79  O   UNL A   1      42.714  22.807  24.956  1.00  0.00    -0.237 OA
ATOM     80  O   UNL A   1      43.027  22.734  27.412  1.00  0.00    -0.237 OA
ATOM     81  O   UNL A   1      40.757  22.853  26.457  1.00  0.00    -0.744 OA
ENDBRANCH  74  78
ENDBRANCH  47  71
BRANCH  59  82
ATOM     82  C   UNL A   1      44.506  27.519  33.979  1.00  0.00     0.023 A 
ATOM     83  C   UNL A   1      44.429  26.239  34.555  1.00  0.00     0.031 A 
ATOM     84  C   UNL A   1      45.740  28.193  34.029  1.00  0.00     0.131 A 
ATOM     85  C   UNL A   1      45.556  25.687  35.187  1.00  0.00     0.055 A 
ATOM     86  C   UNL A   1      46.869  27.619  34.616  1.00  0.00     0.041 A 
ATOM     87  F   UNL A   1      45.870  29.417  33.494  1.00  0.00    -0.206 F 
ATOM     88  C   UNL A   1      46.779  26.362  35.206  1.00  0.00     0.022 A 
BRANCH  85  89
ATOM     89  S   UNL A   1      45.394  24.086  36.027  1.00  0.00     0.124 S 
ATOM     90  O   UNL A   1      45.552  24.462  37.429  1.00  0.00    -0.237 OA
ATOM     91  O   UNL A   1      44.058  23.656  35.630  1.00  0.00    -0.237 OA
ATOM     92  O   UNL A   1      46.489  23.293  35.471  1.00  0.00    -0.744 OA
ENDBRANCH  85  89
ENDBRANCH  59  82
ENDBRANCH  33  34
ENDBRANCH  26  28
ENDBRANCH  25  26
ENDBRANCH  24  25
ENDBRANCH   1  24
TORSDOF 18
ENDMDL
MODEL 2
REMARK VINA RESULT:     -11.3      1.851      3.592
REMARK SMILES O=C(CN(C(=O)[C@H]1CC[C@H]2CCCC[C@H]2[NH2+]1)C1CC1)OCCOC(=O)c1ccc(-c2c3nc(c(-c4cc(S(=O)(=O)[O-])ccc4F)c4ccc([nH]4)c(-c4cc(S(=O)(=O)[O-])ccc4F)c4nc(c(-c5cc(S(=O)(=O)[O-])ccc5F)c5ccc2[nH]5)C=C4)C=C3)cc1
REMARK SMILES IDX 21 1 20 2 2 3 1 4 3 5 4 6 5 7 6 8 7 9 8 10 16 11 9 12 15 13
REMARK SMILES IDX 10 16 14 17 11 18 13 19 12 20 17 21 18 22 19 23 22 24 23 25
REMARK SMILES IDX 24 26 25 27 26 28 27 29 88 30 28 31 87 32 29 33 30 34 31 35
REMARK SMILES IDX 81 36 32 37 86 38 80 39 82 40 33 41 85 42 79 43 78 44 34 46
REMARK SMILES IDX 66 47 46 48 65 49 47 50 50 51 64 52 83 53 48 54 49 55 63 57
REMARK SMILES IDX 84 58 51 59 35 60 36 61 44 62 37 63 43 64 45 65 42 66 38 67
REMARK SMILES IDX 39 68 40 69 41 70 67 71 68 72 76 73 69 74 75 75 77 76 74 77
REMARK SMILES IDX 70 78 71 79 72 80 73 81 52 82 53 83 61 84 54 85 60 86 62 87
REMARK SMILES IDX 59 88 55 89 56 90 57 91 58 92
REMARK H PARENT 16 14 16 15 82 45 50 56
REMARK Flexibility Score: inf
ROOT
ATOM      1  C   UNL A   1      31.700  31.232  26.263  1.00  0.00     0.274 C 
ENDROOT
BRANCH   1   2
ATOM      2  O   UNL A   1      32.823  30.429  26.674  1.00  0.00    -0.461 OA
BRANCH   2   3
ATOM      3  C   UNL A   1      33.394  29.445  25.938  1.00  0.00     0.325 C 
ATOM      4  O   UNL A   1      34.425  28.917  26.354  1.00  0.00    -0.250 OA
BRANCH   3   5
ATOM      5  C   UNL A   1      32.740  29.002  24.620  1.00  0.00     0.242 C 
BRANCH   5   6
ATOM      6  N   UNL A   1      31.913  27.804  24.695  1.00  0.00    -0.323 N 
BRANCH   6   7
ATOM      7  C   UNL A   1      32.339  26.568  25.186  1.00  0.00     0.281 C 
ATOM      8  O   UNL A   1      31.839  26.111  26.222  1.00  0.00    -0.268 OA
BRANCH   7   9
ATOM      9  C   UNL A   1      33.497  25.800  24.445  1.00  0.00     0.273 C 
ATOM     10  C   UNL A   1      34.386  25.131  25.519  1.00  0.00     0.076 C 
ATOM     11  N   UNL A   1      32.918  24.826  23.484  1.00  0.00    -0.333 N 
ATOM     12  C   UNL A   1      35.320  24.060  24.969  1.00  0.00     0.016 C 
ATOM     13  C   UNL A   1      33.871  23.830  22.966  1.00  0.00     0.186 C 
ATOM     14  H   UNL A   1      32.542  25.346  22.692  1.00  0.00     0.347 HD
ATOM     15  H   UNL A   1      32.208  24.303  23.997  1.00  0.00     0.347 HD
ATOM     16  C   UNL A   1      34.569  23.059  24.091  1.00  0.00     0.048 C 
ATOM     17  C   UNL A   1      33.132  22.837  22.054  1.00  0.00     0.065 C 
ATOM     18  C   UNL A   1      33.576  22.186  24.887  1.00  0.00     0.010 C 
ATOM     19  C   UNL A   1      32.105  22.003  22.817  1.00  0.00     0.006 C 
ATOM     20  C   UNL A   1      32.750  21.264  23.987  1.00  0.00     0.001 C 
ENDBRANCH   7   9
ENDBRANCH   6   7
BRANCH   6  21
ATOM     21  C   UNL A   1      30.577  27.918  24.145  1.00  0.00     0.086 C 
ATOM     22  C   UNL A   1      30.110  29.190  23.481  1.00  0.00     0.027 C 
ATOM     23  C   UNL A   1      30.341  27.967  22.652  1.00  0.00     0.027 C 
ENDBRANCH   6  21
ENDBRANCH   5   6
ENDBRANCH   3   5
ENDBRANCH   2   3
ENDBRANCH   1   2
BRANCH   1  24
ATOM     24  C   UNL A   1      31.615  32.519  27.089  1.00  0.00     0.275 C 
BRANCH  24  25
ATOM     25  O   UNL A   1      32.816  33.304  26.923  1.00  0.00    -0.458 OA
BRANCH  25  26
ATOM     26  C   UNL A   1      33.299  33.871  28.063  1.00  0.00     0.338 C 
ATOM     27  O   UNL A   1      32.722  34.696  28.751  1.00  0.00    -0.246 OA
BRANCH  26  28
ATOM     28  C   UNL A   1      34.534  33.167  28.497  1.00  0.00     0.060 A 
ATOM     29  C   UNL A   1      34.390  31.873  29.015  1.00  0.00     0.016 A 
ATOM     30  C   UNL A   1      35.815  33.716  28.356  1.00  0.00     0.016 A 
ATOM     31  C   UNL A   1      35.510  31.139  29.418  1.00  0.00     0.010 A 
ATOM     32  C   UNL A   1      36.939  32.980  28.767  1.00  0.00     0.010 A 
ATOM     33  C   UNL A   1      36.793  31.694  29.322  1.00  0.00    -0.014 A 
BRANCH  33  34
ATOM     34  C   UNL A   1      37.951  30.990  29.941  1.00  0.00     0.031 A 
ATOM     35  C   UNL A   1      38.294  31.285  31.379  1.00  0.00     0.074 A 
ATOM     36  C   UNL A   1      38.676  30.081  29.262  1.00  0.00     0.049 A 
ATOM     37  N   UNL A   1      39.242  30.781  32.126  1.00  0.00    -0.248 NA
ATOM     38  C   UNL A   1      37.453  32.281  32.060  1.00  0.00     0.031 C 
ATOM     39  C   UNL A   1      38.441  29.669  27.880  1.00  0.00     0.029 A 
ATOM     40  N   UNL A   1      39.770  29.342  29.649  1.00  0.00    -0.354 N 
ATOM     41  C   UNL A   1      39.109  31.389  33.369  1.00  0.00     0.074 A 
ATOM     42  C   UNL A   1      38.010  32.327  33.261  1.00  0.00     0.031 C 
ATOM     43  C   UNL A   1      39.375  28.765  27.529  1.00  0.00     0.029 A 
ATOM     44  C   UNL A   1      40.290  28.551  28.651  1.00  0.00     0.049 A 
ATOM     45  H   UNL A   1      40.148  29.377  30.558  1.00  0.00     0.167 HD
ATOM     46  C   UNL A   1      39.825  31.182  34.501  1.00  0.00     0.034 A 
ATOM     47  C   UNL A   1      41.388  27.763  28.633  1.00  0.00     0.034 A 
ATOM     48  C   UNL A   1      40.924  30.257  34.614  1.00  0.00     0.049 A 
ATOM     49  C   UNL A   1      42.241  27.635  29.878  1.00  0.00     0.074 A 
ATOM     50  C   UNL A   1      41.661  29.932  35.739  1.00  0.00     0.029 A 
ATOM     51  N   UNL A   1      41.464  29.532  33.563  1.00  0.00    -0.354 N 
ATOM     52  N   UNL A   1      42.058  28.169  31.063  1.00  0.00    -0.248 NA
ATOM     53  C   UNL A   1      43.445  26.796  29.782  1.00  0.00     0.031 C 
ATOM     54  C   UNL A   1      42.697  29.074  35.353  1.00  0.00     0.029 A 
ATOM     55  C   UNL A   1      42.562  28.807  34.001  1.00  0.00     0.049 A 
ATOM     56  H   UNL A   1      41.119  29.531  32.641  1.00  0.00     0.167 HD
ATOM     57  C   UNL A   1      43.108  27.704  31.855  1.00  0.00     0.074 A 
ATOM     58  C   UNL A   1      43.914  26.843  31.020  1.00  0.00     0.031 C 
ATOM     59  C   UNL A   1      43.374  27.959  33.162  1.00  0.00     0.034 A 
BRANCH  46  60
ATOM     60  C   UNL A   1      39.468  32.013  35.706  1.00  0.00     0.023 A 
ATOM     61  C   UNL A   1      38.659  31.509  36.738  1.00  0.00     0.031 A 
ATOM     62  C   UNL A   1      39.942  33.332  35.815  1.00  0.00     0.131 A 
ATOM     63  C   UNL A   1      38.303  32.339  37.809  1.00  0.00     0.055 A 
ATOM     64  C   UNL A   1      39.638  34.131  36.917  1.00  0.00     0.041 A 
ATOM     65  F   UNL A   1      40.700  33.867  34.846  1.00  0.00    -0.206 F 
ATOM     66  C   UNL A   1      38.804  33.639  37.918  1.00  0.00     0.022 A 
BRANCH  63  67
ATOM     67  S   UNL A   1      37.078  31.735  39.003  1.00  0.00     0.124 S 
ATOM     68  O   UNL A   1      36.817  30.387  38.502  1.00  0.00    -0.237 OA
ATOM     69  O   UNL A   1      37.799  31.820  40.267  1.00  0.00    -0.237 OA
ATOM     70  O   UNL A   1      35.965  32.671  38.855  1.00  0.00    -0.744 OA
ENDBRANCH  63  67
ENDBRANCH  46  60
BRANCH  47  71
ATOM     71  C   UNL A   1      41.812  27.075  27.378  1.00  0.00     0.023 A 
ATOM     72  C   UNL A   1      41.721  25.680  27.242  1.00  0.00     0.031 A 
ATOM     73  C   UNL A   1      42.416  27.801  26.335  1.00  0.00     0.131 A 
ATOM     74  C   UNL A   1      42.278  25.050  26.117  1.00  0.00     0.055 A 
ATOM     75  C   UNL A   1      42.919  27.174  25.194  1.00  0.00     0.041 A 
ATOM     76  F   UNL A   1      42.537  29.136  26.418  1.00  0.00    -0.206 F 
ATOM     77  C   UNL A   1      42.866  25.789  25.087  1.00  0.00     0.022 A 
BRANCH  74  78
ATOM     78  S   UNL A   1      42.325  23.236  26.071  1.00  0.00     0.124 S 
ATOM     79  O   UNL A   1      40.921  22.898  26.275  1.00  0.00    -0.237 OA
ATOM     80  O   UNL A   1      42.860  22.982  24.738  1.00  0.00    -0.237 OA
ATOM     81  O   UNL A   1      43.217  22.890  27.176  1.00  0.00    -0.744 OA
ENDBRANCH  74  78
ENDBRANCH  47  71
BRANCH  59  82
ATOM     82  C   UNL A   1      44.566  27.273  33.781  1.00  0.00     0.023 A 
ATOM     83  C   UNL A   1      44.505  25.942  34.231  1.00  0.00     0.031 A 
ATOM     84  C   UNL A   1      45.791  27.955  33.903  1.00  0.00     0.131 A 
ATOM     85  C   UNL A   1      45.636  25.347  34.813  1.00  0.00     0.055 A 
ATOM     86  C   UNL A   1      46.925  27.342  34.439  1.00  0.00     0.041 A 
ATOM     87  F   UNL A   1      45.907  29.227  33.489  1.00  0.00    -0.206 F 
ATOM     88  C   UNL A   1      46.850  26.033  34.904  1.00  0.00     0.022 A 
BRANCH  85  89
ATOM     89  S   UNL A   1      45.492  23.671  35.494  1.00  0.00     0.124 S 
ATOM     90  O   UNL A   1      46.518  23.676  36.533  1.00  0.00    -0.237 OA
ATOM     91  O   UNL A   1      44.111  23.639  35.964  1.00  0.00    -0.237 OA
ATOM     92  O   UNL A   1      45.775  22.808  34.349  1.00  0.00    -0.744 OA
ENDBRANCH  85  89
ENDBRANCH  59  82
ENDBRANCH  33  34
ENDBRANCH  26  28
ENDBRANCH  25  26
ENDBRANCH  24  25
ENDBRANCH   1  24
TORSDOF 18
ENDMDL
MODEL 3
REMARK VINA RESULT:     -11.2      2.086      8.647
REMARK SMILES O=C(CN(C(=O)[C@H]1CC[C@H]2CCCC[C@H]2[NH2+]1)C1CC1)OCCOC(=O)c1ccc(-c2c3nc(c(-c4cc(S(=O)(=O)[O-])ccc4F)c4ccc([nH]4)c(-c4cc(S(=O)(=O)[O-])ccc4F)c4nc(c(-c5cc(S(=O)(=O)[O-])ccc5F)c5ccc2[nH]5)C=C4)C=C3)cc1
REMARK SMILES IDX 21 1 20 2 2 3 1 4 3 5 4 6 5 7 6 8 7 9 8 10 16 11 9 12 15 13
REMARK SMILES IDX 10 16 14 17 11 18 13 19 12 20 17 21 18 22 19 23 22 24 23 25
REMARK SMILES IDX 24 26 25 27 26 28 27 29 88 30 28 31 87 32 29 33 30 34 31 35
REMARK SMILES IDX 81 36 32 37 86 38 80 39 82 40 33 41 85 42 79 43 78 44 34 46
REMARK SMILES IDX 66 47 46 48 65 49 47 50 50 51 64 52 83 53 48 54 49 55 63 57
REMARK SMILES IDX 84 58 51 59 35 60 36 61 44 62 37 63 43 64 45 65 42 66 38 67
REMARK SMILES IDX 39 68 40 69 41 70 67 71 68 72 76 73 69 74 75 75 77 76 74 77
REMARK SMILES IDX 70 78 71 79 72 80 73 81 52 82 53 83 61 84 54 85 60 86 62 87
REMARK SMILES IDX 59 88 55 89 56 90 57 91 58 92
REMARK H PARENT 16 14 16 15 82 45 50 56
REMARK Flexibility Score: inf
ROOT
ATOM      1  C   UNL A   1      31.290  29.086  24.844  1.00  0.00     0.274 C 
ENDROOT
BRANCH   1   2
ATOM      2  O   UNL A   1      32.483  28.281  24.887  1.00  0.00    -0.461 OA
BRANCH   2   3
ATOM      3  C   UNL A   1      32.692  27.232  25.719  1.00  0.00     0.325 C 
ATOM      4  O   UNL A   1      33.848  26.934  26.016  1.00  0.00    -0.250 OA
BRANCH   3   5
ATOM      5  C   UNL A   1      31.491  26.456  26.281  1.00  0.00     0.242 C 
BRANCH   5   6
ATOM      6  N   UNL A   1      31.337  25.090  25.797  1.00  0.00    -0.323 N 
BRANCH   6   7
ATOM      7  C   UNL A   1      31.116  23.975  26.607  1.00  0.00     0.281 C 
ATOM      8  O   UNL A   1      30.013  23.813  27.146  1.00  0.00    -0.268 OA
BRANCH   7   9
ATOM      9  C   UNL A   1      32.297  22.966  26.874  1.00  0.00     0.273 C 
ATOM     10  C   UNL A   1      32.038  21.698  26.028  1.00  0.00     0.076 C 
ATOM     11  N   UNL A   1      33.594  23.618  26.559  1.00  0.00    -0.333 N 
ATOM     12  C   UNL A   1      33.254  20.791  25.886  1.00  0.00     0.016 C 
ATOM     13  C   UNL A   1      34.738  22.698  26.459  1.00  0.00     0.186 C 
ATOM     14  H   UNL A   1      33.796  24.296  27.294  1.00  0.00     0.347 HD
ATOM     15  H   UNL A   1      33.486  24.043  25.638  1.00  0.00     0.347 HD
ATOM     16  C   UNL A   1      34.489  21.576  25.445  1.00  0.00     0.048 C 
ATOM     17  C   UNL A   1      35.995  23.482  26.048  1.00  0.00     0.065 C 
ATOM     18  C   UNL A   1      34.375  22.121  24.006  1.00  0.00     0.010 C 
ATOM     19  C   UNL A   1      35.875  24.076  24.646  1.00  0.00     0.006 C 
ATOM     20  C   UNL A   1      35.567  22.997  23.612  1.00  0.00     0.001 C 
ENDBRANCH   7   9
ENDBRANCH   6   7
BRANCH   6  21
ATOM     21  C   UNL A   1      31.504  24.898  24.370  1.00  0.00     0.086 C 
ATOM     22  C   UNL A   1      30.648  23.918  23.607  1.00  0.00     0.027 C 
ATOM     23  C   UNL A   1      30.467  25.385  23.383  1.00  0.00     0.027 C 
ENDBRANCH   6  21
ENDBRANCH   5   6
ENDBRANCH   3   5
ENDBRANCH   2   3
ENDBRANCH   1   2
BRANCH   1  24
ATOM     24  C   UNL A   1      31.450  30.349  25.696  1.00  0.00     0.275 C 
BRANCH  24  25
ATOM     25  O   UNL A   1      32.846  30.590  25.982  1.00  0.00    -0.458 OA
BRANCH  25  26
ATOM     26  C   UNL A   1      33.089  31.564  26.901  1.00  0.00     0.338 C 
ATOM     27  O   UNL A   1      32.302  32.427  27.253  1.00  0.00    -0.246 OA
BRANCH  26  28
ATOM     28  C   UNL A   1      34.369  31.291  27.605  1.00  0.00     0.060 A 
ATOM     29  C   UNL A   1      34.654  29.957  27.927  1.00  0.00     0.016 A 
ATOM     30  C   UNL A   1      35.306  32.289  27.900  1.00  0.00     0.016 A 
ATOM     31  C   UNL A   1      35.853  29.621  28.565  1.00  0.00     0.010 A 
ATOM     32  C   UNL A   1      36.506  31.950  28.547  1.00  0.00     0.010 A 
ATOM     33  C   UNL A   1      36.779  30.616  28.904  1.00  0.00    -0.014 A 
BRANCH  33  34
ATOM     34  C   UNL A   1      37.948  30.276  29.762  1.00  0.00     0.031 A 
ATOM     35  C   UNL A   1      38.960  29.283  29.249  1.00  0.00     0.074 A 
ATOM     36  C   UNL A   1      38.138  30.851  30.965  1.00  0.00     0.049 A 
ATOM     37  N   UNL A   1      40.059  28.852  29.813  1.00  0.00    -0.248 NA
ATOM     38  C   UNL A   1      38.692  28.703  27.924  1.00  0.00     0.031 C 
ATOM     39  C   UNL A   1      37.265  31.851  31.575  1.00  0.00     0.029 A 
ATOM     40  N   UNL A   1      39.135  30.666  31.896  1.00  0.00    -0.354 N 
ATOM     41  C   UNL A   1      40.621  27.957  28.909  1.00  0.00     0.074 A 
ATOM     42  C   UNL A   1      39.721  27.881  27.778  1.00  0.00     0.031 C 
ATOM     43  C   UNL A   1      37.754  32.177  32.785  1.00  0.00     0.029 A 
ATOM     44  C   UNL A   1      38.961  31.393  33.051  1.00  0.00     0.049 A 
ATOM     45  H   UNL A   1      39.903  30.067  31.749  1.00  0.00     0.167 HD
ATOM     46  C   UNL A   1      41.785  27.267  29.004  1.00  0.00     0.034 A 
ATOM     47  C   UNL A   1      39.676  31.409  34.197  1.00  0.00     0.034 A 
ATOM     48  C   UNL A   1      42.681  27.331  30.130  1.00  0.00     0.049 A 
ATOM     49  C   UNL A   1      40.911  30.543  34.324  1.00  0.00     0.074 A 
ATOM     50  C   UNL A   1      43.915  26.722  30.282  1.00  0.00     0.029 A 
ATOM     51  N   UNL A   1      42.433  28.021  31.307  1.00  0.00    -0.354 N 
ATOM     52  N   UNL A   1      41.462  29.753  33.432  1.00  0.00    -0.248 NA
ATOM     53  C   UNL A   1      41.622  30.574  35.612  1.00  0.00     0.031 C 
ATOM     54  C   UNL A   1      44.374  26.975  31.579  1.00  0.00     0.029 A 
ATOM     55  C   UNL A   1      43.461  27.802  32.211  1.00  0.00     0.049 A 
ATOM     56  H   UNL A   1      41.643  28.583  31.476  1.00  0.00     0.167 HD
ATOM     57  C   UNL A   1      42.597  29.220  34.044  1.00  0.00     0.074 A 
ATOM     58  C   UNL A   1      42.658  29.782  35.375  1.00  0.00     0.031 C 
ATOM     59  C   UNL A   1      43.513  28.352  33.545  1.00  0.00     0.034 A 
BRANCH  46  60
ATOM     60  C   UNL A   1      42.132  26.340  27.870  1.00  0.00     0.023 A 
ATOM     61  C   UNL A   1      41.760  24.985  27.882  1.00  0.00     0.031 A 
ATOM     62  C   UNL A   1      42.853  26.822  26.764  1.00  0.00     0.131 A 
ATOM     63  C   UNL A   1      42.159  24.146  26.832  1.00  0.00     0.055 A 
ATOM     64  C   UNL A   1      43.189  25.996  25.691  1.00  0.00     0.041 A 
ATOM     65  F   UNL A   1      43.251  28.103  26.714  1.00  0.00    -0.206 F 
ATOM     66  C   UNL A   1      42.852  24.645  25.727  1.00  0.00     0.022 A 
BRANCH  63  67
ATOM     67  S   UNL A   1      41.862  22.363  26.988  1.00  0.00     0.124 S 
ATOM     68  O   UNL A   1      41.580  22.235  28.416  1.00  0.00    -0.237 OA
ATOM     69  O   UNL A   1      40.732  22.152  26.091  1.00  0.00    -0.237 OA
ATOM     70  O   UNL A   1      43.123  21.766  26.554  1.00  0.00    -0.744 OA
ENDBRANCH  63  67
ENDBRANCH  46  60
BRANCH  47  71
ATOM     71  C   UNL A   1      39.220  32.216  35.368  1.00  0.00     0.023 A 
ATOM     72  C   UNL A   1      39.636  33.546  35.545  1.00  0.00     0.031 A 
ATOM     73  C   UNL A   1      38.446  31.626  36.383  1.00  0.00     0.131 A 
ATOM     74  C   UNL A   1      39.324  34.222  36.736  1.00  0.00     0.055 A 
ATOM     75  C   UNL A   1      38.092  32.321  37.540  1.00  0.00     0.041 A 
ATOM     76  F   UNL A   1      38.030  30.354  36.268  1.00  0.00    -0.206 F 
ATOM     77  C   UNL A   1      38.545  33.622  37.729  1.00  0.00     0.022 A 
BRANCH  74  78
ATOM     78  S   UNL A   1      40.047  35.862  37.020  1.00  0.00     0.124 S 
ATOM     79  O   UNL A   1      41.465  35.543  37.146  1.00  0.00    -0.237 OA
ATOM     80  O   UNL A   1      39.655  36.579  35.812  1.00  0.00    -0.237 OA
ATOM     81  O   UNL A   1      39.398  36.313  38.250  1.00  0.00    -0.744 OA
ENDBRANCH  74  78
ENDBRANCH  47  71
BRANCH  59  82
ATOM     82  C   UNL A   1      44.679  27.981  34.426  1.00  0.00     0.023 A 
ATOM     83  C   UNL A   1      44.653  26.843  35.251  1.00  0.00     0.031 A 
ATOM     84  C   UNL A   1      45.845  28.769  34.424  1.00  0.00     0.131 A 
ATOM     85  C   UNL A   1      45.758  26.542  36.065  1.00  0.00     0.055 A 
ATOM     86  C   UNL A   1      46.958  28.439  35.201  1.00  0.00     0.041 A 
ATOM     87  F   UNL A   1      45.925  29.866  33.656  1.00  0.00    -0.206 F 
ATOM     88  C   UNL A   1      46.916  27.324  36.032  1.00  0.00     0.022 A 
BRANCH  85  89
ATOM     89  S   UNL A   1      45.649  25.136  37.208  1.00  0.00     0.124 S 
ATOM     90  O   UNL A   1      44.287  24.662  36.977  1.00  0.00    -0.237 OA
ATOM     91  O   UNL A   1      46.716  24.262  36.733  1.00  0.00    -0.237 OA
ATOM     92  O   UNL A   1      45.881  25.740  38.519  1.00  0.00    -0.744 OA
ENDBRANCH  85  89
ENDBRANCH  59  82
ENDBRANCH  33  34
ENDBRANCH  26  28
ENDBRANCH  25  26
ENDBRANCH  24  25
ENDBRANCH   1  24
TORSDOF 18
ENDMDL
