MODEL 1
REMARK VINA RESULT:     -11.4      0.000      0.000
REMARK SMILES CC[NH+]1CCC([N@@H+]2CCO[C@H](CC(=O)OCCOC(=O)c3ccc(-c4c5nc(c(-c6cc(S(=O)(=O)[O-])ccc6F)c6ccc([nH]6)c(-c6cc(S(=O)(=O)[O-])ccc6F)c6nc(c(-c7cc(S(=O)(=O)[O-])ccc7F)c7ccc4[nH]7)C=C6)C=C5)cc3)C2)CC1
REMARK SMILES IDX 16 1 15 2 13 3 14 4 12 5 11 6 7 7 8 8 84 9 9 11 10 12 6 13
REMARK SMILES IDX 3 14 4 15 86 16 5 18 85 19 2 20 1 21 17 22 18 23 19 24 20 25
REMARK SMILES IDX 21 26 22 27 83 28 23 29 82 30 24 31 25 32 26 33 76 34 27 35
REMARK SMILES IDX 81 36 75 37 77 38 28 39 80 40 74 41 73 42 29 44 61 45 41 46
REMARK SMILES IDX 60 47 42 48 45 49 59 50 78 51 43 52 44 53 58 55 79 56 46 57
REMARK SMILES IDX 30 58 31 59 39 60 32 61 38 62 40 63 37 64 33 65 34 66 35 67
REMARK SMILES IDX 36 68 62 69 63 70 71 71 64 72 70 73 72 74 69 75 65 76 66 77
REMARK SMILES IDX 67 78 68 79 47 80 48 81 56 82 49 83 55 84 57 85 54 86 50 87
REMARK SMILES IDX 51 88 52 89 53 90
REMARK H PARENT 7 10 3 17 77 43 45 54
REMARK Flexibility Score: inf
ROOT
ATOM      1  C   UNL A   1      31.896  28.323  27.648  1.00  0.00     0.274 C 
ENDROOT
BRANCH   1   2
ATOM      2  O   UNL A   1      31.146  27.365  26.875  1.00  0.00    -0.462 OA
BRANCH   2   3
ATOM      3  C   UNL A   1      31.782  26.226  26.521  1.00  0.00     0.308 C 
ATOM      4  O   UNL A   1      31.278  25.110  26.624  1.00  0.00    -0.252 OA
BRANCH   3   5
ATOM      5  C   UNL A   1      33.109  26.438  25.842  1.00  0.00     0.160 C 
BRANCH   5   6
ATOM      6  C   UNL A   1      33.316  26.274  24.338  1.00  0.00     0.184 C 
ATOM      7  N   UNL A   1      31.264  27.109  23.117  1.00  0.00    -0.328 N 
ATOM      8  C   UNL A   1      30.977  25.722  22.768  1.00  0.00     0.291 C 
ATOM      9  C   UNL A   1      32.659  27.331  23.448  1.00  0.00     0.295 C 
ATOM     10  H   UNL A   1      31.187  27.650  22.256  1.00  0.00     0.348 HD
ATOM     11  C   UNL A   1      31.951  24.608  23.232  1.00  0.00     0.222 C 
ATOM     12  O   UNL A   1      33.198  24.959  23.821  1.00  0.00    -0.366 OA
BRANCH   7  13
ATOM     13  C   UNL A   1      30.185  27.935  23.694  1.00  0.00     0.195 C 
ATOM     14  N   UNL A   1      28.562  29.966  22.484  1.00  0.00    -0.335 N 
ATOM     15  C   UNL A   1      29.520  30.470  23.469  1.00  0.00     0.268 C 
ATOM     16  C   UNL A   1      27.844  28.848  23.094  1.00  0.00     0.268 C 
ATOM     17  H   UNL A   1      29.060  29.651  21.651  1.00  0.00     0.348 HD
ATOM     18  C   UNL A   1      30.559  29.420  23.860  1.00  0.00     0.126 C 
ATOM     19  C   UNL A   1      28.778  27.647  23.116  1.00  0.00     0.126 C 
BRANCH  14  20
ATOM     20  C   UNL A   1      27.645  31.016  22.017  1.00  0.00     0.258 C 
ATOM     21  C   UNL A   1      28.133  31.684  20.735  1.00  0.00     0.071 C 
ENDBRANCH  14  20
ENDBRANCH   7  13
ENDBRANCH   5   6
ENDBRANCH   3   5
ENDBRANCH   2   3
ENDBRANCH   1   2
BRANCH   1  22
ATOM     22  C   UNL A   1      31.788  29.704  27.012  1.00  0.00     0.275 C 
BRANCH  22  23
ATOM     23  O   UNL A   1      33.092  30.129  26.587  1.00  0.00    -0.458 OA
BRANCH  23  24
ATOM     24  C   UNL A   1      33.570  31.222  27.218  1.00  0.00     0.338 C 
ATOM     25  O   UNL A   1      32.985  32.275  27.436  1.00  0.00    -0.246 OA
BRANCH  24  26
ATOM     26  C   UNL A   1      34.929  30.946  27.687  1.00  0.00     0.060 A 
ATOM     27  C   UNL A   1      35.283  29.631  27.983  1.00  0.00     0.016 A 
ATOM     28  C   UNL A   1      35.808  31.990  27.949  1.00  0.00     0.016 A 
ATOM     29  C   UNL A   1      36.473  29.351  28.630  1.00  0.00     0.010 A 
ATOM     30  C   UNL A   1      37.052  31.700  28.513  1.00  0.00     0.010 A 
ATOM     31  C   UNL A   1      37.376  30.382  28.886  1.00  0.00    -0.014 A 
BRANCH  31  32
ATOM     32  C   UNL A   1      38.631  30.085  29.611  1.00  0.00     0.031 A 
ATOM     33  C   UNL A   1      39.623  29.151  28.987  1.00  0.00     0.074 A 
ATOM     34  C   UNL A   1      38.882  30.681  30.792  1.00  0.00     0.049 A 
ATOM     35  N   UNL A   1      40.659  28.565  29.520  1.00  0.00    -0.248 NA
ATOM     36  C   UNL A   1      39.403  28.823  27.568  1.00  0.00     0.031 C 
ATOM     37  C   UNL A   1      38.029  31.687  31.432  1.00  0.00     0.029 A 
ATOM     38  N   UNL A   1      39.926  30.531  31.664  1.00  0.00    -0.354 N 
ATOM     39  C   UNL A   1      41.182  27.748  28.524  1.00  0.00     0.074 A 
ATOM     40  C   UNL A   1      40.348  27.920  27.354  1.00  0.00     0.031 C 
ATOM     41  C   UNL A   1      38.594  32.075  32.585  1.00  0.00     0.029 A 
ATOM     42  C   UNL A   1      39.790  31.274  32.813  1.00  0.00     0.049 A 
ATOM     43  H   UNL A   1      40.700  29.948  31.486  1.00  0.00     0.167 HD
ATOM     44  C   UNL A   1      42.255  26.922  28.600  1.00  0.00     0.034 A 
ATOM     45  C   UNL A   1      40.514  31.261  33.948  1.00  0.00     0.034 A 
ATOM     46  C   UNL A   1      43.068  26.801  29.787  1.00  0.00     0.049 A 
ATOM     47  C   UNL A   1      41.669  30.297  34.031  1.00  0.00     0.074 A 
ATOM     48  C   UNL A   1      44.150  25.973  30.021  1.00  0.00     0.029 A 
ATOM     49  N   UNL A   1      42.884  27.551  30.946  1.00  0.00    -0.354 N 
ATOM     50  N   UNL A   1      42.094  29.440  33.130  1.00  0.00    -0.248 NA
ATOM     51  C   UNL A   1      42.427  30.287  35.284  1.00  0.00     0.031 C 
ATOM     52  C   UNL A   1      44.589  26.187  31.334  1.00  0.00     0.029 A 
ATOM     53  C   UNL A   1      43.825  27.196  31.900  1.00  0.00     0.049 A 
ATOM     54  H   UNL A   1      42.188  28.235  31.070  1.00  0.00     0.167 HD
ATOM     55  C   UNL A   1      43.179  28.792  33.707  1.00  0.00     0.074 A 
ATOM     56  C   UNL A   1      43.357  29.380  35.021  1.00  0.00     0.031 C 
ATOM     57  C   UNL A   1      43.956  27.795  33.208  1.00  0.00     0.034 A 
BRANCH  44  58
ATOM     58  C   UNL A   1      42.527  26.036  27.408  1.00  0.00     0.023 A 
ATOM     59  C   UNL A   1      42.039  24.720  27.321  1.00  0.00     0.031 A 
ATOM     60  C   UNL A   1      43.361  26.495  26.371  1.00  0.00     0.131 A 
ATOM     61  C   UNL A   1      42.452  23.887  26.268  1.00  0.00     0.055 A 
ATOM     62  C   UNL A   1      43.705  25.687  25.285  1.00  0.00     0.041 A 
ATOM     63  F   UNL A   1      43.881  27.732  26.410  1.00  0.00    -0.206 F 
ATOM     64  C   UNL A   1      43.263  24.368  25.238  1.00  0.00     0.022 A 
BRANCH  61  65
ATOM     65  S   UNL A   1      42.038  22.121  26.340  1.00  0.00     0.124 S 
ATOM     66  O   UNL A   1      42.919  21.571  25.312  1.00  0.00    -0.237 OA
ATOM     67  O   UNL A   1      42.368  21.776  27.717  1.00  0.00    -0.237 OA
ATOM     68  O   UNL A   1      40.613  22.089  26.013  1.00  0.00    -0.744 OA
ENDBRANCH  61  65
ENDBRANCH  44  58
BRANCH  45  69
ATOM     69  C   UNL A   1      40.122  32.110  35.108  1.00  0.00     0.023 A 
ATOM     70  C   UNL A   1      39.222  31.646  36.080  1.00  0.00     0.031 A 
ATOM     71  C   UNL A   1      40.629  33.416  35.251  1.00  0.00     0.131 A 
ATOM     72  C   UNL A   1      38.835  32.489  37.135  1.00  0.00     0.055 A 
ATOM     73  C   UNL A   1      40.281  34.231  36.330  1.00  0.00     0.041 A 
ATOM     74  F   UNL A   1      41.492  33.913  34.350  1.00  0.00    -0.206 F 
ATOM     75  C   UNL A   1      39.370  33.772  37.274  1.00  0.00     0.022 A 
BRANCH  72  76
ATOM     76  S   UNL A   1      37.562  31.911  38.289  1.00  0.00     0.124 S 
ATOM     77  O   UNL A   1      37.336  30.547  37.828  1.00  0.00    -0.237 OA
ATOM     78  O   UNL A   1      38.235  32.050  39.577  1.00  0.00    -0.237 OA
ATOM     79  O   UNL A   1      36.454  32.838  38.066  1.00  0.00    -0.744 OA
ENDBRANCH  72  76
ENDBRANCH  45  69
BRANCH  57  80
ATOM     80  C   UNL A   1      45.082  27.326  34.093  1.00  0.00     0.023 A 
ATOM     81  C   UNL A   1      44.932  26.215  34.940  1.00  0.00     0.031 A 
ATOM     82  C   UNL A   1      46.299  28.026  34.117  1.00  0.00     0.131 A 
ATOM     83  C   UNL A   1      45.962  25.875  35.828  1.00  0.00     0.055 A 
ATOM     84  C   UNL A   1      47.343  27.647  34.960  1.00  0.00     0.041 A 
ATOM     85  F   UNL A   1      46.488  29.096  33.327  1.00  0.00    -0.206 F 
ATOM     86  C   UNL A   1      47.171  26.575  35.833  1.00  0.00     0.022 A 
BRANCH  83  87
ATOM     87  S   UNL A   1      45.659  24.573  37.052  1.00  0.00     0.124 S 
ATOM     88  O   UNL A   1      44.695  23.724  36.360  1.00  0.00    -0.237 OA
ATOM     89  O   UNL A   1      46.991  24.005  37.239  1.00  0.00    -0.237 OA
ATOM     90  O   UNL A   1      45.128  25.301  38.203  1.00  0.00    -0.744 OA
ENDBRANCH  83  87
ENDBRANCH  57  80
ENDBRANCH  31  32
ENDBRANCH  24  26
ENDBRANCH  23  24
ENDBRANCH  22  23
ENDBRANCH   1  22
TORSDOF 17
ENDMDL
MODEL 2
REMARK VINA RESULT:     -11.3      5.097      9.870
REMARK SMILES CC[NH+]1CCC([N@@H+]2CCO[C@H](CC(=O)OCCOC(=O)c3ccc(-c4c5nc(c(-c6cc(S(=O)(=O)[O-])ccc6F)c6ccc([nH]6)c(-c6cc(S(=O)(=O)[O-])ccc6F)c6nc(c(-c7cc(S(=O)(=O)[O-])ccc7F)c7ccc4[nH]7)C=C6)C=C5)cc3)C2)CC1
REMARK SMILES IDX 16 1 15 2 13 3 14 4 12 5 11 6 7 7 8 8 84 9 9 11 10 12 6 13
REMARK SMILES IDX 3 14 4 15 86 16 5 18 85 19 2 20 1 21 17 22 18 23 19 24 20 25
REMARK SMILES IDX 21 26 22 27 83 28 23 29 82 30 24 31 25 32 26 33 76 34 27 35
REMARK SMILES IDX 81 36 75 37 77 38 28 39 80 40 74 41 73 42 29 44 61 45 41 46
REMARK SMILES IDX 60 47 42 48 45 49 59 50 78 51 43 52 44 53 58 55 79 56 46 57
REMARK SMILES IDX 30 58 31 59 39 60 32 61 38 62 40 63 37 64 33 65 34 66 35 67
REMARK SMILES IDX 36 68 62 69 63 70 71 71 64 72 70 73 72 74 69 75 65 76 66 77
REMARK SMILES IDX 67 78 68 79 47 80 48 81 56 82 49 83 55 84 57 85 54 86 50 87
REMARK SMILES IDX 51 88 52 89 53 90
REMARK H PARENT 7 10 3 17 77 43 45 54
REMARK Flexibility Score: inf
ROOT
ATOM      1  C   UNL A   1      36.828  22.701  23.569  1.00  0.00     0.274 C 
ENDROOT
BRANCH   1   2
ATOM      2  O   UNL A   1      35.899  23.690  24.056  1.00  0.00    -0.462 OA
BRANCH   2   3
ATOM      3  C   UNL A   1      34.660  23.691  23.516  1.00  0.00     0.308 C 
ATOM      4  O   UNL A   1      34.431  23.385  22.349  1.00  0.00    -0.252 OA
BRANCH   3   5
ATOM      5  C   UNL A   1      33.550  23.948  24.502  1.00  0.00     0.160 C 
BRANCH   5   6
ATOM      6  C   UNL A   1      32.320  23.052  24.629  1.00  0.00     0.184 C 
ATOM      7  N   UNL A   1      30.345  24.447  25.376  1.00  0.00    -0.328 N 
ATOM      8  C   UNL A   1      30.417  23.758  26.660  1.00  0.00     0.291 C 
ATOM      9  C   UNL A   1      30.975  23.704  24.301  1.00  0.00     0.295 C 
ATOM     10  H   UNL A   1      29.370  24.416  25.080  1.00  0.00     0.348 HD
ATOM     11  C   UNL A   1      31.492  22.661  26.871  1.00  0.00     0.222 C 
ATOM     12  O   UNL A   1      32.265  22.206  25.766  1.00  0.00    -0.366 OA
BRANCH   7  13
ATOM     13  C   UNL A   1      30.268  25.921  25.364  1.00  0.00     0.195 C 
ATOM     14  N   UNL A   1      31.901  27.848  24.006  1.00  0.00    -0.335 N 
ATOM     15  C   UNL A   1      32.070  27.835  25.460  1.00  0.00     0.268 C 
ATOM     16  C   UNL A   1      30.467  27.909  23.726  1.00  0.00     0.268 C 
ATOM     17  H   UNL A   1      32.301  26.999  23.607  1.00  0.00     0.348 HD
ATOM     18  C   UNL A   1      31.426  26.611  26.109  1.00  0.00     0.126 C 
ATOM     19  C   UNL A   1      29.878  26.532  23.997  1.00  0.00     0.126 C 
BRANCH  14  20
ATOM     20  C   UNL A   1      32.629  28.958  23.375  1.00  0.00     0.258 C 
ATOM     21  C   UNL A   1      34.026  28.548  22.916  1.00  0.00     0.071 C 
ENDBRANCH  14  20
ENDBRANCH   7  13
ENDBRANCH   5   6
ENDBRANCH   3   5
ENDBRANCH   2   3
ENDBRANCH   1   2
BRANCH   1  22
ATOM     22  C   UNL A   1      36.891  21.525  24.537  1.00  0.00     0.275 C 
BRANCH  22  23
ATOM     23  O   UNL A   1      37.371  21.989  25.808  1.00  0.00    -0.458 OA
BRANCH  23  24
ATOM     24  C   UNL A   1      38.674  21.733  26.054  1.00  0.00     0.338 C 
ATOM     25  O   UNL A   1      39.309  20.732  25.751  1.00  0.00    -0.246 OA
BRANCH  24  26
ATOM     26  C   UNL A   1      39.272  22.896  26.711  1.00  0.00     0.060 A 
ATOM     27  C   UNL A   1      38.767  24.163  26.426  1.00  0.00     0.016 A 
ATOM     28  C   UNL A   1      40.402  22.749  27.509  1.00  0.00     0.016 A 
ATOM     29  C   UNL A   1      39.434  25.298  26.849  1.00  0.00     0.010 A 
ATOM     30  C   UNL A   1      41.021  23.891  28.019  1.00  0.00     0.010 A 
ATOM     31  C   UNL A   1      40.559  25.173  27.664  1.00  0.00    -0.014 A 
BRANCH  31  32
ATOM     32  C   UNL A   1      41.291  26.387  28.083  1.00  0.00     0.031 A 
ATOM     33  C   UNL A   1      40.570  27.423  28.892  1.00  0.00     0.074 A 
ATOM     34  C   UNL A   1      42.593  26.529  27.771  1.00  0.00     0.049 A 
ATOM     35  N   UNL A   1      40.918  28.649  29.168  1.00  0.00    -0.248 NA
ATOM     36  C   UNL A   1      39.270  27.020  29.452  1.00  0.00     0.031 C 
ATOM     37  C   UNL A   1      43.413  25.528  27.080  1.00  0.00     0.029 A 
ATOM     38  N   UNL A   1      43.457  27.566  27.995  1.00  0.00    -0.354 N 
ATOM     39  C   UNL A   1      39.854  29.190  29.881  1.00  0.00     0.074 A 
ATOM     40  C   UNL A   1      38.851  28.153  29.996  1.00  0.00     0.031 C 
ATOM     41  C   UNL A   1      44.663  25.996  26.953  1.00  0.00     0.029 A 
ATOM     42  C   UNL A   1      44.707  27.362  27.458  1.00  0.00     0.049 A 
ATOM     43  H   UNL A   1      43.209  28.380  28.491  1.00  0.00     0.167 HD
ATOM     44  C   UNL A   1      39.733  30.447  30.376  1.00  0.00     0.034 A 
ATOM     45  C   UNL A   1      45.748  28.207  27.332  1.00  0.00     0.034 A 
ATOM     46  C   UNL A   1      40.774  31.441  30.252  1.00  0.00     0.049 A 
ATOM     47  C   UNL A   1      45.574  29.613  27.840  1.00  0.00     0.074 A 
ATOM     48  C   UNL A   1      40.770  32.761  30.660  1.00  0.00     0.029 A 
ATOM     49  N   UNL A   1      42.021  31.207  29.676  1.00  0.00    -0.354 N 
ATOM     50  N   UNL A   1      44.524  30.160  28.412  1.00  0.00    -0.248 NA
ATOM     51  C   UNL A   1      46.714  30.518  27.672  1.00  0.00     0.031 C 
ATOM     52  C   UNL A   1      41.993  33.337  30.290  1.00  0.00     0.029 A 
ATOM     53  C   UNL A   1      42.787  32.361  29.709  1.00  0.00     0.049 A 
ATOM     54  H   UNL A   1      42.315  30.346  29.301  1.00  0.00     0.167 HD
ATOM     55  C   UNL A   1      44.881  31.476  28.679  1.00  0.00     0.074 A 
ATOM     56  C   UNL A   1      46.253  31.628  28.232  1.00  0.00     0.031 C 
ATOM     57  C   UNL A   1      44.147  32.475  29.234  1.00  0.00     0.034 A 
BRANCH  44  58
ATOM     58  C   UNL A   1      38.407  30.819  30.993  1.00  0.00     0.023 A 
ATOM     59  C   UNL A   1      37.357  31.377  30.243  1.00  0.00     0.031 A 
ATOM     60  C   UNL A   1      38.220  30.685  32.382  1.00  0.00     0.131 A 
ATOM     61  C   UNL A   1      36.206  31.851  30.892  1.00  0.00     0.055 A 
ATOM     62  C   UNL A   1      37.040  31.087  33.012  1.00  0.00     0.041 A 
ATOM     63  F   UNL A   1      39.195  30.186  33.158  1.00  0.00    -0.206 F 
ATOM     64  C   UNL A   1      36.030  31.690  32.268  1.00  0.00     0.022 A 
BRANCH  61  65
ATOM     65  S   UNL A   1      35.003  32.819  29.937  1.00  0.00     0.124 S 
ATOM     66  O   UNL A   1      34.028  33.174  30.965  1.00  0.00    -0.237 OA
ATOM     67  O   UNL A   1      35.816  33.913  29.422  1.00  0.00    -0.237 OA
ATOM     68  O   UNL A   1      34.522  31.873  28.931  1.00  0.00    -0.744 OA
ENDBRANCH  61  65
ENDBRANCH  44  58
BRANCH  45  69
ATOM     69  C   UNL A   1      46.992  27.778  26.632  1.00  0.00     0.023 A 
ATOM     70  C   UNL A   1      47.124  27.901  25.240  1.00  0.00     0.031 A 
ATOM     71  C   UNL A   1      48.066  27.215  27.348  1.00  0.00     0.131 A 
ATOM     72  C   UNL A   1      48.290  27.443  24.605  1.00  0.00     0.055 A 
ATOM     73  C   UNL A   1      49.244  26.809  26.718  1.00  0.00     0.041 A 
ATOM     74  F   UNL A   1      47.994  27.071  28.681  1.00  0.00    -0.206 F 
ATOM     75  C   UNL A   1      49.356  26.912  25.336  1.00  0.00     0.022 A 
BRANCH  72  76
ATOM     76  S   UNL A   1      48.368  27.483  22.793  1.00  0.00     0.124 S 
ATOM     77  O   UNL A   1      49.615  28.203  22.563  1.00  0.00    -0.237 OA
ATOM     78  O   UNL A   1      48.375  26.063  22.459  1.00  0.00    -0.237 OA
ATOM     79  O   UNL A   1      47.152  28.202  22.416  1.00  0.00    -0.744 OA
ENDBRANCH  72  76
ENDBRANCH  45  69
BRANCH  57  80
ATOM     80  C   UNL A   1      44.850  33.796  29.409  1.00  0.00     0.023 A 
ATOM     81  C   UNL A   1      44.737  34.818  28.452  1.00  0.00     0.031 A 
ATOM     82  C   UNL A   1      45.675  34.014  30.525  1.00  0.00     0.131 A 
ATOM     83  C   UNL A   1      45.492  35.990  28.595  1.00  0.00     0.055 A 
ATOM     84  C   UNL A   1      46.379  35.206  30.692  1.00  0.00     0.041 A 
ATOM     85  F   UNL A   1      45.818  33.065  31.466  1.00  0.00    -0.206 F 
ATOM     86  C   UNL A   1      46.301  36.196  29.716  1.00  0.00     0.022 A 
BRANCH  83  87
ATOM     87  S   UNL A   1      45.487  37.197  27.242  1.00  0.00     0.124 S 
ATOM     88  O   UNL A   1      46.042  38.381  27.889  1.00  0.00    -0.237 OA
ATOM     89  O   UNL A   1      46.341  36.554  26.248  1.00  0.00    -0.237 OA
ATOM     90  O   UNL A   1      44.076  37.296  26.876  1.00  0.00    -0.744 OA
ENDBRANCH  83  87
ENDBRANCH  57  80
ENDBRANCH  31  32
ENDBRANCH  24  26
ENDBRANCH  23  24
ENDBRANCH  22  23
ENDBRANCH   1  22
TORSDOF 17
ENDMDL
MODEL 3
REMARK VINA RESULT:     -11.3      2.130      3.545
REMARK SMILES CC[NH+]1CCC([N@@H+]2CCO[C@H](CC(=O)OCCOC(=O)c3ccc(-c4c5nc(c(-c6cc(S(=O)(=O)[O-])ccc6F)c6ccc([nH]6)c(-c6cc(S(=O)(=O)[O-])ccc6F)c6nc(c(-c7cc(S(=O)(=O)[O-])ccc7F)c7ccc4[nH]7)C=C6)C=C5)cc3)C2)CC1
REMARK SMILES IDX 16 1 15 2 13 3 14 4 12 5 11 6 7 7 8 8 84 9 9 11 10 12 6 13
REMARK SMILES IDX 3 14 4 15 86 16 5 18 85 19 2 20 1 21 17 22 18 23 19 24 20 25
REMARK SMILES IDX 21 26 22 27 83 28 23 29 82 30 24 31 25 32 26 33 76 34 27 35
REMARK SMILES IDX 81 36 75 37 77 38 28 39 80 40 74 41 73 42 29 44 61 45 41 46
REMARK SMILES IDX 60 47 42 48 45 49 59 50 78 51 43 52 44 53 58 55 79 56 46 57
REMARK SMILES IDX 30 58 31 59 39 60 32 61 38 62 40 63 37 64 33 65 34 66 35 67
REMARK SMILES IDX 36 68 62 69 63 70 71 71 64 72 70 73 72 74 69 75 65 76 66 77
REMARK SMILES IDX 67 78 68 79 47 80 48 81 56 82 49 83 55 84 57 85 54 86 50 87
REMARK SMILES IDX 51 88 52 89 53 90
REMARK H PARENT 7 10 3 17 77 43 45 54
REMARK Flexibility Score: inf
ROOT
ATOM      1  C   UNL A   1      32.732  29.103  24.632  1.00  0.00     0.274 C 
ENDROOT
BRANCH   1   2
ATOM      2  O   UNL A   1      33.643  28.190  25.277  1.00  0.00    -0.462 OA
BRANCH   2   3
ATOM      3  C   UNL A   1      33.338  26.874  25.223  1.00  0.00     0.308 C 
ATOM      4  O   UNL A   1      33.866  26.089  24.440  1.00  0.00    -0.252 OA
BRANCH   3   5
ATOM      5  C   UNL A   1      32.404  26.406  26.308  1.00  0.00     0.160 C 
BRANCH   5   6
ATOM      6  C   UNL A   1      31.013  25.841  26.029  1.00  0.00     0.184 C 
ATOM      7  N   UNL A   1      31.234  23.524  25.037  1.00  0.00    -0.328 N 
ATOM      8  C   UNL A   1      30.764  24.082  23.774  1.00  0.00     0.291 C 
ATOM      9  C   UNL A   1      30.855  24.327  26.184  1.00  0.00     0.295 C 
ATOM     10  H   UNL A   1      30.686  22.681  25.208  1.00  0.00     0.348 HD
ATOM     11  C   UNL A   1      30.394  25.586  23.701  1.00  0.00     0.222 C 
ATOM     12  O   UNL A   1      30.333  26.357  24.896  1.00  0.00    -0.366 OA
BRANCH   7  13
ATOM     13  C   UNL A   1      32.453  22.692  25.036  1.00  0.00     0.195 C 
ATOM     14  N   UNL A   1      35.209  23.449  24.797  1.00  0.00    -0.335 N 
ATOM     15  C   UNL A   1      34.679  22.733  23.634  1.00  0.00     0.268 C 
ATOM     16  C   UNL A   1      34.854  22.682  25.990  1.00  0.00     0.268 C 
ATOM     17  H   UNL A   1      34.797  24.381  24.843  1.00  0.00     0.348 HD
ATOM     18  C   UNL A   1      33.156  22.619  23.667  1.00  0.00     0.126 C 
ATOM     19  C   UNL A   1      33.373  22.899  26.263  1.00  0.00     0.126 C 
BRANCH  14  20
ATOM     20  C   UNL A   1      36.659  23.666  24.698  1.00  0.00     0.258 C 
ATOM     21  C   UNL A   1      37.331  23.721  26.067  1.00  0.00     0.071 C 
ENDBRANCH  14  20
ENDBRANCH   7  13
ENDBRANCH   5   6
ENDBRANCH   3   5
ENDBRANCH   2   3
ENDBRANCH   1   2
BRANCH   1  22
ATOM     22  C   UNL A   1      32.215  30.122  25.641  1.00  0.00     0.275 C 
BRANCH  22  23
ATOM     23  O   UNL A   1      32.974  30.007  26.855  1.00  0.00    -0.458 OA
BRANCH  23  24
ATOM     24  C   UNL A   1      33.520  31.160  27.297  1.00  0.00     0.338 C 
ATOM     25  O   UNL A   1      32.985  32.258  27.379  1.00  0.00    -0.246 OA
BRANCH  24  26
ATOM     26  C   UNL A   1      34.889  30.898  27.746  1.00  0.00     0.060 A 
ATOM     27  C   UNL A   1      35.261  29.586  28.035  1.00  0.00     0.016 A 
ATOM     28  C   UNL A   1      35.761  31.951  27.997  1.00  0.00     0.016 A 
ATOM     29  C   UNL A   1      36.463  29.319  28.665  1.00  0.00     0.010 A 
ATOM     30  C   UNL A   1      37.015  31.674  28.543  1.00  0.00     0.010 A 
ATOM     31  C   UNL A   1      37.359  30.359  28.910  1.00  0.00    -0.014 A 
BRANCH  31  32
ATOM     32  C   UNL A   1      38.626  30.074  29.616  1.00  0.00     0.031 A 
ATOM     33  C   UNL A   1      39.615  29.144  28.982  1.00  0.00     0.074 A 
ATOM     34  C   UNL A   1      38.892  30.679  30.790  1.00  0.00     0.049 A 
ATOM     35  N   UNL A   1      40.663  28.567  29.502  1.00  0.00    -0.248 NA
ATOM     36  C   UNL A   1      39.375  28.806  27.569  1.00  0.00     0.031 C 
ATOM     37  C   UNL A   1      38.042  31.684  31.438  1.00  0.00     0.029 A 
ATOM     38  N   UNL A   1      39.951  30.541  31.646  1.00  0.00    -0.354 N 
ATOM     39  C   UNL A   1      41.176  27.748  28.503  1.00  0.00     0.074 A 
ATOM     40  C   UNL A   1      40.323  27.908  27.345  1.00  0.00     0.031 C 
ATOM     41  C   UNL A   1      38.623  32.081  32.579  1.00  0.00     0.029 A 
ATOM     42  C   UNL A   1      39.828  31.290  32.793  1.00  0.00     0.049 A 
ATOM     43  H   UNL A   1      40.726  29.962  31.459  1.00  0.00     0.167 HD
ATOM     44  C   UNL A   1      42.255  26.929  28.566  1.00  0.00     0.034 A 
ATOM     45  C   UNL A   1      40.570  31.288  33.917  1.00  0.00     0.034 A 
ATOM     46  C   UNL A   1      43.088  26.821  29.741  1.00  0.00     0.049 A 
ATOM     47  C   UNL A   1      41.732  30.333  33.986  1.00  0.00     0.074 A 
ATOM     48  C   UNL A   1      44.179  26.001  29.963  1.00  0.00     0.029 A 
ATOM     49  N   UNL A   1      42.918  27.576  30.899  1.00  0.00    -0.354 N 
ATOM     50  N   UNL A   1      42.149  29.473  33.084  1.00  0.00    -0.248 NA
ATOM     51  C   UNL A   1      42.510  30.335  35.228  1.00  0.00     0.031 C 
ATOM     52  C   UNL A   1      44.638  26.227  31.267  1.00  0.00     0.029 A 
ATOM     53  C   UNL A   1      43.875  27.233  31.840  1.00  0.00     0.049 A 
ATOM     54  H   UNL A   1      42.219  28.257  31.030  1.00  0.00     0.167 HD
ATOM     55  C   UNL A   1      43.247  28.835  33.647  1.00  0.00     0.074 A 
ATOM     56  C   UNL A   1      43.442  29.433  34.956  1.00  0.00     0.031 C 
ATOM     57  C   UNL A   1      44.023  27.841  33.142  1.00  0.00     0.034 A 
BRANCH  44  58
ATOM     58  C   UNL A   1      42.515  26.039  27.375  1.00  0.00     0.023 A 
ATOM     59  C   UNL A   1      42.030  24.721  27.301  1.00  0.00     0.031 A 
ATOM     60  C   UNL A   1      43.334  26.495  26.326  1.00  0.00     0.131 A 
ATOM     61  C   UNL A   1      42.431  23.884  26.247  1.00  0.00     0.055 A 
ATOM     62  C   UNL A   1      43.666  25.683  25.240  1.00  0.00     0.041 A 
ATOM     63  F   UNL A   1      43.851  27.734  26.352  1.00  0.00    -0.206 F 
ATOM     64  C   UNL A   1      43.228  24.362  25.205  1.00  0.00     0.022 A 
BRANCH  61  65
ATOM     65  S   UNL A   1      42.023  22.117  26.333  1.00  0.00     0.124 S 
ATOM     66  O   UNL A   1      42.451  21.783  27.690  1.00  0.00    -0.237 OA
ATOM     67  O   UNL A   1      40.585  22.113  26.097  1.00  0.00    -0.237 OA
ATOM     68  O   UNL A   1      42.832  21.526  25.268  1.00  0.00    -0.744 OA
ENDBRANCH  61  65
ENDBRANCH  44  58
BRANCH  45  69
ATOM     69  C   UNL A   1      40.190  32.142  35.077  1.00  0.00     0.023 A 
ATOM     70  C   UNL A   1      39.273  31.695  36.042  1.00  0.00     0.031 A 
ATOM     71  C   UNL A   1      40.727  33.434  35.229  1.00  0.00     0.131 A 
ATOM     72  C   UNL A   1      38.899  32.543  37.098  1.00  0.00     0.055 A 
ATOM     73  C   UNL A   1      40.392  34.253  36.309  1.00  0.00     0.041 A 
ATOM     74  F   UNL A   1      41.607  33.914  34.336  1.00  0.00    -0.206 F 
ATOM     75  C   UNL A   1      39.464  33.812  37.246  1.00  0.00     0.022 A 
BRANCH  72  76
ATOM     76  S   UNL A   1      37.605  31.990  38.241  1.00  0.00     0.124 S 
ATOM     77  O   UNL A   1      36.529  32.931  37.954  1.00  0.00    -0.237 OA
ATOM     78  O   UNL A   1      37.387  30.613  37.808  1.00  0.00    -0.237 OA
ATOM     79  O   UNL A   1      38.228  32.134  39.556  1.00  0.00    -0.744 OA
ENDBRANCH  72  76
ENDBRANCH  45  69
BRANCH  57  80
ATOM     80  C   UNL A   1      45.166  27.385  34.012  1.00  0.00     0.023 A 
ATOM     81  C   UNL A   1      46.436  27.977  33.921  1.00  0.00     0.031 A 
ATOM     82  C   UNL A   1      44.987  26.318  34.909  1.00  0.00     0.131 A 
ATOM     83  C   UNL A   1      47.501  27.453  34.667  1.00  0.00     0.055 A 
ATOM     84  C   UNL A   1      46.037  25.840  35.693  1.00  0.00     0.041 A 
ATOM     85  F   UNL A   1      43.791  25.719  35.029  1.00  0.00    -0.206 F 
ATOM     86  C   UNL A   1      47.306  26.399  35.563  1.00  0.00     0.022 A 
BRANCH  83  87
ATOM     87  S   UNL A   1      49.169  28.099  34.372  1.00  0.00     0.124 S 
ATOM     88  O   UNL A   1      48.893  29.324  33.627  1.00  0.00    -0.237 OA
ATOM     89  O   UNL A   1      49.679  28.279  35.728  1.00  0.00    -0.237 OA
ATOM     90  O   UNL A   1      49.816  27.039  33.602  1.00  0.00    -0.744 OA
ENDBRANCH  83  87
ENDBRANCH  57  80
ENDBRANCH  31  32
ENDBRANCH  24  26
ENDBRANCH  23  24
ENDBRANCH  22  23
ENDBRANCH   1  22
TORSDOF 17
ENDMDL
