MODEL 1
REMARK VINA RESULT:     -12.9      0.000      0.000
REMARK SMILES Cc1ccccc1NC(=O)C[NH+]1CCC(CC(=O)OCCOC(=O)c2ccc(-c3c4nc(c(-c5cc(S(=O)(=O)[O-])ccc5F)c5ccc([nH]5)c(-c5cc(S(=O)(=O)[O-])ccc5F)c5nc(c(-c6cc(S(=O)(=O)[O-])ccc6F)c6ccc3[nH]6)C=C5)C=C4)cc2)CC1
REMARK SMILES IDX 20 1 19 2 17 3 18 4 16 5 15 6 12 7 13 8 89 9 14 11 88 12
REMARK SMILES IDX 11 13 9 14 8 15 10 17 7 18 1 19 2 20 3 21 4 22 6 23 5 24
REMARK SMILES IDX 21 25 22 26 23 27 24 28 25 29 26 30 87 31 27 32 86 33 28 34
REMARK SMILES IDX 29 35 30 36 80 37 31 38 85 39 79 40 81 41 32 42 84 43 78 44
REMARK SMILES IDX 77 45 33 47 65 48 45 49 64 50 46 51 49 52 63 53 82 54 47 55
REMARK SMILES IDX 48 56 62 58 83 59 50 60 34 61 35 62 43 63 36 64 42 65 44 66
REMARK SMILES IDX 41 67 37 68 38 69 39 70 40 71 66 72 67 73 75 74 68 75 74 76
REMARK SMILES IDX 76 77 73 78 69 79 70 80 71 81 72 82 51 83 52 84 60 85 53 86
REMARK SMILES IDX 59 87 61 88 58 89 54 90 55 91 56 92 57 93
REMARK H PARENT 12 10 8 16 81 46 49 57
REMARK Flexibility Score: inf
ROOT
ATOM      1  C   UNL A   1      31.978  29.017  25.079  1.00  0.00     0.274 C 
ENDROOT
BRANCH   1   2
ATOM      2  O   UNL A   1      30.965  28.481  24.207  1.00  0.00    -0.462 OA
BRANCH   2   3
ATOM      3  C   UNL A   1      31.383  27.686  23.206  1.00  0.00     0.306 C 
ATOM      4  O   UNL A   1      30.792  27.572  22.143  1.00  0.00    -0.252 OA
BRANCH   3   5
ATOM      5  C   UNL A   1      32.677  26.976  23.556  1.00  0.00     0.126 C 
BRANCH   5   6
ATOM      6  C   UNL A   1      32.372  25.492  23.568  1.00  0.00     0.011 C 
ATOM      7  N   UNL A   1      32.638  22.682  24.147  1.00  0.00    -0.327 N 
ATOM      8  C   UNL A   1      33.349  23.297  23.024  1.00  0.00     0.262 C 
ATOM      9  C   UNL A   1      31.448  23.435  24.568  1.00  0.00     0.262 C 
ATOM     10  H   UNL A   1      33.244  22.726  24.965  1.00  0.00     0.348 HD
ATOM     11  C   UNL A   1      33.682  24.731  23.361  1.00  0.00     0.066 C 
ATOM     12  C   UNL A   1      31.687  24.935  24.809  1.00  0.00     0.066 C 
BRANCH   7  13
ATOM     13  C   UNL A   1      32.396  21.246  23.879  1.00  0.00     0.363 C 
BRANCH  13  14
ATOM     14  C   UNL A   1      32.918  20.263  24.942  1.00  0.00     0.279 C 
ATOM     15  N   UNL A   1      34.098  20.396  25.616  1.00  0.00    -0.321 N 
ATOM     16  H   UNL A   1      34.255  19.681  26.275  1.00  0.00     0.170 HD
ATOM     17  O   UNL A   1      32.215  19.290  25.261  1.00  0.00    -0.268 OA
BRANCH  15  18
ATOM     18  C   UNL A   1      35.133  21.347  25.561  1.00  0.00     0.044 A 
ATOM     19  C   UNL A   1      34.077  22.683  27.506  1.00  0.00     0.046 C 
ATOM     20  C   UNL A   1      35.065  22.491  26.384  1.00  0.00    -0.027 A 
ATOM     21  C   UNL A   1      35.973  23.545  26.161  1.00  0.00     0.005 A 
ATOM     22  C   UNL A   1      36.942  23.464  25.166  1.00  0.00     0.000 A 
ATOM     23  C   UNL A   1      36.200  21.230  24.665  1.00  0.00     0.026 A 
ATOM     24  C   UNL A   1      37.077  22.292  24.439  1.00  0.00     0.002 A 
ENDBRANCH  15  18
ENDBRANCH  13  14
ENDBRANCH   7  13
ENDBRANCH   5   6
ENDBRANCH   3   5
ENDBRANCH   2   3
ENDBRANCH   1   2
BRANCH   1  25
ATOM     25  C   UNL A   1      31.763  28.940  26.626  1.00  0.00     0.275 C 
BRANCH  25  26
ATOM     26  O   UNL A   1      32.516  29.796  27.529  1.00  0.00    -0.458 OA
BRANCH  26  27
ATOM     27  C   UNL A   1      32.751  31.120  27.264  1.00  0.00     0.338 C 
ATOM     28  O   UNL A   1      31.923  31.940  26.950  1.00  0.00    -0.246 OA
BRANCH  27  29
ATOM     29  C   UNL A   1      34.182  31.434  27.523  1.00  0.00     0.060 A 
ATOM     30  C   UNL A   1      34.659  32.727  27.813  1.00  0.00     0.016 A 
ATOM     31  C   UNL A   1      34.974  30.335  27.775  1.00  0.00     0.016 A 
ATOM     32  C   UNL A   1      35.899  32.873  28.455  1.00  0.00     0.010 A 
ATOM     33  C   UNL A   1      35.931  30.466  28.728  1.00  0.00     0.010 A 
ATOM     34  C   UNL A   1      36.497  31.722  28.959  1.00  0.00    -0.014 A 
BRANCH  34  35
ATOM     35  C   UNL A   1      37.835  31.551  29.501  1.00  0.00     0.031 A 
ATOM     36  C   UNL A   1      38.737  30.466  29.109  1.00  0.00     0.074 A 
ATOM     37  C   UNL A   1      38.254  32.705  30.075  1.00  0.00     0.049 A 
ATOM     38  N   UNL A   1      39.781  30.148  29.786  1.00  0.00    -0.248 NA
ATOM     39  C   UNL A   1      38.567  29.625  27.929  1.00  0.00     0.031 C 
ATOM     40  C   UNL A   1      39.569  33.278  30.280  1.00  0.00     0.029 A 
ATOM     41  N   UNL A   1      37.409  33.686  30.593  1.00  0.00    -0.354 N 
ATOM     42  C   UNL A   1      40.585  29.386  28.965  1.00  0.00     0.074 A 
ATOM     43  C   UNL A   1      39.720  28.939  27.904  1.00  0.00     0.031 C 
ATOM     44  C   UNL A   1      39.450  34.331  31.119  1.00  0.00     0.029 A 
ATOM     45  C   UNL A   1      38.069  34.380  31.588  1.00  0.00     0.049 A 
ATOM     46  H   UNL A   1      36.486  33.857  30.295  1.00  0.00     0.167 HD
ATOM     47  C   UNL A   1      41.931  29.403  29.179  1.00  0.00     0.034 A 
ATOM     48  C   UNL A   1      37.593  34.130  32.847  1.00  0.00     0.034 A 
ATOM     49  C   UNL A   1      42.246  30.376  30.229  1.00  0.00     0.049 A 
ATOM     50  C   UNL A   1      38.563  33.239  33.598  1.00  0.00     0.074 A 
ATOM     51  C   UNL A   1      42.740  31.669  30.212  1.00  0.00     0.029 A 
ATOM     52  N   UNL A   1      41.732  30.177  31.494  1.00  0.00    -0.354 N 
ATOM     53  N   UNL A   1      39.563  32.603  33.046  1.00  0.00    -0.248 NA
ATOM     54  C   UNL A   1      38.487  33.001  35.028  1.00  0.00     0.031 C 
ATOM     55  C   UNL A   1      42.495  32.245  31.495  1.00  0.00     0.029 A 
ATOM     56  C   UNL A   1      41.874  31.295  32.286  1.00  0.00     0.049 A 
ATOM     57  H   UNL A   1      41.312  29.339  31.793  1.00  0.00     0.167 HD
ATOM     58  C   UNL A   1      40.277  31.918  33.987  1.00  0.00     0.074 A 
ATOM     59  C   UNL A   1      39.523  32.162  35.211  1.00  0.00     0.031 C 
ATOM     60  C   UNL A   1      41.415  31.218  33.665  1.00  0.00     0.034 A 
BRANCH  47  61
ATOM     61  C   UNL A   1      43.023  28.783  28.335  1.00  0.00     0.023 A 
ATOM     62  C   UNL A   1      43.950  29.650  27.714  1.00  0.00     0.031 A 
ATOM     63  C   UNL A   1      43.259  27.411  28.132  1.00  0.00     0.131 A 
ATOM     64  C   UNL A   1      44.997  29.177  26.907  1.00  0.00     0.055 A 
ATOM     65  C   UNL A   1      44.296  26.933  27.309  1.00  0.00     0.041 A 
ATOM     66  F   UNL A   1      42.534  26.468  28.748  1.00  0.00    -0.206 F 
ATOM     67  C   UNL A   1      45.171  27.817  26.689  1.00  0.00     0.022 A 
BRANCH  64  68
ATOM     68  S   UNL A   1      46.127  30.383  26.163  1.00  0.00     0.124 S 
ATOM     69  O   UNL A   1      45.233  31.501  25.873  1.00  0.00    -0.237 OA
ATOM     70  O   UNL A   1      47.102  30.595  27.227  1.00  0.00    -0.237 OA
ATOM     71  O   UNL A   1      46.642  29.685  24.986  1.00  0.00    -0.744 OA
ENDBRANCH  64  68
ENDBRANCH  47  61
BRANCH  48  72
ATOM     72  C   UNL A   1      36.072  34.023  32.844  1.00  0.00     0.023 A 
ATOM     73  C   UNL A   1      35.341  35.240  32.910  1.00  0.00     0.031 A 
ATOM     74  C   UNL A   1      35.392  32.907  32.324  1.00  0.00     0.131 A 
ATOM     75  C   UNL A   1      34.069  35.355  32.317  1.00  0.00     0.055 A 
ATOM     76  C   UNL A   1      34.087  33.012  31.806  1.00  0.00     0.041 A 
ATOM     77  F   UNL A   1      36.015  31.728  32.185  1.00  0.00    -0.206 F 
ATOM     78  C   UNL A   1      33.435  34.244  31.762  1.00  0.00     0.022 A 
BRANCH  75  79
ATOM     79  S   UNL A   1      33.403  37.022  32.002  1.00  0.00     0.124 S 
ATOM     80  O   UNL A   1      33.266  37.028  30.551  1.00  0.00    -0.237 OA
ATOM     81  O   UNL A   1      32.156  37.006  32.765  1.00  0.00    -0.237 OA
ATOM     82  O   UNL A   1      34.431  37.910  32.542  1.00  0.00    -0.744 OA
ENDBRANCH  75  79
ENDBRANCH  48  72
BRANCH  60  83
ATOM     83  C   UNL A   1      42.205  30.347  34.618  1.00  0.00     0.023 A 
ATOM     84  C   UNL A   1      41.673  29.177  35.154  1.00  0.00     0.031 A 
ATOM     85  C   UNL A   1      43.523  30.662  35.046  1.00  0.00     0.131 A 
ATOM     86  C   UNL A   1      42.462  28.301  35.912  1.00  0.00     0.055 A 
ATOM     87  C   UNL A   1      44.284  29.830  35.866  1.00  0.00     0.041 A 
ATOM     88  F   UNL A   1      44.160  31.781  34.680  1.00  0.00    -0.206 F 
ATOM     89  C   UNL A   1      43.766  28.618  36.278  1.00  0.00     0.022 A 
BRANCH  86  90
ATOM     90  S   UNL A   1      41.745  26.702  36.342  1.00  0.00     0.124 S 
ATOM     91  O   UNL A   1      40.801  27.057  37.397  1.00  0.00    -0.237 OA
ATOM     92  O   UNL A   1      41.149  26.294  35.073  1.00  0.00    -0.237 OA
ATOM     93  O   UNL A   1      42.897  25.915  36.773  1.00  0.00    -0.744 OA
ENDBRANCH  86  90
ENDBRANCH  60  83
ENDBRANCH  34  35
ENDBRANCH  27  29
ENDBRANCH  26  27
ENDBRANCH  25  26
ENDBRANCH   1  25
TORSDOF 18
ENDMDL
MODEL 2
REMARK VINA RESULT:     -12.8      4.061      6.518
REMARK SMILES Cc1ccccc1NC(=O)C[NH+]1CCC(CC(=O)OCCOC(=O)c2ccc(-c3c4nc(c(-c5cc(S(=O)(=O)[O-])ccc5F)c5ccc([nH]5)c(-c5cc(S(=O)(=O)[O-])ccc5F)c5nc(c(-c6cc(S(=O)(=O)[O-])ccc6F)c6ccc3[nH]6)C=C5)C=C4)cc2)CC1
REMARK SMILES IDX 20 1 19 2 17 3 18 4 16 5 15 6 12 7 13 8 89 9 14 11 88 12
REMARK SMILES IDX 11 13 9 14 8 15 10 17 7 18 1 19 2 20 3 21 4 22 6 23 5 24
REMARK SMILES IDX 21 25 22 26 23 27 24 28 25 29 26 30 87 31 27 32 86 33 28 34
REMARK SMILES IDX 29 35 30 36 80 37 31 38 85 39 79 40 81 41 32 42 84 43 78 44
REMARK SMILES IDX 77 45 33 47 65 48 45 49 64 50 46 51 49 52 63 53 82 54 47 55
REMARK SMILES IDX 48 56 62 58 83 59 50 60 34 61 35 62 43 63 36 64 42 65 44 66
REMARK SMILES IDX 41 67 37 68 38 69 39 70 40 71 66 72 67 73 75 74 68 75 74 76
REMARK SMILES IDX 76 77 73 78 69 79 70 80 71 81 72 82 51 83 52 84 60 85 53 86
REMARK SMILES IDX 59 87 61 88 58 89 54 90 55 91 56 92 57 93
REMARK H PARENT 12 10 8 16 81 46 49 57
REMARK Flexibility Score: inf
ROOT
ATOM      1  C   UNL A   1      33.319  34.995  29.632  1.00  0.00     0.274 C 
ENDROOT
BRANCH   1   2
ATOM      2  O   UNL A   1      33.696  33.620  29.439  1.00  0.00    -0.462 OA
BRANCH   2   3
ATOM      3  C   UNL A   1      34.532  33.356  28.420  1.00  0.00     0.306 C 
ATOM      4  O   UNL A   1      34.818  34.168  27.553  1.00  0.00    -0.252 OA
BRANCH   3   5
ATOM      5  C   UNL A   1      35.083  31.944  28.497  1.00  0.00     0.126 C 
BRANCH   5   6
ATOM      6  C   UNL A   1      34.370  31.137  27.433  1.00  0.00     0.011 C 
ATOM      7  N   UNL A   1      32.845  29.015  26.217  1.00  0.00    -0.327 N 
ATOM      8  C   UNL A   1      34.291  28.896  26.412  1.00  0.00     0.262 C 
ATOM      9  C   UNL A   1      32.372  30.407  26.182  1.00  0.00     0.262 C 
ATOM     10  H   UNL A   1      32.383  28.634  27.042  1.00  0.00     0.348 HD
ATOM     11  C   UNL A   1      34.700  29.659  27.649  1.00  0.00     0.066 C 
ATOM     12  C   UNL A   1      32.856  31.281  27.352  1.00  0.00     0.066 C 
BRANCH   7  13
ATOM     13  C   UNL A   1      32.409  28.188  25.070  1.00  0.00     0.363 C 
BRANCH  13  14
ATOM     14  C   UNL A   1      32.529  28.839  23.682  1.00  0.00     0.279 C 
ATOM     15  N   UNL A   1      31.481  29.325  22.954  1.00  0.00    -0.321 N 
ATOM     16  H   UNL A   1      31.753  29.727  22.096  1.00  0.00     0.170 HD
ATOM     17  O   UNL A   1      33.656  28.986  23.179  1.00  0.00    -0.268 OA
BRANCH  15  18
ATOM     18  C   UNL A   1      30.093  29.370  23.180  1.00  0.00     0.044 A 
ATOM     19  C   UNL A   1      29.930  26.797  22.992  1.00  0.00     0.046 C 
ATOM     20  C   UNL A   1      29.340  28.180  23.088  1.00  0.00    -0.027 A 
ATOM     21  C   UNL A   1      27.933  28.264  23.083  1.00  0.00     0.005 A 
ATOM     22  C   UNL A   1      27.283  29.491  23.189  1.00  0.00     0.000 A 
ATOM     23  C   UNL A   1      29.421  30.571  23.425  1.00  0.00     0.026 A 
ATOM     24  C   UNL A   1      28.027  30.641  23.393  1.00  0.00     0.002 A 
ENDBRANCH  15  18
ENDBRANCH  13  14
ENDBRANCH   7  13
ENDBRANCH   5   6
ENDBRANCH   3   5
ENDBRANCH   2   3
ENDBRANCH   1   2
BRANCH   1  25
ATOM     25  C   UNL A   1      33.114  35.528  31.088  1.00  0.00     0.275 C 
BRANCH  25  26
ATOM     26  O   UNL A   1      33.540  34.744  32.237  1.00  0.00    -0.458 OA
BRANCH  26  27
ATOM     27  C   UNL A   1      34.755  34.928  32.845  1.00  0.00     0.338 C 
ATOM     28  O   UNL A   1      34.970  35.626  33.806  1.00  0.00    -0.246 OA
BRANCH  27  29
ATOM     29  C   UNL A   1      35.770  34.050  32.205  1.00  0.00     0.060 A 
ATOM     30  C   UNL A   1      36.698  34.499  31.244  1.00  0.00     0.016 A 
ATOM     31  C   UNL A   1      35.963  32.840  32.835  1.00  0.00     0.016 A 
ATOM     32  C   UNL A   1      37.865  33.753  31.017  1.00  0.00     0.010 A 
ATOM     33  C   UNL A   1      37.235  32.373  32.905  1.00  0.00     0.010 A 
ATOM     34  C   UNL A   1      38.145  32.718  31.904  1.00  0.00    -0.014 A 
BRANCH  34  35
ATOM     35  C   UNL A   1      39.167  31.688  31.811  1.00  0.00     0.031 A 
ATOM     36  C   UNL A   1      39.037  30.488  30.984  1.00  0.00     0.074 A 
ATOM     37  C   UNL A   1      40.355  32.172  32.251  1.00  0.00     0.049 A 
ATOM     38  N   UNL A   1      39.791  29.457  31.126  1.00  0.00    -0.248 NA
ATOM     39  C   UNL A   1      38.054  30.310  29.920  1.00  0.00     0.031 C 
ATOM     40  C   UNL A   1      41.728  31.842  31.928  1.00  0.00     0.029 A 
ATOM     41  N   UNL A   1      40.497  33.220  33.160  1.00  0.00    -0.354 N 
ATOM     42  C   UNL A   1      39.669  28.700  29.979  1.00  0.00     0.074 A 
ATOM     43  C   UNL A   1      38.460  29.165  29.351  1.00  0.00     0.031 C 
ATOM     44  C   UNL A   1      42.536  32.452  32.824  1.00  0.00     0.029 A 
ATOM     45  C   UNL A   1      41.692  33.079  33.837  1.00  0.00     0.049 A 
ATOM     46  H   UNL A   1      39.847  33.947  33.296  1.00  0.00     0.167 HD
ATOM     47  C   UNL A   1      40.721  27.919  29.604  1.00  0.00     0.034 A 
ATOM     48  C   UNL A   1      41.546  32.731  35.152  1.00  0.00     0.034 A 
ATOM     49  C   UNL A   1      41.855  28.162  30.501  1.00  0.00     0.049 A 
ATOM     50  C   UNL A   1      41.910  31.272  35.343  1.00  0.00     0.074 A 
ATOM     51  C   UNL A   1      43.016  28.907  30.386  1.00  0.00     0.029 A 
ATOM     52  N   UNL A   1      41.714  27.873  31.843  1.00  0.00    -0.354 N 
ATOM     53  N   UNL A   1      42.086  30.419  34.368  1.00  0.00    -0.248 NA
ATOM     54  C   UNL A   1      42.111  30.661  36.645  1.00  0.00     0.031 C 
ATOM     55  C   UNL A   1      43.560  29.068  31.697  1.00  0.00     0.029 A 
ATOM     56  C   UNL A   1      42.739  28.406  32.592  1.00  0.00     0.049 A 
ATOM     57  H   UNL A   1      40.970  27.349  32.219  1.00  0.00     0.167 HD
ATOM     58  C   UNL A   1      42.445  29.195  34.856  1.00  0.00     0.074 A 
ATOM     59  C   UNL A   1      42.394  29.392  36.299  1.00  0.00     0.031 C 
ATOM     60  C   UNL A   1      42.746  28.144  34.024  1.00  0.00     0.034 A 
BRANCH  47  61
ATOM     61  C   UNL A   1      40.891  27.124  28.328  1.00  0.00     0.023 A 
ATOM     62  C   UNL A   1      41.062  25.726  28.439  1.00  0.00     0.031 A 
ATOM     63  C   UNL A   1      40.849  27.618  27.011  1.00  0.00     0.131 A 
ATOM     64  C   UNL A   1      41.234  24.898  27.318  1.00  0.00     0.055 A 
ATOM     65  C   UNL A   1      41.038  26.795  25.886  1.00  0.00     0.041 A 
ATOM     66  F   UNL A   1      40.580  28.903  26.745  1.00  0.00    -0.206 F 
ATOM     67  C   UNL A   1      41.235  25.427  26.034  1.00  0.00     0.022 A 
BRANCH  64  68
ATOM     68  S   UNL A   1      41.443  23.117  27.582  1.00  0.00     0.124 S 
ATOM     69  O   UNL A   1      40.063  22.643  27.566  1.00  0.00    -0.237 OA
ATOM     70  O   UNL A   1      42.273  22.729  26.448  1.00  0.00    -0.237 OA
ATOM     71  O   UNL A   1      42.105  23.042  28.884  1.00  0.00    -0.744 OA
ENDBRANCH  64  68
ENDBRANCH  47  61
BRANCH  48  72
ATOM     72  C   UNL A   1      40.371  33.468  35.784  1.00  0.00     0.023 A 
ATOM     73  C   UNL A   1      39.308  32.670  36.290  1.00  0.00     0.031 A 
ATOM     74  C   UNL A   1      40.483  34.770  36.304  1.00  0.00     0.131 A 
ATOM     75  C   UNL A   1      38.530  33.106  37.381  1.00  0.00     0.055 A 
ATOM     76  C   UNL A   1      39.647  35.228  37.340  1.00  0.00     0.041 A 
ATOM     77  F   UNL A   1      41.480  35.578  35.916  1.00  0.00    -0.206 F 
ATOM     78  C   UNL A   1      38.694  34.384  37.912  1.00  0.00     0.022 A 
BRANCH  75  79
ATOM     79  S   UNL A   1      37.536  31.876  38.286  1.00  0.00     0.124 S 
ATOM     80  O   UNL A   1      37.579  30.727  37.388  1.00  0.00    -0.237 OA
ATOM     81  O   UNL A   1      38.277  31.740  39.539  1.00  0.00    -0.237 OA
ATOM     82  O   UNL A   1      36.232  32.520  38.421  1.00  0.00    -0.744 OA
ENDBRANCH  75  79
ENDBRANCH  48  72
BRANCH  60  83
ATOM     83  C   UNL A   1      43.048  26.731  34.474  1.00  0.00     0.023 A 
ATOM     84  C   UNL A   1      44.275  26.125  34.217  1.00  0.00     0.031 A 
ATOM     85  C   UNL A   1      42.109  25.921  35.168  1.00  0.00     0.131 A 
ATOM     86  C   UNL A   1      44.600  24.878  34.768  1.00  0.00     0.055 A 
ATOM     87  C   UNL A   1      42.402  24.645  35.650  1.00  0.00     0.041 A 
ATOM     88  F   UNL A   1      40.861  26.321  35.440  1.00  0.00    -0.206 F 
ATOM     89  C   UNL A   1      43.671  24.127  35.481  1.00  0.00     0.022 A 
BRANCH  86  90
ATOM     90  S   UNL A   1      46.299  24.305  34.578  1.00  0.00     0.124 S 
ATOM     91  O   UNL A   1      46.863  24.550  35.902  1.00  0.00    -0.237 OA
ATOM     92  O   UNL A   1      46.101  22.901  34.227  1.00  0.00    -0.237 OA
ATOM     93  O   UNL A   1      46.827  25.147  33.508  1.00  0.00    -0.744 OA
ENDBRANCH  86  90
ENDBRANCH  60  83
ENDBRANCH  34  35
ENDBRANCH  27  29
ENDBRANCH  26  27
ENDBRANCH  25  26
ENDBRANCH   1  25
TORSDOF 18
ENDMDL
MODEL 3
REMARK VINA RESULT:     -12.4      3.574      9.376
REMARK SMILES Cc1ccccc1NC(=O)C[NH+]1CCC(CC(=O)OCCOC(=O)c2ccc(-c3c4nc(c(-c5cc(S(=O)(=O)[O-])ccc5F)c5ccc([nH]5)c(-c5cc(S(=O)(=O)[O-])ccc5F)c5nc(c(-c6cc(S(=O)(=O)[O-])ccc6F)c6ccc3[nH]6)C=C5)C=C4)cc2)CC1
REMARK SMILES IDX 20 1 19 2 17 3 18 4 16 5 15 6 12 7 13 8 89 9 14 11 88 12
REMARK SMILES IDX 11 13 9 14 8 15 10 17 7 18 1 19 2 20 3 21 4 22 6 23 5 24
REMARK SMILES IDX 21 25 22 26 23 27 24 28 25 29 26 30 87 31 27 32 86 33 28 34
REMARK SMILES IDX 29 35 30 36 80 37 31 38 85 39 79 40 81 41 32 42 84 43 78 44
REMARK SMILES IDX 77 45 33 47 65 48 45 49 64 50 46 51 49 52 63 53 82 54 47 55
REMARK SMILES IDX 48 56 62 58 83 59 50 60 34 61 35 62 43 63 36 64 42 65 44 66
REMARK SMILES IDX 41 67 37 68 38 69 39 70 40 71 66 72 67 73 75 74 68 75 74 76
REMARK SMILES IDX 76 77 73 78 69 79 70 80 71 81 72 82 51 83 52 84 60 85 53 86
REMARK SMILES IDX 59 87 61 88 58 89 54 90 55 91 56 92 57 93
REMARK H PARENT 12 10 8 16 81 46 49 57
REMARK Flexibility Score: inf
ROOT
ATOM      1  C   UNL A   1      37.053  22.035  24.777  1.00  0.00     0.274 C 
ENDROOT
BRANCH   1   2
ATOM      2  O   UNL A   1      35.875  21.361  25.258  1.00  0.00    -0.462 OA
BRANCH   2   3
ATOM      3  C   UNL A   1      34.736  22.075  25.288  1.00  0.00     0.306 C 
ATOM      4  O   UNL A   1      34.235  22.504  26.318  1.00  0.00    -0.252 OA
BRANCH   3   5
ATOM      5  C   UNL A   1      34.172  22.294  23.897  1.00  0.00     0.126 C 
BRANCH   5   6
ATOM      6  C   UNL A   1      33.057  23.310  24.031  1.00  0.00     0.011 C 
ATOM      7  N   UNL A   1      31.398  25.595  23.457  1.00  0.00    -0.327 N 
ATOM      8  C   UNL A   1      32.638  25.730  24.224  1.00  0.00     0.262 C 
ATOM      9  C   UNL A   1      30.837  24.237  23.487  1.00  0.00     0.262 C 
ATOM     10  H   UNL A   1      31.622  25.733  22.472  1.00  0.00     0.348 HD
ATOM     11  C   UNL A   1      33.638  24.698  23.757  1.00  0.00     0.066 C 
ATOM     12  C   UNL A   1      31.836  23.119  23.142  1.00  0.00     0.066 C 
BRANCH   7  13
ATOM     13  C   UNL A   1      30.445  26.665  23.826  1.00  0.00     0.363 C 
BRANCH  13  14
ATOM     14  C   UNL A   1      30.619  28.007  23.095  1.00  0.00     0.279 C 
ATOM     15  N   UNL A   1      31.369  29.053  23.551  1.00  0.00    -0.321 N 
ATOM     16  H   UNL A   1      31.381  29.824  22.937  1.00  0.00     0.170 HD
ATOM     17  O   UNL A   1      30.083  28.165  21.985  1.00  0.00    -0.268 OA
BRANCH  15  18
ATOM     18  C   UNL A   1      32.129  29.254  24.717  1.00  0.00     0.044 A 
ATOM     19  C   UNL A   1      34.309  28.667  23.457  1.00  0.00     0.046 C 
ATOM     20  C   UNL A   1      33.510  28.963  24.700  1.00  0.00    -0.027 A 
ATOM     21  C   UNL A   1      34.216  28.940  25.920  1.00  0.00     0.005 A 
ATOM     22  C   UNL A   1      33.581  29.222  27.126  1.00  0.00     0.000 A 
ATOM     23  C   UNL A   1      31.547  29.668  25.918  1.00  0.00     0.026 A 
ATOM     24  C   UNL A   1      32.253  29.617  27.122  1.00  0.00     0.002 A 
ENDBRANCH  15  18
ENDBRANCH  13  14
ENDBRANCH   7  13
ENDBRANCH   5   6
ENDBRANCH   3   5
ENDBRANCH   2   3
ENDBRANCH   1   2
BRANCH   1  25
ATOM     25  C   UNL A   1      37.383  23.464  25.320  1.00  0.00     0.275 C 
BRANCH  25  26
ATOM     26  O   UNL A   1      37.950  23.647  26.647  1.00  0.00    -0.458 OA
BRANCH  26  27
ATOM     27  C   UNL A   1      39.296  23.555  26.892  1.00  0.00     0.338 C 
ATOM     28  O   UNL A   1      39.976  22.567  26.762  1.00  0.00    -0.246 OA
BRANCH  27  29
ATOM     29  C   UNL A   1      39.830  24.897  27.250  1.00  0.00     0.060 A 
ATOM     30  C   UNL A   1      40.299  25.829  26.304  1.00  0.00     0.016 A 
ATOM     31  C   UNL A   1      39.547  25.303  28.536  1.00  0.00     0.016 A 
ATOM     32  C   UNL A   1      40.373  27.185  26.657  1.00  0.00     0.010 A 
ATOM     33  C   UNL A   1      39.238  26.612  28.718  1.00  0.00     0.010 A 
ATOM     34  C   UNL A   1      39.780  27.568  27.856  1.00  0.00    -0.014 A 
BRANCH  34  35
ATOM     35  C   UNL A   1      39.857  28.845  28.546  1.00  0.00     0.031 A 
ATOM     36  C   UNL A   1      38.768  29.823  28.568  1.00  0.00     0.074 A 
ATOM     37  C   UNL A   1      40.863  28.822  29.454  1.00  0.00     0.049 A 
ATOM     38  N   UNL A   1      38.936  31.047  28.917  1.00  0.00    -0.248 NA
ATOM     39  C   UNL A   1      37.384  29.539  28.199  1.00  0.00     0.031 C 
ATOM     40  C   UNL A   1      41.071  29.522  30.705  1.00  0.00     0.029 A 
ATOM     41  N   UNL A   1      41.989  28.002  29.371  1.00  0.00    -0.354 N 
ATOM     42  C   UNL A   1      37.689  31.569  29.194  1.00  0.00     0.074 A 
ATOM     43  C   UNL A   1      36.758  30.668  28.566  1.00  0.00     0.031 C 
ATOM     44  C   UNL A   1      42.349  29.322  31.099  1.00  0.00     0.029 A 
ATOM     45  C   UNL A   1      43.041  28.601  30.035  1.00  0.00     0.049 A 
ATOM     46  H   UNL A   1      42.025  27.133  28.911  1.00  0.00     0.167 HD
ATOM     47  C   UNL A   1      37.598  32.585  30.099  1.00  0.00     0.034 A 
ATOM     48  C   UNL A   1      44.031  29.056  29.208  1.00  0.00     0.034 A 
ATOM     49  C   UNL A   1      38.917  32.831  30.690  1.00  0.00     0.049 A 
ATOM     50  C   UNL A   1      43.966  30.568  29.109  1.00  0.00     0.074 A 
ATOM     51  C   UNL A   1      39.500  32.482  31.896  1.00  0.00     0.029 A 
ATOM     52  N   UNL A   1      39.948  33.237  29.867  1.00  0.00    -0.354 N 
ATOM     53  N   UNL A   1      42.968  31.295  29.537  1.00  0.00    -0.248 NA
ATOM     54  C   UNL A   1      45.021  31.378  28.526  1.00  0.00     0.031 C 
ATOM     55  C   UNL A   1      40.909  32.676  31.770  1.00  0.00     0.029 A 
ATOM     56  C   UNL A   1      41.169  33.158  30.500  1.00  0.00     0.049 A 
ATOM     57  H   UNL A   1      39.826  33.544  28.940  1.00  0.00     0.167 HD
ATOM     58  C   UNL A   1      43.220  32.623  29.343  1.00  0.00     0.074 A 
ATOM     59  C   UNL A   1      44.506  32.614  28.655  1.00  0.00     0.031 C 
ATOM     60  C   UNL A   1      42.347  33.596  29.767  1.00  0.00     0.034 A 
BRANCH  47  61
ATOM     61  C   UNL A   1      36.352  33.216  30.678  1.00  0.00     0.023 A 
ATOM     62  C   UNL A   1      35.532  33.973  29.811  1.00  0.00     0.031 A 
ATOM     63  C   UNL A   1      35.876  33.094  31.997  1.00  0.00     0.131 A 
ATOM     64  C   UNL A   1      34.357  34.605  30.250  1.00  0.00     0.055 A 
ATOM     65  C   UNL A   1      34.708  33.739  32.444  1.00  0.00     0.041 A 
ATOM     66  F   UNL A   1      36.485  32.315  32.901  1.00  0.00    -0.206 F 
ATOM     67  C   UNL A   1      33.942  34.503  31.571  1.00  0.00     0.022 A 
BRANCH  64  68
ATOM     68  S   UNL A   1      33.383  35.549  29.048  1.00  0.00     0.124 S 
ATOM     69  O   UNL A   1      32.617  34.499  28.384  1.00  0.00    -0.237 OA
ATOM     70  O   UNL A   1      32.627  36.457  29.903  1.00  0.00    -0.237 OA
ATOM     71  O   UNL A   1      34.400  36.190  28.215  1.00  0.00    -0.744 OA
ENDBRANCH  64  68
ENDBRANCH  47  61
BRANCH  48  72
ATOM     72  C   UNL A   1      44.282  28.078  28.067  1.00  0.00     0.023 A 
ATOM     73  C   UNL A   1      44.581  26.735  28.424  1.00  0.00     0.031 A 
ATOM     74  C   UNL A   1      43.789  28.288  26.766  1.00  0.00     0.131 A 
ATOM     75  C   UNL A   1      44.229  25.664  27.579  1.00  0.00     0.055 A 
ATOM     76  C   UNL A   1      43.516  27.216  25.896  1.00  0.00     0.041 A 
ATOM     77  F   UNL A   1      43.439  29.516  26.356  1.00  0.00    -0.206 F 
ATOM     78  C   UNL A   1      43.696  25.896  26.313  1.00  0.00     0.022 A 
BRANCH  75  79
ATOM     79  S   UNL A   1      44.185  23.982  28.280  1.00  0.00     0.124 S 
ATOM     80  O   UNL A   1      45.177  24.068  29.345  1.00  0.00    -0.237 OA
ATOM     81  O   UNL A   1      42.792  23.862  28.708  1.00  0.00    -0.237 OA
ATOM     82  O   UNL A   1      44.546  23.129  27.150  1.00  0.00    -0.744 OA
ENDBRANCH  75  79
ENDBRANCH  48  72
BRANCH  60  83
ATOM     83  C   UNL A   1      42.494  35.079  29.501  1.00  0.00     0.023 A 
ATOM     84  C   UNL A   1      43.272  35.897  30.316  1.00  0.00     0.031 A 
ATOM     85  C   UNL A   1      41.843  35.742  28.425  1.00  0.00     0.131 A 
ATOM     86  C   UNL A   1      43.524  37.233  29.975  1.00  0.00     0.055 A 
ATOM     87  C   UNL A   1      42.029  37.092  28.130  1.00  0.00     0.041 A 
ATOM     88  F   UNL A   1      41.007  35.121  27.584  1.00  0.00    -0.206 F 
ATOM     89  C   UNL A   1      42.905  37.843  28.889  1.00  0.00     0.022 A 
BRANCH  86  90
ATOM     90  S   UNL A   1      44.742  38.124  30.963  1.00  0.00     0.124 S 
ATOM     91  O   UNL A   1      45.557  37.041  31.507  1.00  0.00    -0.237 OA
ATOM     92  O   UNL A   1      45.392  38.955  29.953  1.00  0.00    -0.237 OA
ATOM     93  O   UNL A   1      43.931  38.846  31.939  1.00  0.00    -0.744 OA
ENDBRANCH  86  90
ENDBRANCH  60  83
ENDBRANCH  34  35
ENDBRANCH  27  29
ENDBRANCH  26  27
ENDBRANCH  25  26
ENDBRANCH   1  25
TORSDOF 18
ENDMDL
