MODEL 1
REMARK VINA RESULT:     -12.7      0.000      0.000
REMARK SMILES O=C(OCCOC(=O)[C@H]1CC=CC[C@@H]1C(=O)N[C@@H]1CCCN(c2ccccc2F)C1=O)c1ccc(-c2c3nc(c(-c4cc(S(=O)(=O)[O-])ccc4F)c4ccc([nH]4)c(-c4cc(S(=O)(=O)[O-])ccc4F)c4nc(c(-c5cc(S(=O)(=O)[O-])ccc5F)c5ccc2[nH]5)C=C4)C=C3)cc1
REMARK SMILES IDX 4 1 3 2 2 3 1 4 32 5 33 6 94 7 34 8 93 9 35 10 36 11 37 12
REMARK SMILES IDX 87 13 38 14 92 15 86 16 88 17 39 18 91 19 85 20 84 21 40 23
REMARK SMILES IDX 72 24 52 25 71 26 53 27 56 28 70 29 89 30 54 31 55 32 69 34
REMARK SMILES IDX 90 35 57 36 41 37 42 38 50 39 43 40 49 41 51 42 48 43 44 44
REMARK SMILES IDX 45 45 46 46 47 47 73 48 74 49 82 50 75 51 81 52 83 53 80 54
REMARK SMILES IDX 76 55 77 56 78 57 79 58 58 59 59 60 67 61 60 62 66 63 68 64
REMARK SMILES IDX 65 65 61 66 62 67 63 68 64 69 5 70 6 71 7 72 8 73 9 74 10 75
REMARK SMILES IDX 14 76 11 77 13 78 12 79 15 80 16 81 17 82 18 84 19 85 30 86
REMARK SMILES IDX 20 87 22 88 31 89 21 90 23 91 24 92 28 93 25 94 27 95 29 96
REMARK SMILES IDX 26 97
REMARK H PARENT 88 22 56 33 17 83
REMARK Flexibility Score: inf
ROOT
ATOM      1  C   UNL A   1      32.123  30.499  26.793  1.00  0.00     0.275 C 
ENDROOT
BRANCH   1   2
ATOM      2  O   UNL A   1      33.559  30.364  26.744  1.00  0.00    -0.458 OA
BRANCH   2   3
ATOM      3  C   UNL A   1      34.549  31.034  27.385  1.00  0.00     0.338 C 
ATOM      4  O   UNL A   1      34.513  32.264  27.377  1.00  0.00    -0.246 OA
BRANCH   3   5
ATOM      5  C   UNL A   1      35.747  30.387  28.019  1.00  0.00     0.060 A 
ATOM      6  C   UNL A   1      35.786  29.799  29.285  1.00  0.00     0.016 A 
ATOM      7  C   UNL A   1      36.935  30.375  27.259  1.00  0.00     0.016 A 
ATOM      8  C   UNL A   1      36.934  29.130  29.739  1.00  0.00     0.010 A 
ATOM      9  C   UNL A   1      38.080  29.698  27.701  1.00  0.00     0.010 A 
ATOM     10  C   UNL A   1      38.081  29.053  28.947  1.00  0.00    -0.014 A 
BRANCH  10  11
ATOM     11  C   UNL A   1      39.326  28.456  29.495  1.00  0.00     0.031 A 
ATOM     12  C   UNL A   1      39.928  29.124  30.697  1.00  0.00     0.074 A 
ATOM     13  C   UNL A   1      39.861  27.314  29.011  1.00  0.00     0.049 A 
ATOM     14  N   UNL A   1      40.926  28.723  31.435  1.00  0.00    -0.248 NA
ATOM     15  C   UNL A   1      39.276  30.355  31.176  1.00  0.00     0.031 C 
ATOM     16  C   UNL A   1      39.272  26.472  27.973  1.00  0.00     0.029 A 
ATOM     17  N   UNL A   1      41.028  26.655  29.318  1.00  0.00    -0.354 N 
ATOM     18  C   UNL A   1      40.940  29.580  32.526  1.00  0.00     0.074 A 
ATOM     19  C   UNL A   1      39.946  30.601  32.291  1.00  0.00     0.031 C 
ATOM     20  C   UNL A   1      40.120  25.477  27.652  1.00  0.00     0.029 A 
ATOM     21  C   UNL A   1      41.309  25.589  28.485  1.00  0.00     0.049 A 
ATOM     22  H   UNL A   1      41.613  26.919  30.064  1.00  0.00     0.167 HD
ATOM     23  C   UNL A   1      41.667  29.469  33.660  1.00  0.00     0.034 A 
ATOM     24  C   UNL A   1      42.406  24.808  28.407  1.00  0.00     0.034 A 
ATOM     25  C   UNL A   1      42.694  28.482  33.836  1.00  0.00     0.049 A 
ATOM     26  C   UNL A   1      43.428  24.941  29.496  1.00  0.00     0.074 A 
ATOM     27  C   UNL A   1      43.511  28.269  34.929  1.00  0.00     0.029 A 
ATOM     28  N   UNL A   1      43.072  27.563  32.863  1.00  0.00    -0.354 N 
ATOM     29  N   UNL A   1      43.414  25.746  30.530  1.00  0.00    -0.248 NA
ATOM     30  C   UNL A   1      44.560  24.007  29.461  1.00  0.00     0.031 C 
ATOM     31  C   UNL A   1      44.441  27.284  34.584  1.00  0.00     0.029 A 
ATOM     32  C   UNL A   1      44.152  26.825  33.307  1.00  0.00     0.049 A 
ATOM     33  H   UNL A   1      42.634  27.454  31.988  1.00  0.00     0.167 HD
ATOM     34  C   UNL A   1      44.484  25.355  31.322  1.00  0.00     0.074 A 
ATOM     35  C   UNL A   1      45.165  24.292  30.606  1.00  0.00     0.031 C 
ATOM     36  C   UNL A   1      44.824  25.790  32.559  1.00  0.00     0.034 A 
BRANCH  23  37
ATOM     37  C   UNL A   1      41.374  30.455  34.755  1.00  0.00     0.023 A 
ATOM     38  C   UNL A   1      40.102  30.515  35.356  1.00  0.00     0.031 A 
ATOM     39  C   UNL A   1      42.347  31.375  35.168  1.00  0.00     0.131 A 
ATOM     40  C   UNL A   1      39.819  31.519  36.294  1.00  0.00     0.055 A 
ATOM     41  C   UNL A   1      42.080  32.332  36.148  1.00  0.00     0.041 A 
ATOM     42  F   UNL A   1      43.566  31.377  34.606  1.00  0.00    -0.206 F 
ATOM     43  C   UNL A   1      40.807  32.416  36.709  1.00  0.00     0.022 A 
BRANCH  40  44
ATOM     44  S   UNL A   1      38.113  31.708  36.880  1.00  0.00     0.124 S 
ATOM     45  O   UNL A   1      38.266  32.741  37.903  1.00  0.00    -0.237 OA
ATOM     46  O   UNL A   1      37.404  32.109  35.671  1.00  0.00    -0.237 OA
ATOM     47  O   UNL A   1      37.778  30.379  37.389  1.00  0.00    -0.744 OA
ENDBRANCH  40  44
ENDBRANCH  23  37
BRANCH  24  48
ATOM     48  C   UNL A   1      42.630  23.855  27.283  1.00  0.00     0.023 A 
ATOM     49  C   UNL A   1      42.285  22.500  27.356  1.00  0.00     0.031 A 
ATOM     50  C   UNL A   1      43.260  24.308  26.109  1.00  0.00     0.131 A 
ATOM     51  C   UNL A   1      42.542  21.657  26.258  1.00  0.00     0.055 A 
ATOM     52  C   UNL A   1      43.465  23.480  25.002  1.00  0.00     0.041 A 
ATOM     53  F   UNL A   1      43.677  25.578  26.018  1.00  0.00    -0.206 F 
ATOM     54  C   UNL A   1      43.092  22.145  25.069  1.00  0.00     0.022 A 
BRANCH  51  55
ATOM     55  S   UNL A   1      42.173  19.886  26.395  1.00  0.00     0.124 S 
ATOM     56  O   UNL A   1      43.421  19.294  25.927  1.00  0.00    -0.237 OA
ATOM     57  O   UNL A   1      41.882  19.744  27.818  1.00  0.00    -0.237 OA
ATOM     58  O   UNL A   1      41.022  19.714  25.513  1.00  0.00    -0.744 OA
ENDBRANCH  51  55
ENDBRANCH  24  48
BRANCH  36  59
ATOM     59  C   UNL A   1      45.951  25.078  33.244  1.00  0.00     0.023 A 
ATOM     60  C   UNL A   1      45.732  23.917  33.996  1.00  0.00     0.031 A 
ATOM     61  C   UNL A   1      47.269  25.538  33.073  1.00  0.00     0.131 A 
ATOM     62  C   UNL A   1      46.825  23.253  34.565  1.00  0.00     0.055 A 
ATOM     63  C   UNL A   1      48.355  24.841  33.596  1.00  0.00     0.041 A 
ATOM     64  F   UNL A   1      47.517  26.652  32.365  1.00  0.00    -0.206 F 
ATOM     65  C   UNL A   1      48.136  23.691  34.349  1.00  0.00     0.022 A 
BRANCH  62  66
ATOM     66  S   UNL A   1      46.506  21.812  35.614  1.00  0.00     0.124 S 
ATOM     67  O   UNL A   1      47.860  21.356  35.911  1.00  0.00    -0.237 OA
ATOM     68  O   UNL A   1      45.770  22.391  36.733  1.00  0.00    -0.237 OA
ATOM     69  O   UNL A   1      45.726  20.928  34.751  1.00  0.00    -0.744 OA
ENDBRANCH  62  66
ENDBRANCH  36  59
ENDBRANCH  10  11
ENDBRANCH   3   5
ENDBRANCH   2   3
ENDBRANCH   1   2
BRANCH   1  70
ATOM     70  C   UNL A   1      31.422  30.326  25.448  1.00  0.00     0.274 C 
BRANCH  70  71
ATOM     71  O   UNL A   1      32.239  29.591  24.542  1.00  0.00    -0.462 OA
BRANCH  71  72
ATOM     72  C   UNL A   1      31.631  28.900  23.532  1.00  0.00     0.310 C 
ATOM     73  O   UNL A   1      31.495  29.318  22.395  1.00  0.00    -0.252 OA
BRANCH  72  74
ATOM     74  C   UNL A   1      31.220  27.505  24.021  1.00  0.00     0.115 C 
ATOM     75  C   UNL A   1      31.191  26.530  22.841  1.00  0.00     0.043 C 
ATOM     76  C   UNL A   1      32.137  27.002  25.145  1.00  0.00     0.097 C 
ATOM     77  C   UNL A   1      32.564  26.106  22.417  1.00  0.00    -0.030 C 
ATOM     78  C   UNL A   1      33.551  26.704  24.640  1.00  0.00     0.041 C 
ATOM     79  C   UNL A   1      33.628  26.222  23.221  1.00  0.00    -0.030 C 
BRANCH  76  80
ATOM     80  C   UNL A   1      31.440  25.992  26.087  1.00  0.00     0.224 C 
ATOM     81  O   UNL A   1      30.662  26.433  26.946  1.00  0.00    -0.275 OA
ATOM     82  N   UNL A   1      31.524  24.638  26.035  1.00  0.00    -0.344 N 
ATOM     83  H   UNL A   1      30.959  24.175  26.696  1.00  0.00     0.164 HD
BRANCH  82  84
ATOM     84  C   UNL A   1      32.292  23.747  25.185  1.00  0.00     0.172 C 
ATOM     85  C   UNL A   1      31.467  22.665  24.513  1.00  0.00     0.037 C 
ATOM     86  C   UNL A   1      33.467  23.060  25.883  1.00  0.00     0.249 C 
ATOM     87  C   UNL A   1      32.317  22.134  23.374  1.00  0.00     0.025 C 
ATOM     88  N   UNL A   1      34.326  22.455  24.949  1.00  0.00    -0.308 N 
ATOM     89  O   UNL A   1      33.635  23.194  27.089  1.00  0.00    -0.272 OA
ATOM     90  C   UNL A   1      33.754  21.768  23.782  1.00  0.00     0.126 C 
BRANCH  88  91
ATOM     91  C   UNL A   1      35.757  22.459  25.137  1.00  0.00     0.080 A 
ATOM     92  C   UNL A   1      36.433  23.677  25.351  1.00  0.00     0.029 A 
ATOM     93  C   UNL A   1      36.521  21.287  25.274  1.00  0.00     0.146 A 
ATOM     94  C   UNL A   1      37.776  23.709  25.756  1.00  0.00     0.002 A 
ATOM     95  C   UNL A   1      37.854  21.315  25.687  1.00  0.00     0.041 A 
ATOM     96  F   UNL A   1      36.037  20.086  24.928  1.00  0.00    -0.205 F 
ATOM     97  C   UNL A   1      38.481  22.526  25.947  1.00  0.00     0.003 A 
ENDBRANCH  88  91
ENDBRANCH  82  84
ENDBRANCH  76  80
ENDBRANCH  72  74
ENDBRANCH  71  72
ENDBRANCH  70  71
ENDBRANCH   1  70
TORSDOF 17
ENDMDL
MODEL 2
REMARK VINA RESULT:     -12.7      1.426      1.748
REMARK SMILES O=C(OCCOC(=O)[C@H]1CC=CC[C@@H]1C(=O)N[C@@H]1CCCN(c2ccccc2F)C1=O)c1ccc(-c2c3nc(c(-c4cc(S(=O)(=O)[O-])ccc4F)c4ccc([nH]4)c(-c4cc(S(=O)(=O)[O-])ccc4F)c4nc(c(-c5cc(S(=O)(=O)[O-])ccc5F)c5ccc2[nH]5)C=C4)C=C3)cc1
REMARK SMILES IDX 4 1 3 2 2 3 1 4 32 5 33 6 94 7 34 8 93 9 35 10 36 11 37 12
REMARK SMILES IDX 87 13 38 14 92 15 86 16 88 17 39 18 91 19 85 20 84 21 40 23
REMARK SMILES IDX 72 24 52 25 71 26 53 27 56 28 70 29 89 30 54 31 55 32 69 34
REMARK SMILES IDX 90 35 57 36 41 37 42 38 50 39 43 40 49 41 51 42 48 43 44 44
REMARK SMILES IDX 45 45 46 46 47 47 73 48 74 49 82 50 75 51 81 52 83 53 80 54
REMARK SMILES IDX 76 55 77 56 78 57 79 58 58 59 59 60 67 61 60 62 66 63 68 64
REMARK SMILES IDX 65 65 61 66 62 67 63 68 64 69 5 70 6 71 7 72 8 73 9 74 10 75
REMARK SMILES IDX 14 76 11 77 13 78 12 79 15 80 16 81 17 82 18 84 19 85 30 86
REMARK SMILES IDX 20 87 22 88 31 89 21 90 23 91 24 92 28 93 25 94 27 95 29 96
REMARK SMILES IDX 26 97
REMARK H PARENT 88 22 56 33 17 83
REMARK Flexibility Score: inf
ROOT
ATOM      1  C   UNL A   1      31.960  30.552  26.782  1.00  0.00     0.275 C 
ENDROOT
BRANCH   1   2
ATOM      2  O   UNL A   1      33.368  30.256  26.891  1.00  0.00    -0.458 OA
BRANCH   2   3
ATOM      3  C   UNL A   1      34.396  30.953  27.438  1.00  0.00     0.338 C 
ATOM      4  O   UNL A   1      34.366  32.182  27.359  1.00  0.00    -0.246 OA
BRANCH   3   5
ATOM      5  C   UNL A   1      35.623  30.334  28.042  1.00  0.00     0.060 A 
ATOM      6  C   UNL A   1      35.698  29.721  29.295  1.00  0.00     0.016 A 
ATOM      7  C   UNL A   1      36.800  30.377  27.267  1.00  0.00     0.016 A 
ATOM      8  C   UNL A   1      36.874  29.082  29.721  1.00  0.00     0.010 A 
ATOM      9  C   UNL A   1      37.973  29.729  27.681  1.00  0.00     0.010 A 
ATOM     10  C   UNL A   1      38.012  29.059  28.912  1.00  0.00    -0.014 A 
BRANCH  10  11
ATOM     11  C   UNL A   1      39.283  28.493  29.432  1.00  0.00     0.031 A 
ATOM     12  C   UNL A   1      39.901  29.182  30.614  1.00  0.00     0.074 A 
ATOM     13  C   UNL A   1      39.830  27.358  28.942  1.00  0.00     0.049 A 
ATOM     14  N   UNL A   1      40.926  28.807  31.328  1.00  0.00    -0.248 NA
ATOM     15  C   UNL A   1      39.235  30.402  31.102  1.00  0.00     0.031 C 
ATOM     16  C   UNL A   1      39.232  26.497  27.925  1.00  0.00     0.029 A 
ATOM     17  N   UNL A   1      41.018  26.727  29.223  1.00  0.00    -0.354 N 
ATOM     18  C   UNL A   1      40.950  29.672  32.413  1.00  0.00     0.074 A 
ATOM     19  C   UNL A   1      39.929  30.670  32.197  1.00  0.00     0.031 C 
ATOM     20  C   UNL A   1      40.093  25.518  27.589  1.00  0.00     0.029 A 
ATOM     21  C   UNL A   1      41.300  25.661  28.390  1.00  0.00     0.049 A 
ATOM     22  H   UNL A   1      41.616  27.009  29.952  1.00  0.00     0.167 HD
ATOM     23  C   UNL A   1      41.708  29.585  33.529  1.00  0.00     0.034 A 
ATOM     24  C   UNL A   1      42.412  24.903  28.289  1.00  0.00     0.034 A 
ATOM     25  C   UNL A   1      42.760  28.621  33.685  1.00  0.00     0.049 A 
ATOM     26  C   UNL A   1      43.458  25.065  29.350  1.00  0.00     0.074 A 
ATOM     27  C   UNL A   1      43.609  28.433  34.757  1.00  0.00     0.029 A 
ATOM     28  N   UNL A   1      43.132  27.703  32.709  1.00  0.00    -0.354 N 
ATOM     29  N   UNL A   1      43.453  25.878  30.379  1.00  0.00    -0.248 NA
ATOM     30  C   UNL A   1      44.608  24.156  29.292  1.00  0.00     0.031 C 
ATOM     31  C   UNL A   1      44.551  27.466  34.395  1.00  0.00     0.029 A 
ATOM     32  C   UNL A   1      44.239  26.992  33.128  1.00  0.00     0.049 A 
ATOM     33  H   UNL A   1      42.675  27.579  31.845  1.00  0.00     0.167 HD
ATOM     34  C   UNL A   1      44.551  25.515  31.145  1.00  0.00     0.074 A 
ATOM     35  C   UNL A   1      45.237  24.461  30.419  1.00  0.00     0.031 C 
ATOM     36  C   UNL A   1      44.913  25.966  32.370  1.00  0.00     0.034 A 
BRANCH  23  37
ATOM     37  C   UNL A   1      41.422  30.572  34.625  1.00  0.00     0.023 A 
ATOM     38  C   UNL A   1      40.206  30.538  35.333  1.00  0.00     0.031 A 
ATOM     39  C   UNL A   1      42.341  31.585  34.932  1.00  0.00     0.131 A 
ATOM     40  C   UNL A   1      39.915  31.539  36.271  1.00  0.00     0.055 A 
ATOM     41  C   UNL A   1      42.073  32.542  35.911  1.00  0.00     0.041 A 
ATOM     42  F   UNL A   1      43.502  31.677  34.265  1.00  0.00    -0.206 F 
ATOM     43  C   UNL A   1      40.850  32.531  36.579  1.00  0.00     0.022 A 
BRANCH  40  44
ATOM     44  S   UNL A   1      38.255  31.595  37.000  1.00  0.00     0.124 S 
ATOM     45  O   UNL A   1      37.544  32.446  36.048  1.00  0.00    -0.237 OA
ATOM     46  O   UNL A   1      37.866  30.190  37.011  1.00  0.00    -0.237 OA
ATOM     47  O   UNL A   1      38.479  32.191  38.315  1.00  0.00    -0.744 OA
ENDBRANCH  40  44
ENDBRANCH  23  37
BRANCH  24  48
ATOM     48  C   UNL A   1      42.627  23.947  27.166  1.00  0.00     0.023 A 
ATOM     49  C   UNL A   1      42.334  22.582  27.264  1.00  0.00     0.031 A 
ATOM     50  C   UNL A   1      43.195  24.410  25.964  1.00  0.00     0.131 A 
ATOM     51  C   UNL A   1      42.579  21.737  26.164  1.00  0.00     0.055 A 
ATOM     52  C   UNL A   1      43.387  23.579  24.858  1.00  0.00     0.041 A 
ATOM     53  F   UNL A   1      43.561  25.694  25.845  1.00  0.00    -0.206 F 
ATOM     54  C   UNL A   1      43.066  22.232  24.951  1.00  0.00     0.022 A 
BRANCH  51  55
ATOM     55  S   UNL A   1      42.281  19.956  26.332  1.00  0.00     0.124 S 
ATOM     56  O   UNL A   1      41.986  19.845  27.756  1.00  0.00    -0.237 OA
ATOM     57  O   UNL A   1      41.162  19.745  25.420  1.00  0.00    -0.237 OA
ATOM     58  O   UNL A   1      43.544  19.362  25.902  1.00  0.00    -0.744 OA
ENDBRANCH  51  55
ENDBRANCH  24  48
BRANCH  36  59
ATOM     59  C   UNL A   1      46.073  25.283  33.031  1.00  0.00     0.023 A 
ATOM     60  C   UNL A   1      47.392  25.690  32.793  1.00  0.00     0.031 A 
ATOM     61  C   UNL A   1      45.836  24.261  33.967  1.00  0.00     0.131 A 
ATOM     62  C   UNL A   1      48.437  25.064  33.481  1.00  0.00     0.055 A 
ATOM     63  C   UNL A   1      46.877  23.681  34.688  1.00  0.00     0.041 A 
ATOM     64  F   UNL A   1      44.586  23.840  34.216  1.00  0.00    -0.206 F 
ATOM     65  C   UNL A   1      48.187  24.081  34.445  1.00  0.00     0.022 A 
BRANCH  62  66
ATOM     66  S   UNL A   1      50.138  25.538  33.081  1.00  0.00     0.124 S 
ATOM     67  O   UNL A   1      49.953  26.887  32.552  1.00  0.00    -0.237 OA
ATOM     68  O   UNL A   1      50.806  25.448  34.375  1.00  0.00    -0.237 OA
ATOM     69  O   UNL A   1      50.550  24.536  32.100  1.00  0.00    -0.744 OA
ENDBRANCH  62  66
ENDBRANCH  36  59
ENDBRANCH  10  11
ENDBRANCH   3   5
ENDBRANCH   2   3
ENDBRANCH   1   2
BRANCH   1  70
ATOM     70  C   UNL A   1      31.400  30.464  25.366  1.00  0.00     0.274 C 
BRANCH  70  71
ATOM     71  O   UNL A   1      32.192  29.597  24.560  1.00  0.00    -0.462 OA
BRANCH  71  72
ATOM     72  C   UNL A   1      31.585  28.924  23.538  1.00  0.00     0.310 C 
ATOM     73  O   UNL A   1      31.452  29.361  22.408  1.00  0.00    -0.252 OA
BRANCH  72  74
ATOM     74  C   UNL A   1      31.171  27.521  24.002  1.00  0.00     0.115 C 
ATOM     75  C   UNL A   1      31.179  26.559  22.812  1.00  0.00     0.043 C 
ATOM     76  C   UNL A   1      32.064  27.013  25.144  1.00  0.00     0.097 C 
ATOM     77  C   UNL A   1      32.565  26.148  22.418  1.00  0.00    -0.030 C 
ATOM     78  C   UNL A   1      33.492  26.729  24.672  1.00  0.00     0.041 C 
ATOM     79  C   UNL A   1      33.607  26.262  23.250  1.00  0.00    -0.030 C 
BRANCH  76  80
ATOM     80  C   UNL A   1      31.349  25.989  26.057  1.00  0.00     0.224 C 
ATOM     81  O   UNL A   1      30.550  26.416  26.903  1.00  0.00    -0.275 OA
ATOM     82  N   UNL A   1      31.441  24.636  25.992  1.00  0.00    -0.344 N 
ATOM     83  H   UNL A   1      30.863  24.163  26.635  1.00  0.00     0.164 HD
BRANCH  82  84
ATOM     84  C   UNL A   1      32.233  23.759  25.150  1.00  0.00     0.172 C 
ATOM     85  C   UNL A   1      31.413  22.800  24.306  1.00  0.00     0.037 C 
ATOM     86  C   UNL A   1      33.276  22.930  25.900  1.00  0.00     0.249 C 
ATOM     87  C   UNL A   1      32.342  22.297  23.218  1.00  0.00     0.025 C 
ATOM     88  N   UNL A   1      34.188  22.336  25.010  1.00  0.00    -0.308 N 
ATOM     89  O   UNL A   1      33.323  22.954  27.125  1.00  0.00    -0.272 OA
ATOM     90  C   UNL A   1      33.698  21.790  23.735  1.00  0.00     0.126 C 
BRANCH  88  91
ATOM     91  C   UNL A   1      35.587  22.214  25.340  1.00  0.00     0.080 A 
ATOM     92  C   UNL A   1      36.224  20.961  25.245  1.00  0.00     0.029 A 
ATOM     93  C   UNL A   1      36.414  23.317  25.613  1.00  0.00     0.146 A 
ATOM     94  C   UNL A   1      37.618  20.838  25.339  1.00  0.00     0.002 A 
ATOM     95  C   UNL A   1      37.803  23.200  25.697  1.00  0.00     0.041 A 
ATOM     96  F   UNL A   1      35.908  24.525  25.897  1.00  0.00    -0.205 F 
ATOM     97  C   UNL A   1      38.411  21.962  25.542  1.00  0.00     0.003 A 
ENDBRANCH  88  91
ENDBRANCH  82  84
ENDBRANCH  76  80
ENDBRANCH  72  74
ENDBRANCH  71  72
ENDBRANCH  70  71
ENDBRANCH   1  70
TORSDOF 17
ENDMDL
MODEL 3
REMARK VINA RESULT:     -12.6      4.868     10.141
REMARK SMILES O=C(OCCOC(=O)[C@H]1CC=CC[C@@H]1C(=O)N[C@@H]1CCCN(c2ccccc2F)C1=O)c1ccc(-c2c3nc(c(-c4cc(S(=O)(=O)[O-])ccc4F)c4ccc([nH]4)c(-c4cc(S(=O)(=O)[O-])ccc4F)c4nc(c(-c5cc(S(=O)(=O)[O-])ccc5F)c5ccc2[nH]5)C=C4)C=C3)cc1
REMARK SMILES IDX 4 1 3 2 2 3 1 4 32 5 33 6 94 7 34 8 93 9 35 10 36 11 37 12
REMARK SMILES IDX 87 13 38 14 92 15 86 16 88 17 39 18 91 19 85 20 84 21 40 23
REMARK SMILES IDX 72 24 52 25 71 26 53 27 56 28 70 29 89 30 54 31 55 32 69 34
REMARK SMILES IDX 90 35 57 36 41 37 42 38 50 39 43 40 49 41 51 42 48 43 44 44
REMARK SMILES IDX 45 45 46 46 47 47 73 48 74 49 82 50 75 51 81 52 83 53 80 54
REMARK SMILES IDX 76 55 77 56 78 57 79 58 58 59 59 60 67 61 60 62 66 63 68 64
REMARK SMILES IDX 65 65 61 66 62 67 63 68 64 69 5 70 6 71 7 72 8 73 9 74 10 75
REMARK SMILES IDX 14 76 11 77 13 78 12 79 15 80 16 81 17 82 18 84 19 85 30 86
REMARK SMILES IDX 20 87 22 88 31 89 21 90 23 91 24 92 28 93 25 94 27 95 29 96
REMARK SMILES IDX 26 97
REMARK H PARENT 88 22 56 33 17 83
REMARK Flexibility Score: inf
ROOT
ATOM      1  C   UNL A   1      37.268  21.460  24.641  1.00  0.00     0.275 C 
ENDROOT
BRANCH   1   2
ATOM      2  O   UNL A   1      37.643  22.431  25.641  1.00  0.00    -0.458 OA
BRANCH   2   3
ATOM      3  C   UNL A   1      38.827  22.683  26.253  1.00  0.00     0.338 C 
ATOM      4  O   UNL A   1      39.618  21.749  26.388  1.00  0.00    -0.246 OA
BRANCH   3   5
ATOM      5  C   UNL A   1      39.205  23.997  26.872  1.00  0.00     0.060 A 
ATOM      6  C   UNL A   1      38.919  24.400  28.179  1.00  0.00     0.016 A 
ATOM      7  C   UNL A   1      39.916  24.900  26.055  1.00  0.00     0.016 A 
ATOM      8  C   UNL A   1      39.410  25.612  28.689  1.00  0.00     0.010 A 
ATOM      9  C   UNL A   1      40.420  26.106  26.563  1.00  0.00     0.010 A 
ATOM     10  C   UNL A   1      40.183  26.464  27.898  1.00  0.00    -0.014 A 
BRANCH  10  11
ATOM     11  C   UNL A   1      40.582  27.799  28.412  1.00  0.00     0.031 A 
ATOM     12  C   UNL A   1      42.049  28.031  28.632  1.00  0.00     0.074 A 
ATOM     13  C   UNL A   1      39.698  28.805  28.592  1.00  0.00     0.049 A 
ATOM     14  N   UNL A   1      42.658  29.142  28.944  1.00  0.00    -0.248 NA
ATOM     15  C   UNL A   1      42.951  26.891  28.396  1.00  0.00     0.031 C 
ATOM     16  C   UNL A   1      38.282  28.766  28.238  1.00  0.00     0.029 A 
ATOM     17  N   UNL A   1      39.849  30.063  29.125  1.00  0.00    -0.354 N 
ATOM     18  C   UNL A   1      44.011  28.863  28.819  1.00  0.00     0.074 A 
ATOM     19  C   UNL A   1      44.141  27.452  28.540  1.00  0.00     0.031 C 
ATOM     20  C   UNL A   1      37.672  29.890  28.658  1.00  0.00     0.029 A 
ATOM     21  C   UNL A   1      38.662  30.752  29.287  1.00  0.00     0.049 A 
ATOM     22  H   UNL A   1      40.725  30.440  29.370  1.00  0.00     0.167 HD
ATOM     23  C   UNL A   1      45.046  29.732  28.856  1.00  0.00     0.034 A 
ATOM     24  C   UNL A   1      38.416  31.936  29.884  1.00  0.00     0.034 A 
ATOM     25  C   UNL A   1      44.890  31.117  29.201  1.00  0.00     0.049 A 
ATOM     26  C   UNL A   1      39.597  32.773  30.275  1.00  0.00     0.074 A 
ATOM     27  C   UNL A   1      45.856  32.100  29.286  1.00  0.00     0.029 A 
ATOM     28  N   UNL A   1      43.682  31.703  29.562  1.00  0.00    -0.354 N 
ATOM     29  N   UNL A   1      40.870  32.498  30.133  1.00  0.00    -0.248 NA
ATOM     30  C   UNL A   1      39.314  34.106  30.820  1.00  0.00     0.031 C 
ATOM     31  C   UNL A   1      45.248  33.256  29.786  1.00  0.00     0.029 A 
ATOM     32  C   UNL A   1      43.889  33.018  29.934  1.00  0.00     0.049 A 
ATOM     33  H   UNL A   1      42.808  31.249  29.554  1.00  0.00     0.167 HD
ATOM     34  C   UNL A   1      41.544  33.659  30.481  1.00  0.00     0.074 A 
ATOM     35  C   UNL A   1      40.537  34.611  30.914  1.00  0.00     0.031 C 
ATOM     36  C   UNL A   1      42.867  33.932  30.383  1.00  0.00     0.034 A 
BRANCH  23  37
ATOM     37  C   UNL A   1      46.407  29.184  28.535  1.00  0.00     0.023 A 
ATOM     38  C   UNL A   1      46.798  28.943  27.205  1.00  0.00     0.031 A 
ATOM     39  C   UNL A   1      47.302  28.848  29.561  1.00  0.00     0.131 A 
ATOM     40  C   UNL A   1      48.028  28.324  26.939  1.00  0.00     0.055 A 
ATOM     41  C   UNL A   1      48.551  28.291  29.288  1.00  0.00     0.041 A 
ATOM     42  F   UNL A   1      46.964  29.032  30.847  1.00  0.00    -0.206 F 
ATOM     43  C   UNL A   1      48.917  28.014  27.972  1.00  0.00     0.022 A 
BRANCH  40  44
ATOM     44  S   UNL A   1      48.403  27.826  25.236  1.00  0.00     0.124 S 
ATOM     45  O   UNL A   1      49.660  28.530  24.993  1.00  0.00    -0.237 OA
ATOM     46  O   UNL A   1      48.497  26.374  25.343  1.00  0.00    -0.237 OA
ATOM     47  O   UNL A   1      47.258  28.323  24.475  1.00  0.00    -0.744 OA
ENDBRANCH  40  44
ENDBRANCH  23  37
BRANCH  24  48
ATOM     48  C   UNL A   1      37.033  32.411  30.175  1.00  0.00     0.023 A 
ATOM     49  C   UNL A   1      36.273  33.145  29.256  1.00  0.00     0.031 A 
ATOM     50  C   UNL A   1      36.470  32.164  31.440  1.00  0.00     0.131 A 
ATOM     51  C   UNL A   1      34.979  33.573  29.608  1.00  0.00     0.055 A 
ATOM     52  C   UNL A   1      35.166  32.545  31.767  1.00  0.00     0.041 A 
ATOM     53  F   UNL A   1      37.184  31.530  32.381  1.00  0.00    -0.206 F 
ATOM     54  C   UNL A   1      34.406  33.245  30.840  1.00  0.00     0.022 A 
BRANCH  51  55
ATOM     55  S   UNL A   1      34.038  34.599  28.445  1.00  0.00     0.124 S 
ATOM     56  O   UNL A   1      32.798  33.841  28.328  1.00  0.00    -0.237 OA
ATOM     57  O   UNL A   1      33.956  35.871  29.156  1.00  0.00    -0.237 OA
ATOM     58  O   UNL A   1      34.883  34.615  27.253  1.00  0.00    -0.744 OA
ENDBRANCH  51  55
ENDBRANCH  24  48
BRANCH  36  59
ATOM     59  C   UNL A   1      43.298  35.333  30.696  1.00  0.00     0.023 A 
ATOM     60  C   UNL A   1      43.296  36.333  29.716  1.00  0.00     0.031 A 
ATOM     61  C   UNL A   1      43.644  35.676  32.015  1.00  0.00     0.131 A 
ATOM     62  C   UNL A   1      43.647  37.641  30.070  1.00  0.00     0.055 A 
ATOM     63  C   UNL A   1      43.939  36.989  32.371  1.00  0.00     0.041 A 
ATOM     64  F   UNL A   1      43.665  34.742  32.979  1.00  0.00    -0.206 F 
ATOM     65  C   UNL A   1      43.942  37.981  31.395  1.00  0.00     0.022 A 
BRANCH  62  66
ATOM     66  S   UNL A   1      43.733  38.894  28.766  1.00  0.00     0.124 S 
ATOM     67  O   UNL A   1      44.341  40.017  29.473  1.00  0.00    -0.237 OA
ATOM     68  O   UNL A   1      44.569  38.248  27.760  1.00  0.00    -0.237 OA
ATOM     69  O   UNL A   1      42.335  39.083  28.382  1.00  0.00    -0.744 OA
ENDBRANCH  62  66
ENDBRANCH  36  59
ENDBRANCH  10  11
ENDBRANCH   3   5
ENDBRANCH   2   3
ENDBRANCH   1   2
BRANCH   1  70
ATOM     70  C   UNL A   1      36.387  20.325  25.155  1.00  0.00     0.274 C 
BRANCH  70  71
ATOM     71  O   UNL A   1      35.078  20.409  24.599  1.00  0.00    -0.462 OA
BRANCH  71  72
ATOM     72  C   UNL A   1      34.081  20.945  25.364  1.00  0.00     0.310 C 
ATOM     73  O   UNL A   1      33.916  20.705  26.548  1.00  0.00    -0.252 OA
BRANCH  72  74
ATOM     74  C   UNL A   1      33.258  21.941  24.536  1.00  0.00     0.115 C 
ATOM     75  C   UNL A   1      32.034  22.392  25.336  1.00  0.00     0.043 C 
ATOM     76  C   UNL A   1      34.105  23.137  24.078  1.00  0.00     0.097 C 
ATOM     77  C   UNL A   1      32.382  23.386  26.402  1.00  0.00    -0.030 C 
ATOM     78  C   UNL A   1      34.511  24.033  25.251  1.00  0.00     0.041 C 
ATOM     79  C   UNL A   1      33.517  24.094  26.374  1.00  0.00    -0.030 C 
BRANCH  76  80
ATOM     80  C   UNL A   1      33.580  23.785  22.775  1.00  0.00     0.224 C 
ATOM     81  O   UNL A   1      33.986  23.336  21.693  1.00  0.00    -0.275 OA
ATOM     82  N   UNL A   1      32.646  24.764  22.671  1.00  0.00    -0.344 N 
ATOM     83  H   UNL A   1      32.414  25.001  21.744  1.00  0.00     0.164 HD
BRANCH  82  84
ATOM     84  C   UNL A   1      31.926  25.526  23.675  1.00  0.00     0.172 C 
ATOM     85  C   UNL A   1      30.415  25.440  23.555  1.00  0.00     0.037 C 
ATOM     86  C   UNL A   1      32.297  27.008  23.734  1.00  0.00     0.249 C 
ATOM     87  C   UNL A   1      29.860  25.910  24.886  1.00  0.00     0.025 C 
ATOM     88  N   UNL A   1      31.790  27.611  24.899  1.00  0.00    -0.308 N 
ATOM     89  O   UNL A   1      33.060  27.489  22.905  1.00  0.00    -0.272 OA
ATOM     90  C   UNL A   1      30.449  27.243  25.376  1.00  0.00     0.126 C 
BRANCH  88  91
ATOM     91  C   UNL A   1      32.544  28.614  25.612  1.00  0.00     0.080 A 
ATOM     92  C   UNL A   1      32.020  29.914  25.757  1.00  0.00     0.029 A 
ATOM     93  C   UNL A   1      33.726  28.334  26.318  1.00  0.00     0.146 A 
ATOM     94  C   UNL A   1      32.607  30.849  26.622  1.00  0.00     0.002 A 
ATOM     95  C   UNL A   1      34.307  29.259  27.189  1.00  0.00     0.041 A 
ATOM     96  F   UNL A   1      34.410  27.198  26.126  1.00  0.00    -0.205 F 
ATOM     97  C   UNL A   1      33.739  30.513  27.357  1.00  0.00     0.003 A 
ENDBRANCH  88  91
ENDBRANCH  82  84
ENDBRANCH  76  80
ENDBRANCH  72  74
ENDBRANCH  71  72
ENDBRANCH  70  71
ENDBRANCH   1  70
TORSDOF 17
ENDMDL
