MODEL 1
REMARK VINA RESULT:     -12.7      0.000      0.000
REMARK SMILES O=C(OCCOC(=O)c1ccc(-c2c3nc(c(-c4cc(S(=O)(=O)[O-])ccc4F)c4ccc([nH]4)c(-c4cc(S(=O)(=O)[O-])ccc4F)c4nc(c(-c5cc(S(=O)(=O)[O-])ccc5F)c5ccc2[nH]5)C=C4)C=C3)cc1)C1=Cc2c(ccc(Cl)c2-c2ccccc2)O[C@H]1C(F)(F)F
REMARK SMILES IDX 5 1 4 2 3 3 2 4 1 5 72 6 73 7 88 8 74 9 87 10 75 11 80 12
REMARK SMILES IDX 76 13 78 14 77 15 79 16 89 17 90 18 91 19 92 20 81 21 82 22
REMARK SMILES IDX 86 23 83 24 85 25 84 26 6 27 7 28 8 29 9 30 10 31 71 32
REMARK SMILES IDX 11 33 70 34 12 35 13 36 14 37 64 38 15 39 69 40 63 41 65 42
REMARK SMILES IDX 16 43 68 44 62 45 61 46 17 48 49 49 29 50 48 51 30 52 33 53
REMARK SMILES IDX 47 54 66 55 31 56 32 57 46 59 67 60 34 61 18 62 19 63 27 64
REMARK SMILES IDX 20 65 26 66 28 67 25 68 21 69 22 70 23 71 24 72 50 73 51 74
REMARK SMILES IDX 59 75 52 76 58 77 60 78 57 79 53 80 54 81 55 82 56 83 35 84
REMARK SMILES IDX 36 85 44 86 37 87 43 88 45 89 42 90 38 91 39 92 40 93 41 94
REMARK H PARENT 65 47 33 58
REMARK Flexibility Score: inf
ROOT
ATOM      1  C   UNL A   1      38.862  19.681  25.074  1.00  0.00     0.275 C 
ENDROOT
BRANCH   1   2
ATOM      2  C   UNL A   1      37.405  20.045  24.825  1.00  0.00     0.275 C 
BRANCH   2   3
ATOM      3  O   UNL A   1      36.967  21.008  25.805  1.00  0.00    -0.459 OA
BRANCH   3   4
ATOM      4  C   UNL A   1      36.304  22.150  25.506  1.00  0.00     0.338 C 
ATOM      5  O   UNL A   1      36.927  23.203  25.411  1.00  0.00    -0.246 OA
BRANCH   4   6
ATOM      6  C   UNL A   1      34.828  22.175  25.316  1.00  0.00     0.087 C 
ATOM      7  C   UNL A   1      33.968  21.153  25.460  1.00  0.00     0.028 C 
ATOM      8  C   UNL A   1      34.291  23.478  24.775  1.00  0.00     0.316 C 
ATOM      9  C   UNL A   1      33.241  20.865  24.209  1.00  0.00     0.027 A 
ATOM     10  O   UNL A   1      33.121  23.289  23.909  1.00  0.00    -0.475 OA
ATOM     11  C   UNL A   1      32.862  22.007  23.477  1.00  0.00     0.128 A 
ATOM     12  C   UNL A   1      32.958  19.539  23.758  1.00  0.00     0.011 A 
ATOM     13  C   UNL A   1      32.177  21.858  22.283  1.00  0.00     0.049 A 
ATOM     14  C   UNL A   1      32.265  19.432  22.538  1.00  0.00     0.049 A 
ATOM     15  C   UNL A   1      31.886  20.574  21.814  1.00  0.00     0.025 A 
ATOM     16  Cl  UNL A   1      31.852  17.894  21.857  1.00  0.00    -0.084 Cl
BRANCH   8  17
ATOM     17  C   UNL A   1      33.980  24.425  25.953  1.00  0.00     0.430 C 
ATOM     18  F   UNL A   1      32.840  25.131  25.758  1.00  0.00    -0.167 F 
ATOM     19  F   UNL A   1      33.845  23.752  27.116  1.00  0.00    -0.167 F 
ATOM     20  F   UNL A   1      34.973  25.337  26.118  1.00  0.00    -0.167 F 
ENDBRANCH   8  17
BRANCH  12  21
ATOM     21  C   UNL A   1      33.445  18.324  24.471  1.00  0.00    -0.016 A 
ATOM     22  C   UNL A   1      32.583  17.624  25.341  1.00  0.00     0.009 A 
ATOM     23  C   UNL A   1      34.726  17.781  24.256  1.00  0.00     0.009 A 
ATOM     24  C   UNL A   1      32.924  16.367  25.855  1.00  0.00     0.001 A 
ATOM     25  C   UNL A   1      35.075  16.525  24.786  1.00  0.00     0.001 A 
ATOM     26  C   UNL A   1      34.159  15.802  25.553  1.00  0.00     0.000 A 
ENDBRANCH  12  21
ENDBRANCH   4   6
ENDBRANCH   3   4
ENDBRANCH   2   3
ENDBRANCH   1   2
BRANCH   1  27
ATOM     27  O   UNL A   1      39.293  20.015  26.390  1.00  0.00    -0.458 OA
BRANCH  27  28
ATOM     28  C   UNL A   1      40.584  20.406  26.465  1.00  0.00     0.338 C 
ATOM     29  O   UNL A   1      41.502  19.704  26.084  1.00  0.00    -0.246 OA
BRANCH  28  30
ATOM     30  C   UNL A   1      40.759  21.768  27.022  1.00  0.00     0.060 A 
ATOM     31  C   UNL A   1      39.938  22.768  26.510  1.00  0.00     0.016 A 
ATOM     32  C   UNL A   1      41.696  22.047  28.037  1.00  0.00     0.016 A 
ATOM     33  C   UNL A   1      40.153  24.076  26.903  1.00  0.00     0.010 A 
ATOM     34  C   UNL A   1      41.832  23.343  28.514  1.00  0.00     0.010 A 
ATOM     35  C   UNL A   1      41.151  24.366  27.847  1.00  0.00    -0.014 A 
BRANCH  35  36
ATOM     36  C   UNL A   1      41.713  25.730  27.856  1.00  0.00     0.031 A 
ATOM     37  C   UNL A   1      40.955  26.787  28.619  1.00  0.00     0.074 A 
ATOM     38  C   UNL A   1      42.908  25.965  27.296  1.00  0.00     0.049 A 
ATOM     39  N   UNL A   1      41.251  28.040  28.828  1.00  0.00    -0.248 NA
ATOM     40  C   UNL A   1      39.667  26.377  29.209  1.00  0.00     0.031 C 
ATOM     41  C   UNL A   1      43.705  24.977  26.567  1.00  0.00     0.029 A 
ATOM     42  N   UNL A   1      43.669  27.099  27.275  1.00  0.00    -0.354 N 
ATOM     43  C   UNL A   1      40.182  28.561  29.554  1.00  0.00     0.074 A 
ATOM     44  C   UNL A   1      39.193  27.520  29.667  1.00  0.00     0.031 C 
ATOM     45  C   UNL A   1      44.862  25.547  26.191  1.00  0.00     0.029 A 
ATOM     46  C   UNL A   1      44.864  26.943  26.619  1.00  0.00     0.049 A 
ATOM     47  H   UNL A   1      43.387  27.946  27.692  1.00  0.00     0.167 HD
ATOM     48  C   UNL A   1      40.060  29.790  30.111  1.00  0.00     0.034 A 
ATOM     49  C   UNL A   1      45.838  27.842  26.389  1.00  0.00     0.034 A 
ATOM     50  C   UNL A   1      41.084  30.791  29.981  1.00  0.00     0.049 A 
ATOM     51  C   UNL A   1      45.669  29.223  26.970  1.00  0.00     0.074 A 
ATOM     52  C   UNL A   1      41.109  32.077  30.482  1.00  0.00     0.029 A 
ATOM     53  N   UNL A   1      42.273  30.608  29.282  1.00  0.00    -0.354 N 
ATOM     54  N   UNL A   1      44.663  29.707  27.667  1.00  0.00    -0.248 NA
ATOM     55  C   UNL A   1      46.766  30.170  26.756  1.00  0.00     0.031 C 
ATOM     56  C   UNL A   1      42.278  32.694  30.022  1.00  0.00     0.029 A 
ATOM     57  C   UNL A   1      43.027  31.766  29.312  1.00  0.00     0.049 A 
ATOM     58  H   UNL A   1      42.540  29.773  28.832  1.00  0.00     0.167 HD
ATOM     59  C   UNL A   1      45.022  31.007  28.004  1.00  0.00     0.074 A 
ATOM     60  C   UNL A   1      46.338  31.227  27.433  1.00  0.00     0.031 C 
ATOM     61  C   UNL A   1      44.339  31.935  28.726  1.00  0.00     0.034 A 
BRANCH  48  62
ATOM     62  C   UNL A   1      38.763  30.096  30.830  1.00  0.00     0.023 A 
ATOM     63  C   UNL A   1      37.670  30.700  30.175  1.00  0.00     0.031 A 
ATOM     64  C   UNL A   1      38.658  29.894  32.216  1.00  0.00     0.131 A 
ATOM     65  C   UNL A   1      36.588  31.193  30.923  1.00  0.00     0.055 A 
ATOM     66  C   UNL A   1      37.529  30.291  32.938  1.00  0.00     0.041 A 
ATOM     67  F   UNL A   1      39.672  29.350  32.907  1.00  0.00    -0.206 F 
ATOM     68  C   UNL A   1      36.496  30.967  32.296  1.00  0.00     0.022 A 
BRANCH  65  69
ATOM     69  S   UNL A   1      35.417  32.321  30.111  1.00  0.00     0.124 S 
ATOM     70  O   UNL A   1      36.271  33.471  29.823  1.00  0.00    -0.237 OA
ATOM     71  O   UNL A   1      34.978  31.545  28.959  1.00  0.00    -0.237 OA
ATOM     72  O   UNL A   1      34.400  32.553  31.134  1.00  0.00    -0.744 OA
ENDBRANCH  65  69
ENDBRANCH  48  62
BRANCH  49  73
ATOM     73  C   UNL A   1      47.024  27.457  25.575  1.00  0.00     0.023 A 
ATOM     74  C   UNL A   1      47.134  27.804  24.220  1.00  0.00     0.031 A 
ATOM     75  C   UNL A   1      48.087  26.743  26.161  1.00  0.00     0.131 A 
ATOM     76  C   UNL A   1      48.270  27.415  23.490  1.00  0.00     0.055 A 
ATOM     77  C   UNL A   1      49.234  26.401  25.444  1.00  0.00     0.041 A 
ATOM     78  F   UNL A   1      48.037  26.393  27.457  1.00  0.00    -0.206 F 
ATOM     79  C   UNL A   1      49.326  26.729  24.096  1.00  0.00     0.022 A 
BRANCH  76  80
ATOM     80  S   UNL A   1      48.327  27.770  21.712  1.00  0.00     0.124 S 
ATOM     81  O   UNL A   1      46.994  28.313  21.474  1.00  0.00    -0.237 OA
ATOM     82  O   UNL A   1      49.432  28.719  21.626  1.00  0.00    -0.237 OA
ATOM     83  O   UNL A   1      48.583  26.462  21.112  1.00  0.00    -0.744 OA
ENDBRANCH  76  80
ENDBRANCH  49  73
BRANCH  61  84
ATOM     84  C   UNL A   1      45.034  33.245  28.986  1.00  0.00     0.023 A 
ATOM     85  C   UNL A   1      44.954  34.317  28.084  1.00  0.00     0.031 A 
ATOM     86  C   UNL A   1      45.753  33.427  30.181  1.00  0.00     0.131 A 
ATOM     87  C   UNL A   1      45.621  35.516  28.374  1.00  0.00     0.055 A 
ATOM     88  C   UNL A   1      46.359  34.643  30.493  1.00  0.00     0.041 A 
ATOM     89  F   UNL A   1      45.857  32.430  31.074  1.00  0.00    -0.206 F 
ATOM     90  C   UNL A   1      46.302  35.694  29.581  1.00  0.00     0.022 A 
BRANCH  87  91
ATOM     91  S   UNL A   1      45.647  36.821  27.116  1.00  0.00     0.124 S 
ATOM     92  O   UNL A   1      44.227  37.120  26.961  1.00  0.00    -0.237 OA
ATOM     93  O   UNL A   1      46.452  37.857  27.755  1.00  0.00    -0.237 OA
ATOM     94  O   UNL A   1      46.274  36.173  25.965  1.00  0.00    -0.744 OA
ENDBRANCH  87  91
ENDBRANCH  61  84
ENDBRANCH  35  36
ENDBRANCH  28  30
ENDBRANCH  27  28
ENDBRANCH   1  27
TORSDOF 16
ENDMDL
MODEL 2
REMARK VINA RESULT:     -12.5      5.800      9.087
REMARK SMILES O=C(OCCOC(=O)c1ccc(-c2c3nc(c(-c4cc(S(=O)(=O)[O-])ccc4F)c4ccc([nH]4)c(-c4cc(S(=O)(=O)[O-])ccc4F)c4nc(c(-c5cc(S(=O)(=O)[O-])ccc5F)c5ccc2[nH]5)C=C4)C=C3)cc1)C1=Cc2c(ccc(Cl)c2-c2ccccc2)O[C@H]1C(F)(F)F
REMARK SMILES IDX 5 1 4 2 3 3 2 4 1 5 72 6 73 7 88 8 74 9 87 10 75 11 80 12
REMARK SMILES IDX 76 13 78 14 77 15 79 16 89 17 90 18 91 19 92 20 81 21 82 22
REMARK SMILES IDX 86 23 83 24 85 25 84 26 6 27 7 28 8 29 9 30 10 31 71 32
REMARK SMILES IDX 11 33 70 34 12 35 13 36 14 37 64 38 15 39 69 40 63 41 65 42
REMARK SMILES IDX 16 43 68 44 62 45 61 46 17 48 49 49 29 50 48 51 30 52 33 53
REMARK SMILES IDX 47 54 66 55 31 56 32 57 46 59 67 60 34 61 18 62 19 63 27 64
REMARK SMILES IDX 20 65 26 66 28 67 25 68 21 69 22 70 23 71 24 72 50 73 51 74
REMARK SMILES IDX 59 75 52 76 58 77 60 78 57 79 53 80 54 81 55 82 56 83 35 84
REMARK SMILES IDX 36 85 44 86 37 87 43 88 45 89 42 90 38 91 39 92 40 93 41 94
REMARK H PARENT 65 47 33 58
REMARK Flexibility Score: inf
ROOT
ATOM      1  C   UNL A   1      32.817  31.771  27.312  1.00  0.00     0.275 C 
ENDROOT
BRANCH   1   2
ATOM      2  C   UNL A   1      32.045  30.735  26.509  1.00  0.00     0.275 C 
BRANCH   2   3
ATOM      3  O   UNL A   1      32.865  30.240  25.431  1.00  0.00    -0.459 OA
BRANCH   3   4
ATOM      4  C   UNL A   1      33.207  28.940  25.270  1.00  0.00     0.338 C 
ATOM      5  O   UNL A   1      34.142  28.476  25.915  1.00  0.00    -0.246 OA
BRANCH   4   6
ATOM      6  C   UNL A   1      32.497  28.055  24.306  1.00  0.00     0.087 C 
ATOM      7  C   UNL A   1      31.646  28.422  23.334  1.00  0.00     0.028 C 
ATOM      8  C   UNL A   1      32.679  26.579  24.565  1.00  0.00     0.316 C 
ATOM      9  C   UNL A   1      30.311  27.820  23.515  1.00  0.00     0.027 A 
ATOM     10  O   UNL A   1      31.494  25.792  24.201  1.00  0.00    -0.475 OA
ATOM     11  C   UNL A   1      30.328  26.488  23.972  1.00  0.00     0.128 A 
ATOM     12  C   UNL A   1      29.095  28.529  23.270  1.00  0.00     0.011 A 
ATOM     13  C   UNL A   1      29.131  25.823  24.183  1.00  0.00     0.049 A 
ATOM     14  C   UNL A   1      27.904  27.819  23.501  1.00  0.00     0.049 A 
ATOM     15  C   UNL A   1      27.925  26.489  23.953  1.00  0.00     0.025 A 
ATOM     16  Cl  UNL A   1      26.349  28.542  23.254  1.00  0.00    -0.084 Cl
BRANCH   8  17
ATOM     17  C   UNL A   1      33.939  26.086  23.822  1.00  0.00     0.430 C 
ATOM     18  F   UNL A   1      34.616  27.099  23.230  1.00  0.00    -0.167 F 
ATOM     19  F   UNL A   1      34.798  25.457  24.653  1.00  0.00    -0.167 F 
ATOM     20  F   UNL A   1      33.611  25.215  22.834  1.00  0.00    -0.167 F 
ENDBRANCH   8  17
BRANCH  12  21
ATOM     21  C   UNL A   1      29.066  29.971  22.888  1.00  0.00    -0.016 A 
ATOM     22  C   UNL A   1      28.869  30.338  21.540  1.00  0.00     0.009 A 
ATOM     23  C   UNL A   1      29.148  31.008  23.835  1.00  0.00     0.009 A 
ATOM     24  C   UNL A   1      28.617  31.666  21.172  1.00  0.00     0.001 A 
ATOM     25  C   UNL A   1      28.910  32.344  23.462  1.00  0.00     0.001 A 
ATOM     26  C   UNL A   1      28.606  32.666  22.138  1.00  0.00     0.000 A 
ENDBRANCH  12  21
ENDBRANCH   4   6
ENDBRANCH   3   4
ENDBRANCH   2   3
ENDBRANCH   1   2
BRANCH   1  27
ATOM     27  O   UNL A   1      33.829  31.189  28.128  1.00  0.00    -0.458 OA
BRANCH  27  28
ATOM     28  C   UNL A   1      35.066  31.684  27.911  1.00  0.00     0.338 C 
ATOM     29  O   UNL A   1      35.262  32.849  27.621  1.00  0.00    -0.246 OA
BRANCH  28  30
ATOM     30  C   UNL A   1      36.145  30.683  28.088  1.00  0.00     0.060 A 
ATOM     31  C   UNL A   1      35.979  29.752  29.109  1.00  0.00     0.016 A 
ATOM     32  C   UNL A   1      37.281  30.650  27.254  1.00  0.00     0.016 A 
ATOM     33  C   UNL A   1      37.015  28.883  29.397  1.00  0.00     0.010 A 
ATOM     34  C   UNL A   1      38.270  29.701  27.471  1.00  0.00     0.010 A 
ATOM     35  C   UNL A   1      38.187  28.914  28.624  1.00  0.00    -0.014 A 
BRANCH  35  36
ATOM     36  C   UNL A   1      39.426  28.398  29.235  1.00  0.00     0.031 A 
ATOM     37  C   UNL A   1      39.840  28.981  30.562  1.00  0.00     0.074 A 
ATOM     38  C   UNL A   1      40.076  27.372  28.665  1.00  0.00     0.049 A 
ATOM     39  N   UNL A   1      40.848  28.674  31.332  1.00  0.00    -0.248 NA
ATOM     40  C   UNL A   1      39.013  30.085  31.083  1.00  0.00     0.031 C 
ATOM     41  C   UNL A   1      39.709  26.745  27.394  1.00  0.00     0.029 A 
ATOM     42  N   UNL A   1      41.162  26.665  29.094  1.00  0.00    -0.354 N 
ATOM     43  C   UNL A   1      40.778  29.554  32.409  1.00  0.00     0.074 A 
ATOM     44  C   UNL A   1      39.693  30.465  32.148  1.00  0.00     0.031 C 
ATOM     45  C   UNL A   1      40.547  25.722  27.159  1.00  0.00     0.029 A 
ATOM     46  C   UNL A   1      41.526  25.652  28.241  1.00  0.00     0.049 A 
ATOM     47  H   UNL A   1      41.637  26.860  29.934  1.00  0.00     0.167 HD
ATOM     48  C   UNL A   1      41.532  29.572  33.534  1.00  0.00     0.034 A 
ATOM     49  C   UNL A   1      42.546  24.780  28.333  1.00  0.00     0.034 A 
ATOM     50  C   UNL A   1      42.597  28.630  33.753  1.00  0.00     0.049 A 
ATOM     51  C   UNL A   1      43.411  24.841  29.567  1.00  0.00     0.074 A 
ATOM     52  C   UNL A   1      43.448  28.518  34.835  1.00  0.00     0.029 A 
ATOM     53  N   UNL A   1      42.958  27.633  32.851  1.00  0.00    -0.354 N 
ATOM     54  N   UNL A   1      43.334  25.667  30.588  1.00  0.00    -0.248 NA
ATOM     55  C   UNL A   1      44.482  23.848  29.673  1.00  0.00     0.031 C 
ATOM     56  C   UNL A   1      44.370  27.505  34.551  1.00  0.00     0.029 A 
ATOM     57  C   UNL A   1      44.039  26.921  33.336  1.00  0.00     0.049 A 
ATOM     58  H   UNL A   1      42.507  27.460  31.992  1.00  0.00     0.167 HD
ATOM     59  C   UNL A   1      44.326  25.270  31.477  1.00  0.00     0.074 A 
ATOM     60  C   UNL A   1      44.985  24.129  30.867  1.00  0.00     0.031 C 
ATOM     61  C   UNL A   1      44.661  25.787  32.689  1.00  0.00     0.034 A 
BRANCH  48  62
ATOM     62  C   UNL A   1      41.251  30.671  34.536  1.00  0.00     0.023 A 
ATOM     63  C   UNL A   1      40.179  30.595  35.448  1.00  0.00     0.031 A 
ATOM     64  C   UNL A   1      41.989  31.867  34.500  1.00  0.00     0.131 A 
ATOM     65  C   UNL A   1      39.800  31.730  36.184  1.00  0.00     0.055 A 
ATOM     66  C   UNL A   1      41.672  32.956  35.316  1.00  0.00     0.041 A 
ATOM     67  F   UNL A   1      43.006  32.017  33.637  1.00  0.00    -0.206 F 
ATOM     68  C   UNL A   1      40.556  32.901  36.145  1.00  0.00     0.022 A 
BRANCH  65  69
ATOM     69  S   UNL A   1      38.184  31.723  37.016  1.00  0.00     0.124 S 
ATOM     70  O   UNL A   1      37.847  30.302  36.988  1.00  0.00    -0.237 OA
ATOM     71  O   UNL A   1      38.500  32.282  38.324  1.00  0.00    -0.237 OA
ATOM     72  O   UNL A   1      37.354  32.567  36.159  1.00  0.00    -0.744 OA
ENDBRANCH  65  69
ENDBRANCH  48  62
BRANCH  49  73
ATOM     73  C   UNL A   1      42.792  23.809  27.231  1.00  0.00     0.023 A 
ATOM     74  C   UNL A   1      42.227  22.526  27.237  1.00  0.00     0.031 A 
ATOM     75  C   UNL A   1      43.593  24.172  26.131  1.00  0.00     0.131 A 
ATOM     76  C   UNL A   1      42.491  21.641  26.178  1.00  0.00     0.055 A 
ATOM     77  C   UNL A   1      43.813  23.306  25.058  1.00  0.00     0.041 A 
ATOM     78  F   UNL A   1      44.152  25.392  26.070  1.00  0.00    -0.206 F 
ATOM     79  C   UNL A   1      43.268  22.028  25.082  1.00  0.00     0.022 A 
BRANCH  76  80
ATOM     80  S   UNL A   1      41.849  19.947  26.276  1.00  0.00     0.124 S 
ATOM     81  O   UNL A   1      40.415  20.164  26.114  1.00  0.00    -0.237 OA
ATOM     82  O   UNL A   1      42.531  19.299  25.161  1.00  0.00    -0.237 OA
ATOM     83  O   UNL A   1      42.266  19.502  27.604  1.00  0.00    -0.744 OA
ENDBRANCH  76  80
ENDBRANCH  49  73
BRANCH  61  84
ATOM     84  C   UNL A   1      45.748  25.080  33.455  1.00  0.00     0.023 A 
ATOM     85  C   UNL A   1      45.476  23.974  34.276  1.00  0.00     0.031 A 
ATOM     86  C   UNL A   1      47.082  25.504  33.322  1.00  0.00     0.131 A 
ATOM     87  C   UNL A   1      46.525  23.352  34.968  1.00  0.00     0.055 A 
ATOM     88  C   UNL A   1      48.128  24.842  33.962  1.00  0.00     0.041 A 
ATOM     89  F   UNL A   1      47.391  26.558  32.549  1.00  0.00    -0.206 F 
ATOM     90  C   UNL A   1      47.850  23.764  34.798  1.00  0.00     0.022 A 
BRANCH  87  91
ATOM     91  S   UNL A   1      46.125  22.041  36.153  1.00  0.00     0.124 S 
ATOM     92  O   UNL A   1      45.430  22.782  37.200  1.00  0.00    -0.237 OA
ATOM     93  O   UNL A   1      45.302  21.138  35.355  1.00  0.00    -0.237 OA
ATOM     94  O   UNL A   1      47.435  21.511  36.531  1.00  0.00    -0.744 OA
ENDBRANCH  87  91
ENDBRANCH  61  84
ENDBRANCH  35  36
ENDBRANCH  28  30
ENDBRANCH  27  28
ENDBRANCH   1  27
TORSDOF 16
ENDMDL
MODEL 3
REMARK VINA RESULT:     -12.5      5.160      8.092
REMARK SMILES O=C(OCCOC(=O)c1ccc(-c2c3nc(c(-c4cc(S(=O)(=O)[O-])ccc4F)c4ccc([nH]4)c(-c4cc(S(=O)(=O)[O-])ccc4F)c4nc(c(-c5cc(S(=O)(=O)[O-])ccc5F)c5ccc2[nH]5)C=C4)C=C3)cc1)C1=Cc2c(ccc(Cl)c2-c2ccccc2)O[C@H]1C(F)(F)F
REMARK SMILES IDX 5 1 4 2 3 3 2 4 1 5 72 6 73 7 88 8 74 9 87 10 75 11 80 12
REMARK SMILES IDX 76 13 78 14 77 15 79 16 89 17 90 18 91 19 92 20 81 21 82 22
REMARK SMILES IDX 86 23 83 24 85 25 84 26 6 27 7 28 8 29 9 30 10 31 71 32
REMARK SMILES IDX 11 33 70 34 12 35 13 36 14 37 64 38 15 39 69 40 63 41 65 42
REMARK SMILES IDX 16 43 68 44 62 45 61 46 17 48 49 49 29 50 48 51 30 52 33 53
REMARK SMILES IDX 47 54 66 55 31 56 32 57 46 59 67 60 34 61 18 62 19 63 27 64
REMARK SMILES IDX 20 65 26 66 28 67 25 68 21 69 22 70 23 71 24 72 50 73 51 74
REMARK SMILES IDX 59 75 52 76 58 77 60 78 57 79 53 80 54 81 55 82 56 83 35 84
REMARK SMILES IDX 36 85 44 86 37 87 43 88 45 89 42 90 38 91 39 92 40 93 41 94
REMARK H PARENT 65 47 33 58
REMARK Flexibility Score: inf
ROOT
ATOM      1  C   UNL A   1      31.480  31.735  26.916  1.00  0.00     0.275 C 
ENDROOT
BRANCH   1   2
ATOM      2  C   UNL A   1      30.970  31.292  25.552  1.00  0.00     0.275 C 
BRANCH   2   3
ATOM      3  O   UNL A   1      31.681  30.114  25.122  1.00  0.00    -0.459 OA
BRANCH   3   4
ATOM      4  C   UNL A   1      31.277  28.846  25.373  1.00  0.00     0.338 C 
ATOM      5  O   UNL A   1      31.354  28.401  26.515  1.00  0.00    -0.246 OA
BRANCH   4   6
ATOM      6  C   UNL A   1      30.764  27.958  24.296  1.00  0.00     0.087 C 
ATOM      7  C   UNL A   1      30.646  26.620  24.325  1.00  0.00     0.028 C 
ATOM      8  C   UNL A   1      30.474  28.662  22.992  1.00  0.00     0.316 C 
ATOM      9  C   UNL A   1      31.446  25.973  23.267  1.00  0.00     0.027 A 
ATOM     10  O   UNL A   1      30.727  27.811  21.823  1.00  0.00    -0.475 OA
ATOM     11  C   UNL A   1      31.443  26.654  22.034  1.00  0.00     0.128 A 
ATOM     12  C   UNL A   1      32.184  24.767  23.473  1.00  0.00     0.011 A 
ATOM     13  C   UNL A   1      32.163  26.141  20.968  1.00  0.00     0.049 A 
ATOM     14  C   UNL A   1      32.905  24.284  22.367  1.00  0.00     0.049 A 
ATOM     15  C   UNL A   1      32.896  24.963  21.138  1.00  0.00     0.025 A 
ATOM     16  Cl  UNL A   1      33.851  22.835  22.459  1.00  0.00    -0.084 Cl
BRANCH   8  17
ATOM     17  C   UNL A   1      29.023  29.187  23.011  1.00  0.00     0.430 C 
ATOM     18  F   UNL A   1      28.160  28.292  23.548  1.00  0.00    -0.167 F 
ATOM     19  F   UNL A   1      28.913  30.331  23.720  1.00  0.00    -0.167 F 
ATOM     20  F   UNL A   1      28.581  29.439  21.752  1.00  0.00    -0.167 F 
ENDBRANCH   8  17
BRANCH  12  21
ATOM     21  C   UNL A   1      32.278  24.097  24.802  1.00  0.00    -0.016 A 
ATOM     22  C   UNL A   1      31.341  23.104  25.158  1.00  0.00     0.009 A 
ATOM     23  C   UNL A   1      33.323  24.354  25.708  1.00  0.00     0.009 A 
ATOM     24  C   UNL A   1      31.520  22.301  26.292  1.00  0.00     0.001 A 
ATOM     25  C   UNL A   1      33.494  23.557  26.856  1.00  0.00     0.001 A 
ATOM     26  C   UNL A   1      32.615  22.507  27.125  1.00  0.00     0.000 A 
ENDBRANCH  12  21
ENDBRANCH   4   6
ENDBRANCH   3   4
ENDBRANCH   2   3
ENDBRANCH   1   2
BRANCH   1  27
ATOM     27  O   UNL A   1      32.805  31.283  27.179  1.00  0.00    -0.458 OA
BRANCH  27  28
ATOM     28  C   UNL A   1      33.591  32.200  27.783  1.00  0.00     0.338 C 
ATOM     29  O   UNL A   1      33.164  33.270  28.174  1.00  0.00    -0.246 OA
BRANCH  28  30
ATOM     30  C   UNL A   1      34.998  31.760  27.945  1.00  0.00     0.060 A 
ATOM     31  C   UNL A   1      35.237  30.390  27.910  1.00  0.00     0.016 A 
ATOM     32  C   UNL A   1      36.055  32.678  28.105  1.00  0.00     0.016 A 
ATOM     33  C   UNL A   1      36.511  29.927  28.186  1.00  0.00     0.010 A 
ATOM     34  C   UNL A   1      37.353  32.215  28.267  1.00  0.00     0.010 A 
ATOM     35  C   UNL A   1      37.546  30.840  28.439  1.00  0.00    -0.014 A 
BRANCH  35  36
ATOM     36  C   UNL A   1      38.703  30.368  29.222  1.00  0.00     0.031 A 
ATOM     37  C   UNL A   1      38.775  30.780  30.670  1.00  0.00     0.074 A 
ATOM     38  C   UNL A   1      39.579  29.514  28.672  1.00  0.00     0.049 A 
ATOM     39  N   UNL A   1      39.650  30.465  31.586  1.00  0.00    -0.248 NA
ATOM     40  C   UNL A   1      37.726  31.700  31.146  1.00  0.00     0.031 C 
ATOM     41  C   UNL A   1      39.547  29.054  27.283  1.00  0.00     0.029 A 
ATOM     42  N   UNL A   1      40.647  28.865  29.222  1.00  0.00    -0.354 N 
ATOM     43  C   UNL A   1      39.260  31.158  32.730  1.00  0.00     0.074 A 
ATOM     44  C   UNL A   1      38.135  31.981  32.369  1.00  0.00     0.031 C 
ATOM     45  C   UNL A   1      40.542  28.171  27.097  1.00  0.00     0.029 A 
ATOM     46  C   UNL A   1      41.297  28.038  28.340  1.00  0.00     0.049 A 
ATOM     47  H   UNL A   1      40.923  28.978  30.161  1.00  0.00     0.167 HD
ATOM     48  C   UNL A   1      39.777  31.081  33.980  1.00  0.00     0.034 A 
ATOM     49  C   UNL A   1      42.387  27.273  28.528  1.00  0.00     0.034 A 
ATOM     50  C   UNL A   1      40.895  30.232  34.292  1.00  0.00     0.049 A 
ATOM     51  C   UNL A   1      42.985  27.233  29.912  1.00  0.00     0.074 A 
ATOM     52  C   UNL A   1      41.531  30.045  35.502  1.00  0.00     0.029 A 
ATOM     53  N   UNL A   1      41.550  29.428  33.363  1.00  0.00    -0.354 N 
ATOM     54  N   UNL A   1      42.606  27.881  30.993  1.00  0.00    -0.248 NA
ATOM     55  C   UNL A   1      44.137  26.351  30.109  1.00  0.00     0.031 C 
ATOM     56  C   UNL A   1      42.616  29.187  35.288  1.00  0.00     0.029 A 
ATOM     57  C   UNL A   1      42.602  28.765  33.966  1.00  0.00     0.049 A 
ATOM     58  H   UNL A   1      41.298  29.343  32.414  1.00  0.00     0.167 HD
ATOM     59  C   UNL A   1      43.454  27.457  32.010  1.00  0.00     0.074 A 
ATOM     60  C   UNL A   1      44.362  26.497  31.408  1.00  0.00     0.031 C 
ATOM     61  C   UNL A   1      43.481  27.814  33.321  1.00  0.00     0.034 A 
BRANCH  48  62
ATOM     62  C   UNL A   1      39.167  31.980  35.035  1.00  0.00     0.023 A 
ATOM     63  C   UNL A   1      39.570  33.320  35.198  1.00  0.00     0.031 A 
ATOM     64  C   UNL A   1      38.259  31.456  35.971  1.00  0.00     0.131 A 
ATOM     65  C   UNL A   1      39.169  34.041  36.335  1.00  0.00     0.055 A 
ATOM     66  C   UNL A   1      37.779  32.215  37.041  1.00  0.00     0.041 A 
ATOM     67  F   UNL A   1      37.854  30.178  35.891  1.00  0.00    -0.206 F 
ATOM     68  C   UNL A   1      38.253  33.508  37.243  1.00  0.00     0.022 A 
BRANCH  65  69
ATOM     69  S   UNL A   1      40.030  35.594  36.725  1.00  0.00     0.124 S 
ATOM     70  O   UNL A   1      41.423  35.156  36.754  1.00  0.00    -0.237 OA
ATOM     71  O   UNL A   1      39.652  36.453  35.610  1.00  0.00    -0.237 OA
ATOM     72  O   UNL A   1      39.479  35.975  38.023  1.00  0.00    -0.744 OA
ENDBRANCH  65  69
ENDBRANCH  48  62
BRANCH  49  73
ATOM     73  C   UNL A   1      42.965  26.512  27.385  1.00  0.00     0.023 A 
ATOM     74  C   UNL A   1      42.593  25.187  27.117  1.00  0.00     0.031 A 
ATOM     75  C   UNL A   1      43.896  27.124  26.524  1.00  0.00     0.131 A 
ATOM     76  C   UNL A   1      43.169  24.507  26.030  1.00  0.00     0.055 A 
ATOM     77  C   UNL A   1      44.428  26.460  25.417  1.00  0.00     0.041 A 
ATOM     78  F   UNL A   1      44.280  28.394  26.730  1.00  0.00    -0.206 F 
ATOM     79  C   UNL A   1      44.071  25.139  25.171  1.00  0.00     0.022 A 
BRANCH  76  80
ATOM     80  S   UNL A   1      42.762  22.756  25.783  1.00  0.00     0.124 S 
ATOM     81  O   UNL A   1      41.322  22.750  26.014  1.00  0.00    -0.237 OA
ATOM     82  O   UNL A   1      43.193  22.535  24.406  1.00  0.00    -0.237 OA
ATOM     83  O   UNL A   1      43.560  22.075  26.800  1.00  0.00    -0.744 OA
ENDBRANCH  76  80
ENDBRANCH  49  73
BRANCH  61  84
ATOM     84  C   UNL A   1      44.485  27.115  34.199  1.00  0.00     0.023 A 
ATOM     85  C   UNL A   1      44.307  25.786  34.614  1.00  0.00     0.031 A 
ATOM     86  C   UNL A   1      45.658  27.787  34.587  1.00  0.00     0.131 A 
ATOM     87  C   UNL A   1      45.273  25.181  35.431  1.00  0.00     0.055 A 
ATOM     88  C   UNL A   1      46.645  27.159  35.345  1.00  0.00     0.041 A 
ATOM     89  F   UNL A   1      45.872  29.059  34.214  1.00  0.00    -0.206 F 
ATOM     90  C   UNL A   1      46.450  25.850  35.779  1.00  0.00     0.022 A 
BRANCH  87  91
ATOM     91  S   UNL A   1      44.937  23.529  36.095  1.00  0.00     0.124 S 
ATOM     92  O   UNL A   1      43.544  23.327  35.710  1.00  0.00    -0.237 OA
ATOM     93  O   UNL A   1      45.918  22.705  35.396  1.00  0.00    -0.237 OA
ATOM     94  O   UNL A   1      45.169  23.683  37.530  1.00  0.00    -0.744 OA
ENDBRANCH  87  91
ENDBRANCH  61  84
ENDBRANCH  35  36
ENDBRANCH  28  30
ENDBRANCH  27  28
ENDBRANCH   1  27
TORSDOF 16
ENDMDL
