MODEL 1
REMARK VINA RESULT:     -12.3      0.000      0.000
REMARK SMILES O=C(CCCN1C(=O)c2ccc3c4c(ccc(c24)C1=O)C(=O)NC3=O)OCCOC(=O)c1ccc(-c2c3nc(c(-c4cc(S(=O)(=O)[O-])ccc4F)c4ccc([nH]4)c(-c4cc(S(=O)(=O)[O-])ccc4F)c4nc(c(-c5cc(S(=O)(=O)[O-])ccc5F)c5ccc2[nH]5)C=C4)C=C3)cc1
REMARK SMILES IDX 27 1 26 2 2 3 1 4 3 5 4 6 5 7 6 8 19 9 7 10 20 11 17 12 9 13
REMARK SMILES IDX 8 14 16 15 18 16 10 17 15 18 13 19 11 20 14 21 12 22 21 23
REMARK SMILES IDX 24 24 23 25 22 26 25 27 28 29 29 30 30 31 31 32 32 33 33 34
REMARK SMILES IDX 94 35 34 36 93 37 35 38 36 39 37 40 87 41 38 42 92 43 86 44
REMARK SMILES IDX 88 45 39 46 91 47 85 48 84 49 40 51 72 52 52 53 71 54 53 55
REMARK SMILES IDX 56 56 70 57 89 58 54 59 55 60 69 62 90 63 57 64 41 65 42 66
REMARK SMILES IDX 50 67 43 68 49 69 51 70 48 71 44 72 45 73 46 74 47 75 73 76
REMARK SMILES IDX 74 77 82 78 75 79 81 80 83 81 80 82 76 83 77 84 78 85 79 86
REMARK SMILES IDX 58 87 59 88 67 89 60 90 66 91 68 92 65 93 61 94 62 95 63 96
REMARK SMILES IDX 64 97
REMARK H PARENT 23 28 88 50 56 61
REMARK Flexibility Score: inf
ROOT
ATOM      1  C   UNL A   1      31.403  30.540  26.184  1.00  0.00     0.274 C 
ENDROOT
BRANCH   1   2
ATOM      2  O   UNL A   1      31.771  29.622  27.226  1.00  0.00    -0.462 OA
BRANCH   2   3
ATOM      3  C   UNL A   1      31.567  28.289  27.068  1.00  0.00     0.305 C 
ATOM      4  O   UNL A   1      31.928  27.491  27.926  1.00  0.00    -0.252 OA
BRANCH   3   5
ATOM      5  C   UNL A   1      31.019  27.833  25.734  1.00  0.00     0.124 C 
BRANCH   5   6
ATOM      6  C   UNL A   1      31.015  26.321  25.534  1.00  0.00     0.034 C 
BRANCH   6   7
ATOM      7  C   UNL A   1      31.833  25.800  24.342  1.00  0.00     0.130 C 
BRANCH   7   8
ATOM      8  N   UNL A   1      32.639  24.580  24.520  1.00  0.00    -0.274 N 
ATOM      9  C   UNL A   1      31.946  23.367  24.460  1.00  0.00     0.261 C 
ATOM     10  C   UNL A   1      33.972  24.673  24.922  1.00  0.00     0.261 C 
ATOM     11  O   UNL A   1      30.732  23.274  24.300  1.00  0.00    -0.269 OA
ATOM     12  C   UNL A   1      32.737  22.121  24.561  1.00  0.00     0.049 A 
ATOM     13  C   UNL A   1      34.762  23.415  24.940  1.00  0.00     0.049 A 
ATOM     14  O   UNL A   1      34.524  25.716  25.250  1.00  0.00    -0.269 OA
ATOM     15  C   UNL A   1      32.095  20.882  24.417  1.00  0.00     0.015 A 
ATOM     16  C   UNL A   1      34.119  22.188  24.757  1.00  0.00     0.009 A 
ATOM     17  C   UNL A   1      36.149  23.467  25.134  1.00  0.00     0.015 A 
ATOM     18  C   UNL A   1      32.833  19.701  24.455  1.00  0.00     0.015 A 
ATOM     19  C   UNL A   1      34.877  20.989  24.777  1.00  0.00     0.009 A 
ATOM     20  C   UNL A   1      36.905  22.294  25.124  1.00  0.00     0.015 A 
ATOM     21  C   UNL A   1      34.219  19.758  24.625  1.00  0.00     0.048 A 
ATOM     22  C   UNL A   1      36.269  21.062  24.950  1.00  0.00     0.048 A 
ATOM     23  C   UNL A   1      35.005  18.503  24.650  1.00  0.00     0.258 C 
ATOM     24  C   UNL A   1      37.066  19.812  24.952  1.00  0.00     0.258 C 
ATOM     25  N   UNL A   1      36.363  18.641  24.801  1.00  0.00    -0.288 N 
ATOM     26  O   UNL A   1      34.465  17.408  24.543  1.00  0.00    -0.269 OA
ATOM     27  O   UNL A   1      38.282  19.822  25.085  1.00  0.00    -0.269 OA
ATOM     28  H   UNL A   1      36.891  17.810  24.800  1.00  0.00     0.173 HD
ENDBRANCH   7   8
ENDBRANCH   6   7
ENDBRANCH   5   6
ENDBRANCH   3   5
ENDBRANCH   2   3
ENDBRANCH   1   2
BRANCH   1  29
ATOM     29  C   UNL A   1      31.418  32.001  26.640  1.00  0.00     0.275 C 
BRANCH  29  30
ATOM     30  O   UNL A   1      32.727  32.577  26.500  1.00  0.00    -0.458 OA
BRANCH  30  31
ATOM     31  C   UNL A   1      33.146  33.289  27.585  1.00  0.00     0.338 C 
ATOM     32  O   UNL A   1      32.527  34.171  28.143  1.00  0.00    -0.246 OA
BRANCH  31  33
ATOM     33  C   UNL A   1      34.411  32.716  28.106  1.00  0.00     0.060 A 
ATOM     34  C   UNL A   1      34.380  31.409  28.608  1.00  0.00     0.016 A 
ATOM     35  C   UNL A   1      35.608  33.436  28.109  1.00  0.00     0.016 A 
ATOM     36  C   UNL A   1      35.535  30.832  29.143  1.00  0.00     0.010 A 
ATOM     37  C   UNL A   1      36.767  32.854  28.631  1.00  0.00     0.010 A 
ATOM     38  C   UNL A   1      36.729  31.561  29.183  1.00  0.00    -0.014 A 
BRANCH  38  39
ATOM     39  C   UNL A   1      37.886  31.063  29.971  1.00  0.00     0.031 A 
ATOM     40  C   UNL A   1      38.800  30.049  29.337  1.00  0.00     0.074 A 
ATOM     41  C   UNL A   1      38.122  31.486  31.226  1.00  0.00     0.049 A 
ATOM     42  N   UNL A   1      39.817  29.405  29.847  1.00  0.00    -0.248 NA
ATOM     43  C   UNL A   1      38.504  29.702  27.939  1.00  0.00     0.031 C 
ATOM     44  C   UNL A   1      37.327  32.477  31.948  1.00  0.00     0.029 A 
ATOM     45  N   UNL A   1      39.096  31.117  32.121  1.00  0.00    -0.354 N 
ATOM     46  C   UNL A   1      40.278  28.568  28.837  1.00  0.00     0.074 A 
ATOM     47  C   UNL A   1      39.392  28.751  27.706  1.00  0.00     0.031 C 
ATOM     48  C   UNL A   1      37.835  32.623  33.185  1.00  0.00     0.029 A 
ATOM     49  C   UNL A   1      38.968  31.714  33.353  1.00  0.00     0.049 A 
ATOM     50  H   UNL A   1      39.817  30.484  31.902  1.00  0.00     0.167 HD
ATOM     51  C   UNL A   1      41.347  27.733  28.843  1.00  0.00     0.034 A 
ATOM     52  C   UNL A   1      39.667  31.527  34.493  1.00  0.00     0.034 A 
ATOM     53  C   UNL A   1      42.216  27.552  29.979  1.00  0.00     0.049 A 
ATOM     54  C   UNL A   1      40.814  30.546  34.507  1.00  0.00     0.074 A 
ATOM     55  C   UNL A   1      43.343  26.755  30.086  1.00  0.00     0.029 A 
ATOM     56  N   UNL A   1      42.047  28.167  31.214  1.00  0.00    -0.354 N 
ATOM     57  N   UNL A   1      41.256  29.774  33.540  1.00  0.00    -0.248 NA
ATOM     58  C   UNL A   1      41.561  30.414  35.766  1.00  0.00     0.031 C 
ATOM     59  C   UNL A   1      43.813  26.833  31.402  1.00  0.00     0.029 A 
ATOM     60  C   UNL A   1      43.027  27.739  32.097  1.00  0.00     0.049 A 
ATOM     61  H   UNL A   1      41.335  28.812  31.429  1.00  0.00     0.167 HD
ATOM     62  C   UNL A   1      42.350  29.091  34.065  1.00  0.00     0.074 A 
ATOM     63  C   UNL A   1      42.502  29.540  35.434  1.00  0.00     0.031 C 
ATOM     64  C   UNL A   1      43.165  28.187  33.464  1.00  0.00     0.034 A 
BRANCH  51  65
ATOM     65  C   UNL A   1      41.584  26.920  27.593  1.00  0.00     0.023 A 
ATOM     66  C   UNL A   1      41.253  25.555  27.528  1.00  0.00     0.031 A 
ATOM     67  C   UNL A   1      42.225  27.495  26.483  1.00  0.00     0.131 A 
ATOM     68  C   UNL A   1      41.662  24.788  26.427  1.00  0.00     0.055 A 
ATOM     69  C   UNL A   1      42.544  26.746  25.347  1.00  0.00     0.041 A 
ATOM     70  F   UNL A   1      42.585  28.788  26.493  1.00  0.00    -0.206 F 
ATOM     71  C   UNL A   1      42.282  25.379  25.325  1.00  0.00     0.022 A 
BRANCH  68  72
ATOM     72  S   UNL A   1      41.549  22.981  26.546  1.00  0.00     0.124 S 
ATOM     73  O   UNL A   1      40.127  22.757  26.296  1.00  0.00    -0.237 OA
ATOM     74  O   UNL A   1      42.460  22.539  25.497  1.00  0.00    -0.237 OA
ATOM     75  O   UNL A   1      41.983  22.699  27.913  1.00  0.00    -0.744 OA
ENDBRANCH  68  72
ENDBRANCH  51  65
BRANCH  52  76
ATOM     76  C   UNL A   1      39.273  32.252  35.734  1.00  0.00     0.023 A 
ATOM     77  C   UNL A   1      38.501  31.632  36.729  1.00  0.00     0.031 A 
ATOM     78  C   UNL A   1      39.646  33.593  35.924  1.00  0.00     0.131 A 
ATOM     79  C   UNL A   1      38.100  32.365  37.857  1.00  0.00     0.055 A 
ATOM     80  C   UNL A   1      39.281  34.305  37.068  1.00  0.00     0.041 A 
ATOM     81  F   UNL A   1      40.385  34.230  35.002  1.00  0.00    -0.206 F 
ATOM     82  C   UNL A   1      38.495  33.693  38.039  1.00  0.00     0.022 A 
BRANCH  79  83
ATOM     83  S   UNL A   1      37.009  31.573  39.071  1.00  0.00     0.124 S 
ATOM     84  O   UNL A   1      35.833  32.435  39.020  1.00  0.00    -0.237 OA
ATOM     85  O   UNL A   1      36.848  30.235  38.510  1.00  0.00    -0.237 OA
ATOM     86  O   UNL A   1      37.778  31.636  40.312  1.00  0.00    -0.744 OA
ENDBRANCH  79  83
ENDBRANCH  52  76
BRANCH  64  87
ATOM     87  C   UNL A   1      44.333  27.661  34.262  1.00  0.00     0.023 A 
ATOM     88  C   UNL A   1      44.246  26.488  35.031  1.00  0.00     0.031 A 
ATOM     89  C   UNL A   1      45.566  28.338  34.223  1.00  0.00     0.131 A 
ATOM     90  C   UNL A   1      45.366  26.044  35.755  1.00  0.00     0.055 A 
ATOM     91  C   UNL A   1      46.688  27.866  34.906  1.00  0.00     0.041 A 
ATOM     92  F   UNL A   1      45.704  29.464  33.504  1.00  0.00    -0.206 F 
ATOM     93  C   UNL A   1      46.589  26.717  35.684  1.00  0.00     0.022 A 
BRANCH  90  94
ATOM     94  S   UNL A   1      45.192  24.598  36.837  1.00  0.00     0.124 S 
ATOM     95  O   UNL A   1      43.831  24.754  37.339  1.00  0.00    -0.237 OA
ATOM     96  O   UNL A   1      45.410  23.488  35.916  1.00  0.00    -0.237 OA
ATOM     97  O   UNL A   1      46.244  24.788  37.835  1.00  0.00    -0.744 OA
ENDBRANCH  90  94
ENDBRANCH  64  87
ENDBRANCH  38  39
ENDBRANCH  31  33
ENDBRANCH  30  31
ENDBRANCH  29  30
ENDBRANCH   1  29
TORSDOF 17
ENDMDL
MODEL 2
REMARK VINA RESULT:     -12.3      0.939      7.346
REMARK SMILES O=C(CCCN1C(=O)c2ccc3c4c(ccc(c24)C1=O)C(=O)NC3=O)OCCOC(=O)c1ccc(-c2c3nc(c(-c4cc(S(=O)(=O)[O-])ccc4F)c4ccc([nH]4)c(-c4cc(S(=O)(=O)[O-])ccc4F)c4nc(c(-c5cc(S(=O)(=O)[O-])ccc5F)c5ccc2[nH]5)C=C4)C=C3)cc1
REMARK SMILES IDX 27 1 26 2 2 3 1 4 3 5 4 6 5 7 6 8 19 9 7 10 20 11 17 12 9 13
REMARK SMILES IDX 8 14 16 15 18 16 10 17 15 18 13 19 11 20 14 21 12 22 21 23
REMARK SMILES IDX 24 24 23 25 22 26 25 27 28 29 29 30 30 31 31 32 32 33 33 34
REMARK SMILES IDX 94 35 34 36 93 37 35 38 36 39 37 40 87 41 38 42 92 43 86 44
REMARK SMILES IDX 88 45 39 46 91 47 85 48 84 49 40 51 72 52 52 53 71 54 53 55
REMARK SMILES IDX 56 56 70 57 89 58 54 59 55 60 69 62 90 63 57 64 41 65 42 66
REMARK SMILES IDX 50 67 43 68 49 69 51 70 48 71 44 72 45 73 46 74 47 75 73 76
REMARK SMILES IDX 74 77 82 78 75 79 81 80 83 81 80 82 76 83 77 84 78 85 79 86
REMARK SMILES IDX 58 87 59 88 67 89 60 90 66 91 68 92 65 93 61 94 62 95 63 96
REMARK SMILES IDX 64 97
REMARK H PARENT 23 28 88 50 56 61
REMARK Flexibility Score: inf
ROOT
ATOM      1  C   UNL A   1      31.315  31.603  26.403  1.00  0.00     0.274 C 
ENDROOT
BRANCH   1   2
ATOM      2  O   UNL A   1      32.154  30.454  26.600  1.00  0.00    -0.462 OA
BRANCH   2   3
ATOM      3  C   UNL A   1      31.766  29.236  26.142  1.00  0.00     0.305 C 
ATOM      4  O   UNL A   1      31.967  28.221  26.801  1.00  0.00    -0.252 OA
BRANCH   3   5
ATOM      5  C   UNL A   1      31.218  29.177  24.733  1.00  0.00     0.124 C 
BRANCH   5   6
ATOM      6  C   UNL A   1      30.709  27.803  24.309  1.00  0.00     0.034 C 
BRANCH   6   7
ATOM      7  C   UNL A   1      31.561  27.066  23.263  1.00  0.00     0.130 C 
BRANCH   7   8
ATOM      8  N   UNL A   1      32.259  25.833  23.665  1.00  0.00    -0.274 N 
ATOM      9  C   UNL A   1      31.532  24.644  23.549  1.00  0.00     0.261 C 
ATOM     10  C   UNL A   1      33.496  25.906  24.306  1.00  0.00     0.261 C 
ATOM     11  O   UNL A   1      30.365  24.584  23.168  1.00  0.00    -0.269 OA
ATOM     12  C   UNL A   1      32.229  23.381  23.876  1.00  0.00     0.049 A 
ATOM     13  C   UNL A   1      34.207  24.625  24.551  1.00  0.00     0.049 A 
ATOM     14  O   UNL A   1      34.028  26.949  24.668  1.00  0.00    -0.269 OA
ATOM     15  C   UNL A   1      31.566  22.158  23.689  1.00  0.00     0.015 A 
ATOM     16  C   UNL A   1      33.551  23.412  24.325  1.00  0.00     0.009 A 
ATOM     17  C   UNL A   1      35.534  24.640  25.000  1.00  0.00     0.015 A 
ATOM     18  C   UNL A   1      32.226  20.958  23.939  1.00  0.00     0.015 A 
ATOM     19  C   UNL A   1      34.234  22.191  24.563  1.00  0.00     0.009 A 
ATOM     20  C   UNL A   1      36.222  23.443  25.207  1.00  0.00     0.015 A 
ATOM     21  C   UNL A   1      33.557  20.977  24.365  1.00  0.00     0.048 A 
ATOM     22  C   UNL A   1      35.571  22.226  24.991  1.00  0.00     0.048 A 
ATOM     23  C   UNL A   1      34.263  19.699  24.615  1.00  0.00     0.258 C 
ATOM     24  C   UNL A   1      36.292  20.952  25.221  1.00  0.00     0.258 C 
ATOM     25  N   UNL A   1      35.573  19.798  25.012  1.00  0.00    -0.288 N 
ATOM     26  O   UNL A   1      33.700  18.620  24.476  1.00  0.00    -0.269 OA
ATOM     27  O   UNL A   1      37.461  20.927  25.582  1.00  0.00    -0.269 OA
ATOM     28  H   UNL A   1      36.052  18.951  25.162  1.00  0.00     0.173 HD
ENDBRANCH   7   8
ENDBRANCH   6   7
ENDBRANCH   5   6
ENDBRANCH   3   5
ENDBRANCH   2   3
ENDBRANCH   1   2
BRANCH   1  29
ATOM     29  C   UNL A   1      31.813  32.844  27.148  1.00  0.00     0.275 C 
BRANCH  29  30
ATOM     30  O   UNL A   1      33.226  33.028  26.966  1.00  0.00    -0.458 OA
BRANCH  30  31
ATOM     31  C   UNL A   1      33.849  33.656  28.004  1.00  0.00     0.338 C 
ATOM     32  O   UNL A   1      33.429  34.616  28.614  1.00  0.00    -0.246 OA
BRANCH  31  33
ATOM     33  C   UNL A   1      35.054  32.889  28.407  1.00  0.00     0.060 A 
ATOM     34  C   UNL A   1      34.906  31.517  28.647  1.00  0.00     0.016 A 
ATOM     35  C   UNL A   1      36.306  33.492  28.551  1.00  0.00     0.016 A 
ATOM     36  C   UNL A   1      36.000  30.753  29.062  1.00  0.00     0.010 A 
ATOM     37  C   UNL A   1      37.403  32.725  28.953  1.00  0.00     0.010 A 
ATOM     38  C   UNL A   1      37.249  31.357  29.245  1.00  0.00    -0.014 A 
BRANCH  38  39
ATOM     39  C   UNL A   1      38.347  30.621  29.924  1.00  0.00     0.031 A 
ATOM     40  C   UNL A   1      38.681  30.988  31.345  1.00  0.00     0.074 A 
ATOM     41  C   UNL A   1      39.045  29.657  29.299  1.00  0.00     0.049 A 
ATOM     42  N   UNL A   1      39.643  30.553  32.117  1.00  0.00    -0.248 NA
ATOM     43  C   UNL A   1      37.817  32.001  31.968  1.00  0.00     0.031 C 
ATOM     44  C   UNL A   1      38.811  29.194  27.932  1.00  0.00     0.029 A 
ATOM     45  N   UNL A   1      40.109  28.905  29.732  1.00  0.00    -0.354 N 
ATOM     46  C   UNL A   1      39.509  31.249  33.314  1.00  0.00     0.074 A 
ATOM     47  C   UNL A   1      38.404  32.169  33.141  1.00  0.00     0.031 C 
ATOM     48  C   UNL A   1      39.720  28.249  27.632  1.00  0.00     0.029 A 
ATOM     49  C   UNL A   1      40.618  28.064  28.771  1.00  0.00     0.049 A 
ATOM     50  H   UNL A   1      40.474  28.963  30.645  1.00  0.00     0.167 HD
ATOM     51  C   UNL A   1      40.229  31.125  34.457  1.00  0.00     0.034 A 
ATOM     52  C   UNL A   1      41.701  27.258  28.798  1.00  0.00     0.034 A 
ATOM     53  C   UNL A   1      41.333  30.211  34.613  1.00  0.00     0.049 A 
ATOM     54  C   UNL A   1      42.535  27.178  30.054  1.00  0.00     0.074 A 
ATOM     55  C   UNL A   1      42.113  29.983  35.734  1.00  0.00     0.029 A 
ATOM     56  N   UNL A   1      41.826  29.382  33.613  1.00  0.00    -0.354 N 
ATOM     57  N   UNL A   1      42.387  27.823  31.189  1.00  0.00    -0.248 NA
ATOM     58  C   UNL A   1      43.679  26.255  30.036  1.00  0.00     0.031 C 
ATOM     59  C   UNL A   1      43.119  29.072  35.391  1.00  0.00     0.029 A 
ATOM     60  C   UNL A   1      42.921  28.671  34.080  1.00  0.00     0.049 A 
ATOM     61  H   UNL A   1      41.453  29.312  32.705  1.00  0.00     0.167 HD
ATOM     62  C   UNL A   1      43.399  27.360  32.026  1.00  0.00     0.074 A 
ATOM     63  C   UNL A   1      44.152  26.383  31.268  1.00  0.00     0.031 C 
ATOM     64  C   UNL A   1      43.670  27.702  33.312  1.00  0.00     0.034 A 
BRANCH  51  65
ATOM     65  C   UNL A   1      39.864  32.048  35.595  1.00  0.00     0.023 A 
ATOM     66  C   UNL A   1      39.034  31.625  36.649  1.00  0.00     0.031 A 
ATOM     67  C   UNL A   1      40.280  33.390  35.583  1.00  0.00     0.131 A 
ATOM     68  C   UNL A   1      38.561  32.559  37.583  1.00  0.00     0.055 A 
ATOM     69  C   UNL A   1      39.883  34.293  36.571  1.00  0.00     0.041 A 
ATOM     70  F   UNL A   1      41.056  33.857  34.591  1.00  0.00    -0.206 F 
ATOM     71  C   UNL A   1      38.999  33.884  37.566  1.00  0.00     0.022 A 
BRANCH  68  72
ATOM     72  S   UNL A   1      37.214  32.060  38.692  1.00  0.00     0.124 S 
ATOM     73  O   UNL A   1      37.795  32.335  40.004  1.00  0.00    -0.237 OA
ATOM     74  O   UNL A   1      36.125  32.936  38.278  1.00  0.00    -0.237 OA
ATOM     75  O   UNL A   1      37.028  30.642  38.390  1.00  0.00    -0.744 OA
ENDBRANCH  68  72
ENDBRANCH  51  65
BRANCH  52  76
ATOM     76  C   UNL A   1      42.091  26.496  27.578  1.00  0.00     0.023 A 
ATOM     77  C   UNL A   1      41.828  25.123  27.458  1.00  0.00     0.031 A 
ATOM     78  C   UNL A   1      42.763  27.137  26.523  1.00  0.00     0.131 A 
ATOM     79  C   UNL A   1      42.263  24.427  26.319  1.00  0.00     0.055 A 
ATOM     80  C   UNL A   1      43.154  26.450  25.373  1.00  0.00     0.041 A 
ATOM     81  F   UNL A   1      43.036  28.450  26.589  1.00  0.00    -0.206 F 
ATOM     82  C   UNL A   1      42.912  25.084  25.270  1.00  0.00     0.022 A 
BRANCH  79  83
ATOM     83  S   UNL A   1      42.010  22.632  26.242  1.00  0.00     0.124 S 
ATOM     84  O   UNL A   1      42.663  22.188  27.469  1.00  0.00    -0.237 OA
ATOM     85  O   UNL A   1      40.554  22.530  26.217  1.00  0.00    -0.237 OA
ATOM     86  O   UNL A   1      42.680  22.247  25.002  1.00  0.00    -0.744 OA
ENDBRANCH  79  83
ENDBRANCH  52  76
BRANCH  64  87
ATOM     87  C   UNL A   1      44.795  26.973  34.006  1.00  0.00     0.023 A 
ATOM     88  C   UNL A   1      44.592  25.765  34.694  1.00  0.00     0.031 A 
ATOM     89  C   UNL A   1      46.103  27.490  33.946  1.00  0.00     0.131 A 
ATOM     90  C   UNL A   1      45.675  25.129  35.322  1.00  0.00     0.055 A 
ATOM     91  C   UNL A   1      47.183  26.830  34.532  1.00  0.00     0.041 A 
ATOM     92  F   UNL A   1      46.353  28.641  33.302  1.00  0.00    -0.206 F 
ATOM     93  C   UNL A   1      46.971  25.645  35.232  1.00  0.00     0.022 A 
BRANCH  90  94
ATOM     94  S   UNL A   1      45.365  23.638  36.308  1.00  0.00     0.124 S 
ATOM     95  O   UNL A   1      44.342  22.959  35.521  1.00  0.00    -0.237 OA
ATOM     96  O   UNL A   1      46.678  23.001  36.336  1.00  0.00    -0.237 OA
ATOM     97  O   UNL A   1      44.908  24.165  37.594  1.00  0.00    -0.744 OA
ENDBRANCH  90  94
ENDBRANCH  64  87
ENDBRANCH  38  39
ENDBRANCH  31  33
ENDBRANCH  30  31
ENDBRANCH  29  30
ENDBRANCH   1  29
TORSDOF 17
ENDMDL
MODEL 3
REMARK VINA RESULT:     -12.3      1.808      7.488
REMARK SMILES O=C(CCCN1C(=O)c2ccc3c4c(ccc(c24)C1=O)C(=O)NC3=O)OCCOC(=O)c1ccc(-c2c3nc(c(-c4cc(S(=O)(=O)[O-])ccc4F)c4ccc([nH]4)c(-c4cc(S(=O)(=O)[O-])ccc4F)c4nc(c(-c5cc(S(=O)(=O)[O-])ccc5F)c5ccc2[nH]5)C=C4)C=C3)cc1
REMARK SMILES IDX 27 1 26 2 2 3 1 4 3 5 4 6 5 7 6 8 19 9 7 10 20 11 17 12 9 13
REMARK SMILES IDX 8 14 16 15 18 16 10 17 15 18 13 19 11 20 14 21 12 22 21 23
REMARK SMILES IDX 24 24 23 25 22 26 25 27 28 29 29 30 30 31 31 32 32 33 33 34
REMARK SMILES IDX 94 35 34 36 93 37 35 38 36 39 37 40 87 41 38 42 92 43 86 44
REMARK SMILES IDX 88 45 39 46 91 47 85 48 84 49 40 51 72 52 52 53 71 54 53 55
REMARK SMILES IDX 56 56 70 57 89 58 54 59 55 60 69 62 90 63 57 64 41 65 42 66
REMARK SMILES IDX 50 67 43 68 49 69 51 70 48 71 44 72 45 73 46 74 47 75 73 76
REMARK SMILES IDX 74 77 82 78 75 79 81 80 83 81 80 82 76 83 77 84 78 85 79 86
REMARK SMILES IDX 58 87 59 88 67 89 60 90 66 91 68 92 65 93 61 94 62 95 63 96
REMARK SMILES IDX 64 97
REMARK H PARENT 23 28 88 50 56 61
REMARK Flexibility Score: inf
ROOT
ATOM      1  C   UNL A   1      31.440  29.588  25.186  1.00  0.00     0.274 C 
ENDROOT
BRANCH   1   2
ATOM      2  O   UNL A   1      30.480  29.703  24.123  1.00  0.00    -0.462 OA
BRANCH   2   3
ATOM      3  C   UNL A   1      30.734  29.153  22.909  1.00  0.00     0.305 C 
ATOM      4  O   UNL A   1      29.948  29.291  21.977  1.00  0.00    -0.252 OA
BRANCH   3   5
ATOM      5  C   UNL A   1      31.942  28.247  22.805  1.00  0.00     0.124 C 
BRANCH   5   6
ATOM      6  C   UNL A   1      31.615  26.758  22.767  1.00  0.00     0.034 C 
BRANCH   6   7
ATOM      7  C   UNL A   1      31.549  26.051  24.131  1.00  0.00     0.130 C 
BRANCH   7   8
ATOM      8  N   UNL A   1      32.422  24.888  24.364  1.00  0.00    -0.274 N 
ATOM      9  C   UNL A   1      31.815  23.631  24.270  1.00  0.00     0.261 C 
ATOM     10  C   UNL A   1      33.719  25.070  24.843  1.00  0.00     0.261 C 
ATOM     11  O   UNL A   1      30.621  23.457  24.040  1.00  0.00    -0.269 OA
ATOM     12  C   UNL A   1      32.680  22.440  24.426  1.00  0.00     0.049 A 
ATOM     13  C   UNL A   1      34.588  23.867  24.915  1.00  0.00     0.049 A 
ATOM     14  O   UNL A   1      34.182  26.148  25.197  1.00  0.00    -0.269 OA
ATOM     15  C   UNL A   1      32.130  21.161  24.252  1.00  0.00     0.015 A 
ATOM     16  C   UNL A   1      34.039  22.599  24.702  1.00  0.00     0.009 A 
ATOM     17  C   UNL A   1      35.955  24.011  25.190  1.00  0.00     0.015 A 
ATOM     18  C   UNL A   1      32.941  20.032  24.340  1.00  0.00     0.015 A 
ATOM     19  C   UNL A   1      34.873  21.453  24.775  1.00  0.00     0.009 A 
ATOM     20  C   UNL A   1      36.786  22.890  25.233  1.00  0.00     0.015 A 
ATOM     21  C   UNL A   1      34.308  20.181  24.592  1.00  0.00     0.048 A 
ATOM     22  C   UNL A   1      36.244  21.619  25.028  1.00  0.00     0.048 A 
ATOM     23  C   UNL A   1      35.171  18.981  24.671  1.00  0.00     0.258 C 
ATOM     24  C   UNL A   1      37.121  20.425  25.086  1.00  0.00     0.258 C 
ATOM     25  N   UNL A   1      36.506  19.208  24.900  1.00  0.00    -0.288 N 
ATOM     26  O   UNL A   1      34.713  17.853  24.539  1.00  0.00    -0.269 OA
ATOM     27  O   UNL A   1      38.323  20.515  25.290  1.00  0.00    -0.269 OA
ATOM     28  H   UNL A   1      37.087  18.415  24.935  1.00  0.00     0.173 HD
ENDBRANCH   7   8
ENDBRANCH   6   7
ENDBRANCH   5   6
ENDBRANCH   3   5
ENDBRANCH   2   3
ENDBRANCH   1   2
BRANCH   1  29
ATOM     29  C   UNL A   1      31.609  30.884  25.983  1.00  0.00     0.275 C 
BRANCH  29  30
ATOM     30  O   UNL A   1      32.492  30.696  27.101  1.00  0.00    -0.458 OA
BRANCH  30  31
ATOM     31  C   UNL A   1      33.280  31.773  27.381  1.00  0.00     0.338 C 
ATOM     32  O   UNL A   1      32.937  32.936  27.352  1.00  0.00    -0.246 OA
BRANCH  31  33
ATOM     33  C   UNL A   1      34.592  31.317  27.902  1.00  0.00     0.060 A 
ATOM     34  C   UNL A   1      34.769  29.944  28.117  1.00  0.00     0.016 A 
ATOM     35  C   UNL A   1      35.633  32.206  28.178  1.00  0.00     0.016 A 
ATOM     36  C   UNL A   1      35.972  29.462  28.639  1.00  0.00     0.010 A 
ATOM     37  C   UNL A   1      36.842  31.723  28.687  1.00  0.00     0.010 A 
ATOM     38  C   UNL A   1      37.007  30.351  28.953  1.00  0.00    -0.014 A 
BRANCH  38  39
ATOM     39  C   UNL A   1      38.181  29.889  29.737  1.00  0.00     0.031 A 
ATOM     40  C   UNL A   1      38.388  30.457  31.116  1.00  0.00     0.074 A 
ATOM     41  C   UNL A   1      39.056  28.997  29.242  1.00  0.00     0.049 A 
ATOM     42  N   UNL A   1      39.374  30.277  31.955  1.00  0.00    -0.248 NA
ATOM     43  C   UNL A   1      37.341  31.369  31.600  1.00  0.00     0.031 C 
ATOM     44  C   UNL A   1      38.962  28.358  27.931  1.00  0.00     0.029 A 
ATOM     45  N   UNL A   1      40.211  28.487  29.783  1.00  0.00    -0.354 N 
ATOM     46  C   UNL A   1      39.075  31.063  33.063  1.00  0.00     0.074 A 
ATOM     47  C   UNL A   1      37.841  31.758  32.761  1.00  0.00     0.031 C 
ATOM     48  C   UNL A   1      40.028  27.555  27.762  1.00  0.00     0.029 A 
ATOM     49  C   UNL A   1      40.894  27.647  28.936  1.00  0.00     0.049 A 
ATOM     50  H   UNL A   1      40.521  28.704  30.692  1.00  0.00     0.167 HD
ATOM     51  C   UNL A   1      39.755  31.186  34.230  1.00  0.00     0.034 A 
ATOM     52  C   UNL A   1      42.094  27.045  29.080  1.00  0.00     0.034 A 
ATOM     53  C   UNL A   1      40.988  30.495  34.516  1.00  0.00     0.049 A 
ATOM     54  C   UNL A   1      42.874  27.242  30.357  1.00  0.00     0.074 A 
ATOM     55  C   UNL A   1      41.746  30.524  35.674  1.00  0.00     0.029 A 
ATOM     56  N   UNL A   1      41.655  29.661  33.627  1.00  0.00    -0.354 N 
ATOM     57  N   UNL A   1      42.572  27.970  31.408  1.00  0.00    -0.248 NA
ATOM     58  C   UNL A   1      44.155  26.531  30.471  1.00  0.00     0.031 C 
ATOM     59  C   UNL A   1      42.903  29.766  35.461  1.00  0.00     0.029 A 
ATOM     60  C   UNL A   1      42.831  29.199  34.198  1.00  0.00     0.049 A 
ATOM     61  H   UNL A   1      41.338  29.432  32.724  1.00  0.00     0.167 HD
ATOM     62  C   UNL A   1      43.609  27.778  32.318  1.00  0.00     0.074 A 
ATOM     63  C   UNL A   1      44.546  26.867  31.693  1.00  0.00     0.031 C 
ATOM     64  C   UNL A   1      43.764  28.296  33.563  1.00  0.00     0.034 A 
BRANCH  51  65
ATOM     65  C   UNL A   1      39.193  32.149  35.248  1.00  0.00     0.023 A 
ATOM     66  C   UNL A   1      39.604  33.493  35.297  1.00  0.00     0.031 A 
ATOM     67  C   UNL A   1      38.300  31.698  36.235  1.00  0.00     0.131 A 
ATOM     68  C   UNL A   1      39.210  34.305  36.370  1.00  0.00     0.055 A 
ATOM     69  C   UNL A   1      37.834  32.540  37.247  1.00  0.00     0.041 A 
ATOM     70  F   UNL A   1      37.887  30.420  36.253  1.00  0.00    -0.206 F 
ATOM     71  C   UNL A   1      38.308  33.846  37.332  1.00  0.00     0.022 A 
BRANCH  68  72
ATOM     72  S   UNL A   1      40.048  35.899  36.598  1.00  0.00     0.124 S 
ATOM     73  O   UNL A   1      41.447  35.487  36.686  1.00  0.00    -0.237 OA
ATOM     74  O   UNL A   1      39.670  36.628  35.393  1.00  0.00    -0.237 OA
ATOM     75  O   UNL A   1      39.480  36.411  37.844  1.00  0.00    -0.744 OA
ENDBRANCH  68  72
ENDBRANCH  51  65
BRANCH  52  76
ATOM     76  C   UNL A   1      42.658  26.235  27.964  1.00  0.00     0.023 A 
ATOM     77  C   UNL A   1      42.381  24.864  27.842  1.00  0.00     0.031 A 
ATOM     78  C   UNL A   1      43.511  26.826  27.015  1.00  0.00     0.131 A 
ATOM     79  C   UNL A   1      42.977  24.122  26.810  1.00  0.00     0.055 A 
ATOM     80  C   UNL A   1      44.067  26.093  25.966  1.00  0.00     0.041 A 
ATOM     81  F   UNL A   1      43.805  28.134  27.088  1.00  0.00    -0.206 F 
ATOM     82  C   UNL A   1      43.807  24.729  25.864  1.00  0.00     0.022 A 
BRANCH  79  83
ATOM     83  S   UNL A   1      42.691  22.332  26.744  1.00  0.00     0.124 S 
ATOM     84  O   UNL A   1      41.487  22.254  25.923  1.00  0.00    -0.237 OA
ATOM     85  O   UNL A   1      43.921  21.848  26.126  1.00  0.00    -0.237 OA
ATOM     86  O   UNL A   1      42.515  21.964  28.147  1.00  0.00    -0.744 OA
ENDBRANCH  79  83
ENDBRANCH  52  76
BRANCH  64  87
ATOM     87  C   UNL A   1      44.963  27.847  34.362  1.00  0.00     0.023 A 
ATOM     88  C   UNL A   1      44.967  26.649  35.097  1.00  0.00     0.031 A 
ATOM     89  C   UNL A   1      46.135  28.626  34.357  1.00  0.00     0.131 A 
ATOM     90  C   UNL A   1      46.111  26.280  35.823  1.00  0.00     0.055 A 
ATOM     91  C   UNL A   1      47.285  28.231  35.043  1.00  0.00     0.041 A 
ATOM     92  F   UNL A   1      46.186  29.779  33.672  1.00  0.00    -0.206 F 
ATOM     93  C   UNL A   1      47.275  27.055  35.788  1.00  0.00     0.022 A 
BRANCH  90  94
ATOM     94  S   UNL A   1      46.048  24.795  36.863  1.00  0.00     0.124 S 
ATOM     95  O   UNL A   1      47.392  24.250  36.698  1.00  0.00    -0.237 OA
ATOM     96  O   UNL A   1      45.741  25.347  38.179  1.00  0.00    -0.237 OA
ATOM     97  O   UNL A   1      44.979  23.999  36.262  1.00  0.00    -0.744 OA
ENDBRANCH  90  94
ENDBRANCH  64  87
ENDBRANCH  38  39
ENDBRANCH  31  33
ENDBRANCH  30  31
ENDBRANCH  29  30
ENDBRANCH   1  29
TORSDOF 17
ENDMDL
