MODEL 1
REMARK VINA RESULT:     -11.3      0.000      0.000
REMARK SMILES COc1ccccc1C[N@@H+](C)[C@@H](C)c1ccc(C(=O)OCCOC(=O)c2ccc(-c3c4nc(c(-c5cc(S(=O)(=O)[O-])ccc5F)c5ccc([nH]5)c(-c5cc(S(=O)(=O)[O-])ccc5F)c5nc(c(-c6cc(S(=O)(=O)[O-])ccc6F)c6ccc3[nH]6)C=C5)C=C4)cc2)o1
REMARK SMILES IDX 21 1 20 2 18 3 19 4 17 5 14 6 15 7 89 8 16 9 12 10 13 11
REMARK SMILES IDX 10 12 11 13 9 15 8 16 3 17 4 18 5 19 7 20 6 21 2 22 1 23
REMARK SMILES IDX 22 24 23 25 24 26 25 27 26 28 27 29 88 30 28 31 87 32 29 33
REMARK SMILES IDX 30 34 31 35 81 36 32 37 86 38 80 39 82 40 33 41 85 42 79 43
REMARK SMILES IDX 78 44 34 46 66 47 46 48 65 49 47 50 50 51 64 52 83 53 48 54
REMARK SMILES IDX 49 55 63 57 84 58 51 59 35 60 36 61 44 62 37 63 43 64 45 65
REMARK SMILES IDX 42 66 38 67 39 68 40 69 41 70 67 71 68 72 76 73 69 74 75 75
REMARK SMILES IDX 77 76 74 77 70 78 71 79 72 80 73 81 52 82 53 83 61 84 54 85
REMARK SMILES IDX 60 86 62 87 59 88 55 89 56 90 57 91 58 92
REMARK H PARENT 10 14 82 45 50 56
REMARK Flexibility Score: inf
ROOT
ATOM      1  C   UNL A   1      35.380  20.798  25.193  1.00  0.00     0.275 C 
ENDROOT
BRANCH   1   2
ATOM      2  O   UNL A   1      35.197  22.201  24.940  1.00  0.00    -0.456 OA
BRANCH   2   3
ATOM      3  C   UNL A   1      34.704  22.939  25.983  1.00  0.00     0.374 C 
ATOM      4  O   UNL A   1      34.857  22.647  27.158  1.00  0.00    -0.242 OA
BRANCH   3   5
ATOM      5  C   UNL A   1      34.101  24.147  25.467  1.00  0.00     0.212 A 
ATOM      6  C   UNL A   1      32.549  25.300  24.398  1.00  0.00     0.162 A 
ATOM      7  C   UNL A   1      33.389  26.222  24.988  1.00  0.00     0.053 A 
ATOM      8  O   UNL A   1      32.973  24.037  24.694  1.00  0.00    -0.448 OA
ATOM      9  C   UNL A   1      34.390  25.485  25.658  1.00  0.00     0.059 A 
BRANCH   6  10
ATOM     10  C   UNL A   1      31.336  25.468  23.518  1.00  0.00     0.248 C 
ATOM     11  C   UNL A   1      31.669  25.616  22.027  1.00  0.00     0.084 C 
BRANCH  10  12
ATOM     12  N   UNL A   1      30.403  26.479  24.089  1.00  0.00    -0.325 N 
ATOM     13  C   UNL A   1      29.726  25.932  25.272  1.00  0.00     0.333 C 
ATOM     14  H   UNL A   1      31.001  27.270  24.328  1.00  0.00     0.348 HD
BRANCH  12  15
ATOM     15  C   UNL A   1      29.386  27.011  23.158  1.00  0.00     0.303 C 
BRANCH  15  16
ATOM     16  C   UNL A   1      29.119  28.501  23.223  1.00  0.00     0.048 A 
ATOM     17  C   UNL A   1      30.087  29.456  23.579  1.00  0.00     0.127 A 
ATOM     18  C   UNL A   1      29.721  30.796  23.773  1.00  0.00     0.047 A 
ATOM     19  C   UNL A   1      28.406  31.213  23.575  1.00  0.00     0.004 A 
ATOM     20  C   UNL A   1      27.800  28.951  22.994  1.00  0.00     0.013 A 
ATOM     21  C   UNL A   1      27.446  30.291  23.174  1.00  0.00     0.001 A 
BRANCH  17  22
ATOM     22  O   UNL A   1      31.374  29.166  23.942  1.00  0.00    -0.496 OA
ATOM     23  C   UNL A   1      32.300  29.088  22.866  1.00  0.00     0.278 C 
ENDBRANCH  17  22
ENDBRANCH  15  16
ENDBRANCH  12  15
ENDBRANCH  10  12
ENDBRANCH   6  10
ENDBRANCH   3   5
ENDBRANCH   2   3
ENDBRANCH   1   2
BRANCH   1  24
ATOM     24  C   UNL A   1      36.820  20.399  24.855  1.00  0.00     0.275 C 
BRANCH  24  25
ATOM     25  O   UNL A   1      37.733  21.468  25.162  1.00  0.00    -0.458 OA
BRANCH  25  26
ATOM     26  C   UNL A   1      38.850  21.104  25.836  1.00  0.00     0.338 C 
ATOM     27  O   UNL A   1      39.323  19.986  25.932  1.00  0.00    -0.246 OA
BRANCH  26  28
ATOM     28  C   UNL A   1      39.465  22.304  26.419  1.00  0.00     0.060 A 
ATOM     29  C   UNL A   1      38.969  23.566  26.087  1.00  0.00     0.016 A 
ATOM     30  C   UNL A   1      40.585  22.177  27.237  1.00  0.00     0.016 A 
ATOM     31  C   UNL A   1      39.610  24.715  26.541  1.00  0.00     0.010 A 
ATOM     32  C   UNL A   1      41.206  23.328  27.724  1.00  0.00     0.010 A 
ATOM     33  C   UNL A   1      40.735  24.606  27.364  1.00  0.00    -0.014 A 
BRANCH  33  34
ATOM     34  C   UNL A   1      41.472  25.813  27.809  1.00  0.00     0.031 A 
ATOM     35  C   UNL A   1      40.745  26.860  28.603  1.00  0.00     0.074 A 
ATOM     36  C   UNL A   1      42.764  25.985  27.473  1.00  0.00     0.049 A 
ATOM     37  N   UNL A   1      41.105  28.081  28.895  1.00  0.00    -0.248 NA
ATOM     38  C   UNL A   1      39.424  26.478  29.124  1.00  0.00     0.031 C 
ATOM     39  C   UNL A   1      43.593  25.005  26.771  1.00  0.00     0.029 A 
ATOM     40  N   UNL A   1      43.599  27.059  27.656  1.00  0.00    -0.354 N 
ATOM     41  C   UNL A   1      40.040  28.630  29.602  1.00  0.00     0.074 A 
ATOM     42  C   UNL A   1      39.014  27.610  29.673  1.00  0.00     0.031 C 
ATOM     43  C   UNL A   1      44.814  25.527  26.571  1.00  0.00     0.029 A 
ATOM     44  C   UNL A   1      44.828  26.903  27.059  1.00  0.00     0.049 A 
ATOM     45  H   UNL A   1      43.343  27.862  28.165  1.00  0.00     0.167 HD
ATOM     46  C   UNL A   1      39.936  29.871  30.135  1.00  0.00     0.034 A 
ATOM     47  C   UNL A   1      45.829  27.787  26.876  1.00  0.00     0.034 A 
ATOM     48  C   UNL A   1      40.981  30.864  30.049  1.00  0.00     0.049 A 
ATOM     49  C   UNL A   1      45.656  29.195  27.393  1.00  0.00     0.074 A 
ATOM     50  C   UNL A   1      40.990  32.154  30.550  1.00  0.00     0.029 A 
ATOM     51  N   UNL A   1      42.204  30.677  29.414  1.00  0.00    -0.354 N 
ATOM     52  N   UNL A   1      44.631  29.725  28.021  1.00  0.00    -0.248 NA
ATOM     53  C   UNL A   1      46.772  30.126  27.176  1.00  0.00     0.031 C 
ATOM     54  C   UNL A   1      42.181  32.769  30.153  1.00  0.00     0.029 A 
ATOM     55  C   UNL A   1      42.960  31.837  29.486  1.00  0.00     0.049 A 
ATOM     56  H   UNL A   1      42.490  29.844  28.975  1.00  0.00     0.167 HD
ATOM     57  C   UNL A   1      44.999  31.035  28.315  1.00  0.00     0.074 A 
ATOM     58  C   UNL A   1      46.337  31.216  27.791  1.00  0.00     0.031 C 
ATOM     59  C   UNL A   1      44.299  31.996  28.968  1.00  0.00     0.034 A 
BRANCH  46  60
ATOM     60  C   UNL A   1      38.628  30.240  30.794  1.00  0.00     0.023 A 
ATOM     61  C   UNL A   1      37.604  30.907  30.097  1.00  0.00     0.031 A 
ATOM     62  C   UNL A   1      38.414  29.951  32.153  1.00  0.00     0.131 A 
ATOM     63  C   UNL A   1      36.452  31.327  30.779  1.00  0.00     0.055 A 
ATOM     64  C   UNL A   1      37.229  30.295  32.805  1.00  0.00     0.041 A 
ATOM     65  F   UNL A   1      39.363  29.339  32.880  1.00  0.00    -0.206 F 
ATOM     66  C   UNL A   1      36.245  31.003  32.121  1.00  0.00     0.022 A 
BRANCH  63  67
ATOM     67  S   UNL A   1      35.297  32.437  29.927  1.00  0.00     0.124 S 
ATOM     68  O   UNL A   1      36.172  33.548  29.559  1.00  0.00    -0.237 OA
ATOM     69  O   UNL A   1      34.817  31.610  28.826  1.00  0.00    -0.237 OA
ATOM     70  O   UNL A   1      34.303  32.750  30.951  1.00  0.00    -0.744 OA
ENDBRANCH  63  67
ENDBRANCH  46  60
BRANCH  47  71
ATOM     71  C   UNL A   1      47.058  27.394  26.126  1.00  0.00     0.023 A 
ATOM     72  C   UNL A   1      47.236  27.765  24.785  1.00  0.00     0.031 A 
ATOM     73  C   UNL A   1      48.053  26.601  26.727  1.00  0.00     0.131 A 
ATOM     74  C   UNL A   1      48.357  27.305  24.074  1.00  0.00     0.055 A 
ATOM     75  C   UNL A   1      49.197  26.199  26.034  1.00  0.00     0.041 A 
ATOM     76  F   UNL A   1      47.933  26.212  28.007  1.00  0.00    -0.206 F 
ATOM     77  C   UNL A   1      49.346  26.539  24.695  1.00  0.00     0.022 A 
BRANCH  74  78
ATOM     78  S   UNL A   1      48.451  27.641  22.295  1.00  0.00     0.124 S 
ATOM     79  O   UNL A   1      47.177  28.309  22.051  1.00  0.00    -0.237 OA
ATOM     80  O   UNL A   1      49.643  28.478  22.206  1.00  0.00    -0.237 OA
ATOM     81  O   UNL A   1      48.581  26.310  21.704  1.00  0.00    -0.744 OA
ENDBRANCH  74  78
ENDBRANCH  47  71
BRANCH  59  82
ATOM     82  C   UNL A   1      45.003  33.305  29.236  1.00  0.00     0.023 A 
ATOM     83  C   UNL A   1      44.955  34.383  28.337  1.00  0.00     0.031 A 
ATOM     84  C   UNL A   1      45.717  33.474  30.438  1.00  0.00     0.131 A 
ATOM     85  C   UNL A   1      45.645  35.569  28.635  1.00  0.00     0.055 A 
ATOM     86  C   UNL A   1      46.349  34.675  30.755  1.00  0.00     0.041 A 
ATOM     87  F   UNL A   1      45.799  32.473  31.330  1.00  0.00    -0.206 F 
ATOM     88  C   UNL A   1      46.323  35.729  29.847  1.00  0.00     0.022 A 
BRANCH  85  89
ATOM     89  S   UNL A   1      45.707  36.883  27.386  1.00  0.00     0.124 S 
ATOM     90  O   UNL A   1      46.185  36.162  26.211  1.00  0.00    -0.237 OA
ATOM     91  O   UNL A   1      44.320  37.334  27.336  1.00  0.00    -0.237 OA
ATOM     92  O   UNL A   1      46.651  37.847  27.949  1.00  0.00    -0.744 OA
ENDBRANCH  85  89
ENDBRANCH  59  82
ENDBRANCH  33  34
ENDBRANCH  26  28
ENDBRANCH  25  26
ENDBRANCH  24  25
ENDBRANCH   1  24
TORSDOF 19
ENDMDL
MODEL 2
REMARK VINA RESULT:     -11.2      5.079     10.107
REMARK SMILES COc1ccccc1C[N@@H+](C)[C@@H](C)c1ccc(C(=O)OCCOC(=O)c2ccc(-c3c4nc(c(-c5cc(S(=O)(=O)[O-])ccc5F)c5ccc([nH]5)c(-c5cc(S(=O)(=O)[O-])ccc5F)c5nc(c(-c6cc(S(=O)(=O)[O-])ccc6F)c6ccc3[nH]6)C=C5)C=C4)cc2)o1
REMARK SMILES IDX 21 1 20 2 18 3 19 4 17 5 14 6 15 7 89 8 16 9 12 10 13 11
REMARK SMILES IDX 10 12 11 13 9 15 8 16 3 17 4 18 5 19 7 20 6 21 2 22 1 23
REMARK SMILES IDX 22 24 23 25 24 26 25 27 26 28 27 29 88 30 28 31 87 32 29 33
REMARK SMILES IDX 30 34 31 35 81 36 32 37 86 38 80 39 82 40 33 41 85 42 79 43
REMARK SMILES IDX 78 44 34 46 66 47 46 48 65 49 47 50 50 51 64 52 83 53 48 54
REMARK SMILES IDX 49 55 63 57 84 58 51 59 35 60 36 61 44 62 37 63 43 64 45 65
REMARK SMILES IDX 42 66 38 67 39 68 40 69 41 70 67 71 68 72 76 73 69 74 75 75
REMARK SMILES IDX 77 76 74 77 70 78 71 79 72 80 73 81 52 82 53 83 61 84 54 85
REMARK SMILES IDX 60 86 62 87 59 88 55 89 56 90 57 91 58 92
REMARK H PARENT 10 14 82 45 50 56
REMARK Flexibility Score: inf
ROOT
ATOM      1  C   UNL A   1      31.574  28.360  25.894  1.00  0.00     0.275 C 
ENDROOT
BRANCH   1   2
ATOM      2  O   UNL A   1      32.266  27.536  24.942  1.00  0.00    -0.456 OA
BRANCH   2   3
ATOM      3  C   UNL A   1      31.597  26.418  24.519  1.00  0.00     0.374 C 
ATOM      4  O   UNL A   1      30.387  26.278  24.591  1.00  0.00    -0.242 OA
BRANCH   3   5
ATOM      5  C   UNL A   1      32.532  25.518  23.880  1.00  0.00     0.212 A 
ATOM      6  C   UNL A   1      34.406  24.356  23.748  1.00  0.00     0.162 A 
ATOM      7  C   UNL A   1      33.627  23.972  22.675  1.00  0.00     0.053 A 
ATOM      8  O   UNL A   1      33.739  25.289  24.488  1.00  0.00    -0.448 OA
ATOM      9  C   UNL A   1      32.436  24.728  22.750  1.00  0.00     0.059 A 
BRANCH   6  10
ATOM     10  C   UNL A   1      35.791  23.945  24.178  1.00  0.00     0.248 C 
ATOM     11  C   UNL A   1      36.438  22.898  23.261  1.00  0.00     0.084 C 
BRANCH  10  12
ATOM     12  N   UNL A   1      35.829  23.657  25.639  1.00  0.00    -0.325 N 
ATOM     13  C   UNL A   1      37.213  23.700  26.127  1.00  0.00     0.333 C 
ATOM     14  H   UNL A   1      35.257  24.390  26.057  1.00  0.00     0.348 HD
BRANCH  12  15
ATOM     15  C   UNL A   1      35.213  22.380  26.057  1.00  0.00     0.303 C 
BRANCH  15  16
ATOM     16  C   UNL A   1      33.699  22.340  26.107  1.00  0.00     0.048 A 
ATOM     17  C   UNL A   1      32.907  21.554  25.250  1.00  0.00     0.127 A 
ATOM     18  C   UNL A   1      31.512  21.695  25.251  1.00  0.00     0.047 A 
ATOM     19  C   UNL A   1      30.883  22.579  26.125  1.00  0.00     0.004 A 
ATOM     20  C   UNL A   1      33.040  23.204  27.008  1.00  0.00     0.013 A 
ATOM     21  C   UNL A   1      31.647  23.327  27.014  1.00  0.00     0.001 A 
BRANCH  17  22
ATOM     22  O   UNL A   1      33.394  20.758  24.249  1.00  0.00    -0.496 OA
ATOM     23  C   UNL A   1      33.747  19.440  24.646  1.00  0.00     0.278 C 
ENDBRANCH  17  22
ENDBRANCH  15  16
ENDBRANCH  12  15
ENDBRANCH  10  12
ENDBRANCH   6  10
ENDBRANCH   3   5
ENDBRANCH   2   3
ENDBRANCH   1   2
BRANCH   1  24
ATOM     24  C   UNL A   1      31.757  29.835  25.525  1.00  0.00     0.275 C 
BRANCH  24  25
ATOM     25  O   UNL A   1      33.107  30.264  25.782  1.00  0.00    -0.458 OA
BRANCH  25  26
ATOM     26  C   UNL A   1      33.260  31.106  26.832  1.00  0.00     0.338 C 
ATOM     27  O   UNL A   1      32.454  31.917  27.251  1.00  0.00    -0.246 OA
BRANCH  26  28
ATOM     28  C   UNL A   1      34.570  30.860  27.451  1.00  0.00     0.060 A 
ATOM     29  C   UNL A   1      34.931  29.560  27.811  1.00  0.00     0.016 A 
ATOM     30  C   UNL A   1      35.408  31.934  27.742  1.00  0.00     0.016 A 
ATOM     31  C   UNL A   1      36.118  29.327  28.499  1.00  0.00     0.010 A 
ATOM     32  C   UNL A   1      36.616  31.695  28.398  1.00  0.00     0.010 A 
ATOM     33  C   UNL A   1      36.972  30.393  28.799  1.00  0.00    -0.014 A 
BRANCH  33  34
ATOM     34  C   UNL A   1      38.210  30.178  29.585  1.00  0.00     0.031 A 
ATOM     35  C   UNL A   1      39.251  29.231  29.061  1.00  0.00     0.074 A 
ATOM     36  C   UNL A   1      38.381  30.794  30.769  1.00  0.00     0.049 A 
ATOM     37  N   UNL A   1      40.285  28.713  29.669  1.00  0.00    -0.248 NA
ATOM     38  C   UNL A   1      39.091  28.798  27.664  1.00  0.00     0.031 C 
ATOM     39  C   UNL A   1      37.476  31.792  31.342  1.00  0.00     0.029 A 
ATOM     40  N   UNL A   1      39.366  30.654  31.716  1.00  0.00    -0.354 N 
ATOM     41  C   UNL A   1      40.880  27.862  28.743  1.00  0.00     0.074 A 
ATOM     42  C   UNL A   1      40.075  27.921  27.541  1.00  0.00     0.031 C 
ATOM     43  C   UNL A   1      37.940  32.162  32.546  1.00  0.00     0.029 A 
ATOM     44  C   UNL A   1      39.128  31.374  32.863  1.00  0.00     0.049 A 
ATOM     45  H   UNL A   1      40.164  30.092  31.585  1.00  0.00     0.167 HD
ATOM     46  C   UNL A   1      41.993  27.104  28.892  1.00  0.00     0.034 A 
ATOM     47  C   UNL A   1      39.761  31.357  34.052  1.00  0.00     0.034 A 
ATOM     48  C   UNL A   1      42.776  27.071  30.105  1.00  0.00     0.049 A 
ATOM     49  C   UNL A   1      40.942  30.434  34.231  1.00  0.00     0.074 A 
ATOM     50  C   UNL A   1      43.922  26.343  30.373  1.00  0.00     0.029 A 
ATOM     51  N   UNL A   1      42.489  27.797  31.256  1.00  0.00    -0.354 N 
ATOM     52  N   UNL A   1      41.475  29.597  33.369  1.00  0.00    -0.248 NA
ATOM     53  C   UNL A   1      41.607  30.449  35.541  1.00  0.00     0.031 C 
ATOM     54  C   UNL A   1      44.281  26.569  31.706  1.00  0.00     0.029 A 
ATOM     55  C   UNL A   1      43.419  27.511  32.243  1.00  0.00     0.049 A 
ATOM     56  H   UNL A   1      41.735  28.421  31.355  1.00  0.00     0.167 HD
ATOM     57  C   UNL A   1      42.565  29.024  34.019  1.00  0.00     0.074 A 
ATOM     58  C   UNL A   1      42.610  29.606  35.345  1.00  0.00     0.031 C 
ATOM     59  C   UNL A   1      43.455  28.109  33.557  1.00  0.00     0.034 A 
BRANCH  46  60
ATOM     60  C   UNL A   1      42.384  26.204  27.743  1.00  0.00     0.023 A 
ATOM     61  C   UNL A   1      41.886  24.895  27.619  1.00  0.00     0.031 A 
ATOM     62  C   UNL A   1      43.298  26.653  26.773  1.00  0.00     0.131 A 
ATOM     63  C   UNL A   1      42.362  24.059  26.598  1.00  0.00     0.055 A 
ATOM     64  C   UNL A   1      43.702  25.845  25.710  1.00  0.00     0.041 A 
ATOM     65  F   UNL A   1      43.829  27.883  26.851  1.00  0.00    -0.206 F 
ATOM     66  C   UNL A   1      43.246  24.532  25.626  1.00  0.00     0.022 A 
BRANCH  63  67
ATOM     67  S   UNL A   1      41.928  22.298  26.646  1.00  0.00     0.124 S 
ATOM     68  O   UNL A   1      42.659  21.846  27.829  1.00  0.00    -0.237 OA
ATOM     69  O   UNL A   1      40.476  22.333  26.767  1.00  0.00    -0.237 OA
ATOM     70  O   UNL A   1      42.436  21.784  25.376  1.00  0.00    -0.744 OA
ENDBRANCH  63  67
ENDBRANCH  46  60
BRANCH  47  71
ATOM     71  C   UNL A   1      39.266  32.193  35.185  1.00  0.00     0.023 A 
ATOM     72  C   UNL A   1      39.781  33.478  35.414  1.00  0.00     0.031 A 
ATOM     73  C   UNL A   1      38.300  31.701  36.083  1.00  0.00     0.131 A 
ATOM     74  C   UNL A   1      39.364  34.208  36.539  1.00  0.00     0.055 A 
ATOM     75  C   UNL A   1      37.843  32.456  37.164  1.00  0.00     0.041 A 
ATOM     76  F   UNL A   1      37.776  30.476  35.915  1.00  0.00    -0.206 F 
ATOM     77  C   UNL A   1      38.387  33.713  37.405  1.00  0.00     0.022 A 
BRANCH  74  78
ATOM     78  S   UNL A   1      40.196  35.776  36.909  1.00  0.00     0.124 S 
ATOM     79  O   UNL A   1      39.655  36.651  35.875  1.00  0.00    -0.237 OA
ATOM     80  O   UNL A   1      39.751  36.042  38.274  1.00  0.00    -0.237 OA
ATOM     81  O   UNL A   1      41.615  35.450  36.771  1.00  0.00    -0.744 OA
ENDBRANCH  74  78
ENDBRANCH  47  71
BRANCH  59  82
ATOM     82  C   UNL A   1      44.609  27.747  34.461  1.00  0.00     0.023 A 
ATOM     83  C   UNL A   1      44.562  26.652  35.339  1.00  0.00     0.031 A 
ATOM     84  C   UNL A   1      45.790  28.512  34.416  1.00  0.00     0.131 A 
ATOM     85  C   UNL A   1      45.662  26.376  36.167  1.00  0.00     0.055 A 
ATOM     86  C   UNL A   1      46.901  28.196  35.197  1.00  0.00     0.041 A 
ATOM     87  F   UNL A   1      45.886  29.573  33.599  1.00  0.00    -0.206 F 
ATOM     88  C   UNL A   1      46.838  27.128  36.086  1.00  0.00     0.022 A 
BRANCH  85  89
ATOM     89  S   UNL A   1      45.515  25.062  37.409  1.00  0.00     0.124 S 
ATOM     90  O   UNL A   1      46.226  23.959  36.770  1.00  0.00    -0.237 OA
ATOM     91  O   UNL A   1      46.169  25.654  38.571  1.00  0.00    -0.237 OA
ATOM     92  O   UNL A   1      44.071  24.875  37.541  1.00  0.00    -0.744 OA
ENDBRANCH  85  89
ENDBRANCH  59  82
ENDBRANCH  33  34
ENDBRANCH  26  28
ENDBRANCH  25  26
ENDBRANCH  24  25
ENDBRANCH   1  24
TORSDOF 19
ENDMDL
MODEL 3
REMARK VINA RESULT:     -11.1      5.125     10.549
REMARK SMILES COc1ccccc1C[N@@H+](C)[C@@H](C)c1ccc(C(=O)OCCOC(=O)c2ccc(-c3c4nc(c(-c5cc(S(=O)(=O)[O-])ccc5F)c5ccc([nH]5)c(-c5cc(S(=O)(=O)[O-])ccc5F)c5nc(c(-c6cc(S(=O)(=O)[O-])ccc6F)c6ccc3[nH]6)C=C5)C=C4)cc2)o1
REMARK SMILES IDX 21 1 20 2 18 3 19 4 17 5 14 6 15 7 89 8 16 9 12 10 13 11
REMARK SMILES IDX 10 12 11 13 9 15 8 16 3 17 4 18 5 19 7 20 6 21 2 22 1 23
REMARK SMILES IDX 22 24 23 25 24 26 25 27 26 28 27 29 88 30 28 31 87 32 29 33
REMARK SMILES IDX 30 34 31 35 81 36 32 37 86 38 80 39 82 40 33 41 85 42 79 43
REMARK SMILES IDX 78 44 34 46 66 47 46 48 65 49 47 50 50 51 64 52 83 53 48 54
REMARK SMILES IDX 49 55 63 57 84 58 51 59 35 60 36 61 44 62 37 63 43 64 45 65
REMARK SMILES IDX 42 66 38 67 39 68 40 69 41 70 67 71 68 72 76 73 69 74 75 75
REMARK SMILES IDX 77 76 74 77 70 78 71 79 72 80 73 81 52 82 53 83 61 84 54 85
REMARK SMILES IDX 60 86 62 87 59 88 55 89 56 90 57 91 58 92
REMARK H PARENT 10 14 82 45 50 56
REMARK Flexibility Score: inf
ROOT
ATOM      1  C   UNL A   1      31.774  28.921  26.513  1.00  0.00     0.275 C 
ENDROOT
BRANCH   1   2
ATOM      2  O   UNL A   1      31.363  28.439  25.222  1.00  0.00    -0.456 OA
BRANCH   2   3
ATOM      3  C   UNL A   1      32.363  27.993  24.402  1.00  0.00     0.374 C 
ATOM      4  O   UNL A   1      32.907  28.680  23.551  1.00  0.00    -0.242 OA
BRANCH   3   5
ATOM      5  C   UNL A   1      32.736  26.652  24.792  1.00  0.00     0.212 A 
ATOM      6  C   UNL A   1      32.394  24.485  25.053  1.00  0.00     0.162 A 
ATOM      7  C   UNL A   1      33.726  24.711  25.334  1.00  0.00     0.053 A 
ATOM      8  O   UNL A   1      31.791  25.661  24.715  1.00  0.00    -0.448 OA
ATOM      9  C   UNL A   1      33.941  26.099  25.184  1.00  0.00     0.059 A 
BRANCH   6  10
ATOM     10  C   UNL A   1      31.563  23.228  25.087  1.00  0.00     0.248 C 
ATOM     11  C   UNL A   1      30.883  22.972  26.439  1.00  0.00     0.084 C 
BRANCH  10  12
ATOM     12  N   UNL A   1      32.309  22.083  24.496  1.00  0.00    -0.325 N 
ATOM     13  C   UNL A   1      32.168  22.087  23.034  1.00  0.00     0.333 C 
ATOM     14  H   UNL A   1      33.276  22.234  24.783  1.00  0.00     0.348 HD
BRANCH  12  15
ATOM     15  C   UNL A   1      31.943  20.746  25.009  1.00  0.00     0.303 C 
BRANCH  15  16
ATOM     16  C   UNL A   1      32.980  19.651  24.855  1.00  0.00     0.048 A 
ATOM     17  C   UNL A   1      34.366  19.869  24.936  1.00  0.00     0.127 A 
ATOM     18  C   UNL A   1      35.263  18.837  24.622  1.00  0.00     0.047 A 
ATOM     19  C   UNL A   1      34.801  17.571  24.268  1.00  0.00     0.004 A 
ATOM     20  C   UNL A   1      32.532  18.352  24.528  1.00  0.00     0.013 A 
ATOM     21  C   UNL A   1      33.432  17.325  24.232  1.00  0.00     0.001 A 
BRANCH  17  22
ATOM     22  O   UNL A   1      34.956  21.089  25.129  1.00  0.00    -0.496 OA
ATOM     23  C   UNL A   1      36.354  21.049  25.379  1.00  0.00     0.278 C 
ENDBRANCH  17  22
ENDBRANCH  15  16
ENDBRANCH  12  15
ENDBRANCH  10  12
ENDBRANCH   6  10
ENDBRANCH   3   5
ENDBRANCH   2   3
ENDBRANCH   1   2
BRANCH   1  24
ATOM     24  C   UNL A   1      31.823  30.451  26.499  1.00  0.00     0.275 C 
BRANCH  24  25
ATOM     25  O   UNL A   1      33.178  30.920  26.372  1.00  0.00    -0.458 OA
BRANCH  25  26
ATOM     26  C   UNL A   1      33.559  31.849  27.281  1.00  0.00     0.338 C 
ATOM     27  O   UNL A   1      32.941  32.839  27.628  1.00  0.00    -0.246 OA
BRANCH  26  28
ATOM     28  C   UNL A   1      34.856  31.454  27.849  1.00  0.00     0.060 A 
ATOM     29  C   UNL A   1      35.043  30.146  28.299  1.00  0.00     0.016 A 
ATOM     30  C   UNL A   1      35.860  32.407  28.003  1.00  0.00     0.016 A 
ATOM     31  C   UNL A   1      36.225  29.787  28.940  1.00  0.00     0.010 A 
ATOM     32  C   UNL A   1      37.060  32.037  28.612  1.00  0.00     0.010 A 
ATOM     33  C   UNL A   1      37.244  30.730  29.103  1.00  0.00    -0.014 A 
BRANCH  33  34
ATOM     34  C   UNL A   1      38.485  30.389  29.839  1.00  0.00     0.031 A 
ATOM     35  C   UNL A   1      39.436  29.391  29.242  1.00  0.00     0.074 A 
ATOM     36  C   UNL A   1      38.738  30.938  31.041  1.00  0.00     0.049 A 
ATOM     37  N   UNL A   1      40.445  28.771  29.793  1.00  0.00    -0.248 NA
ATOM     38  C   UNL A   1      39.202  29.034  27.834  1.00  0.00     0.031 C 
ATOM     39  C   UNL A   1      37.928  31.974  31.685  1.00  0.00     0.029 A 
ATOM     40  N   UNL A   1      39.736  30.683  31.948  1.00  0.00    -0.354 N 
ATOM     41  C   UNL A   1      40.946  27.920  28.813  1.00  0.00     0.074 A 
ATOM     42  C   UNL A   1      40.113  28.092  27.642  1.00  0.00     0.031 C 
ATOM     43  C   UNL A   1      38.455  32.256  32.887  1.00  0.00     0.029 A 
ATOM     44  C   UNL A   1      39.588  31.368  33.131  1.00  0.00     0.049 A 
ATOM     45  H   UNL A   1      40.486  30.070  31.768  1.00  0.00     0.167 HD
ATOM     46  C   UNL A   1      42.003  27.076  28.894  1.00  0.00     0.034 A 
ATOM     47  C   UNL A   1      40.253  31.252  34.298  1.00  0.00     0.034 A 
ATOM     48  C   UNL A   1      42.817  26.932  30.078  1.00  0.00     0.049 A 
ATOM     49  C   UNL A   1      41.365  30.236  34.399  1.00  0.00     0.074 A 
ATOM     50  C   UNL A   1      43.912  26.110  30.279  1.00  0.00     0.029 A 
ATOM     51  N   UNL A   1      42.620  27.625  31.268  1.00  0.00    -0.354 N 
ATOM     52  N   UNL A   1      41.808  29.401  33.486  1.00  0.00    -0.248 NA
ATOM     53  C   UNL A   1      42.068  30.144  35.686  1.00  0.00     0.031 C 
ATOM     54  C   UNL A   1      44.326  26.248  31.607  1.00  0.00     0.029 A 
ATOM     55  C   UNL A   1      43.554  27.228  32.211  1.00  0.00     0.049 A 
ATOM     56  H   UNL A   1      41.918  28.299  31.418  1.00  0.00     0.167 HD
ATOM     57  C   UNL A   1      42.870  28.721  34.076  1.00  0.00     0.074 A 
ATOM     58  C   UNL A   1      42.998  29.239  35.422  1.00  0.00     0.031 C 
ATOM     59  C   UNL A   1      43.674  27.763  33.547  1.00  0.00     0.034 A 
BRANCH  46  60
ATOM     60  C   UNL A   1      42.290  26.201  27.697  1.00  0.00     0.023 A 
ATOM     61  C   UNL A   1      41.889  24.854  27.644  1.00  0.00     0.031 A 
ATOM     62  C   UNL A   1      43.008  26.715  26.602  1.00  0.00     0.131 A 
ATOM     63  C   UNL A   1      42.275  24.050  26.560  1.00  0.00     0.055 A 
ATOM     64  C   UNL A   1      43.313  25.933  25.487  1.00  0.00     0.041 A 
ATOM     65  F   UNL A   1      43.441  27.985  26.603  1.00  0.00    -0.206 F 
ATOM     66  C   UNL A   1      42.961  24.587  25.469  1.00  0.00     0.022 A 
BRANCH  63  67
ATOM     67  S   UNL A   1      42.001  22.261  26.667  1.00  0.00     0.124 S 
ATOM     68  O   UNL A   1      43.285  21.737  26.205  1.00  0.00    -0.237 OA
ATOM     69  O   UNL A   1      41.706  22.069  28.083  1.00  0.00    -0.237 OA
ATOM     70  O   UNL A   1      40.879  22.030  25.760  1.00  0.00    -0.744 OA
ENDBRANCH  63  67
ENDBRANCH  46  60
BRANCH  47  71
ATOM     71  C   UNL A   1      39.856  32.072  35.480  1.00  0.00     0.023 A 
ATOM     72  C   UNL A   1      38.995  31.557  36.460  1.00  0.00     0.031 A 
ATOM     73  C   UNL A   1      40.297  33.400  35.623  1.00  0.00     0.131 A 
ATOM     74  C   UNL A   1      38.563  32.379  37.514  1.00  0.00     0.055 A 
ATOM     75  C   UNL A   1      39.915  34.194  36.707  1.00  0.00     0.041 A 
ATOM     76  F   UNL A   1      41.119  33.947  34.712  1.00  0.00    -0.206 F 
ATOM     77  C   UNL A   1      39.031  33.687  37.653  1.00  0.00     0.022 A 
BRANCH  74  78
ATOM     78  S   UNL A   1      37.299  31.741  38.647  1.00  0.00     0.124 S 
ATOM     79  O   UNL A   1      37.997  31.790  39.928  1.00  0.00    -0.237 OA
ATOM     80  O   UNL A   1      36.217  32.704  38.468  1.00  0.00    -0.237 OA
ATOM     81  O   UNL A   1      37.029  30.399  38.135  1.00  0.00    -0.744 OA
ENDBRANCH  74  78
ENDBRANCH  47  71
BRANCH  59  82
ATOM     82  C   UNL A   1      44.823  27.277  34.396  1.00  0.00     0.023 A 
ATOM     83  C   UNL A   1      44.728  26.136  35.210  1.00  0.00     0.031 A 
ATOM     84  C   UNL A   1      46.049  27.969  34.365  1.00  0.00     0.131 A 
ATOM     85  C   UNL A   1      45.828  25.743  35.990  1.00  0.00     0.055 A 
ATOM     86  C   UNL A   1      47.155  27.539  35.096  1.00  0.00     0.041 A 
ATOM     87  F   UNL A   1      46.193  29.069  33.609  1.00  0.00    -0.206 F 
ATOM     88  C   UNL A   1      47.046  26.424  35.922  1.00  0.00     0.022 A 
BRANCH  85  89
ATOM     89  S   UNL A   1      45.626  24.368  37.156  1.00  0.00     0.124 S 
ATOM     90  O   UNL A   1      44.736  24.946  38.157  1.00  0.00    -0.237 OA
ATOM     91  O   UNL A   1      45.048  23.326  36.314  1.00  0.00    -0.237 OA
ATOM     92  O   UNL A   1      46.989  24.106  37.615  1.00  0.00    -0.744 OA
ENDBRANCH  85  89
ENDBRANCH  59  82
ENDBRANCH  33  34
ENDBRANCH  26  28
ENDBRANCH  25  26
ENDBRANCH  24  25
ENDBRANCH   1  24
TORSDOF 19
ENDMDL
