MODEL 1
REMARK VINA RESULT:     -11.5      0.000      0.000
REMARK SMILES C[C@@H](C(=O)OCCOC(=O)c1ccc(-c2c3nc(c(-c4cc(S(=O)(=O)[O-])ccc4F)c4ccc([nH]4)c(-c4cc(S(=O)(=O)[O-])ccc4F)c4nc(c(-c5cc(S(=O)(=O)[O-])ccc5F)c5ccc2[nH]5)C=C4)C=C3)cc1)c1ccc(O[C@H]2CCCC2=O)cc1F
REMARK SMILES IDX 6 1 5 2 3 3 4 4 2 5 1 6 74 7 75 8 86 9 76 10 85 11 87 12
REMARK SMILES IDX 77 13 78 14 79 15 80 16 83 17 81 18 82 19 84 20 7 21 8 22
REMARK SMILES IDX 9 23 10 24 11 25 12 26 73 27 13 28 72 29 14 30 15 31 16 32
REMARK SMILES IDX 66 33 17 34 71 35 65 36 67 37 18 38 70 39 64 40 63 41 19 43
REMARK SMILES IDX 51 44 31 45 50 46 32 47 35 48 49 49 68 50 33 51 34 52 48 54
REMARK SMILES IDX 69 55 36 56 20 57 21 58 29 59 22 60 28 61 30 62 27 63 23 64
REMARK SMILES IDX 24 65 25 66 26 67 52 68 53 69 61 70 54 71 60 72 62 73 59 74
REMARK SMILES IDX 55 75 56 76 57 77 58 78 37 79 38 80 46 81 39 82 45 83 47 84
REMARK SMILES IDX 44 85 40 86 41 87 42 88 43 89
REMARK H PARENT 67 42 35 53
REMARK Flexibility Score: inf
ROOT
ATOM      1  C   UNL A   1      36.398  19.880  25.021  1.00  0.00     0.274 C 
ENDROOT
BRANCH   1   2
ATOM      2  O   UNL A   1      36.183  21.298  25.182  1.00  0.00    -0.462 OA
BRANCH   2   3
ATOM      3  C   UNL A   1      35.017  21.798  24.680  1.00  0.00     0.313 C 
ATOM      4  O   UNL A   1      33.909  21.426  25.044  1.00  0.00    -0.252 OA
BRANCH   3   5
ATOM      5  C   UNL A   1      35.253  22.835  23.571  1.00  0.00     0.129 C 
ATOM      6  C   UNL A   1      36.730  22.981  23.187  1.00  0.00     0.025 C 
BRANCH   5   7
ATOM      7  C   UNL A   1      34.592  24.165  23.909  1.00  0.00     0.002 A 
ATOM      8  C   UNL A   1      34.704  24.775  25.163  1.00  0.00     0.011 A 
ATOM      9  C   UNL A   1      33.775  24.793  22.958  1.00  0.00     0.130 A 
ATOM     10  C   UNL A   1      33.989  25.945  25.443  1.00  0.00     0.047 A 
ATOM     11  C   UNL A   1      33.055  25.957  23.240  1.00  0.00     0.086 A 
ATOM     12  F   UNL A   1      33.660  24.254  21.735  1.00  0.00    -0.207 F 
ATOM     13  C   UNL A   1      33.130  26.527  24.501  1.00  0.00     0.123 A 
BRANCH  13  14
ATOM     14  O   UNL A   1      32.422  27.568  25.004  1.00  0.00    -0.483 OA
BRANCH  14  15
ATOM     15  C   UNL A   1      31.020  27.682  24.984  1.00  0.00     0.239 C 
ATOM     16  C   UNL A   1      30.587  28.661  23.881  1.00  0.00     0.054 C 
ATOM     17  C   UNL A   1      29.998  26.546  24.841  1.00  0.00     0.173 C 
ATOM     18  C   UNL A   1      29.708  27.859  22.930  1.00  0.00     0.012 C 
ATOM     19  C   UNL A   1      28.946  26.887  23.819  1.00  0.00     0.080 C 
ATOM     20  O   UNL A   1      30.030  25.484  25.449  1.00  0.00    -0.296 OA
ENDBRANCH  14  15
ENDBRANCH  13  14
ENDBRANCH   5   7
ENDBRANCH   3   5
ENDBRANCH   2   3
ENDBRANCH   1   2
BRANCH   1  21
ATOM     21  C   UNL A   1      37.892  19.578  24.949  1.00  0.00     0.275 C 
BRANCH  21  22
ATOM     22  O   UNL A   1      38.629  20.781  25.223  1.00  0.00    -0.458 OA
BRANCH  22  23
ATOM     23  C   UNL A   1      39.606  20.686  26.153  1.00  0.00     0.338 C 
ATOM     24  O   UNL A   1      40.157  19.664  26.539  1.00  0.00    -0.246 OA
BRANCH  23  25
ATOM     25  C   UNL A   1      39.937  22.028  26.667  1.00  0.00     0.060 A 
ATOM     26  C   UNL A   1      39.216  23.140  26.240  1.00  0.00     0.016 A 
ATOM     27  C   UNL A   1      41.050  22.198  27.491  1.00  0.00     0.016 A 
ATOM     28  C   UNL A   1      39.673  24.421  26.550  1.00  0.00     0.010 A 
ATOM     29  C   UNL A   1      41.448  23.487  27.873  1.00  0.00     0.010 A 
ATOM     30  C   UNL A   1      40.800  24.626  27.360  1.00  0.00    -0.014 A 
BRANCH  30  31
ATOM     31  C   UNL A   1      41.344  26.004  27.595  1.00  0.00     0.031 A 
ATOM     32  C   UNL A   1      42.646  26.431  26.954  1.00  0.00     0.074 A 
ATOM     33  C   UNL A   1      40.675  26.911  28.339  1.00  0.00     0.049 A 
ATOM     34  N   UNL A   1      43.402  27.471  27.212  1.00  0.00    -0.248 NA
ATOM     35  C   UNL A   1      43.182  25.558  25.898  1.00  0.00     0.031 C 
ATOM     36  C   UNL A   1      39.372  26.698  28.972  1.00  0.00     0.029 A 
ATOM     37  N   UNL A   1      40.989  28.208  28.673  1.00  0.00    -0.354 N 
ATOM     38  C   UNL A   1      44.540  27.328  26.420  1.00  0.00     0.074 A 
ATOM     39  C   UNL A   1      44.368  26.103  25.666  1.00  0.00     0.031 C 
ATOM     40  C   UNL A   1      38.968  27.838  29.548  1.00  0.00     0.029 A 
ATOM     41  C   UNL A   1      40.031  28.828  29.442  1.00  0.00     0.049 A 
ATOM     42  H   UNL A   1      41.821  28.652  28.387  1.00  0.00     0.167 HD
ATOM     43  C   UNL A   1      45.627  28.135  26.338  1.00  0.00     0.034 A 
ATOM     44  C   UNL A   1      40.018  30.033  30.048  1.00  0.00     0.034 A 
ATOM     45  C   UNL A   1      45.751  29.399  27.029  1.00  0.00     0.049 A 
ATOM     46  C   UNL A   1      41.233  30.914  29.952  1.00  0.00     0.074 A 
ATOM     47  C   UNL A   1      46.807  30.295  27.007  1.00  0.00     0.029 A 
ATOM     48  N   UNL A   1      44.776  29.961  27.840  1.00  0.00    -0.354 N 
ATOM     49  N   UNL A   1      42.356  30.703  29.305  1.00  0.00    -0.248 NA
ATOM     50  C   UNL A   1      41.190  32.182  30.690  1.00  0.00     0.031 C 
ATOM     51  C   UNL A   1      46.489  31.376  27.840  1.00  0.00     0.029 A 
ATOM     52  C   UNL A   1      45.208  31.185  28.331  1.00  0.00     0.049 A 
ATOM     53  H   UNL A   1      43.903  29.551  28.040  1.00  0.00     0.167 HD
ATOM     54  C   UNL A   1      43.156  31.809  29.572  1.00  0.00     0.074 A 
ATOM     55  C   UNL A   1      42.373  32.703  30.399  1.00  0.00     0.031 C 
ATOM     56  C   UNL A   1      44.431  32.057  29.176  1.00  0.00     0.034 A 
BRANCH  43  57
ATOM     57  C   UNL A   1      46.803  27.646  25.525  1.00  0.00     0.023 A 
ATOM     58  C   UNL A   1      47.034  28.061  24.203  1.00  0.00     0.031 A 
ATOM     59  C   UNL A   1      47.707  26.728  26.093  1.00  0.00     0.131 A 
ATOM     60  C   UNL A   1      48.101  27.512  23.473  1.00  0.00     0.055 A 
ATOM     61  C   UNL A   1      48.810  26.242  25.387  1.00  0.00     0.041 A 
ATOM     62  F   UNL A   1      47.530  26.281  27.347  1.00  0.00    -0.206 F 
ATOM     63  C   UNL A   1      49.004  26.623  24.063  1.00  0.00     0.022 A 
BRANCH  60  64
ATOM     64  S   UNL A   1      48.218  27.873  21.700  1.00  0.00     0.124 S 
ATOM     65  O   UNL A   1      48.515  26.553  21.148  1.00  0.00    -0.237 OA
ATOM     66  O   UNL A   1      46.895  28.409  21.400  1.00  0.00    -0.237 OA
ATOM     67  O   UNL A   1      49.314  28.836  21.616  1.00  0.00    -0.744 OA
ENDBRANCH  60  64
ENDBRANCH  43  57
BRANCH  44  68
ATOM     68  C   UNL A   1      38.849  30.443  30.878  1.00  0.00     0.023 A 
ATOM     69  C   UNL A   1      37.762  31.123  30.311  1.00  0.00     0.031 A 
ATOM     70  C   UNL A   1      38.817  30.182  32.261  1.00  0.00     0.131 A 
ATOM     71  C   UNL A   1      36.698  31.544  31.125  1.00  0.00     0.055 A 
ATOM     72  C   UNL A   1      37.732  30.551  33.056  1.00  0.00     0.041 A 
ATOM     73  F   UNL A   1      39.838  29.545  32.856  1.00  0.00    -0.206 F 
ATOM     74  C   UNL A   1      36.667  31.245  32.489  1.00  0.00     0.022 A 
BRANCH  71  75
ATOM     75  S   UNL A   1      35.385  32.552  30.386  1.00  0.00     0.124 S 
ATOM     76  O   UNL A   1      36.061  33.832  30.202  1.00  0.00    -0.237 OA
ATOM     77  O   UNL A   1      35.079  31.813  29.166  1.00  0.00    -0.237 OA
ATOM     78  O   UNL A   1      34.334  32.541  31.401  1.00  0.00    -0.744 OA
ENDBRANCH  71  75
ENDBRANCH  44  68
BRANCH  56  79
ATOM     79  C   UNL A   1      45.036  33.362  29.624  1.00  0.00     0.023 A 
ATOM     80  C   UNL A   1      44.913  34.531  28.852  1.00  0.00     0.031 A 
ATOM     81  C   UNL A   1      45.771  33.430  30.821  1.00  0.00     0.131 A 
ATOM     82  C   UNL A   1      45.563  35.707  29.258  1.00  0.00     0.055 A 
ATOM     83  C   UNL A   1      46.372  34.615  31.245  1.00  0.00     0.041 A 
ATOM     84  F   UNL A   1      45.920  32.341  31.592  1.00  0.00    -0.206 F 
ATOM     85  C   UNL A   1      46.282  35.759  30.456  1.00  0.00     0.022 A 
BRANCH  82  86
ATOM     86  S   UNL A   1      45.530  37.147  28.155  1.00  0.00     0.124 S 
ATOM     87  O   UNL A   1      45.108  36.552  26.892  1.00  0.00    -0.237 OA
ATOM     88  O   UNL A   1      44.559  38.018  28.808  1.00  0.00    -0.237 OA
ATOM     89  O   UNL A   1      46.910  37.630  28.182  1.00  0.00    -0.744 OA
ENDBRANCH  82  86
ENDBRANCH  56  79
ENDBRANCH  30  31
ENDBRANCH  23  25
ENDBRANCH  22  23
ENDBRANCH  21  22
ENDBRANCH   1  21
TORSDOF 17
ENDMDL
MODEL 2
REMARK VINA RESULT:     -11.5      5.081      7.783
REMARK SMILES C[C@@H](C(=O)OCCOC(=O)c1ccc(-c2c3nc(c(-c4cc(S(=O)(=O)[O-])ccc4F)c4ccc([nH]4)c(-c4cc(S(=O)(=O)[O-])ccc4F)c4nc(c(-c5cc(S(=O)(=O)[O-])ccc5F)c5ccc2[nH]5)C=C4)C=C3)cc1)c1ccc(O[C@H]2CCCC2=O)cc1F
REMARK SMILES IDX 6 1 5 2 3 3 4 4 2 5 1 6 74 7 75 8 86 9 76 10 85 11 87 12
REMARK SMILES IDX 77 13 78 14 79 15 80 16 83 17 81 18 82 19 84 20 7 21 8 22
REMARK SMILES IDX 9 23 10 24 11 25 12 26 73 27 13 28 72 29 14 30 15 31 16 32
REMARK SMILES IDX 66 33 17 34 71 35 65 36 67 37 18 38 70 39 64 40 63 41 19 43
REMARK SMILES IDX 51 44 31 45 50 46 32 47 35 48 49 49 68 50 33 51 34 52 48 54
REMARK SMILES IDX 69 55 36 56 20 57 21 58 29 59 22 60 28 61 30 62 27 63 23 64
REMARK SMILES IDX 24 65 25 66 26 67 52 68 53 69 61 70 54 71 60 72 62 73 59 74
REMARK SMILES IDX 55 75 56 76 57 77 58 78 37 79 38 80 46 81 39 82 45 83 47 84
REMARK SMILES IDX 44 85 40 86 41 87 42 88 43 89
REMARK H PARENT 67 42 35 53
REMARK Flexibility Score: inf
ROOT
ATOM      1  C   UNL A   1      31.617  28.963  27.233  1.00  0.00     0.274 C 
ENDROOT
BRANCH   1   2
ATOM      2  O   UNL A   1      32.436  28.073  26.446  1.00  0.00    -0.462 OA
BRANCH   2   3
ATOM      3  C   UNL A   1      31.877  26.877  26.099  1.00  0.00     0.313 C 
ATOM      4  O   UNL A   1      31.371  26.108  26.906  1.00  0.00    -0.252 OA
BRANCH   3   5
ATOM      5  C   UNL A   1      32.006  26.584  24.597  1.00  0.00     0.129 C 
ATOM      6  C   UNL A   1      33.408  26.870  24.045  1.00  0.00     0.025 C 
BRANCH   5   7
ATOM      7  C   UNL A   1      30.903  27.272  23.803  1.00  0.00     0.002 A 
ATOM      8  C   UNL A   1      31.143  28.341  22.932  1.00  0.00     0.011 A 
ATOM      9  C   UNL A   1      29.570  26.879  23.988  1.00  0.00     0.130 A 
ATOM     10  C   UNL A   1      30.074  28.996  22.311  1.00  0.00     0.047 A 
ATOM     11  C   UNL A   1      28.501  27.539  23.374  1.00  0.00     0.086 A 
ATOM     12  F   UNL A   1      29.299  25.843  24.796  1.00  0.00    -0.207 F 
ATOM     13  C   UNL A   1      28.744  28.628  22.554  1.00  0.00     0.123 A 
BRANCH  13  14
ATOM     14  O   UNL A   1      27.850  29.468  21.975  1.00  0.00    -0.483 OA
BRANCH  14  15
ATOM     15  C   UNL A   1      27.635  30.807  22.347  1.00  0.00     0.239 C 
ATOM     16  C   UNL A   1      27.954  30.997  23.839  1.00  0.00     0.054 C 
ATOM     17  C   UNL A   1      28.255  32.059  21.712  1.00  0.00     0.173 C 
ATOM     18  C   UNL A   1      29.076  32.026  23.899  1.00  0.00     0.012 C 
ATOM     19  C   UNL A   1      28.785  32.997  22.764  1.00  0.00     0.080 C 
ATOM     20  O   UNL A   1      28.341  32.274  20.509  1.00  0.00    -0.296 OA
ENDBRANCH  14  15
ENDBRANCH  13  14
ENDBRANCH   5   7
ENDBRANCH   3   5
ENDBRANCH   2   3
ENDBRANCH   1   2
BRANCH   1  21
ATOM     21  C   UNL A   1      31.508  30.322  26.549  1.00  0.00     0.275 C 
BRANCH  21  22
ATOM     22  O   UNL A   1      32.828  30.829  26.293  1.00  0.00    -0.458 OA
BRANCH  22  23
ATOM     23  C   UNL A   1      33.286  31.768  27.150  1.00  0.00     0.338 C 
ATOM     24  O   UNL A   1      32.704  32.782  27.509  1.00  0.00    -0.246 OA
BRANCH  23  25
ATOM     25  C   UNL A   1      34.635  31.400  27.618  1.00  0.00     0.060 A 
ATOM     26  C   UNL A   1      34.959  30.065  27.845  1.00  0.00     0.016 A 
ATOM     27  C   UNL A   1      35.550  32.401  27.947  1.00  0.00     0.016 A 
ATOM     28  C   UNL A   1      36.150  29.744  28.497  1.00  0.00     0.010 A 
ATOM     29  C   UNL A   1      36.785  32.061  28.518  1.00  0.00     0.010 A 
ATOM     30  C   UNL A   1      37.082  30.728  28.858  1.00  0.00    -0.014 A 
BRANCH  30  31
ATOM     31  C   UNL A   1      38.305  30.381  29.655  1.00  0.00     0.031 A 
ATOM     32  C   UNL A   1      39.383  29.504  29.056  1.00  0.00     0.074 A 
ATOM     33  C   UNL A   1      38.502  30.871  30.897  1.00  0.00     0.049 A 
ATOM     34  N   UNL A   1      40.386  28.897  29.643  1.00  0.00    -0.248 NA
ATOM     35  C   UNL A   1      39.308  29.256  27.608  1.00  0.00     0.031 C 
ATOM     36  C   UNL A   1      37.605  31.789  31.603  1.00  0.00     0.029 A 
ATOM     37  N   UNL A   1      39.536  30.683  31.785  1.00  0.00    -0.354 N 
ATOM     38  C   UNL A   1      41.002  28.127  28.658  1.00  0.00     0.074 A 
ATOM     39  C   UNL A   1      40.263  28.354  27.434  1.00  0.00     0.031 C 
ATOM     40  C   UNL A   1      38.160  32.140  32.770  1.00  0.00     0.029 A 
ATOM     41  C   UNL A   1      39.387  31.379  32.963  1.00  0.00     0.049 A 
ATOM     42  H   UNL A   1      40.312  30.106  31.595  1.00  0.00     0.167 HD
ATOM     43  C   UNL A   1      42.075  27.304  28.767  1.00  0.00     0.034 A 
ATOM     44  C   UNL A   1      40.113  31.372  34.099  1.00  0.00     0.034 A 
ATOM     45  C   UNL A   1      42.859  27.152  29.972  1.00  0.00     0.049 A 
ATOM     46  C   UNL A   1      41.297  30.450  34.206  1.00  0.00     0.074 A 
ATOM     47  C   UNL A   1      43.968  26.350  30.185  1.00  0.00     0.029 A 
ATOM     48  N   UNL A   1      42.636  27.837  31.158  1.00  0.00    -0.354 N 
ATOM     49  N   UNL A   1      41.787  29.629  33.307  1.00  0.00    -0.248 NA
ATOM     50  C   UNL A   1      42.007  30.434  35.491  1.00  0.00     0.031 C 
ATOM     51  C   UNL A   1      44.388  26.516  31.511  1.00  0.00     0.029 A 
ATOM     52  C   UNL A   1      43.580  27.470  32.107  1.00  0.00     0.049 A 
ATOM     53  H   UNL A   1      41.914  28.489  31.305  1.00  0.00     0.167 HD
ATOM     54  C   UNL A   1      42.856  28.989  33.925  1.00  0.00     0.074 A 
ATOM     55  C   UNL A   1      42.967  29.551  35.256  1.00  0.00     0.031 C 
ATOM     56  C   UNL A   1      43.666  28.016  33.439  1.00  0.00     0.034 A 
BRANCH  43  57
ATOM     57  C   UNL A   1      42.426  26.448  27.573  1.00  0.00     0.023 A 
ATOM     58  C   UNL A   1      41.992  25.119  27.441  1.00  0.00     0.031 A 
ATOM     59  C   UNL A   1      43.231  26.982  26.547  1.00  0.00     0.131 A 
ATOM     60  C   UNL A   1      42.416  24.350  26.344  1.00  0.00     0.055 A 
ATOM     61  C   UNL A   1      43.587  26.235  25.422  1.00  0.00     0.041 A 
ATOM     62  F   UNL A   1      43.691  28.240  26.625  1.00  0.00    -0.206 F 
ATOM     63  C   UNL A   1      43.191  24.905  25.323  1.00  0.00     0.022 A 
BRANCH  60  64
ATOM     64  S   UNL A   1      42.049  22.573  26.335  1.00  0.00     0.124 S 
ATOM     65  O   UNL A   1      42.692  22.132  27.570  1.00  0.00    -0.237 OA
ATOM     66  O   UNL A   1      40.591  22.553  26.330  1.00  0.00    -0.237 OA
ATOM     67  O   UNL A   1      42.683  22.098  25.107  1.00  0.00    -0.744 OA
ENDBRANCH  60  64
ENDBRANCH  43  57
BRANCH  44  68
ATOM     68  C   UNL A   1      39.691  32.202  35.264  1.00  0.00     0.023 A 
ATOM     69  C   UNL A   1      40.148  33.519  35.418  1.00  0.00     0.031 A 
ATOM     70  C   UNL A   1      38.843  31.676  36.257  1.00  0.00     0.131 A 
ATOM     71  C   UNL A   1      39.777  34.259  36.552  1.00  0.00     0.055 A 
ATOM     72  C   UNL A   1      38.430  32.435  37.352  1.00  0.00     0.041 A 
ATOM     73  F   UNL A   1      38.388  30.417  36.163  1.00  0.00    -0.206 F 
ATOM     74  C   UNL A   1      38.906  33.733  37.509  1.00  0.00     0.022 A 
BRANCH  71  75
ATOM     75  S   UNL A   1      40.508  35.901  36.795  1.00  0.00     0.124 S 
ATOM     76  O   UNL A   1      40.214  36.151  38.202  1.00  0.00    -0.237 OA
ATOM     77  O   UNL A   1      41.911  35.664  36.470  1.00  0.00    -0.237 OA
ATOM     78  O   UNL A   1      39.783  36.741  35.846  1.00  0.00    -0.744 OA
ENDBRANCH  71  75
ENDBRANCH  44  68
BRANCH  56  79
ATOM     79  C   UNL A   1      44.754  27.521  34.357  1.00  0.00     0.023 A 
ATOM     80  C   UNL A   1      44.553  26.417  35.205  1.00  0.00     0.031 A 
ATOM     81  C   UNL A   1      45.995  28.179  34.407  1.00  0.00     0.131 A 
ATOM     82  C   UNL A   1      45.559  26.038  36.108  1.00  0.00     0.055 A 
ATOM     83  C   UNL A   1      47.010  27.766  35.271  1.00  0.00     0.041 A 
ATOM     84  F   UNL A   1      46.237  29.240  33.620  1.00  0.00    -0.206 F 
ATOM     85  C   UNL A   1      46.790  26.698  36.137  1.00  0.00     0.022 A 
BRANCH  82  86
ATOM     86  S   UNL A   1      45.204  24.723  37.306  1.00  0.00     0.124 S 
ATOM     87  O   UNL A   1      45.924  25.186  38.488  1.00  0.00    -0.237 OA
ATOM     88  O   UNL A   1      43.747  24.761  37.389  1.00  0.00    -0.237 OA
ATOM     89  O   UNL A   1      45.756  23.526  36.674  1.00  0.00    -0.744 OA
ENDBRANCH  82  86
ENDBRANCH  56  79
ENDBRANCH  30  31
ENDBRANCH  23  25
ENDBRANCH  22  23
ENDBRANCH  21  22
ENDBRANCH   1  21
TORSDOF 17
ENDMDL
MODEL 3
REMARK VINA RESULT:     -11.5      1.235      7.725
REMARK SMILES C[C@@H](C(=O)OCCOC(=O)c1ccc(-c2c3nc(c(-c4cc(S(=O)(=O)[O-])ccc4F)c4ccc([nH]4)c(-c4cc(S(=O)(=O)[O-])ccc4F)c4nc(c(-c5cc(S(=O)(=O)[O-])ccc5F)c5ccc2[nH]5)C=C4)C=C3)cc1)c1ccc(O[C@H]2CCCC2=O)cc1F
REMARK SMILES IDX 6 1 5 2 3 3 4 4 2 5 1 6 74 7 75 8 86 9 76 10 85 11 87 12
REMARK SMILES IDX 77 13 78 14 79 15 80 16 83 17 81 18 82 19 84 20 7 21 8 22
REMARK SMILES IDX 9 23 10 24 11 25 12 26 73 27 13 28 72 29 14 30 15 31 16 32
REMARK SMILES IDX 66 33 17 34 71 35 65 36 67 37 18 38 70 39 64 40 63 41 19 43
REMARK SMILES IDX 51 44 31 45 50 46 32 47 35 48 49 49 68 50 33 51 34 52 48 54
REMARK SMILES IDX 69 55 36 56 20 57 21 58 29 59 22 60 28 61 30 62 27 63 23 64
REMARK SMILES IDX 24 65 25 66 26 67 52 68 53 69 61 70 54 71 60 72 62 73 59 74
REMARK SMILES IDX 55 75 56 76 57 77 58 78 37 79 38 80 46 81 39 82 45 83 47 84
REMARK SMILES IDX 44 85 40 86 41 87 42 88 43 89
REMARK H PARENT 67 42 35 53
REMARK Flexibility Score: inf
ROOT
ATOM      1  C   UNL A   1      35.402  21.333  25.648  1.00  0.00     0.274 C 
ENDROOT
BRANCH   1   2
ATOM      2  O   UNL A   1      35.229  22.613  25.005  1.00  0.00    -0.462 OA
BRANCH   2   3
ATOM      3  C   UNL A   1      34.364  22.654  23.950  1.00  0.00     0.313 C 
ATOM      4  O   UNL A   1      34.666  23.086  22.845  1.00  0.00    -0.252 OA
BRANCH   3   5
ATOM      5  C   UNL A   1      32.961  22.151  24.323  1.00  0.00     0.129 C 
ATOM      6  C   UNL A   1      32.471  21.010  23.423  1.00  0.00     0.025 C 
BRANCH   5   7
ATOM      7  C   UNL A   1      31.969  23.303  24.415  1.00  0.00     0.002 A 
ATOM      8  C   UNL A   1      31.085  23.634  23.382  1.00  0.00     0.011 A 
ATOM      9  C   UNL A   1      31.969  24.126  25.550  1.00  0.00     0.130 A 
ATOM     10  C   UNL A   1      30.270  24.766  23.489  1.00  0.00     0.047 A 
ATOM     11  C   UNL A   1      31.161  25.262  25.654  1.00  0.00     0.086 A 
ATOM     12  F   UNL A   1      32.784  23.830  26.574  1.00  0.00    -0.207 F 
ATOM     13  C   UNL A   1      30.326  25.611  24.605  1.00  0.00     0.123 A 
BRANCH  13  14
ATOM     14  O   UNL A   1      29.569  26.728  24.461  1.00  0.00    -0.483 OA
BRANCH  14  15
ATOM     15  C   UNL A   1      29.867  27.806  23.609  1.00  0.00     0.239 C 
ATOM     16  C   UNL A   1      28.615  28.209  22.812  1.00  0.00     0.054 C 
ATOM     17  C   UNL A   1      30.461  29.165  24.003  1.00  0.00     0.173 C 
ATOM     18  C   UNL A   1      28.328  29.658  23.186  1.00  0.00     0.012 C 
ATOM     19  C   UNL A   1      29.697  30.297  23.370  1.00  0.00     0.080 C 
ATOM     20  O   UNL A   1      31.415  29.330  24.754  1.00  0.00    -0.296 OA
ENDBRANCH  14  15
ENDBRANCH  13  14
ENDBRANCH   5   7
ENDBRANCH   3   5
ENDBRANCH   2   3
ENDBRANCH   1   2
BRANCH   1  21
ATOM     21  C   UNL A   1      36.577  20.585  25.025  1.00  0.00     0.275 C 
BRANCH  21  22
ATOM     22  O   UNL A   1      37.710  21.465  24.951  1.00  0.00    -0.458 OA
BRANCH  22  23
ATOM     23  C   UNL A   1      38.771  21.142  25.724  1.00  0.00     0.338 C 
ATOM     24  O   UNL A   1      39.256  20.030  25.880  1.00  0.00    -0.246 OA
BRANCH  23  25
ATOM     25  C   UNL A   1      39.293  22.353  26.385  1.00  0.00     0.060 A 
ATOM     26  C   UNL A   1      38.786  23.607  26.054  1.00  0.00     0.016 A 
ATOM     27  C   UNL A   1      40.379  22.252  27.256  1.00  0.00     0.016 A 
ATOM     28  C   UNL A   1      39.432  24.756  26.510  1.00  0.00     0.010 A 
ATOM     29  C   UNL A   1      40.964  23.412  27.783  1.00  0.00     0.010 A 
ATOM     30  C   UNL A   1      40.537  24.689  27.372  1.00  0.00    -0.014 A 
BRANCH  30  31
ATOM     31  C   UNL A   1      41.288  25.926  27.765  1.00  0.00     0.031 A 
ATOM     32  C   UNL A   1      40.637  26.964  28.654  1.00  0.00     0.074 A 
ATOM     33  C   UNL A   1      42.567  26.129  27.382  1.00  0.00     0.049 A 
ATOM     34  N   UNL A   1      41.012  28.193  28.913  1.00  0.00    -0.248 NA
ATOM     35  C   UNL A   1      39.385  26.574  29.320  1.00  0.00     0.031 C 
ATOM     36  C   UNL A   1      43.374  25.203  26.587  1.00  0.00     0.029 A 
ATOM     37  N   UNL A   1      43.424  27.176  27.630  1.00  0.00    -0.354 N 
ATOM     38  C   UNL A   1      40.000  28.749  29.694  1.00  0.00     0.074 A 
ATOM     39  C   UNL A   1      39.001  27.717  29.872  1.00  0.00     0.031 C 
ATOM     40  C   UNL A   1      44.620  25.683  26.478  1.00  0.00     0.029 A 
ATOM     41  C   UNL A   1      44.675  27.008  27.079  1.00  0.00     0.049 A 
ATOM     42  H   UNL A   1      43.168  27.971  28.154  1.00  0.00     0.167 HD
ATOM     43  C   UNL A   1      39.910  30.004  30.203  1.00  0.00     0.034 A 
ATOM     44  C   UNL A   1      45.735  27.839  27.009  1.00  0.00     0.034 A 
ATOM     45  C   UNL A   1      40.952  30.999  30.093  1.00  0.00     0.049 A 
ATOM     46  C   UNL A   1      45.617  29.227  27.574  1.00  0.00     0.074 A 
ATOM     47  C   UNL A   1      40.962  32.296  30.580  1.00  0.00     0.029 A 
ATOM     48  N   UNL A   1      42.180  30.801  29.479  1.00  0.00    -0.354 N 
ATOM     49  N   UNL A   1      44.601  29.782  28.194  1.00  0.00    -0.248 NA
ATOM     50  C   UNL A   1      46.777  30.110  27.406  1.00  0.00     0.031 C 
ATOM     51  C   UNL A   1      42.176  32.895  30.222  1.00  0.00     0.029 A 
ATOM     52  C   UNL A   1      42.951  31.952  29.567  1.00  0.00     0.049 A 
ATOM     53  H   UNL A   1      42.464  29.965  29.044  1.00  0.00     0.167 HD
ATOM     54  C   UNL A   1      44.999  31.084  28.476  1.00  0.00     0.074 A 
ATOM     55  C   UNL A   1      46.361  31.218  28.001  1.00  0.00     0.031 C 
ATOM     56  C   UNL A   1      44.296  32.084  29.066  1.00  0.00     0.034 A 
BRANCH  43  57
ATOM     57  C   UNL A   1      38.611  30.398  30.869  1.00  0.00     0.023 A 
ATOM     58  C   UNL A   1      37.573  31.042  30.177  1.00  0.00     0.031 A 
ATOM     59  C   UNL A   1      38.422  30.129  32.238  1.00  0.00     0.131 A 
ATOM     60  C   UNL A   1      36.421  31.453  30.869  1.00  0.00     0.055 A 
ATOM     61  C   UNL A   1      37.243  30.473  32.903  1.00  0.00     0.041 A 
ATOM     62  F   UNL A   1      39.385  29.531  32.957  1.00  0.00    -0.206 F 
ATOM     63  C   UNL A   1      36.239  31.152  32.221  1.00  0.00     0.022 A 
BRANCH  60  64
ATOM     64  S   UNL A   1      35.218  32.503  30.008  1.00  0.00     0.124 S 
ATOM     65  O   UNL A   1      36.045  33.642  29.617  1.00  0.00    -0.237 OA
ATOM     66  O   UNL A   1      34.766  31.638  28.923  1.00  0.00    -0.237 OA
ATOM     67  O   UNL A   1      34.217  32.791  31.033  1.00  0.00    -0.744 OA
ENDBRANCH  60  64
ENDBRANCH  43  57
BRANCH  44  68
ATOM     68  C   UNL A   1      46.974  27.413  26.297  1.00  0.00     0.023 A 
ATOM     69  C   UNL A   1      47.175  27.722  24.944  1.00  0.00     0.031 A 
ATOM     70  C   UNL A   1      47.967  26.665  26.958  1.00  0.00     0.131 A 
ATOM     71  C   UNL A   1      48.327  27.264  24.286  1.00  0.00     0.055 A 
ATOM     72  C   UNL A   1      49.137  26.261  26.316  1.00  0.00     0.041 A 
ATOM     73  F   UNL A   1      47.818  26.332  28.250  1.00  0.00    -0.206 F 
ATOM     74  C   UNL A   1      49.318  26.553  24.967  1.00  0.00     0.022 A 
BRANCH  71  75
ATOM     75  S   UNL A   1      48.480  27.551  22.502  1.00  0.00     0.124 S 
ATOM     76  O   UNL A   1      48.526  26.186  21.985  1.00  0.00    -0.237 OA
ATOM     77  O   UNL A   1      47.265  28.303  22.206  1.00  0.00    -0.237 OA
ATOM     78  O   UNL A   1      49.724  28.306  22.383  1.00  0.00    -0.744 OA
ENDBRANCH  71  75
ENDBRANCH  44  68
BRANCH  56  79
ATOM     79  C   UNL A   1      45.010  33.399  29.243  1.00  0.00     0.023 A 
ATOM     80  C   UNL A   1      44.943  34.407  28.265  1.00  0.00     0.031 A 
ATOM     81  C   UNL A   1      45.792  33.636  30.387  1.00  0.00     0.131 A 
ATOM     82  C   UNL A   1      45.690  35.585  28.423  1.00  0.00     0.055 A 
ATOM     83  C   UNL A   1      46.491  34.830  30.563  1.00  0.00     0.041 A 
ATOM     84  F   UNL A   1      45.891  32.704  31.349  1.00  0.00    -0.206 F 
ATOM     85  C   UNL A   1      46.454  35.807  29.572  1.00  0.00     0.022 A 
BRANCH  82  86
ATOM     86  S   UNL A   1      45.719  36.789  27.066  1.00  0.00     0.124 S 
ATOM     87  O   UNL A   1      46.252  35.994  25.966  1.00  0.00    -0.237 OA
ATOM     88  O   UNL A   1      44.315  37.171  26.958  1.00  0.00    -0.237 OA
ATOM     89  O   UNL A   1      46.609  37.839  27.559  1.00  0.00    -0.744 OA
ENDBRANCH  82  86
ENDBRANCH  56  79
ENDBRANCH  30  31
ENDBRANCH  23  25
ENDBRANCH  22  23
ENDBRANCH  21  22
ENDBRANCH   1  21
TORSDOF 17
ENDMDL
