MODEL 1
REMARK VINA RESULT:     -12.1      0.000      0.000
REMARK SMILES NC(=O)C[C@H](C(=O)OCCOC(=O)c1ccc(-c2c3nc(c(-c4cc(S(=O)(=O)[O-])ccc4F)c4ccc([nH]4)c(-c4cc(S(=O)(=O)[O-])ccc4F)c4nc(c(-c5cc(S(=O)(=O)[O-])ccc5F)c5ccc2[nH]5)C=C4)C=C3)cc1)N1C(=O)/C(=C/c2ccccc2)SC1=S
REMARK SMILES IDX 10 1 9 2 8 3 6 4 7 5 5 6 4 7 2 8 1 9 3 12 77 13 78 14 89 15
REMARK SMILES IDX 79 16 80 17 88 18 90 19 81 20 82 21 83 22 87 23 84 24 86 25
REMARK SMILES IDX 85 26 11 27 12 28 13 29 14 30 15 31 76 32 16 33 75 34 17 35
REMARK SMILES IDX 18 36 19 37 69 38 20 39 74 40 68 41 70 42 21 43 73 44 67 45
REMARK SMILES IDX 66 46 22 48 54 49 34 50 53 51 35 52 38 53 52 54 71 55 36 56
REMARK SMILES IDX 37 57 51 59 72 60 39 61 23 62 24 63 32 64 25 65 31 66 33 67
REMARK SMILES IDX 30 68 26 69 27 70 28 71 29 72 55 73 56 74 64 75 57 76 63 77
REMARK SMILES IDX 65 78 62 79 58 80 59 81 60 82 61 83 40 84 41 85 49 86 42 87
REMARK SMILES IDX 48 88 50 89 47 90 43 91 44 92 45 93 46 94
REMARK H PARENT 1 10 1 11 70 47 38 58
REMARK Flexibility Score: inf
ROOT
ATOM      1  C   UNL A   1      32.072  29.186  25.089  1.00  0.00     0.275 C 
ENDROOT
BRANCH   1   2
ATOM      2  C   UNL A   1      32.018  27.803  25.728  1.00  0.00     0.274 C 
BRANCH   2   3
ATOM      3  O   UNL A   1      33.001  26.927  25.133  1.00  0.00    -0.461 OA
BRANCH   3   4
ATOM      4  C   UNL A   1      32.735  25.591  25.228  1.00  0.00     0.329 C 
ATOM      5  O   UNL A   1      32.397  25.036  26.266  1.00  0.00    -0.250 OA
BRANCH   4   6
ATOM      6  C   UNL A   1      33.025  24.827  23.924  1.00  0.00     0.211 C 
BRANCH   6   7
ATOM      7  C   UNL A   1      33.913  25.599  22.943  1.00  0.00     0.137 C 
BRANCH   7   8
ATOM      8  C   UNL A   1      33.144  26.127  21.757  1.00  0.00     0.220 C 
ATOM      9  N   UNL A   1      32.417  27.258  21.965  1.00  0.00    -0.370 N 
ATOM     10  H   UNL A   1      31.896  27.650  21.229  1.00  0.00     0.159 HD
ATOM     11  H   UNL A   1      32.415  27.684  22.852  1.00  0.00     0.159 HD
ATOM     12  O   UNL A   1      33.142  25.570  20.666  1.00  0.00    -0.275 OA
ENDBRANCH   7   8
ENDBRANCH   6   7
BRANCH   6  13
ATOM     13  N   UNL A   1      33.436  23.418  24.165  1.00  0.00    -0.278 N 
ATOM     14  C   UNL A   1      32.506  22.438  23.844  1.00  0.00     0.267 C 
ATOM     15  C   UNL A   1      34.585  22.967  24.790  1.00  0.00     0.149 C 
ATOM     16  O   UNL A   1      31.397  22.632  23.364  1.00  0.00    -0.268 OA
ATOM     17  C   UNL A   1      33.022  21.089  24.174  1.00  0.00     0.081 C 
ATOM     18  S   UNL A   1      34.562  21.210  24.905  1.00  0.00    -0.054 SA
ATOM     19  S   UNL A   1      35.877  23.821  25.394  1.00  0.00    -0.052 S 
ATOM     20  C   UNL A   1      32.331  19.979  23.889  1.00  0.00     0.029 C 
BRANCH  20  21
ATOM     21  C   UNL A   1      32.791  18.617  24.171  1.00  0.00    -0.024 A 
ATOM     22  C   UNL A   1      33.431  17.882  23.167  1.00  0.00     0.008 A 
ATOM     23  C   UNL A   1      32.614  18.050  25.438  1.00  0.00     0.008 A 
ATOM     24  C   UNL A   1      33.896  16.593  23.433  1.00  0.00     0.001 A 
ATOM     25  C   UNL A   1      33.082  16.762  25.701  1.00  0.00     0.001 A 
ATOM     26  C   UNL A   1      33.723  16.035  24.699  1.00  0.00     0.000 A 
ENDBRANCH  20  21
ENDBRANCH   6  13
ENDBRANCH   4   6
ENDBRANCH   3   4
ENDBRANCH   2   3
ENDBRANCH   1   2
BRANCH   1  27
ATOM     27  O   UNL A   1      33.251  29.859  25.553  1.00  0.00    -0.458 OA
BRANCH  27  28
ATOM     28  C   UNL A   1      33.082  30.666  26.628  1.00  0.00     0.338 C 
ATOM     29  O   UNL A   1      32.092  31.327  26.889  1.00  0.00    -0.246 OA
BRANCH  28  30
ATOM     30  C   UNL A   1      34.300  30.636  27.466  1.00  0.00     0.060 A 
ATOM     31  C   UNL A   1      35.056  31.790  27.693  1.00  0.00     0.016 A 
ATOM     32  C   UNL A   1      34.745  29.411  27.961  1.00  0.00     0.016 A 
ATOM     33  C   UNL A   1      36.292  31.708  28.335  1.00  0.00     0.010 A 
ATOM     34  C   UNL A   1      35.932  29.351  28.695  1.00  0.00     0.010 A 
ATOM     35  C   UNL A   1      36.740  30.492  28.867  1.00  0.00    -0.014 A 
BRANCH  35  36
ATOM     36  C   UNL A   1      38.047  30.371  29.576  1.00  0.00     0.031 A 
ATOM     37  C   UNL A   1      39.140  29.524  28.974  1.00  0.00     0.074 A 
ATOM     38  C   UNL A   1      38.252  30.965  30.770  1.00  0.00     0.049 A 
ATOM     39  N   UNL A   1      40.202  29.011  29.540  1.00  0.00    -0.248 NA
ATOM     40  C   UNL A   1      39.002  29.195  27.546  1.00  0.00     0.031 C 
ATOM     41  C   UNL A   1      37.325  31.877  31.442  1.00  0.00     0.029 A 
ATOM     42  N   UNL A   1      39.310  30.871  31.646  1.00  0.00    -0.354 N 
ATOM     43  C   UNL A   1      40.818  28.237  28.560  1.00  0.00     0.074 A 
ATOM     44  C   UNL A   1      40.016  28.359  27.361  1.00  0.00     0.031 C 
ATOM     45  C   UNL A   1      37.855  32.263  32.612  1.00  0.00     0.029 A 
ATOM     46  C   UNL A   1      39.106  31.548  32.828  1.00  0.00     0.049 A 
ATOM     47  H   UNL A   1      40.133  30.369  31.446  1.00  0.00     0.167 HD
ATOM     48  C   UNL A   1      41.941  27.485  28.663  1.00  0.00     0.034 A 
ATOM     49  C   UNL A   1      39.804  31.541  33.982  1.00  0.00     0.034 A 
ATOM     50  C   UNL A   1      42.760  27.424  29.850  1.00  0.00     0.049 A 
ATOM     51  C   UNL A   1      41.028  30.667  34.088  1.00  0.00     0.074 A 
ATOM     52  C   UNL A   1      43.926  26.704  30.058  1.00  0.00     0.029 A 
ATOM     53  N   UNL A   1      42.511  28.122  31.023  1.00  0.00    -0.354 N 
ATOM     54  N   UNL A   1      41.553  29.868  33.187  1.00  0.00    -0.248 NA
ATOM     55  C   UNL A   1      41.745  30.678  35.371  1.00  0.00     0.031 C 
ATOM     56  C   UNL A   1      44.353  26.930  31.371  1.00  0.00     0.029 A 
ATOM     57  C   UNL A   1      43.491  27.840  31.961  1.00  0.00     0.049 A 
ATOM     58  H   UNL A   1      41.750  28.729  31.167  1.00  0.00     0.167 HD
ATOM     59  C   UNL A   1      42.676  29.307  33.788  1.00  0.00     0.074 A 
ATOM     60  C   UNL A   1      42.758  29.863  35.122  1.00  0.00     0.031 C 
ATOM     61  C   UNL A   1      43.562  28.413  33.283  1.00  0.00     0.034 A 
BRANCH  48  62
ATOM     62  C   UNL A   1      42.313  26.611  27.491  1.00  0.00     0.023 A 
ATOM     63  C   UNL A   1      41.944  25.258  27.413  1.00  0.00     0.031 A 
ATOM     64  C   UNL A   1      43.053  27.156  26.425  1.00  0.00     0.131 A 
ATOM     65  C   UNL A   1      42.355  24.485  26.315  1.00  0.00     0.055 A 
ATOM     66  C   UNL A   1      43.402  26.401  25.305  1.00  0.00     0.041 A 
ATOM     67  F   UNL A   1      43.448  28.439  26.456  1.00  0.00    -0.206 F 
ATOM     68  C   UNL A   1      43.062  25.053  25.250  1.00  0.00     0.022 A 
BRANCH  65  69
ATOM     69  S   UNL A   1      42.036  22.699  26.334  1.00  0.00     0.124 S 
ATOM     70  O   UNL A   1      40.580  22.658  26.222  1.00  0.00    -0.237 OA
ATOM     71  O   UNL A   1      42.778  22.232  25.168  1.00  0.00    -0.237 OA
ATOM     72  O   UNL A   1      42.568  22.268  27.624  1.00  0.00    -0.744 OA
ENDBRANCH  65  69
ENDBRANCH  48  62
BRANCH  49  73
ATOM     73  C   UNL A   1      39.321  32.313  35.165  1.00  0.00     0.023 A 
ATOM     74  C   UNL A   1      39.749  33.630  35.397  1.00  0.00     0.031 A 
ATOM     75  C   UNL A   1      38.470  31.722  36.118  1.00  0.00     0.131 A 
ATOM     76  C   UNL A   1      39.365  34.294  36.572  1.00  0.00     0.055 A 
ATOM     77  C   UNL A   1      38.039  32.408  37.253  1.00  0.00     0.041 A 
ATOM     78  F   UNL A   1      38.037  30.461  35.953  1.00  0.00    -0.206 F 
ATOM     79  C   UNL A   1      38.501  33.698  37.494  1.00  0.00     0.022 A 
BRANCH  76  80
ATOM     80  S   UNL A   1      40.104  35.910  36.939  1.00  0.00     0.124 S 
ATOM     81  O   UNL A   1      39.735  36.681  35.758  1.00  0.00    -0.237 OA
ATOM     82  O   UNL A   1      39.432  36.276  38.180  1.00  0.00    -0.237 OA
ATOM     83  O   UNL A   1      41.529  35.610  37.068  1.00  0.00    -0.744 OA
ENDBRANCH  76  80
ENDBRANCH  49  73
BRANCH  61  84
ATOM     84  C   UNL A   1      44.735  28.045  34.153  1.00  0.00     0.023 A 
ATOM     85  C   UNL A   1      45.935  28.777  34.131  1.00  0.00     0.031 A 
ATOM     86  C   UNL A   1      44.644  26.939  35.016  1.00  0.00     0.131 A 
ATOM     87  C   UNL A   1      47.014  28.367  34.929  1.00  0.00     0.055 A 
ATOM     88  C   UNL A   1      45.703  26.565  35.841  1.00  0.00     0.041 A 
ATOM     89  F   UNL A   1      43.519  26.209  35.073  1.00  0.00    -0.206 F 
ATOM     90  C   UNL A   1      46.900  27.274  35.793  1.00  0.00     0.022 A 
BRANCH  87  91
ATOM     91  S   UNL A   1      48.593  29.245  34.781  1.00  0.00     0.124 S 
ATOM     92  O   UNL A   1      48.286  30.532  35.397  1.00  0.00    -0.237 OA
ATOM     93  O   UNL A   1      49.503  28.382  35.528  1.00  0.00    -0.237 OA
ATOM     94  O   UNL A   1      48.829  29.287  33.339  1.00  0.00    -0.744 OA
ENDBRANCH  87  91
ENDBRANCH  61  84
ENDBRANCH  35  36
ENDBRANCH  28  30
ENDBRANCH  27  28
ENDBRANCH   1  27
TORSDOF 18
ENDMDL
MODEL 2
REMARK VINA RESULT:     -12.0      1.861      2.220
REMARK SMILES NC(=O)C[C@H](C(=O)OCCOC(=O)c1ccc(-c2c3nc(c(-c4cc(S(=O)(=O)[O-])ccc4F)c4ccc([nH]4)c(-c4cc(S(=O)(=O)[O-])ccc4F)c4nc(c(-c5cc(S(=O)(=O)[O-])ccc5F)c5ccc2[nH]5)C=C4)C=C3)cc1)N1C(=O)/C(=C/c2ccccc2)SC1=S
REMARK SMILES IDX 10 1 9 2 8 3 6 4 7 5 5 6 4 7 2 8 1 9 3 12 77 13 78 14 89 15
REMARK SMILES IDX 79 16 80 17 88 18 90 19 81 20 82 21 83 22 87 23 84 24 86 25
REMARK SMILES IDX 85 26 11 27 12 28 13 29 14 30 15 31 76 32 16 33 75 34 17 35
REMARK SMILES IDX 18 36 19 37 69 38 20 39 74 40 68 41 70 42 21 43 73 44 67 45
REMARK SMILES IDX 66 46 22 48 54 49 34 50 53 51 35 52 38 53 52 54 71 55 36 56
REMARK SMILES IDX 37 57 51 59 72 60 39 61 23 62 24 63 32 64 25 65 31 66 33 67
REMARK SMILES IDX 30 68 26 69 27 70 28 71 29 72 55 73 56 74 64 75 57 76 63 77
REMARK SMILES IDX 65 78 62 79 58 80 59 81 60 82 61 83 40 84 41 85 49 86 42 87
REMARK SMILES IDX 48 88 50 89 47 90 43 91 44 92 45 93 46 94
REMARK H PARENT 1 10 1 11 70 47 38 58
REMARK Flexibility Score: inf
ROOT
ATOM      1  C   UNL A   1      31.866  29.489  25.113  1.00  0.00     0.275 C 
ENDROOT
BRANCH   1   2
ATOM      2  C   UNL A   1      31.499  28.017  25.253  1.00  0.00     0.274 C 
BRANCH   2   3
ATOM      3  O   UNL A   1      32.676  27.185  25.158  1.00  0.00    -0.461 OA
BRANCH   3   4
ATOM      4  C   UNL A   1      32.457  25.840  25.245  1.00  0.00     0.329 C 
ATOM      5  O   UNL A   1      32.194  25.259  26.290  1.00  0.00    -0.250 OA
BRANCH   4   6
ATOM      6  C   UNL A   1      32.699  25.106  23.914  1.00  0.00     0.211 C 
BRANCH   6   7
ATOM      7  C   UNL A   1      33.518  25.915  22.905  1.00  0.00     0.137 C 
BRANCH   7   8
ATOM      8  C   UNL A   1      32.788  26.125  21.601  1.00  0.00     0.220 C 
ATOM      9  N   UNL A   1      31.533  26.644  21.690  1.00  0.00    -0.370 N 
ATOM     10  H   UNL A   1      31.008  26.804  20.873  1.00  0.00     0.159 HD
ATOM     11  H   UNL A   1      31.152  26.861  22.571  1.00  0.00     0.159 HD
ATOM     12  O   UNL A   1      33.270  25.828  20.515  1.00  0.00    -0.275 OA
ENDBRANCH   7   8
ENDBRANCH   6   7
BRANCH   6  13
ATOM     13  N   UNL A   1      33.155  23.703  24.109  1.00  0.00    -0.278 N 
ATOM     14  C   UNL A   1      32.250  22.705  23.774  1.00  0.00     0.267 C 
ATOM     15  C   UNL A   1      34.326  23.269  24.705  1.00  0.00     0.149 C 
ATOM     16  O   UNL A   1      31.128  22.879  23.316  1.00  0.00    -0.268 OA
ATOM     17  C   UNL A   1      32.810  21.363  24.058  1.00  0.00     0.081 C 
ATOM     18  S   UNL A   1      34.357  21.510  24.770  1.00  0.00    -0.054 SA
ATOM     19  S   UNL A   1      35.602  24.144  25.314  1.00  0.00    -0.052 S 
ATOM     20  C   UNL A   1      32.148  20.241  23.751  1.00  0.00     0.029 C 
BRANCH  20  21
ATOM     21  C   UNL A   1      32.652  18.887  23.987  1.00  0.00    -0.024 A 
ATOM     22  C   UNL A   1      32.638  18.359  25.283  1.00  0.00     0.008 A 
ATOM     23  C   UNL A   1      33.130  18.107  22.928  1.00  0.00     0.008 A 
ATOM     24  C   UNL A   1      33.092  17.059  25.514  1.00  0.00     0.001 A 
ATOM     25  C   UNL A   1      33.582  16.808  23.162  1.00  0.00     0.001 A 
ATOM     26  C   UNL A   1      33.562  16.285  24.454  1.00  0.00     0.000 A 
ENDBRANCH  20  21
ENDBRANCH   6  13
ENDBRANCH   4   6
ENDBRANCH   3   4
ENDBRANCH   2   3
ENDBRANCH   1   2
BRANCH   1  27
ATOM     27  O   UNL A   1      33.103  29.720  25.802  1.00  0.00    -0.458 OA
BRANCH  27  28
ATOM     28  C   UNL A   1      33.088  30.720  26.715  1.00  0.00     0.338 C 
ATOM     29  O   UNL A   1      32.217  31.561  26.855  1.00  0.00    -0.246 OA
BRANCH  28  30
ATOM     30  C   UNL A   1      34.312  30.654  27.543  1.00  0.00     0.060 A 
ATOM     31  C   UNL A   1      35.095  31.787  27.778  1.00  0.00     0.016 A 
ATOM     32  C   UNL A   1      34.734  29.413  28.018  1.00  0.00     0.016 A 
ATOM     33  C   UNL A   1      36.333  31.670  28.410  1.00  0.00     0.010 A 
ATOM     34  C   UNL A   1      35.925  29.317  28.742  1.00  0.00     0.010 A 
ATOM     35  C   UNL A   1      36.759  30.438  28.922  1.00  0.00    -0.014 A 
BRANCH  35  36
ATOM     36  C   UNL A   1      38.069  30.279  29.619  1.00  0.00     0.031 A 
ATOM     37  C   UNL A   1      39.116  29.371  29.028  1.00  0.00     0.074 A 
ATOM     38  C   UNL A   1      38.314  30.895  30.795  1.00  0.00     0.049 A 
ATOM     39  N   UNL A   1      40.163  28.827  29.594  1.00  0.00    -0.248 NA
ATOM     40  C   UNL A   1      38.947  29.011  27.610  1.00  0.00     0.031 C 
ATOM     41  C   UNL A   1      37.435  31.863  31.453  1.00  0.00     0.029 A 
ATOM     42  N   UNL A   1      39.378  30.778  31.660  1.00  0.00    -0.354 N 
ATOM     43  C   UNL A   1      40.733  28.002  28.628  1.00  0.00     0.074 A 
ATOM     44  C   UNL A   1      39.921  28.128  27.436  1.00  0.00     0.031 C 
ATOM     45  C   UNL A   1      37.996  32.256  32.606  1.00  0.00     0.029 A 
ATOM     46  C   UNL A   1      39.218  31.494  32.827  1.00  0.00     0.049 A 
ATOM     47  H   UNL A   1      40.176  30.236  31.465  1.00  0.00     0.167 HD
ATOM     48  C   UNL A   1      41.824  27.206  28.738  1.00  0.00     0.034 A 
ATOM     49  C   UNL A   1      39.929  31.487  33.972  1.00  0.00     0.034 A 
ATOM     50  C   UNL A   1      42.655  27.141  29.916  1.00  0.00     0.049 A 
ATOM     51  C   UNL A   1      41.116  30.564  34.088  1.00  0.00     0.074 A 
ATOM     52  C   UNL A   1      43.791  26.377  30.131  1.00  0.00     0.029 A 
ATOM     53  N   UNL A   1      42.450  27.879  31.074  1.00  0.00    -0.354 N 
ATOM     54  N   UNL A   1      41.595  29.721  33.202  1.00  0.00    -0.248 NA
ATOM     55  C   UNL A   1      41.848  30.578  35.361  1.00  0.00     0.031 C 
ATOM     56  C   UNL A   1      44.244  26.619  31.432  1.00  0.00     0.029 A 
ATOM     57  C   UNL A   1      43.429  27.579  32.007  1.00  0.00     0.049 A 
ATOM     58  H   UNL A   1      41.717  28.522  31.211  1.00  0.00     0.167 HD
ATOM     59  C   UNL A   1      42.700  29.128  33.804  1.00  0.00     0.074 A 
ATOM     60  C   UNL A   1      42.823  29.714  35.122  1.00  0.00     0.031 C 
ATOM     61  C   UNL A   1      43.541  28.183  33.313  1.00  0.00     0.034 A 
BRANCH  48  62
ATOM     62  C   UNL A   1      42.143  26.287  27.586  1.00  0.00     0.023 A 
ATOM     63  C   UNL A   1      41.702  24.954  27.540  1.00  0.00     0.031 A 
ATOM     64  C   UNL A   1      42.907  26.767  26.505  1.00  0.00     0.131 A 
ATOM     65  C   UNL A   1      42.066  24.135  26.459  1.00  0.00     0.055 A 
ATOM     66  C   UNL A   1      43.210  25.968  25.402  1.00  0.00     0.041 A 
ATOM     67  F   UNL A   1      43.370  28.027  26.505  1.00  0.00    -0.206 F 
ATOM     68  C   UNL A   1      42.798  24.639  25.379  1.00  0.00     0.022 A 
BRANCH  65  69
ATOM     69  S   UNL A   1      41.652  22.370  26.520  1.00  0.00     0.124 S 
ATOM     70  O   UNL A   1      42.164  21.991  27.835  1.00  0.00    -0.237 OA
ATOM     71  O   UNL A   1      40.200  22.380  26.380  1.00  0.00    -0.237 OA
ATOM     72  O   UNL A   1      42.383  21.805  25.388  1.00  0.00    -0.744 OA
ENDBRANCH  65  69
ENDBRANCH  48  62
BRANCH  49  73
ATOM     73  C   UNL A   1      39.495  32.309  35.139  1.00  0.00     0.023 A 
ATOM     74  C   UNL A   1      38.802  31.733  36.217  1.00  0.00     0.031 A 
ATOM     75  C   UNL A   1      39.712  33.700  35.167  1.00  0.00     0.131 A 
ATOM     76  C   UNL A   1      38.312  32.548  37.250  1.00  0.00     0.055 A 
ATOM     77  C   UNL A   1      39.279  34.496  36.227  1.00  0.00     0.041 A 
ATOM     78  F   UNL A   1      40.360  34.307  34.159  1.00  0.00    -0.206 F 
ATOM     79  C   UNL A   1      38.559  33.922  37.270  1.00  0.00     0.022 A 
BRANCH  76  80
ATOM     80  S   UNL A   1      37.244  31.801  38.512  1.00  0.00     0.124 S 
ATOM     81  O   UNL A   1      38.082  31.891  39.702  1.00  0.00    -0.237 OA
ATOM     82  O   UNL A   1      36.079  32.678  38.481  1.00  0.00    -0.237 OA
ATOM     83  O   UNL A   1      37.019  30.448  38.010  1.00  0.00    -0.744 OA
ENDBRANCH  76  80
ENDBRANCH  49  73
BRANCH  61  84
ATOM     84  C   UNL A   1      44.708  27.788  34.179  1.00  0.00     0.023 A 
ATOM     85  C   UNL A   1      44.642  26.696  35.061  1.00  0.00     0.031 A 
ATOM     86  C   UNL A   1      45.904  28.525  34.118  1.00  0.00     0.131 A 
ATOM     87  C   UNL A   1      45.741  26.396  35.880  1.00  0.00     0.055 A 
ATOM     88  C   UNL A   1      47.009  28.193  34.900  1.00  0.00     0.041 A 
ATOM     89  F   UNL A   1      46.016  29.577  33.291  1.00  0.00    -0.206 F 
ATOM     90  C   UNL A   1      46.928  27.129  35.794  1.00  0.00     0.022 A 
BRANCH  87  91
ATOM     91  S   UNL A   1      45.582  25.069  37.105  1.00  0.00     0.124 S 
ATOM     92  O   UNL A   1      44.601  24.190  36.477  1.00  0.00    -0.237 OA
ATOM     93  O   UNL A   1      46.944  24.551  37.185  1.00  0.00    -0.237 OA
ATOM     94  O   UNL A   1      45.115  25.763  38.304  1.00  0.00    -0.744 OA
ENDBRANCH  87  91
ENDBRANCH  61  84
ENDBRANCH  35  36
ENDBRANCH  28  30
ENDBRANCH  27  28
ENDBRANCH   1  27
TORSDOF 18
ENDMDL
MODEL 3
REMARK VINA RESULT:     -11.9      4.643      9.910
REMARK SMILES NC(=O)C[C@H](C(=O)OCCOC(=O)c1ccc(-c2c3nc(c(-c4cc(S(=O)(=O)[O-])ccc4F)c4ccc([nH]4)c(-c4cc(S(=O)(=O)[O-])ccc4F)c4nc(c(-c5cc(S(=O)(=O)[O-])ccc5F)c5ccc2[nH]5)C=C4)C=C3)cc1)N1C(=O)/C(=C/c2ccccc2)SC1=S
REMARK SMILES IDX 10 1 9 2 8 3 6 4 7 5 5 6 4 7 2 8 1 9 3 12 77 13 78 14 89 15
REMARK SMILES IDX 79 16 80 17 88 18 90 19 81 20 82 21 83 22 87 23 84 24 86 25
REMARK SMILES IDX 85 26 11 27 12 28 13 29 14 30 15 31 76 32 16 33 75 34 17 35
REMARK SMILES IDX 18 36 19 37 69 38 20 39 74 40 68 41 70 42 21 43 73 44 67 45
REMARK SMILES IDX 66 46 22 48 54 49 34 50 53 51 35 52 38 53 52 54 71 55 36 56
REMARK SMILES IDX 37 57 51 59 72 60 39 61 23 62 24 63 32 64 25 65 31 66 33 67
REMARK SMILES IDX 30 68 26 69 27 70 28 71 29 72 55 73 56 74 64 75 57 76 63 77
REMARK SMILES IDX 65 78 62 79 58 80 59 81 60 82 61 83 40 84 41 85 49 86 42 87
REMARK SMILES IDX 48 88 50 89 47 90 43 91 44 92 45 93 46 94
REMARK H PARENT 1 10 1 11 70 47 38 58
REMARK Flexibility Score: inf
ROOT
ATOM      1  C   UNL A   1      35.791  22.130  24.436  1.00  0.00     0.275 C 
ENDROOT
BRANCH   1   2
ATOM      2  C   UNL A   1      34.294  22.213  24.704  1.00  0.00     0.274 C 
BRANCH   2   3
ATOM      3  O   UNL A   1      33.932  23.531  25.174  1.00  0.00    -0.461 OA
BRANCH   3   4
ATOM      4  C   UNL A   1      33.089  24.235  24.363  1.00  0.00     0.329 C 
ATOM      5  O   UNL A   1      33.373  24.586  23.225  1.00  0.00    -0.250 OA
BRANCH   4   6
ATOM      6  C   UNL A   1      31.788  24.655  25.070  1.00  0.00     0.211 C 
BRANCH   6   7
ATOM      7  C   UNL A   1      31.733  24.255  26.547  1.00  0.00     0.137 C 
BRANCH   7   8
ATOM      8  C   UNL A   1      30.800  23.095  26.798  1.00  0.00     0.220 C 
ATOM      9  N   UNL A   1      31.082  21.940  26.137  1.00  0.00    -0.370 N 
ATOM     10  H   UNL A   1      30.510  21.150  26.262  1.00  0.00     0.159 HD
ATOM     11  H   UNL A   1      31.860  21.895  25.536  1.00  0.00     0.159 HD
ATOM     12  O   UNL A   1      29.824  23.176  27.533  1.00  0.00    -0.275 OA
ENDBRANCH   7   8
ENDBRANCH   6   7
BRANCH   6  13
ATOM     13  N   UNL A   1      31.415  26.068  24.790  1.00  0.00    -0.278 N 
ATOM     14  C   UNL A   1      30.327  26.267  23.951  1.00  0.00     0.267 C 
ATOM     15  C   UNL A   1      32.098  27.212  25.161  1.00  0.00     0.149 C 
ATOM     16  O   UNL A   1      29.641  25.388  23.444  1.00  0.00    -0.268 OA
ATOM     17  C   UNL A   1      30.092  27.712  23.720  1.00  0.00     0.081 C 
ATOM     18  S   UNL A   1      31.291  28.637  24.512  1.00  0.00    -0.054 SA
ATOM     19  S   UNL A   1      33.477  27.384  26.073  1.00  0.00    -0.052 S 
ATOM     20  C   UNL A   1      29.054  28.153  23.000  1.00  0.00     0.029 C 
BRANCH  20  21
ATOM     21  C   UNL A   1      28.754  29.565  22.750  1.00  0.00    -0.024 A 
ATOM     22  C   UNL A   1      29.303  30.201  21.631  1.00  0.00     0.008 A 
ATOM     23  C   UNL A   1      27.911  30.279  23.608  1.00  0.00     0.008 A 
ATOM     24  C   UNL A   1      29.002  31.539  21.370  1.00  0.00     0.001 A 
ATOM     25  C   UNL A   1      27.611  31.616  23.343  1.00  0.00     0.001 A 
ATOM     26  C   UNL A   1      28.157  32.244  22.224  1.00  0.00     0.000 A 
ENDBRANCH  20  21
ENDBRANCH   6  13
ENDBRANCH   4   6
ENDBRANCH   3   4
ENDBRANCH   2   3
ENDBRANCH   1   2
BRANCH   1  27
ATOM     27  O   UNL A   1      36.477  22.031  25.692  1.00  0.00    -0.458 OA
BRANCH  27  28
ATOM     28  C   UNL A   1      37.733  21.527  25.637  1.00  0.00     0.338 C 
ATOM     29  O   UNL A   1      38.050  20.407  25.278  1.00  0.00    -0.246 OA
BRANCH  28  30
ATOM     30  C   UNL A   1      38.698  22.553  26.090  1.00  0.00     0.060 A 
ATOM     31  C   UNL A   1      39.806  22.216  26.872  1.00  0.00     0.016 A 
ATOM     32  C   UNL A   1      38.439  23.892  25.800  1.00  0.00     0.016 A 
ATOM     33  C   UNL A   1      40.602  23.215  27.434  1.00  0.00     0.010 A 
ATOM     34  C   UNL A   1      39.301  24.883  26.278  1.00  0.00     0.010 A 
ATOM     35  C   UNL A   1      40.377  24.563  27.129  1.00  0.00    -0.014 A 
BRANCH  35  36
ATOM     36  C   UNL A   1      41.219  25.656  27.697  1.00  0.00     0.031 A 
ATOM     37  C   UNL A   1      40.579  26.705  28.570  1.00  0.00     0.074 A 
ATOM     38  C   UNL A   1      42.532  25.750  27.403  1.00  0.00     0.049 A 
ATOM     39  N   UNL A   1      41.014  27.895  28.895  1.00  0.00    -0.248 NA
ATOM     40  C   UNL A   1      39.260  26.374  29.134  1.00  0.00     0.031 C 
ATOM     41  C   UNL A   1      43.311  24.772  26.640  1.00  0.00     0.029 A 
ATOM     42  N   UNL A   1      43.446  26.736  27.699  1.00  0.00    -0.354 N 
ATOM     43  C   UNL A   1      39.993  28.484  29.636  1.00  0.00     0.074 A 
ATOM     44  C   UNL A   1      38.922  27.513  29.722  1.00  0.00     0.031 C 
ATOM     45  C   UNL A   1      44.578  25.200  26.537  1.00  0.00     0.029 A 
ATOM     46  C   UNL A   1      44.683  26.528  27.128  1.00  0.00     0.049 A 
ATOM     47  H   UNL A   1      43.237  27.514  28.264  1.00  0.00     0.167 HD
ATOM     48  C   UNL A   1      39.954  29.725  30.179  1.00  0.00     0.034 A 
ATOM     49  C   UNL A   1      45.757  27.336  27.027  1.00  0.00     0.034 A 
ATOM     50  C   UNL A   1      41.056  30.656  30.134  1.00  0.00     0.049 A 
ATOM     51  C   UNL A   1      45.678  28.728  27.603  1.00  0.00     0.074 A 
ATOM     52  C   UNL A   1      41.128  31.935  30.662  1.00  0.00     0.029 A 
ATOM     53  N   UNL A   1      42.285  30.403  29.540  1.00  0.00    -0.354 N 
ATOM     54  N   UNL A   1      44.677  29.309  28.224  1.00  0.00    -0.248 NA
ATOM     55  C   UNL A   1      46.866  29.579  27.452  1.00  0.00     0.031 C 
ATOM     56  C   UNL A   1      42.382  32.470  30.347  1.00  0.00     0.029 A 
ATOM     57  C   UNL A   1      43.115  31.504  29.678  1.00  0.00     0.049 A 
ATOM     58  H   UNL A   1      42.531  29.564  29.089  1.00  0.00     0.167 HD
ATOM     59  C   UNL A   1      45.128  30.582  28.559  1.00  0.00     0.074 A 
ATOM     60  C   UNL A   1      46.491  30.681  28.083  1.00  0.00     0.031 C 
ATOM     61  C   UNL A   1      44.475  31.580  29.206  1.00  0.00     0.034 A 
BRANCH  48  62
ATOM     62  C   UNL A   1      38.659  30.179  30.804  1.00  0.00     0.023 A 
ATOM     63  C   UNL A   1      37.670  30.864  30.078  1.00  0.00     0.031 A 
ATOM     64  C   UNL A   1      38.413  29.912  32.164  1.00  0.00     0.131 A 
ATOM     65  C   UNL A   1      36.502  31.297  30.726  1.00  0.00     0.055 A 
ATOM     66  C   UNL A   1      37.222  30.287  32.788  1.00  0.00     0.041 A 
ATOM     67  F   UNL A   1      39.331  29.278  32.911  1.00  0.00    -0.206 F 
ATOM     68  C   UNL A   1      36.262  30.994  32.070  1.00  0.00     0.022 A 
BRANCH  65  69
ATOM     69  S   UNL A   1      35.336  32.347  29.818  1.00  0.00     0.124 S 
ATOM     70  O   UNL A   1      34.899  31.450  28.751  1.00  0.00    -0.237 OA
ATOM     71  O   UNL A   1      34.337  32.664  30.832  1.00  0.00    -0.237 OA
ATOM     72  O   UNL A   1      36.156  33.474  29.378  1.00  0.00    -0.744 OA
ENDBRANCH  65  69
ENDBRANCH  48  62
BRANCH  49  73
ATOM     73  C   UNL A   1      46.969  26.897  26.276  1.00  0.00     0.023 A 
ATOM     74  C   UNL A   1      48.035  26.256  26.928  1.00  0.00     0.031 A 
ATOM     75  C   UNL A   1      47.107  27.166  24.901  1.00  0.00     0.131 A 
ATOM     76  C   UNL A   1      49.208  25.951  26.219  1.00  0.00     0.055 A 
ATOM     77  C   UNL A   1      48.248  26.803  24.186  1.00  0.00     0.041 A 
ATOM     78  F   UNL A   1      46.124  27.786  24.228  1.00  0.00    -0.206 F 
ATOM     79  C   UNL A   1      49.315  26.206  24.850  1.00  0.00     0.022 A 
BRANCH  76  80
ATOM     80  S   UNL A   1      50.639  25.319  27.136  1.00  0.00     0.124 S 
ATOM     81  O   UNL A   1      51.036  26.488  27.912  1.00  0.00    -0.237 OA
ATOM     82  O   UNL A   1      50.053  24.217  27.891  1.00  0.00    -0.237 OA
ATOM     83  O   UNL A   1      51.572  24.926  26.082  1.00  0.00    -0.744 OA
ENDBRANCH  76  80
ENDBRANCH  49  73
BRANCH  61  84
ATOM     84  C   UNL A   1      45.259  32.833  29.498  1.00  0.00     0.023 A 
ATOM     85  C   UNL A   1      45.272  33.924  28.613  1.00  0.00     0.031 A 
ATOM     86  C   UNL A   1      46.007  32.928  30.685  1.00  0.00     0.131 A 
ATOM     87  C   UNL A   1      46.054  35.051  28.910  1.00  0.00     0.055 A 
ATOM     88  C   UNL A   1      46.744  34.069  30.997  1.00  0.00     0.041 A 
ATOM     89  F   UNL A   1      46.026  31.911  31.562  1.00  0.00    -0.206 F 
ATOM     90  C   UNL A   1      46.778  35.135  30.102  1.00  0.00     0.022 A 
BRANCH  87  91
ATOM     91  S   UNL A   1      46.161  36.387  27.688  1.00  0.00     0.124 S 
ATOM     92  O   UNL A   1      46.779  35.712  26.552  1.00  0.00    -0.237 OA
ATOM     93  O   UNL A   1      44.763  36.770  27.519  1.00  0.00    -0.237 OA
ATOM     94  O   UNL A   1      46.999  37.387  28.347  1.00  0.00    -0.744 OA
ENDBRANCH  87  91
ENDBRANCH  61  84
ENDBRANCH  35  36
ENDBRANCH  28  30
ENDBRANCH  27  28
ENDBRANCH   1  27
TORSDOF 18
ENDMDL
