MODEL 1
REMARK VINA RESULT:     -11.2      0.000      0.000
REMARK SMILES C[NH2+][C@]1(C(=O)OCCOC(=O)c2ccc(-c3c4nc(c(-c5cc(S(=O)(=O)[O-])ccc5F)c5ccc([nH]5)c(-c5cc(S(=O)(=O)[O-])ccc5F)c5nc(c(-c6cc(S(=O)(=O)[O-])ccc6F)c6ccc3[nH]6)C=C5)C=C4)cc2)CC[C@@H]([N@@H+](C)C[C@@H]2CCCCO2)C1
REMARK SMILES IDX 7 1 6 2 4 3 5 4 3 5 75 6 87 7 76 8 77 9 2 10 1 11 78 14
REMARK SMILES IDX 79 15 80 17 81 18 82 19 86 20 83 21 85 22 84 23 8 24 9 25
REMARK SMILES IDX 10 26 11 27 12 28 13 29 74 30 14 31 73 32 15 33 16 34 17 35
REMARK SMILES IDX 67 36 18 37 72 38 66 39 68 40 19 41 71 42 65 43 64 44 20 46
REMARK SMILES IDX 52 47 32 48 51 49 33 50 36 51 50 52 69 53 34 54 35 55 49 57
REMARK SMILES IDX 70 58 37 59 21 60 22 61 30 62 23 63 29 64 31 65 28 66 24 67
REMARK SMILES IDX 25 68 26 69 27 70 53 71 54 72 62 73 55 74 61 75 63 76 60 77
REMARK SMILES IDX 56 78 57 79 58 80 59 81 38 82 39 83 47 84 40 85 46 86 48 87
REMARK SMILES IDX 45 88 41 89 42 90 43 91 44 92
REMARK H PARENT 2 12 2 13 78 16 68 45 36 56
REMARK Flexibility Score: inf
ROOT
ATOM      1  C   UNL A   1      32.360  28.606  25.170  1.00  0.00     0.274 C 
ENDROOT
BRANCH   1   2
ATOM      2  O   UNL A   1      31.207  27.743  25.127  1.00  0.00    -0.457 OA
BRANCH   2   3
ATOM      3  C   UNL A   1      31.105  26.807  26.114  1.00  0.00     0.368 C 
ATOM      4  O   UNL A   1      31.193  27.061  27.311  1.00  0.00    -0.245 OA
BRANCH   3   5
ATOM      5  C   UNL A   1      30.908  25.375  25.555  1.00  0.00     0.200 C 
ATOM      6  C   UNL A   1      30.786  25.300  24.021  1.00  0.00     0.087 C 
ATOM      7  C   UNL A   1      32.230  24.614  25.785  1.00  0.00     0.146 C 
ATOM      8  C   UNL A   1      31.155  23.851  23.722  1.00  0.00     0.072 C 
ATOM      9  C   UNL A   1      32.308  23.532  24.688  1.00  0.00     0.191 C 
BRANCH   5  10
ATOM     10  N   UNL A   1      29.673  24.783  26.127  1.00  0.00    -0.334 N 
ATOM     11  C   UNL A   1      29.817  23.659  27.033  1.00  0.00     0.331 C 
ATOM     12  H   UNL A   1      29.189  25.522  26.636  1.00  0.00     0.347 HD
ATOM     13  H   UNL A   1      29.175  24.401  25.323  1.00  0.00     0.347 HD
ENDBRANCH   5  10
BRANCH   9  14
ATOM     14  N   UNL A   1      33.677  23.448  24.152  1.00  0.00    -0.333 N 
ATOM     15  C   UNL A   1      33.691  23.355  22.699  1.00  0.00     0.333 C 
ATOM     16  H   UNL A   1      34.026  22.559  24.510  1.00  0.00     0.348 HD
BRANCH  14  17
ATOM     17  C   UNL A   1      34.669  24.387  24.712  1.00  0.00     0.294 C 
BRANCH  17  18
ATOM     18  C   UNL A   1      35.819  23.823  25.594  1.00  0.00     0.173 C 
ATOM     19  C   UNL A   1      37.093  23.472  24.814  1.00  0.00     0.038 C 
ATOM     20  O   UNL A   1      35.377  22.716  26.398  1.00  0.00    -0.372 OA
ATOM     21  C   UNL A   1      36.988  22.137  24.086  1.00  0.00     0.005 C 
ATOM     22  C   UNL A   1      35.183  21.501  25.681  1.00  0.00     0.161 C 
ATOM     23  C   UNL A   1      36.483  21.057  25.033  1.00  0.00     0.029 C 
ENDBRANCH  17  18
ENDBRANCH  14  17
ENDBRANCH   9  14
ENDBRANCH   3   5
ENDBRANCH   2   3
ENDBRANCH   1   2
BRANCH   1  24
ATOM     24  C   UNL A   1      31.939  30.016  25.574  1.00  0.00     0.275 C 
BRANCH  24  25
ATOM     25  O   UNL A   1      32.349  30.244  26.931  1.00  0.00    -0.458 OA
BRANCH  25  26
ATOM     26  C   UNL A   1      32.967  31.425  27.171  1.00  0.00     0.338 C 
ATOM     27  O   UNL A   1      32.503  32.542  27.031  1.00  0.00    -0.246 OA
BRANCH  26  28
ATOM     28  C   UNL A   1      34.333  31.163  27.661  1.00  0.00     0.060 A 
ATOM     29  C   UNL A   1      34.715  29.860  27.961  1.00  0.00     0.016 A 
ATOM     30  C   UNL A   1      35.196  32.221  27.937  1.00  0.00     0.016 A 
ATOM     31  C   UNL A   1      35.907  29.616  28.639  1.00  0.00     0.010 A 
ATOM     32  C   UNL A   1      36.447  31.958  28.511  1.00  0.00     0.010 A 
ATOM     33  C   UNL A   1      36.803  30.656  28.910  1.00  0.00    -0.014 A 
BRANCH  33  34
ATOM     34  C   UNL A   1      38.065  30.395  29.665  1.00  0.00     0.031 A 
ATOM     35  C   UNL A   1      39.143  29.541  29.044  1.00  0.00     0.074 A 
ATOM     36  C   UNL A   1      38.278  30.933  30.885  1.00  0.00     0.049 A 
ATOM     37  N   UNL A   1      40.190  28.986  29.599  1.00  0.00    -0.248 NA
ATOM     38  C   UNL A   1      39.008  29.258  27.606  1.00  0.00     0.031 C 
ATOM     39  C   UNL A   1      37.368  31.843  31.583  1.00  0.00     0.029 A 
ATOM     40  N   UNL A   1      39.335  30.800  31.752  1.00  0.00    -0.354 N 
ATOM     41  C   UNL A   1      40.794  28.227  28.600  1.00  0.00     0.074 A 
ATOM     42  C   UNL A   1      39.993  28.396  27.406  1.00  0.00     0.031 C 
ATOM     43  C   UNL A   1      37.925  32.223  32.743  1.00  0.00     0.029 A 
ATOM     44  C   UNL A   1      39.174  31.495  32.930  1.00  0.00     0.049 A 
ATOM     45  H   UNL A   1      40.133  30.259  31.551  1.00  0.00     0.167 HD
ATOM     46  C   UNL A   1      41.907  27.455  28.680  1.00  0.00     0.034 A 
ATOM     47  C   UNL A   1      39.911  31.504  34.060  1.00  0.00     0.034 A 
ATOM     48  C   UNL A   1      42.727  27.348  29.864  1.00  0.00     0.049 A 
ATOM     49  C   UNL A   1      41.120  30.611  34.143  1.00  0.00     0.074 A 
ATOM     50  C   UNL A   1      43.870  26.593  30.060  1.00  0.00     0.029 A 
ATOM     51  N   UNL A   1      42.500  28.037  31.050  1.00  0.00    -0.354 N 
ATOM     52  N   UNL A   1      41.613  29.803  33.233  1.00  0.00    -0.248 NA
ATOM     53  C   UNL A   1      41.857  30.612  35.413  1.00  0.00     0.031 C 
ATOM     54  C   UNL A   1      44.307  26.787  31.377  1.00  0.00     0.029 A 
ATOM     55  C   UNL A   1      43.473  27.713  31.983  1.00  0.00     0.049 A 
ATOM     56  H   UNL A   1      41.758  28.664  31.204  1.00  0.00     0.167 HD
ATOM     57  C   UNL A   1      42.721  29.202  33.823  1.00  0.00     0.074 A 
ATOM     58  C   UNL A   1      42.839  29.761  35.154  1.00  0.00     0.031 C 
ATOM     59  C   UNL A   1      43.562  28.267  33.313  1.00  0.00     0.034 A 
BRANCH  46  60
ATOM     60  C   UNL A   1      42.252  26.609  27.476  1.00  0.00     0.023 A 
ATOM     61  C   UNL A   1      41.858  25.264  27.364  1.00  0.00     0.031 A 
ATOM     62  C   UNL A   1      43.032  27.155  26.440  1.00  0.00     0.131 A 
ATOM     63  C   UNL A   1      42.306  24.494  26.278  1.00  0.00     0.055 A 
ATOM     64  C   UNL A   1      43.408  26.404  25.325  1.00  0.00     0.041 A 
ATOM     65  F   UNL A   1      43.456  28.427  26.501  1.00  0.00    -0.206 F 
ATOM     66  C   UNL A   1      43.059  25.060  25.247  1.00  0.00     0.022 A 
BRANCH  63  67
ATOM     67  S   UNL A   1      42.011  22.704  26.304  1.00  0.00     0.124 S 
ATOM     68  O   UNL A   1      42.729  22.303  27.511  1.00  0.00    -0.237 OA
ATOM     69  O   UNL A   1      40.557  22.624  26.369  1.00  0.00    -0.237 OA
ATOM     70  O   UNL A   1      42.606  22.239  25.052  1.00  0.00    -0.744 OA
ENDBRANCH  63  67
ENDBRANCH  46  60
BRANCH  47  71
ATOM     71  C   UNL A   1      39.475  32.309  35.238  1.00  0.00     0.023 A 
ATOM     72  C   UNL A   1      38.749  31.727  36.290  1.00  0.00     0.031 A 
ATOM     73  C   UNL A   1      39.751  33.688  35.313  1.00  0.00     0.131 A 
ATOM     74  C   UNL A   1      38.301  32.525  37.355  1.00  0.00     0.055 A 
ATOM     75  C   UNL A   1      39.353  34.464  36.401  1.00  0.00     0.041 A 
ATOM     76  F   UNL A   1      40.436  34.296  34.330  1.00  0.00    -0.206 F 
ATOM     77  C   UNL A   1      38.614  33.885  37.426  1.00  0.00     0.022 A 
BRANCH  74  78
ATOM     78  S   UNL A   1      37.236  31.775  38.618  1.00  0.00     0.124 S 
ATOM     79  O   UNL A   1      38.065  31.890  39.813  1.00  0.00    -0.237 OA
ATOM     80  O   UNL A   1      36.056  32.632  38.570  1.00  0.00    -0.237 OA
ATOM     81  O   UNL A   1      37.034  30.413  38.128  1.00  0.00    -0.744 OA
ENDBRANCH  74  78
ENDBRANCH  47  71
BRANCH  59  82
ATOM     82  C   UNL A   1      44.699  27.827  34.199  1.00  0.00     0.023 A 
ATOM     83  C   UNL A   1      44.573  26.728  35.066  1.00  0.00     0.031 A 
ATOM     84  C   UNL A   1      45.914  28.535  34.194  1.00  0.00     0.131 A 
ATOM     85  C   UNL A   1      45.626  26.401  35.933  1.00  0.00     0.055 A 
ATOM     86  C   UNL A   1      46.976  28.173  35.022  1.00  0.00     0.041 A 
ATOM     87  F   UNL A   1      46.083  29.594  33.385  1.00  0.00    -0.206 F 
ATOM     88  C   UNL A   1      46.831  27.108  35.907  1.00  0.00     0.022 A 
BRANCH  85  89
ATOM     89  S   UNL A   1      45.372  25.086  37.157  1.00  0.00     0.124 S 
ATOM     90  O   UNL A   1      46.228  25.523  38.255  1.00  0.00    -0.237 OA
ATOM     91  O   UNL A   1      43.935  25.159  37.401  1.00  0.00    -0.237 OA
ATOM     92  O   UNL A   1      45.821  23.880  36.464  1.00  0.00    -0.744 OA
ENDBRANCH  85  89
ENDBRANCH  59  82
ENDBRANCH  33  34
ENDBRANCH  26  28
ENDBRANCH  25  26
ENDBRANCH  24  25
ENDBRANCH   1  24
TORSDOF 18
ENDMDL
MODEL 2
REMARK VINA RESULT:     -11.0      1.696      3.724
REMARK SMILES C[NH2+][C@]1(C(=O)OCCOC(=O)c2ccc(-c3c4nc(c(-c5cc(S(=O)(=O)[O-])ccc5F)c5ccc([nH]5)c(-c5cc(S(=O)(=O)[O-])ccc5F)c5nc(c(-c6cc(S(=O)(=O)[O-])ccc6F)c6ccc3[nH]6)C=C5)C=C4)cc2)CC[C@@H]([N@@H+](C)C[C@@H]2CCCCO2)C1
REMARK SMILES IDX 7 1 6 2 4 3 5 4 3 5 75 6 87 7 76 8 77 9 2 10 1 11 78 14
REMARK SMILES IDX 79 15 80 17 81 18 82 19 86 20 83 21 85 22 84 23 8 24 9 25
REMARK SMILES IDX 10 26 11 27 12 28 13 29 74 30 14 31 73 32 15 33 16 34 17 35
REMARK SMILES IDX 67 36 18 37 72 38 66 39 68 40 19 41 71 42 65 43 64 44 20 46
REMARK SMILES IDX 52 47 32 48 51 49 33 50 36 51 50 52 69 53 34 54 35 55 49 57
REMARK SMILES IDX 70 58 37 59 21 60 22 61 30 62 23 63 29 64 31 65 28 66 24 67
REMARK SMILES IDX 25 68 26 69 27 70 53 71 54 72 62 73 55 74 61 75 63 76 60 77
REMARK SMILES IDX 56 78 57 79 58 80 59 81 38 82 39 83 47 84 40 85 46 86 48 87
REMARK SMILES IDX 45 88 41 89 42 90 43 91 44 92
REMARK H PARENT 2 12 2 13 78 16 68 45 36 56
REMARK Flexibility Score: inf
ROOT
ATOM      1  C   UNL A   1      32.609  29.694  24.755  1.00  0.00     0.274 C 
ENDROOT
BRANCH   1   2
ATOM      2  O   UNL A   1      33.035  28.342  25.015  1.00  0.00    -0.457 OA
BRANCH   2   3
ATOM      3  C   UNL A   1      32.911  27.452  23.988  1.00  0.00     0.368 C 
ATOM      4  O   UNL A   1      33.578  27.495  22.959  1.00  0.00    -0.245 OA
BRANCH   3   5
ATOM      5  C   UNL A   1      31.800  26.403  24.244  1.00  0.00     0.200 C 
ATOM      6  C   UNL A   1      30.971  26.649  25.520  1.00  0.00     0.087 C 
ATOM      7  C   UNL A   1      30.729  26.602  23.152  1.00  0.00     0.146 C 
ATOM      8  C   UNL A   1      29.687  25.875  25.245  1.00  0.00     0.072 C 
ATOM      9  C   UNL A   1      29.395  26.116  23.754  1.00  0.00     0.191 C 
BRANCH   5  10
ATOM     10  N   UNL A   1      32.407  25.054  24.364  1.00  0.00    -0.334 N 
ATOM     11  C   UNL A   1      32.726  24.343  23.141  1.00  0.00     0.331 C 
ATOM     12  H   UNL A   1      33.275  25.157  24.890  1.00  0.00     0.347 HD
ATOM     13  H   UNL A   1      31.686  24.487  24.810  1.00  0.00     0.347 HD
ENDBRANCH   5  10
BRANCH   9  14
ATOM     14  N   UNL A   1      28.305  27.036  23.387  1.00  0.00    -0.333 N 
ATOM     15  C   UNL A   1      27.122  26.842  24.214  1.00  0.00     0.333 C 
ATOM     16  H   UNL A   1      28.054  26.754  22.439  1.00  0.00     0.348 HD
BRANCH  14  17
ATOM     17  C   UNL A   1      28.673  28.449  23.173  1.00  0.00     0.294 C 
BRANCH  17  18
ATOM     18  C   UNL A   1      27.638  29.400  22.506  1.00  0.00     0.173 C 
ATOM     19  C   UNL A   1      28.177  30.157  21.284  1.00  0.00     0.038 C 
ATOM     20  O   UNL A   1      27.052  30.300  23.461  1.00  0.00    -0.372 OA
ATOM     21  C   UNL A   1      29.039  31.354  21.669  1.00  0.00     0.005 C 
ATOM     22  C   UNL A   1      27.910  31.354  23.888  1.00  0.00     0.161 C 
ATOM     23  C   UNL A   1      28.324  32.210  22.704  1.00  0.00     0.029 C 
ENDBRANCH  17  18
ENDBRANCH  14  17
ENDBRANCH   9  14
ENDBRANCH   3   5
ENDBRANCH   2   3
ENDBRANCH   1   2
BRANCH   1  24
ATOM     24  C   UNL A   1      31.755  30.202  25.913  1.00  0.00     0.275 C 
BRANCH  24  25
ATOM     25  O   UNL A   1      32.570  30.257  27.093  1.00  0.00    -0.458 OA
BRANCH  25  26
ATOM     26  C   UNL A   1      33.212  31.428  27.314  1.00  0.00     0.338 C 
ATOM     27  O   UNL A   1      32.766  32.553  27.169  1.00  0.00    -0.246 OA
BRANCH  26  28
ATOM     28  C   UNL A   1      34.579  31.148  27.791  1.00  0.00     0.060 A 
ATOM     29  C   UNL A   1      34.926  29.850  28.152  1.00  0.00     0.016 A 
ATOM     30  C   UNL A   1      35.481  32.190  27.994  1.00  0.00     0.016 A 
ATOM     31  C   UNL A   1      36.123  29.602  28.818  1.00  0.00     0.010 A 
ATOM     32  C   UNL A   1      36.734  31.915  28.556  1.00  0.00     0.010 A 
ATOM     33  C   UNL A   1      37.057  30.625  29.017  1.00  0.00    -0.014 A 
BRANCH  33  34
ATOM     34  C   UNL A   1      38.326  30.362  29.759  1.00  0.00     0.031 A 
ATOM     35  C   UNL A   1      39.399  29.511  29.125  1.00  0.00     0.074 A 
ATOM     36  C   UNL A   1      38.549  30.895  30.979  1.00  0.00     0.049 A 
ATOM     37  N   UNL A   1      40.451  28.955  29.669  1.00  0.00    -0.248 NA
ATOM     38  C   UNL A   1      39.251  29.234  27.688  1.00  0.00     0.031 C 
ATOM     39  C   UNL A   1      37.644  31.802  31.689  1.00  0.00     0.029 A 
ATOM     40  N   UNL A   1      39.614  30.760  31.837  1.00  0.00    -0.354 N 
ATOM     41  C   UNL A   1      41.047  28.200  28.662  1.00  0.00     0.074 A 
ATOM     42  C   UNL A   1      40.236  28.374  27.475  1.00  0.00     0.031 C 
ATOM     43  C   UNL A   1      38.211  32.178  32.846  1.00  0.00     0.029 A 
ATOM     44  C   UNL A   1      39.463  31.450  33.019  1.00  0.00     0.049 A 
ATOM     45  H   UNL A   1      40.411  30.220  31.627  1.00  0.00     0.167 HD
ATOM     46  C   UNL A   1      42.161  27.429  28.729  1.00  0.00     0.034 A 
ATOM     47  C   UNL A   1      40.209  31.455  34.142  1.00  0.00     0.034 A 
ATOM     48  C   UNL A   1      42.991  27.318  29.905  1.00  0.00     0.049 A 
ATOM     49  C   UNL A   1      41.420  30.562  34.212  1.00  0.00     0.074 A 
ATOM     50  C   UNL A   1      44.137  26.563  30.089  1.00  0.00     0.029 A 
ATOM     51  N   UNL A   1      42.775  28.002  31.096  1.00  0.00    -0.354 N 
ATOM     52  N   UNL A   1      41.905  29.759  33.294  1.00  0.00    -0.248 NA
ATOM     53  C   UNL A   1      42.168  30.559  35.475  1.00  0.00     0.031 C 
ATOM     54  C   UNL A   1      44.585  26.752  31.403  1.00  0.00     0.029 A 
ATOM     55  C   UNL A   1      43.756  27.675  32.020  1.00  0.00     0.049 A 
ATOM     56  H   UNL A   1      42.033  28.627  31.259  1.00  0.00     0.167 HD
ATOM     57  C   UNL A   1      43.019  29.156  33.872  1.00  0.00     0.074 A 
ATOM     58  C   UNL A   1      43.148  29.710  35.204  1.00  0.00     0.031 C 
ATOM     59  C   UNL A   1      43.856  28.224  33.350  1.00  0.00     0.034 A 
BRANCH  46  60
ATOM     60  C   UNL A   1      42.497  26.588  27.519  1.00  0.00     0.023 A 
ATOM     61  C   UNL A   1      42.113  25.240  27.410  1.00  0.00     0.031 A 
ATOM     62  C   UNL A   1      43.257  27.143  26.473  1.00  0.00     0.131 A 
ATOM     63  C   UNL A   1      42.552  24.475  26.317  1.00  0.00     0.055 A 
ATOM     64  C   UNL A   1      43.623  26.397  25.351  1.00  0.00     0.041 A 
ATOM     65  F   UNL A   1      43.670  28.419  26.530  1.00  0.00    -0.206 F 
ATOM     66  C   UNL A   1      43.285  25.050  25.276  1.00  0.00     0.022 A 
BRANCH  63  67
ATOM     67  S   UNL A   1      42.274  22.682  26.343  1.00  0.00     0.124 S 
ATOM     68  O   UNL A   1      42.619  22.310  24.974  1.00  0.00    -0.237 OA
ATOM     69  O   UNL A   1      43.199  22.235  27.379  1.00  0.00    -0.237 OA
ATOM     70  O   UNL A   1      40.857  22.559  26.677  1.00  0.00    -0.744 OA
ENDBRANCH  63  67
ENDBRANCH  46  60
BRANCH  47  71
ATOM     71  C   UNL A   1      39.783  32.255  35.328  1.00  0.00     0.023 A 
ATOM     72  C   UNL A   1      38.974  31.697  36.331  1.00  0.00     0.031 A 
ATOM     73  C   UNL A   1      40.153  33.607  35.457  1.00  0.00     0.131 A 
ATOM     74  C   UNL A   1      38.540  32.494  37.402  1.00  0.00     0.055 A 
ATOM     75  C   UNL A   1      39.767  34.378  36.553  1.00  0.00     0.041 A 
ATOM     76  F   UNL A   1      40.920  34.192  34.523  1.00  0.00    -0.206 F 
ATOM     77  C   UNL A   1      38.946  33.825  37.529  1.00  0.00     0.022 A 
BRANCH  74  78
ATOM     78  S   UNL A   1      37.373  31.787  38.597  1.00  0.00     0.124 S 
ATOM     79  O   UNL A   1      38.125  31.886  39.843  1.00  0.00    -0.237 OA
ATOM     80  O   UNL A   1      36.226  32.679  38.468  1.00  0.00    -0.237 OA
ATOM     81  O   UNL A   1      37.161  30.428  38.103  1.00  0.00    -0.744 OA
ENDBRANCH  74  78
ENDBRANCH  47  71
BRANCH  59  82
ATOM     82  C   UNL A   1      45.001  27.781  34.226  1.00  0.00     0.023 A 
ATOM     83  C   UNL A   1      44.853  26.744  35.162  1.00  0.00     0.031 A 
ATOM     84  C   UNL A   1      46.247  28.426  34.138  1.00  0.00     0.131 A 
ATOM     85  C   UNL A   1      45.919  26.416  36.012  1.00  0.00     0.055 A 
ATOM     86  C   UNL A   1      47.319  28.061  34.952  1.00  0.00     0.041 A 
ATOM     87  F   UNL A   1      46.438  29.425  33.261  1.00  0.00    -0.206 F 
ATOM     88  C   UNL A   1      47.155  27.059  35.905  1.00  0.00     0.022 A 
BRANCH  85  89
ATOM     89  S   UNL A   1      45.645  25.191  37.322  1.00  0.00     0.124 S 
ATOM     90  O   UNL A   1      44.710  24.270  36.686  1.00  0.00    -0.237 OA
ATOM     91  O   UNL A   1      46.991  24.675  37.554  1.00  0.00    -0.237 OA
ATOM     92  O   UNL A   1      45.089  25.980  38.419  1.00  0.00    -0.744 OA
ENDBRANCH  85  89
ENDBRANCH  59  82
ENDBRANCH  33  34
ENDBRANCH  26  28
ENDBRANCH  25  26
ENDBRANCH  24  25
ENDBRANCH   1  24
TORSDOF 18
ENDMDL
MODEL 3
REMARK VINA RESULT:     -11.0      4.982     10.063
REMARK SMILES C[NH2+][C@]1(C(=O)OCCOC(=O)c2ccc(-c3c4nc(c(-c5cc(S(=O)(=O)[O-])ccc5F)c5ccc([nH]5)c(-c5cc(S(=O)(=O)[O-])ccc5F)c5nc(c(-c6cc(S(=O)(=O)[O-])ccc6F)c6ccc3[nH]6)C=C5)C=C4)cc2)CC[C@@H]([N@@H+](C)C[C@@H]2CCCCO2)C1
REMARK SMILES IDX 7 1 6 2 4 3 5 4 3 5 75 6 87 7 76 8 77 9 2 10 1 11 78 14
REMARK SMILES IDX 79 15 80 17 81 18 82 19 86 20 83 21 85 22 84 23 8 24 9 25
REMARK SMILES IDX 10 26 11 27 12 28 13 29 74 30 14 31 73 32 15 33 16 34 17 35
REMARK SMILES IDX 67 36 18 37 72 38 66 39 68 40 19 41 71 42 65 43 64 44 20 46
REMARK SMILES IDX 52 47 32 48 51 49 33 50 36 51 50 52 69 53 34 54 35 55 49 57
REMARK SMILES IDX 70 58 37 59 21 60 22 61 30 62 23 63 29 64 31 65 28 66 24 67
REMARK SMILES IDX 25 68 26 69 27 70 53 71 54 72 62 73 55 74 61 75 63 76 60 77
REMARK SMILES IDX 56 78 57 79 58 80 59 81 38 82 39 83 47 84 40 85 46 86 48 87
REMARK SMILES IDX 45 88 41 89 42 90 43 91 44 92
REMARK H PARENT 2 12 2 13 78 16 68 45 36 56
REMARK Flexibility Score: inf
ROOT
ATOM      1  C   UNL A   1      34.946  21.497  26.019  1.00  0.00     0.274 C 
ENDROOT
BRANCH   1   2
ATOM      2  O   UNL A   1      33.806  21.959  25.269  1.00  0.00    -0.457 OA
BRANCH   2   3
ATOM      3  C   UNL A   1      33.407  23.245  25.489  1.00  0.00     0.368 C 
ATOM      4  O   UNL A   1      33.722  23.901  26.478  1.00  0.00    -0.245 OA
BRANCH   3   5
ATOM      5  C   UNL A   1      32.475  23.777  24.371  1.00  0.00     0.200 C 
ATOM      6  C   UNL A   1      31.029  24.056  24.826  1.00  0.00     0.087 C 
ATOM      7  C   UNL A   1      32.955  25.201  24.021  1.00  0.00     0.146 C 
ATOM      8  C   UNL A   1      30.525  25.035  23.772  1.00  0.00     0.072 C 
ATOM      9  C   UNL A   1      31.722  25.960  23.491  1.00  0.00     0.191 C 
BRANCH   5  10
ATOM     10  N   UNL A   1      32.409  22.790  23.266  1.00  0.00    -0.334 N 
ATOM     11  C   UNL A   1      33.247  23.017  22.103  1.00  0.00     0.331 C 
ATOM     12  H   UNL A   1      32.667  21.882  23.653  1.00  0.00     0.347 HD
ATOM     13  H   UNL A   1      31.455  22.863  22.913  1.00  0.00     0.347 HD
ENDBRANCH   5  10
BRANCH   9  14
ATOM     14  N   UNL A   1      31.697  27.331  24.029  1.00  0.00    -0.333 N 
ATOM     15  C   UNL A   1      32.809  28.133  23.538  1.00  0.00     0.333 C 
ATOM     16  H   UNL A   1      31.842  27.203  25.031  1.00  0.00     0.348 HD
BRANCH  14  17
ATOM     17  C   UNL A   1      30.394  28.024  24.019  1.00  0.00     0.294 C 
BRANCH  17  18
ATOM     18  C   UNL A   1      29.945  28.757  22.722  1.00  0.00     0.173 C 
ATOM     19  C   UNL A   1      29.989  30.288  22.820  1.00  0.00     0.038 C 
ATOM     20  O   UNL A   1      28.659  28.299  22.274  1.00  0.00    -0.372 OA
ATOM     21  C   UNL A   1      28.793  30.864  23.568  1.00  0.00     0.005 C 
ATOM     22  C   UNL A   1      27.558  28.764  23.049  1.00  0.00     0.161 C 
ATOM     23  C   UNL A   1      27.497  30.282  23.022  1.00  0.00     0.029 C 
ENDBRANCH  17  18
ENDBRANCH  14  17
ENDBRANCH   9  14
ENDBRANCH   3   5
ENDBRANCH   2   3
ENDBRANCH   1   2
BRANCH   1  24
ATOM     24  C   UNL A   1      35.938  20.810  25.086  1.00  0.00     0.275 C 
BRANCH  24  25
ATOM     25  O   UNL A   1      37.094  21.650  24.947  1.00  0.00    -0.458 OA
BRANCH  25  26
ATOM     26  C   UNL A   1      38.228  21.198  25.534  1.00  0.00     0.338 C 
ATOM     27  O   UNL A   1      38.666  20.061  25.512  1.00  0.00    -0.246 OA
BRANCH  26  28
ATOM     28  C   UNL A   1      38.897  22.318  26.220  1.00  0.00     0.060 A 
ATOM     29  C   UNL A   1      38.417  23.612  26.048  1.00  0.00     0.016 A 
ATOM     30  C   UNL A   1      40.071  22.103  26.937  1.00  0.00     0.016 A 
ATOM     31  C   UNL A   1      39.161  24.702  26.491  1.00  0.00     0.010 A 
ATOM     32  C   UNL A   1      40.754  23.197  27.485  1.00  0.00     0.010 A 
ATOM     33  C   UNL A   1      40.333  24.516  27.232  1.00  0.00    -0.014 A 
BRANCH  33  34
ATOM     34  C   UNL A   1      41.145  25.688  27.679  1.00  0.00     0.031 A 
ATOM     35  C   UNL A   1      40.515  26.741  28.557  1.00  0.00     0.074 A 
ATOM     36  C   UNL A   1      42.445  25.812  27.336  1.00  0.00     0.049 A 
ATOM     37  N   UNL A   1      40.941  27.942  28.853  1.00  0.00    -0.248 NA
ATOM     38  C   UNL A   1      39.220  26.398  29.165  1.00  0.00     0.031 C 
ATOM     39  C   UNL A   1      43.217  24.839  26.560  1.00  0.00     0.029 A 
ATOM     40  N   UNL A   1      43.353  26.807  27.607  1.00  0.00    -0.354 N 
ATOM     41  C   UNL A   1      39.933  28.526  29.616  1.00  0.00     0.074 A 
ATOM     42  C   UNL A   1      38.877  27.543  29.736  1.00  0.00     0.031 C 
ATOM     43  C   UNL A   1      44.487  25.259  26.459  1.00  0.00     0.029 A 
ATOM     44  C   UNL A   1      44.596  26.585  27.058  1.00  0.00     0.049 A 
ATOM     45  H   UNL A   1      43.136  27.604  28.143  1.00  0.00     0.167 HD
ATOM     46  C   UNL A   1      39.894  29.770  30.156  1.00  0.00     0.034 A 
ATOM     47  C   UNL A   1      45.685  27.376  26.985  1.00  0.00     0.034 A 
ATOM     48  C   UNL A   1      40.985  30.714  30.078  1.00  0.00     0.049 A 
ATOM     49  C   UNL A   1      45.609  28.768  27.556  1.00  0.00     0.074 A 
ATOM     50  C   UNL A   1      41.053  32.002  30.582  1.00  0.00     0.029 A 
ATOM     51  N   UNL A   1      42.210  30.462  29.473  1.00  0.00    -0.354 N 
ATOM     52  N   UNL A   1      44.607  29.353  28.169  1.00  0.00    -0.248 NA
ATOM     53  C   UNL A   1      46.801  29.611  27.403  1.00  0.00     0.031 C 
ATOM     54  C   UNL A   1      42.298  32.544  30.239  1.00  0.00     0.029 A 
ATOM     55  C   UNL A   1      43.033  31.573  29.578  1.00  0.00     0.049 A 
ATOM     56  H   UNL A   1      42.458  29.617  29.033  1.00  0.00     0.167 HD
ATOM     57  C   UNL A   1      45.051  30.636  28.476  1.00  0.00     0.074 A 
ATOM     58  C   UNL A   1      46.419  30.727  28.007  1.00  0.00     0.031 C 
ATOM     59  C   UNL A   1      44.387  31.651  29.086  1.00  0.00     0.034 A 
BRANCH  46  60
ATOM     60  C   UNL A   1      38.602  30.203  30.809  1.00  0.00     0.023 A 
ATOM     61  C   UNL A   1      37.593  30.882  30.103  1.00  0.00     0.031 A 
ATOM     62  C   UNL A   1      38.399  29.965  32.181  1.00  0.00     0.131 A 
ATOM     63  C   UNL A   1      36.465  31.363  30.788  1.00  0.00     0.055 A 
ATOM     64  C   UNL A   1      37.239  30.378  32.838  1.00  0.00     0.041 A 
ATOM     65  F   UNL A   1      39.336  29.340  32.912  1.00  0.00    -0.206 F 
ATOM     66  C   UNL A   1      36.270  31.095  32.145  1.00  0.00     0.022 A 
BRANCH  63  67
ATOM     67  S   UNL A   1      35.322  32.466  29.911  1.00  0.00     0.124 S 
ATOM     68  O   UNL A   1      34.845  31.603  28.834  1.00  0.00    -0.237 OA
ATOM     69  O   UNL A   1      34.348  32.797  30.945  1.00  0.00    -0.237 OA
ATOM     70  O   UNL A   1      36.175  33.573  29.481  1.00  0.00    -0.744 OA
ENDBRANCH  63  67
ENDBRANCH  46  60
BRANCH  47  71
ATOM     71  C   UNL A   1      46.908  26.914  26.264  1.00  0.00     0.023 A 
ATOM     72  C   UNL A   1      47.978  26.319  26.952  1.00  0.00     0.031 A 
ATOM     73  C   UNL A   1      47.036  27.093  24.874  1.00  0.00     0.131 A 
ATOM     74  C   UNL A   1      49.139  25.951  26.253  1.00  0.00     0.055 A 
ATOM     75  C   UNL A   1      48.169  26.673  24.175  1.00  0.00     0.041 A 
ATOM     76  F   UNL A   1      46.046  27.663  24.168  1.00  0.00    -0.206 F 
ATOM     77  C   UNL A   1      49.233  26.107  24.868  1.00  0.00     0.022 A 
BRANCH  74  78
ATOM     78  S   UNL A   1      50.560  25.328  27.192  1.00  0.00     0.124 S 
ATOM     79  O   UNL A   1      50.941  26.502  27.969  1.00  0.00    -0.237 OA
ATOM     80  O   UNL A   1      49.970  24.225  27.942  1.00  0.00    -0.237 OA
ATOM     81  O   UNL A   1      51.510  24.934  26.152  1.00  0.00    -0.744 OA
ENDBRANCH  74  78
ENDBRANCH  47  71
BRANCH  59  82
ATOM     82  C   UNL A   1      45.158  32.927  29.303  1.00  0.00     0.023 A 
ATOM     83  C   UNL A   1      45.115  33.980  28.373  1.00  0.00     0.031 A 
ATOM     84  C   UNL A   1      45.967  33.079  30.444  1.00  0.00     0.131 A 
ATOM     85  C   UNL A   1      45.910  35.118  28.573  1.00  0.00     0.055 A 
ATOM     86  C   UNL A   1      46.715  34.235  30.661  1.00  0.00     0.041 A 
ATOM     87  F   UNL A   1      46.043  32.101  31.361  1.00  0.00    -0.206 F 
ATOM     88  C   UNL A   1      46.699  35.258  29.717  1.00  0.00     0.022 A 
BRANCH  85  89
ATOM     89  S   UNL A   1      45.963  36.384  27.274  1.00  0.00     0.124 S 
ATOM     90  O   UNL A   1      47.227  36.084  26.609  1.00  0.00    -0.237 OA
ATOM     91  O   UNL A   1      44.755  36.096  26.507  1.00  0.00    -0.237 OA
ATOM     92  O   UNL A   1      45.937  37.641  28.018  1.00  0.00    -0.744 OA
ENDBRANCH  85  89
ENDBRANCH  59  82
ENDBRANCH  33  34
ENDBRANCH  26  28
ENDBRANCH  25  26
ENDBRANCH  24  25
ENDBRANCH   1  24
TORSDOF 18
ENDMDL
