MODEL 1
REMARK VINA RESULT:     -12.5      0.000      0.000
REMARK SMILES O=C(OCCOC(=O)c1ccc(-c2c3nc(c(-c4cc(S(=O)(=O)[O-])ccc4F)c4ccc([nH]4)c(-c4cc(S(=O)(=O)[O-])ccc4F)c4nc(c(-c5cc(S(=O)(=O)[O-])ccc5F)c5ccc2[nH]5)C=C4)C=C3)cc1)C1=Cc2cc(S(F)(F)(F)(F)F)ccc2O[C@@H]1C(F)(F)F
REMARK SMILES IDX 5 1 4 2 3 3 2 4 1 5 72 6 73 7 87 8 74 9 86 10 75 11 85 12
REMARK SMILES IDX 76 13 84 14 83 15 88 16 89 17 90 18 91 19 77 20 78 21 79 22
REMARK SMILES IDX 80 23 81 24 82 25 6 26 7 27 8 28 9 29 10 30 71 31 11 32
REMARK SMILES IDX 70 33 12 34 13 35 14 36 64 37 15 38 69 39 63 40 65 41 16 42
REMARK SMILES IDX 68 43 62 44 61 45 17 47 49 48 29 49 48 50 30 51 33 52 47 53
REMARK SMILES IDX 66 54 31 55 32 56 46 58 67 59 34 60 18 61 19 62 27 63 20 64
REMARK SMILES IDX 26 65 28 66 25 67 21 68 22 69 23 70 24 71 50 72 51 73 59 74
REMARK SMILES IDX 52 75 58 76 60 77 57 78 53 79 54 80 55 81 56 82 35 83 36 84
REMARK SMILES IDX 44 85 37 86 43 87 45 88 42 89 38 90 39 91 40 92 41 93
REMARK H PARENT 65 46 33 57
REMARK Flexibility Score: inf
ROOT
ATOM      1  C   UNL A   1      37.444  22.283  24.920  1.00  0.00     0.275 C 
ENDROOT
BRANCH   1   2
ATOM      2  C   UNL A   1      36.740  23.630  24.895  1.00  0.00     0.275 C 
BRANCH   2   3
ATOM      3  O   UNL A   1      36.136  23.825  23.624  1.00  0.00    -0.459 OA
BRANCH   3   4
ATOM      4  C   UNL A   1      34.790  23.426  23.410  1.00  0.00     0.338 C 
ATOM      5  O   UNL A   1      34.362  23.243  22.228  1.00  0.00    -0.246 OA
BRANCH   4   6
ATOM      6  C   UNL A   1      33.861  23.219  24.596  1.00  0.00     0.087 C 
ATOM      7  C   UNL A   1      33.345  24.293  25.252  1.00  0.00     0.027 C 
ATOM      8  C   UNL A   1      33.508  21.810  25.047  1.00  0.00     0.316 C 
ATOM      9  C   UNL A   1      33.698  25.701  24.801  1.00  0.00     0.019 A 
ATOM     10  O   UNL A   1      33.641  25.034  22.520  1.00  0.00    -0.475 OA
ATOM     11  C   UNL A   1      33.897  26.644  25.794  1.00  0.00     0.036 A 
ATOM     12  C   UNL A   1      33.686  26.043  23.517  1.00  0.00     0.128 A 
ATOM     13  C   UNL A   1      33.787  27.981  25.346  1.00  0.00     0.107 A 
ATOM     14  C   UNL A   1      33.719  27.366  23.147  1.00  0.00     0.048 A 
ATOM     15  C   UNL A   1      33.854  28.355  24.081  1.00  0.00     0.028 A 
BRANCH   8  16
ATOM     16  C   UNL A   1      32.005  21.611  24.954  1.00  0.00     0.430 C 
ATOM     17  F   UNL A   1      31.419  22.155  26.018  1.00  0.00    -0.167 F 
ATOM     18  F   UNL A   1      31.548  22.195  23.849  1.00  0.00    -0.167 F 
ATOM     19  F   UNL A   1      31.730  20.311  24.912  1.00  0.00    -0.167 F 
ENDBRANCH   8  16
BRANCH  13  20
ATOM     20  S   UNL A   1      33.537  29.270  26.592  1.00  0.00     0.310 S 
ATOM     21  F   UNL A   1      33.296  28.199  27.737  1.00  0.00    -0.094 F 
ATOM     22  F   UNL A   1      31.991  29.205  26.300  1.00  0.00    -0.094 F 
ATOM     23  F   UNL A   1      33.317  30.375  27.664  1.00  0.00    -0.094 F 
ATOM     24  F   UNL A   1      35.070  29.221  26.969  1.00  0.00    -0.094 F 
ATOM     25  F   UNL A   1      33.760  28.070  25.589  1.00  0.00    -0.094 F 
ENDBRANCH  13  20
ENDBRANCH   4   6
ENDBRANCH   3   4
ENDBRANCH   2   3
ENDBRANCH   1   2
BRANCH   1  26
ATOM     26  O   UNL A   1      37.997  22.060  26.209  1.00  0.00    -0.458 OA
BRANCH  26  27
ATOM     27  C   UNL A   1      39.321  22.483  26.496  1.00  0.00     0.338 C 
ATOM     28  O   UNL A   1      40.284  21.658  26.417  1.00  0.00    -0.246 OA
BRANCH  27  29
ATOM     29  C   UNL A   1      39.587  23.925  26.899  1.00  0.00     0.060 A 
ATOM     30  C   UNL A   1      39.541  24.159  28.263  1.00  0.00     0.016 A 
ATOM     31  C   UNL A   1      39.973  24.871  26.051  1.00  0.00     0.016 A 
ATOM     32  C   UNL A   1      39.648  25.526  28.614  1.00  0.00     0.010 A 
ATOM     33  C   UNL A   1      40.191  26.155  26.487  1.00  0.00     0.010 A 
ATOM     34  C   UNL A   1      40.105  26.471  27.814  1.00  0.00    -0.014 A 
BRANCH  34  35
ATOM     35  C   UNL A   1      40.513  27.837  28.341  1.00  0.00     0.031 A 
ATOM     36  C   UNL A   1      39.555  28.766  28.751  1.00  0.00     0.074 A 
ATOM     37  C   UNL A   1      41.863  28.120  28.221  1.00  0.00     0.049 A 
ATOM     38  N   UNL A   1      39.756  30.032  29.120  1.00  0.00    -0.248 NA
ATOM     39  C   UNL A   1      38.117  28.478  28.847  1.00  0.00     0.031 C 
ATOM     40  C   UNL A   1      42.838  27.186  27.815  1.00  0.00     0.029 A 
ATOM     41  N   UNL A   1      42.501  29.317  28.460  1.00  0.00    -0.354 N 
ATOM     42  C   UNL A   1      38.598  30.601  29.465  1.00  0.00     0.074 A 
ATOM     43  C   UNL A   1      37.527  29.612  29.288  1.00  0.00     0.031 C 
ATOM     44  C   UNL A   1      44.042  27.814  27.800  1.00  0.00     0.029 A 
ATOM     45  C   UNL A   1      43.843  29.150  28.195  1.00  0.00     0.049 A 
ATOM     46  H   UNL A   1      42.073  30.148  28.766  1.00  0.00     0.167 HD
ATOM     47  C   UNL A   1      38.395  31.904  29.921  1.00  0.00     0.034 A 
ATOM     48  C   UNL A   1      44.850  30.097  28.285  1.00  0.00     0.034 A 
ATOM     49  C   UNL A   1      39.409  32.840  30.053  1.00  0.00     0.049 A 
ATOM     50  C   UNL A   1      44.638  31.419  28.686  1.00  0.00     0.074 A 
ATOM     51  C   UNL A   1      39.222  34.155  30.518  1.00  0.00     0.029 A 
ATOM     52  N   UNL A   1      40.747  32.680  29.764  1.00  0.00    -0.354 N 
ATOM     53  N   UNL A   1      43.487  31.975  29.068  1.00  0.00    -0.248 NA
ATOM     54  C   UNL A   1      45.691  32.439  28.754  1.00  0.00     0.031 C 
ATOM     55  C   UNL A   1      40.428  34.783  30.502  1.00  0.00     0.029 A 
ATOM     56  C   UNL A   1      41.388  33.870  30.026  1.00  0.00     0.049 A 
ATOM     57  H   UNL A   1      41.171  31.856  29.429  1.00  0.00     0.167 HD
ATOM     58  C   UNL A   1      43.681  33.253  29.397  1.00  0.00     0.074 A 
ATOM     59  C   UNL A   1      45.102  33.573  29.193  1.00  0.00     0.031 C 
ATOM     60  C   UNL A   1      42.732  34.166  29.863  1.00  0.00     0.034 A 
BRANCH  47  61
ATOM     61  C   UNL A   1      36.981  32.322  30.293  1.00  0.00     0.023 A 
ATOM     62  C   UNL A   1      36.058  32.773  29.364  1.00  0.00     0.031 A 
ATOM     63  C   UNL A   1      36.635  32.091  31.553  1.00  0.00     0.131 A 
ATOM     64  C   UNL A   1      34.848  33.232  29.936  1.00  0.00     0.055 A 
ATOM     65  C   UNL A   1      35.387  32.441  32.010  1.00  0.00     0.041 A 
ATOM     66  F   UNL A   1      37.502  31.517  32.381  1.00  0.00    -0.206 F 
ATOM     67  C   UNL A   1      34.443  32.948  31.161  1.00  0.00     0.022 A 
BRANCH  64  68
ATOM     68  S   UNL A   1      33.779  34.280  28.918  1.00  0.00     0.124 S 
ATOM     69  O   UNL A   1      33.110  33.427  27.837  1.00  0.00    -0.237 OA
ATOM     70  O   UNL A   1      32.705  34.921  29.799  1.00  0.00    -0.237 OA
ATOM     71  O   UNL A   1      34.716  35.504  28.179  1.00  0.00    -0.744 OA
ENDBRANCH  64  68
ENDBRANCH  47  61
BRANCH  48  72
ATOM     72  C   UNL A   1      46.266  29.675  27.928  1.00  0.00     0.023 A 
ATOM     73  C   UNL A   1      46.637  29.448  26.613  1.00  0.00     0.031 A 
ATOM     74  C   UNL A   1      47.080  29.380  28.935  1.00  0.00     0.131 A 
ATOM     75  C   UNL A   1      47.784  28.630  26.475  1.00  0.00     0.055 A 
ATOM     76  C   UNL A   1      48.251  28.698  28.710  1.00  0.00     0.041 A 
ATOM     77  F   UNL A   1      46.759  29.747  30.172  1.00  0.00    -0.206 F 
ATOM     78  C   UNL A   1      48.651  28.388  27.440  1.00  0.00     0.022 A 
BRANCH  75  79
ATOM     79  S   UNL A   1      48.081  27.864  24.862  1.00  0.00     0.124 S 
ATOM     80  O   UNL A   1      47.119  28.457  23.831  1.00  0.00    -0.237 OA
ATOM     81  O   UNL A   1      49.525  28.132  24.428  1.00  0.00    -0.237 OA
ATOM     82  O   UNL A   1      47.824  26.177  24.977  1.00  0.00    -0.744 OA
ENDBRANCH  75  79
ENDBRANCH  48  72
BRANCH  60  83
ATOM     83  C   UNL A   1      43.203  35.567  30.213  1.00  0.00     0.023 A 
ATOM     84  C   UNL A   1      43.035  36.510  29.212  1.00  0.00     0.031 A 
ATOM     85  C   UNL A   1      43.647  35.912  31.416  1.00  0.00     0.131 A 
ATOM     86  C   UNL A   1      43.643  37.757  29.492  1.00  0.00     0.055 A 
ATOM     87  C   UNL A   1      44.100  37.187  31.656  1.00  0.00     0.041 A 
ATOM     88  F   UNL A   1      43.655  35.015  32.398  1.00  0.00    -0.206 F 
ATOM     89  C   UNL A   1      44.019  38.155  30.693  1.00  0.00     0.022 A 
BRANCH  86  90
ATOM     90  S   UNL A   1      43.922  38.886  28.104  1.00  0.00     0.124 S 
ATOM     91  O   UNL A   1      44.549  40.182  28.619  1.00  0.00    -0.237 OA
ATOM     92  O   UNL A   1      44.864  38.229  27.093  1.00  0.00    -0.237 OA
ATOM     93  O   UNL A   1      42.428  39.237  27.347  1.00  0.00    -0.744 OA
ENDBRANCH  86  90
ENDBRANCH  60  83
ENDBRANCH  34  35
ENDBRANCH  27  29
ENDBRANCH  26  27
ENDBRANCH   1  26
TORSDOF 16
ENDMDL
MODEL 2
REMARK VINA RESULT:     -12.3      1.657      2.009
REMARK SMILES O=C(OCCOC(=O)c1ccc(-c2c3nc(c(-c4cc(S(=O)(=O)[O-])ccc4F)c4ccc([nH]4)c(-c4cc(S(=O)(=O)[O-])ccc4F)c4nc(c(-c5cc(S(=O)(=O)[O-])ccc5F)c5ccc2[nH]5)C=C4)C=C3)cc1)C1=Cc2cc(S(F)(F)(F)(F)F)ccc2O[C@@H]1C(F)(F)F
REMARK SMILES IDX 5 1 4 2 3 3 2 4 1 5 72 6 73 7 87 8 74 9 86 10 75 11 85 12
REMARK SMILES IDX 76 13 84 14 83 15 88 16 89 17 90 18 91 19 77 20 78 21 79 22
REMARK SMILES IDX 80 23 81 24 82 25 6 26 7 27 8 28 9 29 10 30 71 31 11 32
REMARK SMILES IDX 70 33 12 34 13 35 14 36 64 37 15 38 69 39 63 40 65 41 16 42
REMARK SMILES IDX 68 43 62 44 61 45 17 47 49 48 29 49 48 50 30 51 33 52 47 53
REMARK SMILES IDX 66 54 31 55 32 56 46 58 67 59 34 60 18 61 19 62 27 63 20 64
REMARK SMILES IDX 26 65 28 66 25 67 21 68 22 69 23 70 24 71 50 72 51 73 59 74
REMARK SMILES IDX 52 75 58 76 60 77 57 78 53 79 54 80 55 81 56 82 35 83 36 84
REMARK SMILES IDX 44 85 37 86 43 87 45 88 42 89 38 90 39 91 40 92 41 93
REMARK H PARENT 65 46 33 57
REMARK Flexibility Score: inf
ROOT
ATOM      1  C   UNL A   1      37.866  21.968  25.356  1.00  0.00     0.275 C 
ENDROOT
BRANCH   1   2
ATOM      2  C   UNL A   1      36.989  23.144  25.755  1.00  0.00     0.275 C 
BRANCH   2   3
ATOM      3  O   UNL A   1      36.430  23.735  24.589  1.00  0.00    -0.459 OA
BRANCH   3   4
ATOM      4  C   UNL A   1      35.455  23.030  23.835  1.00  0.00     0.338 C 
ATOM      5  O   UNL A   1      35.590  22.910  22.578  1.00  0.00    -0.246 OA
BRANCH   4   6
ATOM      6  C   UNL A   1      34.249  22.421  24.533  1.00  0.00     0.087 C 
ATOM      7  C   UNL A   1      33.307  23.226  25.091  1.00  0.00     0.027 C 
ATOM      8  C   UNL A   1      34.098  20.909  24.606  1.00  0.00     0.316 C 
ATOM      9  C   UNL A   1      33.459  24.737  25.018  1.00  0.00     0.019 A 
ATOM     10  O   UNL A   1      34.345  24.589  22.818  1.00  0.00    -0.475 OA
ATOM     11  C   UNL A   1      33.081  25.458  26.138  1.00  0.00     0.036 A 
ATOM     12  C   UNL A   1      33.810  25.347  23.892  1.00  0.00     0.128 A 
ATOM     13  C   UNL A   1      32.827  26.826  25.881  1.00  0.00     0.107 A 
ATOM     14  C   UNL A   1      33.662  26.707  23.758  1.00  0.00     0.048 A 
ATOM     15  C   UNL A   1      33.237  27.475  24.806  1.00  0.00     0.028 A 
BRANCH   8  16
ATOM     16  C   UNL A   1      32.807  20.497  23.918  1.00  0.00     0.430 C 
ATOM     17  F   UNL A   1      32.587  21.291  22.874  1.00  0.00    -0.167 F 
ATOM     18  F   UNL A   1      32.910  19.237  23.503  1.00  0.00    -0.167 F 
ATOM     19  F   UNL A   1      31.795  20.598  24.775  1.00  0.00    -0.167 F 
ENDBRANCH   8  16
BRANCH  13  20
ATOM     20  S   UNL A   1      31.873  27.752  27.111  1.00  0.00     0.310 S 
ATOM     21  F   UNL A   1      31.616  28.945  26.098  1.00  0.00    -0.094 F 
ATOM     22  F   UNL A   1      33.199  28.488  27.534  1.00  0.00    -0.094 F 
ATOM     23  F   UNL A   1      31.059  28.552  28.166  1.00  0.00    -0.094 F 
ATOM     24  F   UNL A   1      30.535  27.106  26.577  1.00  0.00    -0.094 F 
ATOM     25  F   UNL A   1      32.669  27.017  25.959  1.00  0.00    -0.094 F 
ENDBRANCH  13  20
ENDBRANCH   4   6
ENDBRANCH   3   4
ENDBRANCH   2   3
ENDBRANCH   1   2
BRANCH   1  26
ATOM     26  O   UNL A   1      38.792  21.692  26.395  1.00  0.00    -0.458 OA
BRANCH  26  27
ATOM     27  C   UNL A   1      40.071  22.310  26.388  1.00  0.00     0.338 C 
ATOM     28  O   UNL A   1      41.083  21.672  25.961  1.00  0.00    -0.246 OA
BRANCH  27  29
ATOM     29  C   UNL A   1      40.229  23.735  26.894  1.00  0.00     0.060 A 
ATOM     30  C   UNL A   1      40.716  23.837  28.186  1.00  0.00     0.016 A 
ATOM     31  C   UNL A   1      40.059  24.812  26.136  1.00  0.00     0.016 A 
ATOM     32  C   UNL A   1      40.723  25.158  28.694  1.00  0.00     0.010 A 
ATOM     33  C   UNL A   1      40.215  26.071  26.663  1.00  0.00     0.010 A 
ATOM     34  C   UNL A   1      40.636  26.246  27.952  1.00  0.00    -0.014 A 
BRANCH  34  35
ATOM     35  C   UNL A   1      40.986  27.620  28.501  1.00  0.00     0.031 A 
ATOM     36  C   UNL A   1      39.987  28.514  28.891  1.00  0.00     0.074 A 
ATOM     37  C   UNL A   1      42.329  27.945  28.421  1.00  0.00     0.049 A 
ATOM     38  N   UNL A   1      40.137  29.783  29.275  1.00  0.00    -0.248 NA
ATOM     39  C   UNL A   1      38.556  28.180  28.943  1.00  0.00     0.031 C 
ATOM     40  C   UNL A   1      43.344  27.046  28.037  1.00  0.00     0.029 A 
ATOM     41  N   UNL A   1      42.921  29.160  28.688  1.00  0.00    -0.354 N 
ATOM     42  C   UNL A   1      38.952  30.311  29.591  1.00  0.00     0.074 A 
ATOM     43  C   UNL A   1      37.919  29.291  29.375  1.00  0.00     0.031 C 
ATOM     44  C   UNL A   1      44.528  27.712  28.061  1.00  0.00     0.029 A 
ATOM     45  C   UNL A   1      44.274  29.038  28.460  1.00  0.00     0.049 A 
ATOM     46  H   UNL A   1      42.458  29.974  28.989  1.00  0.00     0.167 HD
ATOM     47  C   UNL A   1      38.695  31.604  30.051  1.00  0.00     0.034 A 
ATOM     48  C   UNL A   1      45.248  30.016  28.587  1.00  0.00     0.034 A 
ATOM     49  C   UNL A   1      39.675  32.569  30.219  1.00  0.00     0.049 A 
ATOM     50  C   UNL A   1      44.983  31.326  28.992  1.00  0.00     0.074 A 
ATOM     51  C   UNL A   1      39.433  33.874  30.689  1.00  0.00     0.029 A 
ATOM     52  N   UNL A   1      41.024  32.454  29.968  1.00  0.00    -0.354 N 
ATOM     53  N   UNL A   1      43.804  31.842  29.345  1.00  0.00    -0.248 NA
ATOM     54  C   UNL A   1      46.001  32.379  29.098  1.00  0.00     0.031 C 
ATOM     55  C   UNL A   1      40.619  34.540  30.712  1.00  0.00     0.029 A 
ATOM     56  C   UNL A   1      41.620  33.662  30.257  1.00  0.00     0.049 A 
ATOM     57  H   UNL A   1      41.484  31.647  29.639  1.00  0.00     0.167 HD
ATOM     58  C   UNL A   1      43.949  33.123  29.690  1.00  0.00     0.074 A 
ATOM     59  C   UNL A   1      45.363  33.489  29.529  1.00  0.00     0.031 C 
ATOM     60  C   UNL A   1      42.958  34.001  30.135  1.00  0.00     0.034 A 
BRANCH  47  61
ATOM     61  C   UNL A   1      37.259  31.973  30.386  1.00  0.00     0.023 A 
ATOM     62  C   UNL A   1      36.364  32.454  29.445  1.00  0.00     0.031 A 
ATOM     63  C   UNL A   1      36.867  31.670  31.617  1.00  0.00     0.131 A 
ATOM     64  C   UNL A   1      35.122  32.858  29.989  1.00  0.00     0.055 A 
ATOM     65  C   UNL A   1      35.595  31.971  32.040  1.00  0.00     0.041 A 
ATOM     66  F   UNL A   1      37.714  31.071  32.450  1.00  0.00    -0.206 F 
ATOM     67  C   UNL A   1      34.675  32.503  31.180  1.00  0.00     0.022 A 
BRANCH  64  68
ATOM     68  S   UNL A   1      34.071  33.936  28.983  1.00  0.00     0.124 S 
ATOM     69  O   UNL A   1      33.359  33.102  27.916  1.00  0.00    -0.237 OA
ATOM     70  O   UNL A   1      33.033  34.615  29.878  1.00  0.00    -0.237 OA
ATOM     71  O   UNL A   1      35.037  35.127  28.225  1.00  0.00    -0.744 OA
ENDBRANCH  64  68
ENDBRANCH  47  61
BRANCH  48  72
ATOM     72  C   UNL A   1      46.686  29.642  28.267  1.00  0.00     0.023 A 
ATOM     73  C   UNL A   1      47.098  29.423  26.963  1.00  0.00     0.031 A 
ATOM     74  C   UNL A   1      47.485  29.377  29.295  1.00  0.00     0.131 A 
ATOM     75  C   UNL A   1      48.276  28.645  26.856  1.00  0.00     0.055 A 
ATOM     76  C   UNL A   1      48.683  28.736  29.102  1.00  0.00     0.041 A 
ATOM     77  F   UNL A   1      47.119  29.737  30.523  1.00  0.00    -0.206 F 
ATOM     78  C   UNL A   1      49.126  28.436  27.844  1.00  0.00     0.022 A 
BRANCH  75  79
ATOM     79  S   UNL A   1      48.640  27.885  25.255  1.00  0.00     0.124 S 
ATOM     80  O   UNL A   1      50.041  28.299  24.800  1.00  0.00    -0.237 OA
ATOM     81  O   UNL A   1      48.575  26.361  25.386  1.00  0.00    -0.237 OA
ATOM     82  O   UNL A   1      47.489  28.407  24.103  1.00  0.00    -0.744 OA
ENDBRANCH  75  79
ENDBRANCH  48  72
BRANCH  60  83
ATOM     83  C   UNL A   1      43.374  35.414  30.510  1.00  0.00     0.023 A 
ATOM     84  C   UNL A   1      43.636  35.611  31.856  1.00  0.00     0.031 A 
ATOM     85  C   UNL A   1      43.581  36.378  29.620  1.00  0.00     0.131 A 
ATOM     86  C   UNL A   1      43.842  36.966  32.207  1.00  0.00     0.055 A 
ATOM     87  C   UNL A   1      43.913  37.647  30.028  1.00  0.00     0.041 A 
ATOM     88  F   UNL A   1      43.465  36.112  28.322  1.00  0.00    -0.206 F 
ATOM     89  C   UNL A   1      44.129  37.928  31.350  1.00  0.00     0.022 A 
BRANCH  86  90
ATOM     90  S   UNL A   1      43.704  37.411  33.956  1.00  0.00     0.124 S 
ATOM     91  O   UNL A   1      42.483  36.718  34.564  1.00  0.00    -0.237 OA
ATOM     92  O   UNL A   1      44.965  36.966  34.698  1.00  0.00    -0.237 OA
ATOM     93  O   UNL A   1      43.527  39.107  34.100  1.00  0.00    -0.744 OA
ENDBRANCH  86  90
ENDBRANCH  60  83
ENDBRANCH  34  35
ENDBRANCH  27  29
ENDBRANCH  26  27
ENDBRANCH   1  26
TORSDOF 16
ENDMDL
MODEL 3
REMARK VINA RESULT:     -12.2      5.122      9.954
REMARK SMILES O=C(OCCOC(=O)c1ccc(-c2c3nc(c(-c4cc(S(=O)(=O)[O-])ccc4F)c4ccc([nH]4)c(-c4cc(S(=O)(=O)[O-])ccc4F)c4nc(c(-c5cc(S(=O)(=O)[O-])ccc5F)c5ccc2[nH]5)C=C4)C=C3)cc1)C1=Cc2cc(S(F)(F)(F)(F)F)ccc2O[C@@H]1C(F)(F)F
REMARK SMILES IDX 5 1 4 2 3 3 2 4 1 5 72 6 73 7 87 8 74 9 86 10 75 11 85 12
REMARK SMILES IDX 76 13 84 14 83 15 88 16 89 17 90 18 91 19 77 20 78 21 79 22
REMARK SMILES IDX 80 23 81 24 82 25 6 26 7 27 8 28 9 29 10 30 71 31 11 32
REMARK SMILES IDX 70 33 12 34 13 35 14 36 64 37 15 38 69 39 63 40 65 41 16 42
REMARK SMILES IDX 68 43 62 44 61 45 17 47 49 48 29 49 48 50 30 51 33 52 47 53
REMARK SMILES IDX 66 54 31 55 32 56 46 58 67 59 34 60 18 61 19 62 27 63 20 64
REMARK SMILES IDX 26 65 28 66 25 67 21 68 22 69 23 70 24 71 50 72 51 73 59 74
REMARK SMILES IDX 52 75 58 76 60 77 57 78 53 79 54 80 55 81 56 82 35 83 36 84
REMARK SMILES IDX 44 85 37 86 43 87 45 88 42 89 38 90 39 91 40 92 41 93
REMARK H PARENT 65 46 33 57
REMARK Flexibility Score: inf
ROOT
ATOM      1  C   UNL A   1      33.043  30.427  27.236  1.00  0.00     0.275 C 
ENDROOT
BRANCH   1   2
ATOM      2  C   UNL A   1      33.752  29.173  26.749  1.00  0.00     0.275 C 
BRANCH   2   3
ATOM      3  O   UNL A   1      33.028  28.026  27.172  1.00  0.00    -0.459 OA
BRANCH   3   4
ATOM      4  C   UNL A   1      31.804  27.685  26.536  1.00  0.00     0.338 C 
ATOM      5  O   UNL A   1      30.790  27.375  27.236  1.00  0.00    -0.246 OA
BRANCH   4   6
ATOM      6  C   UNL A   1      31.709  27.691  25.019  1.00  0.00     0.087 C 
ATOM      7  C   UNL A   1      32.345  26.732  24.293  1.00  0.00     0.027 C 
ATOM      8  C   UNL A   1      30.902  28.769  24.313  1.00  0.00     0.316 C 
ATOM      9  C   UNL A   1      33.151  25.654  25.000  1.00  0.00     0.019 A 
ATOM     10  O   UNL A   1      31.553  25.543  26.756  1.00  0.00    -0.475 OA
ATOM     11  C   UNL A   1      34.336  25.265  24.398  1.00  0.00     0.036 A 
ATOM     12  C   UNL A   1      32.681  25.022  26.069  1.00  0.00     0.128 A 
ATOM     13  C   UNL A   1      34.811  24.004  24.829  1.00  0.00     0.107 A 
ATOM     14  C   UNL A   1      33.278  23.869  26.517  1.00  0.00     0.048 A 
ATOM     15  C   UNL A   1      34.419  23.393  25.932  1.00  0.00     0.028 A 
BRANCH   8  16
ATOM     16  C   UNL A   1      29.790  28.121  23.505  1.00  0.00     0.430 C 
ATOM     17  F   UNL A   1      28.785  28.981  23.363  1.00  0.00    -0.167 F 
ATOM     18  F   UNL A   1      30.255  27.780  22.305  1.00  0.00    -0.167 F 
ATOM     19  F   UNL A   1      29.357  27.034  24.136  1.00  0.00    -0.167 F 
ENDBRANCH   8  16
BRANCH  13  20
ATOM     20  S   UNL A   1      36.043  23.171  23.798  1.00  0.00     0.310 S 
ATOM     21  F   UNL A   1      36.038  21.885  24.728  1.00  0.00    -0.094 F 
ATOM     22  F   UNL A   1      37.170  23.756  24.730  1.00  0.00    -0.094 F 
ATOM     23  F   UNL A   1      37.105  22.454  22.917  1.00  0.00    -0.094 F 
ATOM     24  F   UNL A   1      34.895  22.481  22.961  1.00  0.00    -0.094 F 
ATOM     25  F   UNL A   1      34.951  23.800  24.751  1.00  0.00    -0.094 F 
ENDBRANCH  13  20
ENDBRANCH   4   6
ENDBRANCH   3   4
ENDBRANCH   2   3
ENDBRANCH   1   2
BRANCH   1  26
ATOM     26  O   UNL A   1      33.976  31.493  27.331  1.00  0.00    -0.458 OA
BRANCH  26  27
ATOM     27  C   UNL A   1      34.669  31.723  28.548  1.00  0.00     0.338 C 
ATOM     28  O   UNL A   1      34.220  32.567  29.386  1.00  0.00    -0.246 OA
BRANCH  27  29
ATOM     29  C   UNL A   1      35.948  30.959  28.850  1.00  0.00     0.060 A 
ATOM     30  C   UNL A   1      37.102  31.554  28.366  1.00  0.00     0.016 A 
ATOM     31  C   UNL A   1      36.003  29.886  29.631  1.00  0.00     0.016 A 
ATOM     32  C   UNL A   1      38.265  30.765  28.528  1.00  0.00     0.010 A 
ATOM     33  C   UNL A   1      37.197  29.244  29.856  1.00  0.00     0.010 A 
ATOM     34  C   UNL A   1      38.368  29.743  29.357  1.00  0.00    -0.014 A 
BRANCH  34  35
ATOM     35  C   UNL A   1      39.716  29.154  29.738  1.00  0.00     0.031 A 
ATOM     36  C   UNL A   1      40.221  28.029  29.082  1.00  0.00     0.074 A 
ATOM     37  C   UNL A   1      40.292  29.716  30.865  1.00  0.00     0.049 A 
ATOM     38  N   UNL A   1      41.321  27.338  29.383  1.00  0.00    -0.248 NA
ATOM     39  C   UNL A   1      39.592  27.410  27.907  1.00  0.00     0.031 C 
ATOM     40  C   UNL A   1      39.793  30.856  31.527  1.00  0.00     0.029 A 
ATOM     41  N   UNL A   1      41.417  29.296  31.538  1.00  0.00    -0.354 N 
ATOM     42  C   UNL A   1      41.489  26.337  28.515  1.00  0.00     0.074 A 
ATOM     43  C   UNL A   1      40.376  26.365  27.558  1.00  0.00     0.031 C 
ATOM     44  C   UNL A   1      40.600  31.111  32.590  1.00  0.00     0.029 A 
ATOM     45  C   UNL A   1      41.616  30.137  32.611  1.00  0.00     0.049 A 
ATOM     46  H   UNL A   1      41.982  28.528  31.295  1.00  0.00     0.167 HD
ATOM     47  C   UNL A   1      42.527  25.405  28.485  1.00  0.00     0.034 A 
ATOM     48  C   UNL A   1      42.619  30.074  33.565  1.00  0.00     0.034 A 
ATOM     49  C   UNL A   1      43.555  25.368  29.414  1.00  0.00     0.049 A 
ATOM     50  C   UNL A   1      43.626  29.106  33.569  1.00  0.00     0.074 A 
ATOM     51  C   UNL A   1      44.613  24.440  29.394  1.00  0.00     0.029 A 
ATOM     52  N   UNL A   1      43.740  26.194  30.501  1.00  0.00    -0.354 N 
ATOM     53  N   UNL A   1      43.815  28.130  32.678  1.00  0.00    -0.248 NA
ATOM     54  C   UNL A   1      44.674  29.009  34.591  1.00  0.00     0.031 C 
ATOM     55  C   UNL A   1      45.419  24.696  30.458  1.00  0.00     0.029 A 
ATOM     56  C   UNL A   1      44.878  25.788  31.161  1.00  0.00     0.049 A 
ATOM     57  H   UNL A   1      43.158  26.945  30.761  1.00  0.00     0.167 HD
ATOM     58  C   UNL A   1      44.892  27.414  33.003  1.00  0.00     0.074 A 
ATOM     59  C   UNL A   1      45.457  27.964  34.244  1.00  0.00     0.031 C 
ATOM     60  C   UNL A   1      45.430  26.324  32.314  1.00  0.00     0.034 A 
BRANCH  47  61
ATOM     61  C   UNL A   1      42.530  24.371  27.371  1.00  0.00     0.023 A 
ATOM     62  C   UNL A   1      41.742  23.232  27.395  1.00  0.00     0.031 A 
ATOM     63  C   UNL A   1      43.234  24.699  26.295  1.00  0.00     0.131 A 
ATOM     64  C   UNL A   1      41.992  22.340  26.326  1.00  0.00     0.055 A 
ATOM     65  C   UNL A   1      43.324  23.837  25.228  1.00  0.00     0.041 A 
ATOM     66  F   UNL A   1      43.859  25.872  26.247  1.00  0.00    -0.206 F 
ATOM     67  C   UNL A   1      42.619  22.665  25.210  1.00  0.00     0.022 A 
BRANCH  64  68
ATOM     68  S   UNL A   1      41.410  20.634  26.498  1.00  0.00     0.124 S 
ATOM     69  O   UNL A   1      41.744  20.121  27.900  1.00  0.00    -0.237 OA
ATOM     70  O   UNL A   1      39.895  20.589  26.285  1.00  0.00    -0.237 OA
ATOM     71  O   UNL A   1      42.179  19.649  25.332  1.00  0.00    -0.744 OA
ENDBRANCH  64  68
ENDBRANCH  47  61
BRANCH  48  72
ATOM     72  C   UNL A   1      42.625  31.117  34.670  1.00  0.00     0.023 A 
ATOM     73  C   UNL A   1      41.715  31.063  35.713  1.00  0.00     0.031 A 
ATOM     74  C   UNL A   1      43.426  32.164  34.509  1.00  0.00     0.131 A 
ATOM     75  C   UNL A   1      41.524  32.301  36.372  1.00  0.00     0.055 A 
ATOM     76  C   UNL A   1      43.269  33.290  35.279  1.00  0.00     0.041 A 
ATOM     77  F   UNL A   1      44.389  32.122  33.591  1.00  0.00    -0.206 F 
ATOM     78  C   UNL A   1      42.349  33.328  36.290  1.00  0.00     0.022 A 
BRANCH  75  79
ATOM     79  S   UNL A   1      40.044  32.488  37.397  1.00  0.00     0.124 S 
ATOM     80  O   UNL A   1      39.030  31.403  37.031  1.00  0.00    -0.237 OA
ATOM     81  O   UNL A   1      40.426  32.354  38.874  1.00  0.00    -0.237 OA
ATOM     82  O   UNL A   1      39.355  34.029  37.124  1.00  0.00    -0.744 OA
ENDBRANCH  75  79
ENDBRANCH  48  72
BRANCH  60  83
ATOM     83  C   UNL A   1      46.698  25.689  32.861  1.00  0.00     0.023 A 
ATOM     84  C   UNL A   1      46.496  24.607  33.702  1.00  0.00     0.031 A 
ATOM     85  C   UNL A   1      47.920  26.058  32.494  1.00  0.00     0.131 A 
ATOM     86  C   UNL A   1      47.673  24.150  34.340  1.00  0.00     0.055 A 
ATOM     87  C   UNL A   1      49.026  25.473  33.060  1.00  0.00     0.041 A 
ATOM     88  F   UNL A   1      48.074  27.003  31.571  1.00  0.00    -0.206 F 
ATOM     89  C   UNL A   1      48.900  24.436  33.945  1.00  0.00     0.022 A 
BRANCH  86  90
ATOM     90  S   UNL A   1      47.483  23.096  35.799  1.00  0.00     0.124 S 
ATOM     91  O   UNL A   1      47.627  23.945  37.063  1.00  0.00    -0.237 OA
ATOM     92  O   UNL A   1      46.102  22.439  35.779  1.00  0.00    -0.237 OA
ATOM     93  O   UNL A   1      48.691  21.883  35.787  1.00  0.00    -0.744 OA
ENDBRANCH  86  90
ENDBRANCH  60  83
ENDBRANCH  34  35
ENDBRANCH  27  29
ENDBRANCH  26  27
ENDBRANCH   1  26
TORSDOF 16
ENDMDL
