MODEL 1
REMARK VINA RESULT:     -11.1      0.000      0.000
REMARK SMILES CC(C)C[C@H](NC(=O)CNC(=O)[C@@H](NC(=O)OCc1ccccc1)C(C)C)C(=O)OCCOC(=O)c1ccc(-c2c3nc(c(-c4cc(S(=O)(=O)[O-])ccc4F)c4ccc([nH]4)c(-c4cc(S(=O)(=O)[O-])ccc4F)c4nc(c(-c5cc(S(=O)(=O)[O-])ccc5F)c5ccc2[nH]5)C=C4)C=C3)cc1
REMARK SMILES IDX 28 1 29 2 5 3 4 4 2 5 1 6 3 7 6 8 7 9 8 11 9 12 10 13 11 14
REMARK SMILES IDX 12 16 13 17 14 18 15 19 16 21 17 22 18 23 19 24 20 25 24 26
REMARK SMILES IDX 21 27 23 28 22 29 25 30 26 31 27 32 30 33 31 34 32 35 33 36
REMARK SMILES IDX 34 37 35 38 36 39 37 40 98 41 38 42 97 43 39 44 40 45 41 46
REMARK SMILES IDX 91 47 42 48 96 49 90 50 92 51 43 52 95 53 89 54 88 55 44 57
REMARK SMILES IDX 76 58 56 59 75 60 57 61 60 62 74 63 93 64 58 65 59 66 73 68
REMARK SMILES IDX 94 69 61 70 45 71 46 72 54 73 47 74 53 75 55 76 52 77 48 78
REMARK SMILES IDX 49 79 50 80 51 81 77 82 78 83 86 84 79 85 85 86 87 87 84 88
REMARK SMILES IDX 80 89 81 90 82 91 83 92 62 93 63 94 71 95 64 96 70 97 72 98
REMARK SMILES IDX 69 99 65 100 66 101 67 102 68 103
REMARK H PARENT 6 10 10 15 14 20 92 56 60 67
REMARK Flexibility Score: inf
ROOT
ATOM      1  C   UNL A   1      32.170  29.512  26.329  1.00  0.00     0.328 C 
ATOM      2  O   UNL A   1      32.255  28.569  27.106  1.00  0.00    -0.250 OA
ENDROOT
BRANCH   1   3
ATOM      3  C   UNL A   1      31.844  29.356  24.850  1.00  0.00     0.192 C 
BRANCH   3   4
ATOM      4  C   UNL A   1      30.882  28.172  24.704  1.00  0.00     0.040 C 
BRANCH   4   5
ATOM      5  C   UNL A   1      29.979  27.967  23.468  1.00  0.00    -0.015 C 
ATOM      6  C   UNL A   1      28.735  27.114  23.750  1.00  0.00     0.007 C 
ATOM      7  C   UNL A   1      29.475  29.351  23.020  1.00  0.00     0.007 C 
ENDBRANCH   4   5
ENDBRANCH   3   4
BRANCH   3   8
ATOM      8  N   UNL A   1      33.080  29.324  24.043  1.00  0.00    -0.341 N 
ATOM      9  C   UNL A   1      33.768  28.266  23.520  1.00  0.00     0.240 C 
ATOM     10  H   UNL A   1      33.470  30.207  23.849  1.00  0.00     0.164 HD
ATOM     11  O   UNL A   1      34.299  28.415  22.416  1.00  0.00    -0.273 OA
BRANCH   9  12
ATOM     12  C   UNL A   1      33.908  26.937  24.259  1.00  0.00     0.216 C 
BRANCH  12  13
ATOM     13  N   UNL A   1      33.804  25.809  23.351  1.00  0.00    -0.345 N 
ATOM     14  C   UNL A   1      34.113  24.494  23.412  1.00  0.00     0.243 C 
ATOM     15  H   UNL A   1      33.416  26.063  22.482  1.00  0.00     0.164 HD
ATOM     16  O   UNL A   1      33.879  23.877  22.363  1.00  0.00    -0.273 OA
BRANCH  14  17
ATOM     17  C   UNL A   1      34.754  23.745  24.635  1.00  0.00     0.177 C 
BRANCH  17  18
ATOM     18  N   UNL A   1      33.903  23.502  25.802  1.00  0.00    -0.309 N 
ATOM     19  C   UNL A   1      32.943  22.585  26.070  1.00  0.00     0.408 C 
ATOM     20  H   UNL A   1      34.060  24.133  26.542  1.00  0.00     0.167 HD
ATOM     21  O   UNL A   1      32.211  22.758  27.038  1.00  0.00    -0.225 OA
BRANCH  19  22
ATOM     22  O   UNL A   1      32.877  21.573  25.183  1.00  0.00    -0.445 OA
BRANCH  22  23
ATOM     23  C   UNL A   1      33.236  20.281  25.704  1.00  0.00     0.270 C 
BRANCH  23  24
ATOM     24  C   UNL A   1      33.374  19.196  24.658  1.00  0.00    -0.011 A 
ATOM     25  C   UNL A   1      34.409  18.251  24.707  1.00  0.00     0.007 A 
ATOM     26  C   UNL A   1      32.441  19.118  23.615  1.00  0.00     0.007 A 
ATOM     27  C   UNL A   1      34.473  17.217  23.771  1.00  0.00     0.000 A 
ATOM     28  C   UNL A   1      32.517  18.095  22.668  1.00  0.00     0.000 A 
ATOM     29  C   UNL A   1      33.526  17.139  22.753  1.00  0.00     0.000 A 
ENDBRANCH  23  24
ENDBRANCH  22  23
ENDBRANCH  19  22
ENDBRANCH  17  18
BRANCH  17  30
ATOM     30  C   UNL A   1      35.645  22.552  24.207  1.00  0.00     0.015 C 
ATOM     31  C   UNL A   1      36.665  22.937  23.123  1.00  0.00     0.010 C 
ATOM     32  C   UNL A   1      36.453  21.993  25.387  1.00  0.00     0.010 C 
ENDBRANCH  17  30
ENDBRANCH  14  17
ENDBRANCH  12  13
ENDBRANCH   9  12
ENDBRANCH   3   8
ENDBRANCH   1   3
BRANCH   1  33
ATOM     33  O   UNL A   1      32.467  30.810  26.637  1.00  0.00    -0.461 OA
BRANCH  33  34
ATOM     34  C   UNL A   1      31.393  31.744  26.471  1.00  0.00     0.274 C 
BRANCH  34  35
ATOM     35  C   UNL A   1      31.859  33.192  26.662  1.00  0.00     0.275 C 
BRANCH  35  36
ATOM     36  O   UNL A   1      32.310  33.462  28.004  1.00  0.00    -0.458 OA
BRANCH  36  37
ATOM     37  C   UNL A   1      33.421  34.239  28.098  1.00  0.00     0.338 C 
ATOM     38  O   UNL A   1      33.459  35.454  27.976  1.00  0.00    -0.246 OA
BRANCH  37  39
ATOM     39  C   UNL A   1      34.573  33.445  28.574  1.00  0.00     0.060 A 
ATOM     40  C   UNL A   1      34.311  32.233  29.228  1.00  0.00     0.016 A 
ATOM     41  C   UNL A   1      35.886  33.890  28.428  1.00  0.00     0.016 A 
ATOM     42  C   UNL A   1      35.353  31.460  29.731  1.00  0.00     0.010 A 
ATOM     43  C   UNL A   1      36.932  33.121  28.951  1.00  0.00     0.010 A 
ATOM     44  C   UNL A   1      36.673  31.906  29.613  1.00  0.00    -0.014 A 
BRANCH  44  45
ATOM     45  C   UNL A   1      37.765  31.154  30.277  1.00  0.00     0.031 A 
ATOM     46  C   UNL A   1      38.096  31.457  31.712  1.00  0.00     0.074 A 
ATOM     47  C   UNL A   1      38.431  30.187  29.615  1.00  0.00     0.049 A 
ATOM     48  N   UNL A   1      39.075  31.009  32.452  1.00  0.00    -0.248 NA
ATOM     49  C   UNL A   1      37.201  32.400  32.401  1.00  0.00     0.031 C 
ATOM     50  C   UNL A   1      38.145  29.753  28.248  1.00  0.00     0.029 A 
ATOM     51  N   UNL A   1      39.485  29.398  30.004  1.00  0.00    -0.354 N 
ATOM     52  C   UNL A   1      38.927  31.625  33.690  1.00  0.00     0.074 A 
ATOM     53  C   UNL A   1      37.779  32.501  33.589  1.00  0.00     0.031 C 
ATOM     54  C   UNL A   1      39.008  28.780  27.910  1.00  0.00     0.029 A 
ATOM     55  C   UNL A   1      39.943  28.564  29.011  1.00  0.00     0.049 A 
ATOM     56  H   UNL A   1      39.876  29.428  30.906  1.00  0.00     0.167 HD
ATOM     57  C   UNL A   1      39.680  31.467  34.807  1.00  0.00     0.034 A 
ATOM     58  C   UNL A   1      41.020  27.751  28.981  1.00  0.00     0.034 A 
ATOM     59  C   UNL A   1      40.820  30.586  34.886  1.00  0.00     0.049 A 
ATOM     60  C   UNL A   1      41.900  27.670  30.206  1.00  0.00     0.074 A 
ATOM     61  C   UNL A   1      41.656  30.352  35.963  1.00  0.00     0.029 A 
ATOM     62  N   UNL A   1      41.290  29.795  33.843  1.00  0.00    -0.354 N 
ATOM     63  N   UNL A   1      41.769  28.278  31.363  1.00  0.00    -0.248 NA
ATOM     64  C   UNL A   1      43.073  26.791  30.120  1.00  0.00     0.031 C 
ATOM     65  C   UNL A   1      42.670  29.481  35.553  1.00  0.00     0.029 A 
ATOM     66  C   UNL A   1      42.420  29.099  34.245  1.00  0.00     0.049 A 
ATOM     67  H   UNL A   1      40.879  29.738  32.951  1.00  0.00     0.167 HD
ATOM     68  C   UNL A   1      42.825  27.827  32.151  1.00  0.00     0.074 A 
ATOM     69  C   UNL A   1      43.567  26.879  31.346  1.00  0.00     0.031 C 
ATOM     70  C   UNL A   1      43.155  28.163  33.426  1.00  0.00     0.034 A 
BRANCH  57  71
ATOM     71  C   UNL A   1      39.328  32.310  36.009  1.00  0.00     0.023 A 
ATOM     72  C   UNL A   1      39.926  33.559  36.245  1.00  0.00     0.031 A 
ATOM     73  C   UNL A   1      38.384  31.845  36.944  1.00  0.00     0.131 A 
ATOM     74  C   UNL A   1      39.619  34.273  37.414  1.00  0.00     0.055 A 
ATOM     75  C   UNL A   1      38.025  32.596  38.065  1.00  0.00     0.041 A 
ATOM     76  F   UNL A   1      37.798  30.648  36.786  1.00  0.00    -0.206 F 
ATOM     77  C   UNL A   1      38.653  33.812  38.312  1.00  0.00     0.022 A 
BRANCH  74  78
ATOM     78  S   UNL A   1      40.592  35.752  37.811  1.00  0.00     0.124 S 
ATOM     79  O   UNL A   1      39.668  36.821  37.444  1.00  0.00    -0.237 OA
ATOM     80  O   UNL A   1      40.847  35.588  39.238  1.00  0.00    -0.237 OA
ATOM     81  O   UNL A   1      41.767  35.630  36.951  1.00  0.00    -0.744 OA
ENDBRANCH  74  78
ENDBRANCH  57  71
BRANCH  58  82
ATOM     82  C   UNL A   1      41.373  26.995  27.743  1.00  0.00     0.023 A 
ATOM     83  C   UNL A   1      41.150  25.611  27.646  1.00  0.00     0.031 A 
ATOM     84  C   UNL A   1      42.016  27.631  26.666  1.00  0.00     0.131 A 
ATOM     85  C   UNL A   1      41.620  24.902  26.529  1.00  0.00     0.055 A 
ATOM     86  C   UNL A   1      42.421  26.932  25.527  1.00  0.00     0.041 A 
ATOM     87  F   UNL A   1      42.265  28.950  26.704  1.00  0.00    -0.206 F 
ATOM     88  C   UNL A   1      42.239  25.555  25.462  1.00  0.00     0.022 A 
BRANCH  85  89
ATOM     89  S   UNL A   1      41.516  23.090  26.545  1.00  0.00     0.124 S 
ATOM     90  O   UNL A   1      42.310  22.738  25.373  1.00  0.00    -0.237 OA
ATOM     91  O   UNL A   1      42.105  22.765  27.840  1.00  0.00    -0.237 OA
ATOM     92  O   UNL A   1      40.084  22.831  26.432  1.00  0.00    -0.744 OA
ENDBRANCH  85  89
ENDBRANCH  58  82
BRANCH  70  93
ATOM     93  C   UNL A   1      44.345  27.458  34.034  1.00  0.00     0.023 A 
ATOM     94  C   UNL A   1      44.205  26.268  34.769  1.00  0.00     0.031 A 
ATOM     95  C   UNL A   1      45.635  28.001  33.897  1.00  0.00     0.131 A 
ATOM     96  C   UNL A   1      45.322  25.700  35.400  1.00  0.00     0.055 A 
ATOM     97  C   UNL A   1      46.754  27.392  34.467  1.00  0.00     0.041 A 
ATOM     98  F   UNL A   1      45.830  29.138  33.209  1.00  0.00    -0.206 F 
ATOM     99  C   UNL A   1      46.599  26.244  35.237  1.00  0.00     0.022 A 
BRANCH  96 100
ATOM    100  S   UNL A   1      45.067  24.308  36.534  1.00  0.00     0.124 S 
ATOM    101  O   UNL A   1      46.311  24.307  37.298  1.00  0.00    -0.237 OA
ATOM    102  O   UNL A   1      43.871  24.715  37.264  1.00  0.00    -0.237 OA
ATOM    103  O   UNL A   1      44.887  23.165  35.640  1.00  0.00    -0.744 OA
ENDBRANCH  96 100
ENDBRANCH  70  93
ENDBRANCH  44  45
ENDBRANCH  37  39
ENDBRANCH  36  37
ENDBRANCH  35  36
ENDBRANCH  34  35
ENDBRANCH  33  34
ENDBRANCH   1  33
TORSDOF 25
ENDMDL
MODEL 2
REMARK VINA RESULT:     -10.7      2.414      3.168
REMARK SMILES CC(C)C[C@H](NC(=O)CNC(=O)[C@@H](NC(=O)OCc1ccccc1)C(C)C)C(=O)OCCOC(=O)c1ccc(-c2c3nc(c(-c4cc(S(=O)(=O)[O-])ccc4F)c4ccc([nH]4)c(-c4cc(S(=O)(=O)[O-])ccc4F)c4nc(c(-c5cc(S(=O)(=O)[O-])ccc5F)c5ccc2[nH]5)C=C4)C=C3)cc1
REMARK SMILES IDX 28 1 29 2 5 3 4 4 2 5 1 6 3 7 6 8 7 9 8 11 9 12 10 13 11 14
REMARK SMILES IDX 12 16 13 17 14 18 15 19 16 21 17 22 18 23 19 24 20 25 24 26
REMARK SMILES IDX 21 27 23 28 22 29 25 30 26 31 27 32 30 33 31 34 32 35 33 36
REMARK SMILES IDX 34 37 35 38 36 39 37 40 98 41 38 42 97 43 39 44 40 45 41 46
REMARK SMILES IDX 91 47 42 48 96 49 90 50 92 51 43 52 95 53 89 54 88 55 44 57
REMARK SMILES IDX 76 58 56 59 75 60 57 61 60 62 74 63 93 64 58 65 59 66 73 68
REMARK SMILES IDX 94 69 61 70 45 71 46 72 54 73 47 74 53 75 55 76 52 77 48 78
REMARK SMILES IDX 49 79 50 80 51 81 77 82 78 83 86 84 79 85 85 86 87 87 84 88
REMARK SMILES IDX 80 89 81 90 82 91 83 92 62 93 63 94 71 95 64 96 70 97 72 98
REMARK SMILES IDX 69 99 65 100 66 101 67 102 68 103
REMARK H PARENT 6 10 10 15 14 20 92 56 60 67
REMARK Flexibility Score: inf
ROOT
ATOM      1  C   UNL A   1      31.185  28.703  24.109  1.00  0.00     0.328 C 
ATOM      2  O   UNL A   1      30.675  27.820  24.787  1.00  0.00    -0.250 OA
ENDROOT
BRANCH   1   3
ATOM      3  C   UNL A   1      31.070  28.769  22.592  1.00  0.00     0.192 C 
BRANCH   3   4
ATOM      4  C   UNL A   1      29.933  29.739  22.249  1.00  0.00     0.040 C 
BRANCH   4   5
ATOM      5  C   UNL A   1      28.719  29.975  23.173  1.00  0.00    -0.015 C 
ATOM      6  C   UNL A   1      28.078  31.359  23.005  1.00  0.00     0.007 C 
ATOM      7  C   UNL A   1      27.641  28.939  22.806  1.00  0.00     0.007 C 
ENDBRANCH   4   5
ENDBRANCH   3   4
BRANCH   3   8
ATOM      8  N   UNL A   1      30.996  27.413  22.013  1.00  0.00    -0.341 N 
ATOM      9  C   UNL A   1      31.784  26.316  22.224  1.00  0.00     0.240 C 
ATOM     10  H   UNL A   1      30.261  27.276  21.372  1.00  0.00     0.164 HD
ATOM     11  O   UNL A   1      31.239  25.209  22.224  1.00  0.00    -0.273 OA
BRANCH   9  12
ATOM     12  C   UNL A   1      33.292  26.423  22.441  1.00  0.00     0.216 C 
BRANCH  12  13
ATOM     13  N   UNL A   1      33.610  26.766  23.816  1.00  0.00    -0.345 N 
ATOM     14  C   UNL A   1      33.635  26.100  24.992  1.00  0.00     0.243 C 
ATOM     15  H   UNL A   1      33.870  27.712  23.914  1.00  0.00     0.164 HD
ATOM     16  O   UNL A   1      33.946  26.809  25.960  1.00  0.00    -0.273 OA
BRANCH  14  17
ATOM     17  C   UNL A   1      33.275  24.588  25.211  1.00  0.00     0.177 C 
BRANCH  17  18
ATOM     18  N   UNL A   1      34.369  23.671  25.541  1.00  0.00    -0.309 N 
ATOM     19  C   UNL A   1      34.630  22.385  25.204  1.00  0.00     0.408 C 
ATOM     20  H   UNL A   1      35.053  24.070  26.127  1.00  0.00     0.167 HD
ATOM     21  O   UNL A   1      35.497  21.775  25.820  1.00  0.00    -0.225 OA
BRANCH  19  22
ATOM     22  O   UNL A   1      33.847  21.898  24.222  1.00  0.00    -0.445 OA
BRANCH  22  23
ATOM     23  C   UNL A   1      32.900  20.898  24.636  1.00  0.00     0.270 C 
BRANCH  23  24
ATOM     24  C   UNL A   1      33.173  19.511  24.097  1.00  0.00    -0.011 A 
ATOM     25  C   UNL A   1      32.423  18.968  23.044  1.00  0.00     0.007 A 
ATOM     26  C   UNL A   1      34.208  18.745  24.650  1.00  0.00     0.007 A 
ATOM     27  C   UNL A   1      32.740  17.714  22.517  1.00  0.00     0.000 A 
ATOM     28  C   UNL A   1      34.512  17.483  24.136  1.00  0.00     0.000 A 
ATOM     29  C   UNL A   1      33.785  16.974  23.063  1.00  0.00     0.000 A 
ENDBRANCH  23  24
ENDBRANCH  22  23
ENDBRANCH  19  22
ENDBRANCH  17  18
BRANCH  17  30
ATOM     30  C   UNL A   1      31.979  24.394  26.038  1.00  0.00     0.015 C 
ATOM     31  C   UNL A   1      30.816  23.849  25.193  1.00  0.00     0.010 C 
ATOM     32  C   UNL A   1      32.182  23.402  27.193  1.00  0.00     0.010 C 
ENDBRANCH  17  30
ENDBRANCH  14  17
ENDBRANCH  12  13
ENDBRANCH   9  12
ENDBRANCH   3   8
ENDBRANCH   1   3
BRANCH   1  33
ATOM     33  O   UNL A   1      32.018  29.675  24.585  1.00  0.00    -0.461 OA
BRANCH  33  34
ATOM     34  C   UNL A   1      31.624  30.271  25.828  1.00  0.00     0.274 C 
BRANCH  34  35
ATOM     35  C   UNL A   1      32.627  29.976  26.948  1.00  0.00     0.275 C 
BRANCH  35  36
ATOM     36  O   UNL A   1      33.939  30.510  26.680  1.00  0.00    -0.458 OA
BRANCH  36  37
ATOM     37  C   UNL A   1      34.356  31.480  27.535  1.00  0.00     0.338 C 
ATOM     38  O   UNL A   1      33.722  32.473  27.859  1.00  0.00    -0.246 OA
BRANCH  37  39
ATOM     39  C   UNL A   1      35.616  31.082  28.198  1.00  0.00     0.060 A 
ATOM     40  C   UNL A   1      35.691  29.798  28.753  1.00  0.00     0.016 A 
ATOM     41  C   UNL A   1      36.695  31.958  28.316  1.00  0.00     0.016 A 
ATOM     42  C   UNL A   1      36.838  29.380  29.422  1.00  0.00     0.010 A 
ATOM     43  C   UNL A   1      37.841  31.544  29.005  1.00  0.00     0.010 A 
ATOM     44  C   UNL A   1      37.917  30.257  29.570  1.00  0.00    -0.014 A 
BRANCH  44  45
ATOM     45  C   UNL A   1      39.077  29.861  30.406  1.00  0.00     0.031 A 
ATOM     46  C   UNL A   1      39.194  30.410  31.800  1.00  0.00     0.074 A 
ATOM     47  C   UNL A   1      39.994  28.994  29.936  1.00  0.00     0.049 A 
ATOM     48  N   UNL A   1      40.171  30.292  32.661  1.00  0.00    -0.248 NA
ATOM     49  C   UNL A   1      38.056  31.205  32.286  1.00  0.00     0.031 C 
ATOM     50  C   UNL A   1      39.942  28.337  28.631  1.00  0.00     0.029 A 
ATOM     51  N   UNL A   1      41.151  28.519  30.503  1.00  0.00    -0.354 N 
ATOM     52  C   UNL A   1      39.776  31.010  33.784  1.00  0.00     0.074 A 
ATOM     53  C   UNL A   1      38.482  31.584  33.481  1.00  0.00     0.031 C 
ATOM     54  C   UNL A   1      41.022  27.550  28.494  1.00  0.00     0.029 A 
ATOM     55  C   UNL A   1      41.872  27.692  29.674  1.00  0.00     0.049 A 
ATOM     56  H   UNL A   1      41.438  28.751  31.416  1.00  0.00     0.167 HD
ATOM     57  C   UNL A   1      40.434  31.169  34.959  1.00  0.00     0.034 A 
ATOM     58  C   UNL A   1      43.095  27.146  29.833  1.00  0.00     0.034 A 
ATOM     59  C   UNL A   1      41.723  30.585  35.239  1.00  0.00     0.049 A 
ATOM     60  C   UNL A   1      43.850  27.422  31.111  1.00  0.00     0.074 A 
ATOM     61  C   UNL A   1      42.482  30.685  36.392  1.00  0.00     0.029 A 
ATOM     62  N   UNL A   1      42.450  29.796  34.355  1.00  0.00    -0.354 N 
ATOM     63  N   UNL A   1      43.480  28.125  32.158  1.00  0.00    -0.248 NA
ATOM     64  C   UNL A   1      45.187  26.826  31.231  1.00  0.00     0.031 C 
ATOM     65  C   UNL A   1      43.694  30.021  36.180  1.00  0.00     0.029 A 
ATOM     66  C   UNL A   1      43.659  29.430  34.927  1.00  0.00     0.049 A 
ATOM     67  H   UNL A   1      42.149  29.535  33.455  1.00  0.00     0.167 HD
ATOM     68  C   UNL A   1      44.528  28.028  33.071  1.00  0.00     0.074 A 
ATOM     69  C   UNL A   1      45.530  27.178  32.461  1.00  0.00     0.031 C 
ATOM     70  C   UNL A   1      44.654  28.588  34.302  1.00  0.00     0.034 A 
BRANCH  57  71
ATOM     71  C   UNL A   1      39.795  32.055  36.001  1.00  0.00     0.023 A 
ATOM     72  C   UNL A   1      38.955  31.540  37.003  1.00  0.00     0.031 A 
ATOM     73  C   UNL A   1      40.022  33.444  35.982  1.00  0.00     0.131 A 
ATOM     74  C   UNL A   1      38.327  32.413  37.906  1.00  0.00     0.055 A 
ATOM     75  C   UNL A   1      39.456  34.296  36.931  1.00  0.00     0.041 A 
ATOM     76  F   UNL A   1      40.795  33.996  35.034  1.00  0.00    -0.206 F 
ATOM     77  C   UNL A   1      38.593  33.784  37.893  1.00  0.00     0.022 A 
BRANCH  74  78
ATOM     78  S   UNL A   1      37.057  31.747  39.018  1.00  0.00     0.124 S 
ATOM     79  O   UNL A   1      37.751  31.765  40.303  1.00  0.00    -0.237 OA
ATOM     80  O   UNL A   1      35.970  32.706  38.866  1.00  0.00    -0.237 OA
ATOM     81  O   UNL A   1      36.794  30.414  38.479  1.00  0.00    -0.744 OA
ENDBRANCH  74  78
ENDBRANCH  57  71
BRANCH  58  82
ATOM     82  C   UNL A   1      43.720  26.339  28.743  1.00  0.00     0.023 A 
ATOM     83  C   UNL A   1      44.592  26.924  27.811  1.00  0.00     0.031 A 
ATOM     84  C   UNL A   1      43.388  24.982  28.567  1.00  0.00     0.131 A 
ATOM     85  C   UNL A   1      45.052  26.177  26.715  1.00  0.00     0.055 A 
ATOM     86  C   UNL A   1      43.903  24.224  27.514  1.00  0.00     0.041 A 
ATOM     87  F   UNL A   1      42.552  24.369  29.420  1.00  0.00    -0.206 F 
ATOM     88  C   UNL A   1      44.727  24.827  26.569  1.00  0.00     0.022 A 
BRANCH  85  89
ATOM     89  S   UNL A   1      45.989  27.028  25.415  1.00  0.00     0.124 S 
ATOM     90  O   UNL A   1      47.203  27.411  26.127  1.00  0.00    -0.237 OA
ATOM     91  O   UNL A   1      46.137  25.979  24.412  1.00  0.00    -0.237 OA
ATOM     92  O   UNL A   1      45.113  28.133  25.033  1.00  0.00    -0.744 OA
ENDBRANCH  85  89
ENDBRANCH  58  82
BRANCH  70  93
ATOM     93  C   UNL A   1      45.903  28.253  35.082  1.00  0.00     0.023 A 
ATOM     94  C   UNL A   1      46.007  27.076  35.846  1.00  0.00     0.031 A 
ATOM     95  C   UNL A   1      46.996  29.138  35.084  1.00  0.00     0.131 A 
ATOM     96  C   UNL A   1      47.145  26.852  36.634  1.00  0.00     0.055 A 
ATOM     97  C   UNL A   1      48.156  28.874  35.813  1.00  0.00     0.041 A 
ATOM     98  F   UNL A   1      46.954  30.279  34.376  1.00  0.00    -0.206 F 
ATOM     99  C   UNL A   1      48.229  27.734  36.607  1.00  0.00     0.022 A 
BRANCH  96 100
ATOM    100  S   UNL A   1      47.144  25.452  37.787  1.00  0.00     0.124 S 
ATOM    101  O   UNL A   1      46.455  24.424  37.013  1.00  0.00    -0.237 OA
ATOM    102  O   UNL A   1      48.568  25.232  38.012  1.00  0.00    -0.237 OA
ATOM    103  O   UNL A   1      46.404  25.958  38.942  1.00  0.00    -0.744 OA
ENDBRANCH  96 100
ENDBRANCH  70  93
ENDBRANCH  44  45
ENDBRANCH  37  39
ENDBRANCH  36  37
ENDBRANCH  35  36
ENDBRANCH  34  35
ENDBRANCH  33  34
ENDBRANCH   1  33
TORSDOF 25
ENDMDL
MODEL 3
REMARK VINA RESULT:     -10.6      1.892      7.466
REMARK SMILES CC(C)C[C@H](NC(=O)CNC(=O)[C@@H](NC(=O)OCc1ccccc1)C(C)C)C(=O)OCCOC(=O)c1ccc(-c2c3nc(c(-c4cc(S(=O)(=O)[O-])ccc4F)c4ccc([nH]4)c(-c4cc(S(=O)(=O)[O-])ccc4F)c4nc(c(-c5cc(S(=O)(=O)[O-])ccc5F)c5ccc2[nH]5)C=C4)C=C3)cc1
REMARK SMILES IDX 28 1 29 2 5 3 4 4 2 5 1 6 3 7 6 8 7 9 8 11 9 12 10 13 11 14
REMARK SMILES IDX 12 16 13 17 14 18 15 19 16 21 17 22 18 23 19 24 20 25 24 26
REMARK SMILES IDX 21 27 23 28 22 29 25 30 26 31 27 32 30 33 31 34 32 35 33 36
REMARK SMILES IDX 34 37 35 38 36 39 37 40 98 41 38 42 97 43 39 44 40 45 41 46
REMARK SMILES IDX 91 47 42 48 96 49 90 50 92 51 43 52 95 53 89 54 88 55 44 57
REMARK SMILES IDX 76 58 56 59 75 60 57 61 60 62 74 63 93 64 58 65 59 66 73 68
REMARK SMILES IDX 94 69 61 70 45 71 46 72 54 73 47 74 53 75 55 76 52 77 48 78
REMARK SMILES IDX 49 79 50 80 51 81 77 82 78 83 86 84 79 85 85 86 87 87 84 88
REMARK SMILES IDX 80 89 81 90 82 91 83 92 62 93 63 94 71 95 64 96 70 97 72 98
REMARK SMILES IDX 69 99 65 100 66 101 67 102 68 103
REMARK H PARENT 6 10 10 15 14 20 92 56 60 67
REMARK Flexibility Score: inf
ROOT
ATOM      1  C   UNL A   1      31.973  29.625  26.524  1.00  0.00     0.328 C 
ATOM      2  O   UNL A   1      31.847  28.649  27.254  1.00  0.00    -0.250 OA
ENDROOT
BRANCH   1   3
ATOM      3  C   UNL A   1      31.812  29.568  25.010  1.00  0.00     0.192 C 
BRANCH   3   4
ATOM      4  C   UNL A   1      30.807  28.457  24.686  1.00  0.00     0.040 C 
BRANCH   4   5
ATOM      5  C   UNL A   1      30.028  28.388  23.354  1.00  0.00    -0.015 C 
ATOM      6  C   UNL A   1      28.791  27.482  23.412  1.00  0.00     0.007 C 
ATOM      7  C   UNL A   1      29.524  29.807  23.031  1.00  0.00     0.007 C 
ENDBRANCH   4   5
ENDBRANCH   3   4
BRANCH   3   8
ATOM      8  N   UNL A   1      33.130  29.499  24.347  1.00  0.00    -0.341 N 
ATOM      9  C   UNL A   1      33.784  28.438  23.788  1.00  0.00     0.240 C 
ATOM     10  H   UNL A   1      33.615  30.355  24.300  1.00  0.00     0.164 HD
ATOM     11  O   UNL A   1      34.456  28.648  22.773  1.00  0.00    -0.273 OA
BRANCH   9  12
ATOM     12  C   UNL A   1      33.720  27.032  24.381  1.00  0.00     0.216 C 
BRANCH  12  13
ATOM     13  N   UNL A   1      33.647  26.019  23.344  1.00  0.00    -0.345 N 
ATOM     14  C   UNL A   1      34.018  24.723  23.239  1.00  0.00     0.243 C 
ATOM     15  H   UNL A   1      33.225  26.357  22.520  1.00  0.00     0.164 HD
ATOM     16  O   UNL A   1      33.787  24.227  22.126  1.00  0.00    -0.273 OA
BRANCH  14  17
ATOM     17  C   UNL A   1      34.722  23.864  24.349  1.00  0.00     0.177 C 
BRANCH  17  18
ATOM     18  N   UNL A   1      33.975  23.606  25.582  1.00  0.00    -0.309 N 
ATOM     19  C   UNL A   1      32.855  22.892  25.851  1.00  0.00     0.408 C 
ATOM     20  H   UNL A   1      34.364  24.040  26.376  1.00  0.00     0.167 HD
ATOM     21  O   UNL A   1      32.303  23.043  26.935  1.00  0.00    -0.225 OA
BRANCH  19  22
ATOM     22  O   UNL A   1      32.444  22.101  24.841  1.00  0.00    -0.445 OA
BRANCH  22  23
ATOM     23  C   UNL A   1      31.962  20.806  25.238  1.00  0.00     0.270 C 
BRANCH  23  24
ATOM     24  C   UNL A   1      32.536  19.650  24.448  1.00  0.00    -0.011 A 
ATOM     25  C   UNL A   1      33.474  18.770  25.006  1.00  0.00     0.007 A 
ATOM     26  C   UNL A   1      32.117  19.439  23.128  1.00  0.00     0.007 A 
ATOM     27  C   UNL A   1      33.935  17.670  24.280  1.00  0.00     0.000 A 
ATOM     28  C   UNL A   1      32.593  18.350  22.396  1.00  0.00     0.000 A 
ATOM     29  C   UNL A   1      33.493  17.460  22.976  1.00  0.00     0.000 A 
ENDBRANCH  23  24
ENDBRANCH  22  23
ENDBRANCH  19  22
ENDBRANCH  17  18
BRANCH  17  30
ATOM     30  C   UNL A   1      35.484  22.645  23.770  1.00  0.00     0.015 C 
ATOM     31  C   UNL A   1      36.800  23.044  23.082  1.00  0.00     0.010 C 
ATOM     32  C   UNL A   1      35.852  21.632  24.863  1.00  0.00     0.010 C 
ENDBRANCH  17  30
ENDBRANCH  14  17
ENDBRANCH  12  13
ENDBRANCH   9  12
ENDBRANCH   3   8
ENDBRANCH   1   3
BRANCH   1  33
ATOM     33  O   UNL A   1      32.385  30.861  26.932  1.00  0.00    -0.461 OA
BRANCH  33  34
ATOM     34  C   UNL A   1      31.478  31.936  26.657  1.00  0.00     0.274 C 
BRANCH  34  35
ATOM     35  C   UNL A   1      32.091  33.301  26.988  1.00  0.00     0.275 C 
BRANCH  35  36
ATOM     36  O   UNL A   1      32.391  33.455  28.390  1.00  0.00    -0.458 OA
BRANCH  36  37
ATOM     37  C   UNL A   1      33.318  34.404  28.684  1.00  0.00     0.338 C 
ATOM     38  O   UNL A   1      33.138  35.612  28.663  1.00  0.00    -0.246 OA
BRANCH  37  39
ATOM     39  C   UNL A   1      34.538  33.784  29.241  1.00  0.00     0.060 A 
ATOM     40  C   UNL A   1      34.403  32.583  29.949  1.00  0.00     0.016 A 
ATOM     41  C   UNL A   1      35.792  34.383  29.115  1.00  0.00     0.016 A 
ATOM     42  C   UNL A   1      35.511  31.972  30.528  1.00  0.00     0.010 A 
ATOM     43  C   UNL A   1      36.903  33.778  29.713  1.00  0.00     0.010 A 
ATOM     44  C   UNL A   1      36.769  32.574  30.430  1.00  0.00    -0.014 A 
BRANCH  44  45
ATOM     45  C   UNL A   1      37.920  31.998  31.170  1.00  0.00     0.031 A 
ATOM     46  C   UNL A   1      38.730  30.907  30.527  1.00  0.00     0.074 A 
ATOM     47  C   UNL A   1      38.256  32.468  32.386  1.00  0.00     0.049 A 
ATOM     48  N   UNL A   1      39.697  30.185  31.027  1.00  0.00    -0.248 NA
ATOM     49  C   UNL A   1      38.396  30.585  29.131  1.00  0.00     0.031 C 
ATOM     50  C   UNL A   1      37.592  33.575  33.074  1.00  0.00     0.029 A 
ATOM     51  N   UNL A   1      39.238  32.073  33.260  1.00  0.00    -0.354 N 
ATOM     52  C   UNL A   1      40.080  29.311  30.016  1.00  0.00     0.074 A 
ATOM     53  C   UNL A   1      39.218  29.575  28.884  1.00  0.00     0.031 C 
ATOM     54  C   UNL A   1      38.182  33.765  34.266  1.00  0.00     0.029 A 
ATOM     55  C   UNL A   1      39.223  32.758  34.452  1.00  0.00     0.049 A 
ATOM     56  H   UNL A   1      39.889  31.365  33.053  1.00  0.00     0.167 HD
ATOM     57  C   UNL A   1      41.064  28.379  30.034  1.00  0.00     0.034 A 
ATOM     58  C   UNL A   1      39.940  32.566  35.579  1.00  0.00     0.034 A 
ATOM     59  C   UNL A   1      41.914  28.134  31.175  1.00  0.00     0.049 A 
ATOM     60  C   UNL A   1      40.961  31.454  35.607  1.00  0.00     0.074 A 
ATOM     61  C   UNL A   1      42.938  27.212  31.305  1.00  0.00     0.029 A 
ATOM     62  N   UNL A   1      41.836  28.810  32.387  1.00  0.00    -0.354 N 
ATOM     63  N   UNL A   1      41.298  30.613  34.655  1.00  0.00    -0.248 NA
ATOM     64  C   UNL A   1      41.702  31.267  36.861  1.00  0.00     0.031 C 
ATOM     65  C   UNL A   1      43.428  27.280  32.613  1.00  0.00     0.029 A 
ATOM     66  C   UNL A   1      42.772  28.304  33.276  1.00  0.00     0.049 A 
ATOM     67  H   UNL A   1      41.208  29.543  32.583  1.00  0.00     0.167 HD
ATOM     68  C   UNL A   1      42.312  29.820  35.188  1.00  0.00     0.074 A 
ATOM     69  C   UNL A   1      42.547  30.300  36.534  1.00  0.00     0.031 C 
ATOM     70  C   UNL A   1      42.988  28.788  34.620  1.00  0.00     0.034 A 
BRANCH  57  71
ATOM     71  C   UNL A   1      41.232  27.518  28.805  1.00  0.00     0.023 A 
ATOM     72  C   UNL A   1      42.253  27.748  27.868  1.00  0.00     0.031 A 
ATOM     73  C   UNL A   1      40.342  26.455  28.562  1.00  0.00     0.131 A 
ATOM     74  C   UNL A   1      42.325  26.966  26.704  1.00  0.00     0.055 A 
ATOM     75  C   UNL A   1      40.467  25.632  27.442  1.00  0.00     0.041 A 
ATOM     76  F   UNL A   1      39.332  26.203  29.408  1.00  0.00    -0.206 F 
ATOM     77  C   UNL A   1      41.455  25.892  26.498  1.00  0.00     0.022 A 
BRANCH  74  78
ATOM     78  S   UNL A   1      43.491  27.450  25.401  1.00  0.00     0.124 S 
ATOM     79  O   UNL A   1      44.208  28.550  26.039  1.00  0.00    -0.237 OA
ATOM     80  O   UNL A   1      44.255  26.225  25.191  1.00  0.00    -0.237 OA
ATOM     81  O   UNL A   1      42.622  27.840  24.292  1.00  0.00    -0.744 OA
ENDBRANCH  74  78
ENDBRANCH  57  71
BRANCH  58  82
ATOM     82  C   UNL A   1      39.687  33.393  36.797  1.00  0.00     0.023 A 
ATOM     83  C   UNL A   1      40.591  34.388  37.202  1.00  0.00     0.031 A 
ATOM     84  C   UNL A   1      38.575  33.142  37.622  1.00  0.00     0.131 A 
ATOM     85  C   UNL A   1      40.402  35.052  38.425  1.00  0.00     0.055 A 
ATOM     86  C   UNL A   1      38.355  33.853  38.803  1.00  0.00     0.041 A 
ATOM     87  F   UNL A   1      37.681  32.197  37.292  1.00  0.00    -0.206 F 
ATOM     88  C   UNL A   1      39.281  34.802  39.220  1.00  0.00     0.022 A 
BRANCH  85  89
ATOM     89  S   UNL A   1      41.706  36.163  39.021  1.00  0.00     0.124 S 
ATOM     90  O   UNL A   1      41.298  36.383  40.404  1.00  0.00    -0.237 OA
ATOM     91  O   UNL A   1      42.905  35.355  38.826  1.00  0.00    -0.237 OA
ATOM     92  O   UNL A   1      41.591  37.324  38.142  1.00  0.00    -0.744 OA
ENDBRANCH  85  89
ENDBRANCH  58  82
BRANCH  70  93
ATOM     93  C   UNL A   1      44.080  28.149  35.446  1.00  0.00     0.023 A 
ATOM     94  C   UNL A   1      45.415  28.585  35.374  1.00  0.00     0.031 A 
ATOM     95  C   UNL A   1      43.784  27.069  36.296  1.00  0.00     0.131 A 
ATOM     96  C   UNL A   1      46.414  27.899  36.083  1.00  0.00     0.055 A 
ATOM     97  C   UNL A   1      44.771  26.436  37.055  1.00  0.00     0.041 A 
ATOM     98  F   UNL A   1      42.527  26.606  36.403  1.00  0.00    -0.206 F 
ATOM     99  C   UNL A   1      46.097  26.840  36.937  1.00  0.00     0.022 A 
BRANCH  96 100
ATOM    100  S   UNL A   1      48.148  28.334  35.782  1.00  0.00     0.124 S 
ATOM    101  O   UNL A   1      48.201  28.381  34.324  1.00  0.00    -0.237 OA
ATOM    102  O   UNL A   1      48.271  29.618  36.465  1.00  0.00    -0.237 OA
ATOM    103  O   UNL A   1      48.890  27.233  36.394  1.00  0.00    -0.744 OA
ENDBRANCH  96 100
ENDBRANCH  70  93
ENDBRANCH  44  45
ENDBRANCH  37  39
ENDBRANCH  36  37
ENDBRANCH  35  36
ENDBRANCH  34  35
ENDBRANCH  33  34
ENDBRANCH   1  33
TORSDOF 25
ENDMDL
