MODEL 1
REMARK VINA RESULT:     -11.6      0.000      0.000
REMARK SMILES COc1ccc(CCn2cc(C(=O)OCCOC(=O)c3ccc(-c4c5nc(c(-c6cc(S(=O)(=O)[O-])ccc6F)c6ccc([nH]6)c(-c6cc(S(=O)(=O)[O-])ccc6F)c6nc(c(-c7cc(S(=O)(=O)[O-])ccc7F)c7ccc4[nH]7)C=C6)C=C5)cc3)ccc2=O)cc1OC
REMARK SMILES IDX 15 1 14 2 12 3 13 4 11 5 9 6 10 7 85 8 84 9 86 10 83 11 8 12
REMARK SMILES IDX 7 13 6 14 3 15 4 16 88 17 5 18 87 19 2 20 1 21 89 22 90 23
REMARK SMILES IDX 16 24 17 25 18 26 19 27 20 28 21 29 82 30 22 31 81 32 23 33
REMARK SMILES IDX 24 34 25 35 75 36 26 37 80 38 74 39 76 40 27 41 79 42 73 43
REMARK SMILES IDX 72 44 28 46 60 47 40 48 59 49 41 50 44 51 58 52 77 53 42 54
REMARK SMILES IDX 43 55 57 57 78 58 45 59 29 60 30 61 38 62 31 63 37 64 39 65
REMARK SMILES IDX 36 66 32 67 33 68 34 69 35 70 61 71 62 72 70 73 63 74 69 75
REMARK SMILES IDX 71 76 68 77 64 78 65 79 66 80 67 81 46 82 47 83 55 84 48 85
REMARK SMILES IDX 54 86 56 87 53 88 49 89 50 90 51 91 52 92
REMARK H PARENT 76 45 44 56
REMARK Flexibility Score: inf
ROOT
ATOM      1  C   UNL A   1      32.108  29.221  25.010  1.00  0.00     0.275 C 
ENDROOT
BRANCH   1   2
ATOM      2  O   UNL A   1      32.291  28.131  25.941  1.00  0.00    -0.458 OA
BRANCH   2   3
ATOM      3  C   UNL A   1      31.877  26.925  25.476  1.00  0.00     0.339 C 
ATOM      4  O   UNL A   1      30.789  26.412  25.713  1.00  0.00    -0.246 OA
BRANCH   3   5
ATOM      5  C   UNL A   1      32.882  26.242  24.621  1.00  0.00     0.076 A 
ATOM      6  N   UNL A   1      34.722  24.745  24.378  1.00  0.00    -0.314 N 
ATOM      7  C   UNL A   1      33.963  25.637  25.142  1.00  0.00     0.104 A 
ATOM      8  C   UNL A   1      34.271  24.303  23.126  1.00  0.00     0.250 A 
ATOM      9  C   UNL A   1      33.257  25.161  22.478  1.00  0.00     0.072 A 
ATOM     10  O   UNL A   1      34.680  23.315  22.527  1.00  0.00    -0.269 OA
ATOM     11  C   UNL A   1      32.617  26.079  23.207  1.00  0.00     0.023 A 
BRANCH   6  12
ATOM     12  C   UNL A   1      35.877  24.083  24.987  1.00  0.00     0.130 C 
BRANCH  12  13
ATOM     13  C   UNL A   1      35.587  23.051  26.098  1.00  0.00     0.057 C 
BRANCH  13  14
ATOM     14  C   UNL A   1      34.707  21.871  25.749  1.00  0.00    -0.042 A 
ATOM     15  C   UNL A   1      32.980  19.819  24.850  1.00  0.00     0.160 A 
ATOM     16  C   UNL A   1      34.369  19.667  24.778  1.00  0.00     0.051 A 
ATOM     17  C   UNL A   1      32.444  20.985  25.411  1.00  0.00     0.160 A 
ATOM     18  C   UNL A   1      35.220  20.692  25.202  1.00  0.00     0.008 A 
ATOM     19  C   UNL A   1      33.314  21.992  25.858  1.00  0.00     0.054 A 
BRANCH  15  20
ATOM     20  O   UNL A   1      32.159  18.804  24.433  1.00  0.00    -0.493 OA
ATOM     21  C   UNL A   1      32.416  17.568  25.106  1.00  0.00     0.278 C 
ENDBRANCH  15  20
BRANCH  17  22
ATOM     22  O   UNL A   1      31.123  21.312  25.585  1.00  0.00    -0.493 OA
ATOM     23  C   UNL A   1      30.827  22.635  26.005  1.00  0.00     0.278 C 
ENDBRANCH  17  22
ENDBRANCH  13  14
ENDBRANCH  12  13
ENDBRANCH   6  12
ENDBRANCH   3   5
ENDBRANCH   2   3
ENDBRANCH   1   2
BRANCH   1  24
ATOM     24  C   UNL A   1      31.634  30.501  25.700  1.00  0.00     0.275 C 
BRANCH  24  25
ATOM     25  O   UNL A   1      32.194  30.607  27.021  1.00  0.00    -0.458 OA
BRANCH  25  26
ATOM     26  C   UNL A   1      32.918  31.727  27.255  1.00  0.00     0.338 C 
ATOM     27  O   UNL A   1      32.530  32.879  27.171  1.00  0.00    -0.246 OA
BRANCH  26  28
ATOM     28  C   UNL A   1      34.291  31.385  27.668  1.00  0.00     0.060 A 
ATOM     29  C   UNL A   1      34.622  30.059  27.924  1.00  0.00     0.016 A 
ATOM     30  C   UNL A   1      35.196  32.396  27.981  1.00  0.00     0.016 A 
ATOM     31  C   UNL A   1      35.781  29.753  28.638  1.00  0.00     0.010 A 
ATOM     32  C   UNL A   1      36.425  32.070  28.569  1.00  0.00     0.010 A 
ATOM     33  C   UNL A   1      36.713  30.749  28.961  1.00  0.00    -0.014 A 
BRANCH  33  34
ATOM     34  C   UNL A   1      37.949  30.425  29.743  1.00  0.00     0.031 A 
ATOM     35  C   UNL A   1      39.036  29.570  29.130  1.00  0.00     0.074 A 
ATOM     36  C   UNL A   1      38.121  30.896  30.995  1.00  0.00     0.049 A 
ATOM     37  N   UNL A   1      40.063  28.992  29.703  1.00  0.00    -0.248 NA
ATOM     38  C   UNL A   1      38.939  29.315  27.685  1.00  0.00     0.031 C 
ATOM     39  C   UNL A   1      37.189  31.770  31.711  1.00  0.00     0.029 A 
ATOM     40  N   UNL A   1      39.148  30.714  31.892  1.00  0.00    -0.354 N 
ATOM     41  C   UNL A   1      40.689  28.246  28.707  1.00  0.00     0.074 A 
ATOM     42  C   UNL A   1      39.920  28.444  27.496  1.00  0.00     0.031 C 
ATOM     43  C   UNL A   1      37.709  32.092  32.904  1.00  0.00     0.029 A 
ATOM     44  C   UNL A   1      38.953  31.357  33.094  1.00  0.00     0.049 A 
ATOM     45  H   UNL A   1      39.947  30.174  31.693  1.00  0.00     0.167 HD
ATOM     46  C   UNL A   1      41.797  27.465  28.797  1.00  0.00     0.034 A 
ATOM     47  C   UNL A   1      39.656  31.322  34.243  1.00  0.00     0.034 A 
ATOM     48  C   UNL A   1      42.591  27.327  29.996  1.00  0.00     0.049 A 
ATOM     49  C   UNL A   1      40.868  30.437  34.329  1.00  0.00     0.074 A 
ATOM     50  C   UNL A   1      43.737  26.573  30.194  1.00  0.00     0.029 A 
ATOM     51  N   UNL A   1      42.334  27.973  31.198  1.00  0.00    -0.354 N 
ATOM     52  N   UNL A   1      41.387  29.657  33.410  1.00  0.00    -0.248 NA
ATOM     53  C   UNL A   1      41.575  30.410  35.616  1.00  0.00     0.031 C 
ATOM     54  C   UNL A   1      44.142  26.724  31.525  1.00  0.00     0.029 A 
ATOM     55  C   UNL A   1      43.287  27.622  32.144  1.00  0.00     0.049 A 
ATOM     56  H   UNL A   1      41.584  28.589  31.358  1.00  0.00     0.167 HD
ATOM     57  C   UNL A   1      42.483  29.046  34.010  1.00  0.00     0.074 A 
ATOM     58  C   UNL A   1      42.566  29.568  35.359  1.00  0.00     0.031 C 
ATOM     59  C   UNL A   1      43.342  28.131  33.493  1.00  0.00     0.034 A 
BRANCH  46  60
ATOM     60  C   UNL A   1      42.172  26.648  27.581  1.00  0.00     0.023 A 
ATOM     61  C   UNL A   1      41.831  25.291  27.452  1.00  0.00     0.031 A 
ATOM     62  C   UNL A   1      42.921  27.238  26.545  1.00  0.00     0.131 A 
ATOM     63  C   UNL A   1      42.303  24.552  26.354  1.00  0.00     0.055 A 
ATOM     64  C   UNL A   1      43.319  26.518  25.417  1.00  0.00     0.041 A 
ATOM     65  F   UNL A   1      43.293  28.526  26.619  1.00  0.00    -0.206 F 
ATOM     66  C   UNL A   1      43.025  25.162  25.325  1.00  0.00     0.022 A 
BRANCH  63  67
ATOM     67  S   UNL A   1      42.088  22.751  26.364  1.00  0.00     0.124 S 
ATOM     68  O   UNL A   1      42.923  22.358  27.497  1.00  0.00    -0.237 OA
ATOM     69  O   UNL A   1      40.649  22.605  26.551  1.00  0.00    -0.237 OA
ATOM     70  O   UNL A   1      42.594  22.337  25.056  1.00  0.00    -0.744 OA
ENDBRANCH  63  67
ENDBRANCH  46  60
BRANCH  47  71
ATOM     71  C   UNL A   1      39.178  32.081  35.434  1.00  0.00     0.023 A 
ATOM     72  C   UNL A   1      38.500  31.438  36.482  1.00  0.00     0.031 A 
ATOM     73  C   UNL A   1      39.386  33.469  35.534  1.00  0.00     0.131 A 
ATOM     74  C   UNL A   1      38.037  32.188  37.574  1.00  0.00     0.055 A 
ATOM     75  C   UNL A   1      38.968  34.201  36.645  1.00  0.00     0.041 A 
ATOM     76  F   UNL A   1      40.028  34.130  34.557  1.00  0.00    -0.206 F 
ATOM     77  C   UNL A   1      38.281  33.561  37.670  1.00  0.00     0.022 A 
BRANCH  74  78
ATOM     78  S   UNL A   1      37.055  31.352  38.850  1.00  0.00     0.124 S 
ATOM     79  O   UNL A   1      35.823  32.133  38.835  1.00  0.00    -0.237 OA
ATOM     80  O   UNL A   1      36.962  29.996  38.321  1.00  0.00    -0.237 OA
ATOM     81  O   UNL A   1      37.870  31.495  40.055  1.00  0.00    -0.744 OA
ENDBRANCH  74  78
ENDBRANCH  47  71
BRANCH  59  82
ATOM     82  C   UNL A   1      44.457  27.668  34.394  1.00  0.00     0.023 A 
ATOM     83  C   UNL A   1      44.318  26.531  35.210  1.00  0.00     0.031 A 
ATOM     84  C   UNL A   1      45.658  28.393  34.463  1.00  0.00     0.131 A 
ATOM     85  C   UNL A   1      45.344  26.181  36.099  1.00  0.00     0.055 A 
ATOM     86  C   UNL A   1      46.696  28.012  35.314  1.00  0.00     0.041 A 
ATOM     87  F   UNL A   1      45.839  29.488  33.708  1.00  0.00    -0.206 F 
ATOM     88  C   UNL A   1      46.538  26.909  36.148  1.00  0.00     0.022 A 
BRANCH  85  89
ATOM     89  S   UNL A   1      45.068  24.812  37.256  1.00  0.00     0.124 S 
ATOM     90  O   UNL A   1      46.362  24.708  37.920  1.00  0.00    -0.237 OA
ATOM     91  O   UNL A   1      43.968  25.312  38.075  1.00  0.00    -0.237 OA
ATOM     92  O   UNL A   1      44.728  23.689  36.383  1.00  0.00    -0.744 OA
ENDBRANCH  85  89
ENDBRANCH  59  82
ENDBRANCH  33  34
ENDBRANCH  26  28
ENDBRANCH  25  26
ENDBRANCH  24  25
ENDBRANCH   1  24
TORSDOF 19
ENDMDL
MODEL 2
REMARK VINA RESULT:     -11.3      1.867      2.116
REMARK SMILES COc1ccc(CCn2cc(C(=O)OCCOC(=O)c3ccc(-c4c5nc(c(-c6cc(S(=O)(=O)[O-])ccc6F)c6ccc([nH]6)c(-c6cc(S(=O)(=O)[O-])ccc6F)c6nc(c(-c7cc(S(=O)(=O)[O-])ccc7F)c7ccc4[nH]7)C=C6)C=C5)cc3)ccc2=O)cc1OC
REMARK SMILES IDX 15 1 14 2 12 3 13 4 11 5 9 6 10 7 85 8 84 9 86 10 83 11 8 12
REMARK SMILES IDX 7 13 6 14 3 15 4 16 88 17 5 18 87 19 2 20 1 21 89 22 90 23
REMARK SMILES IDX 16 24 17 25 18 26 19 27 20 28 21 29 82 30 22 31 81 32 23 33
REMARK SMILES IDX 24 34 25 35 75 36 26 37 80 38 74 39 76 40 27 41 79 42 73 43
REMARK SMILES IDX 72 44 28 46 60 47 40 48 59 49 41 50 44 51 58 52 77 53 42 54
REMARK SMILES IDX 43 55 57 57 78 58 45 59 29 60 30 61 38 62 31 63 37 64 39 65
REMARK SMILES IDX 36 66 32 67 33 68 34 69 35 70 61 71 62 72 70 73 63 74 69 75
REMARK SMILES IDX 71 76 68 77 64 78 65 79 66 80 67 81 46 82 47 83 55 84 48 85
REMARK SMILES IDX 54 86 56 87 53 88 49 89 50 90 51 91 52 92
REMARK H PARENT 76 45 44 56
REMARK Flexibility Score: inf
ROOT
ATOM      1  C   UNL A   1      32.228  29.319  24.978  1.00  0.00     0.275 C 
ENDROOT
BRANCH   1   2
ATOM      2  O   UNL A   1      32.566  28.217  25.851  1.00  0.00    -0.458 OA
BRANCH   2   3
ATOM      3  C   UNL A   1      32.030  27.026  25.480  1.00  0.00     0.339 C 
ATOM      4  O   UNL A   1      30.979  26.562  25.904  1.00  0.00    -0.246 OA
BRANCH   3   5
ATOM      5  C   UNL A   1      32.847  26.296  24.477  1.00  0.00     0.076 A 
ATOM      6  N   UNL A   1      34.539  24.702  23.945  1.00  0.00    -0.314 N 
ATOM      7  C   UNL A   1      33.963  25.630  24.819  1.00  0.00     0.104 A 
ATOM      8  C   UNL A   1      33.871  24.293  22.783  1.00  0.00     0.250 A 
ATOM      9  C   UNL A   1      32.815  25.209  22.304  1.00  0.00     0.072 A 
ATOM     10  O   UNL A   1      34.124  23.288  22.129  1.00  0.00    -0.269 OA
ATOM     11  C   UNL A   1      32.351  26.156  23.123  1.00  0.00     0.023 A 
BRANCH   6  12
ATOM     12  C   UNL A   1      35.739  23.974  24.364  1.00  0.00     0.130 C 
BRANCH  12  13
ATOM     13  C   UNL A   1      35.603  23.047  25.590  1.00  0.00     0.057 C 
BRANCH  13  14
ATOM     14  C   UNL A   1      34.736  21.816  25.447  1.00  0.00    -0.042 A 
ATOM     15  C   UNL A   1      33.008  19.638  24.926  1.00  0.00     0.160 A 
ATOM     16  C   UNL A   1      34.390  19.509  24.756  1.00  0.00     0.051 A 
ATOM     17  C   UNL A   1      32.482  20.847  25.397  1.00  0.00     0.160 A 
ATOM     18  C   UNL A   1      35.240  20.594  24.993  1.00  0.00     0.008 A 
ATOM     19  C   UNL A   1      33.353  21.917  25.657  1.00  0.00     0.054 A 
BRANCH  15  20
ATOM     20  O   UNL A   1      32.189  18.564  24.693  1.00  0.00    -0.493 OA
ATOM     21  C   UNL A   1      32.532  17.419  25.479  1.00  0.00     0.278 C 
ENDBRANCH  15  20
BRANCH  17  22
ATOM     22  O   UNL A   1      31.170  21.162  25.643  1.00  0.00    -0.493 OA
ATOM     23  C   UNL A   1      30.854  22.529  25.855  1.00  0.00     0.278 C 
ENDBRANCH  17  22
ENDBRANCH  13  14
ENDBRANCH  12  13
ENDBRANCH   6  12
ENDBRANCH   3   5
ENDBRANCH   2   3
ENDBRANCH   1   2
BRANCH   1  24
ATOM     24  C   UNL A   1      31.675  30.519  25.747  1.00  0.00     0.275 C 
BRANCH  24  25
ATOM     25  O   UNL A   1      32.261  30.601  27.058  1.00  0.00    -0.458 OA
BRANCH  25  26
ATOM     26  C   UNL A   1      32.996  31.713  27.296  1.00  0.00     0.338 C 
ATOM     27  O   UNL A   1      32.617  32.869  27.222  1.00  0.00    -0.246 OA
BRANCH  26  28
ATOM     28  C   UNL A   1      34.368  31.356  27.699  1.00  0.00     0.060 A 
ATOM     29  C   UNL A   1      34.688  30.027  27.950  1.00  0.00     0.016 A 
ATOM     30  C   UNL A   1      35.285  32.357  28.007  1.00  0.00     0.016 A 
ATOM     31  C   UNL A   1      35.848  29.707  28.654  1.00  0.00     0.010 A 
ATOM     32  C   UNL A   1      36.515  32.018  28.586  1.00  0.00     0.010 A 
ATOM     33  C   UNL A   1      36.793  30.693  28.973  1.00  0.00    -0.014 A 
BRANCH  33  34
ATOM     34  C   UNL A   1      38.031  30.355  29.745  1.00  0.00     0.031 A 
ATOM     35  C   UNL A   1      39.089  29.463  29.136  1.00  0.00     0.074 A 
ATOM     36  C   UNL A   1      38.229  30.845  30.987  1.00  0.00     0.049 A 
ATOM     37  N   UNL A   1      40.110  28.872  29.707  1.00  0.00    -0.248 NA
ATOM     38  C   UNL A   1      38.968  29.183  27.697  1.00  0.00     0.031 C 
ATOM     39  C   UNL A   1      37.328  31.755  31.697  1.00  0.00     0.029 A 
ATOM     40  N   UNL A   1      39.264  30.656  31.873  1.00  0.00    -0.354 N 
ATOM     41  C   UNL A   1      40.706  28.093  28.718  1.00  0.00     0.074 A 
ATOM     42  C   UNL A   1      39.926  28.285  27.513  1.00  0.00     0.031 C 
ATOM     43  C   UNL A   1      37.870  32.087  32.877  1.00  0.00     0.029 A 
ATOM     44  C   UNL A   1      39.099  31.327  33.065  1.00  0.00     0.049 A 
ATOM     45  H   UNL A   1      40.047  30.094  31.676  1.00  0.00     0.167 HD
ATOM     46  C   UNL A   1      41.796  27.288  28.809  1.00  0.00     0.034 A 
ATOM     47  C   UNL A   1      39.816  31.297  34.206  1.00  0.00     0.034 A 
ATOM     48  C   UNL A   1      42.602  27.154  30.000  1.00  0.00     0.049 A 
ATOM     49  C   UNL A   1      41.008  30.385  34.294  1.00  0.00     0.074 A 
ATOM     50  C   UNL A   1      43.732  26.377  30.198  1.00  0.00     0.029 A 
ATOM     51  N   UNL A   1      42.376  27.829  31.193  1.00  0.00    -0.354 N 
ATOM     52  N   UNL A   1      41.497  29.576  33.384  1.00  0.00    -0.248 NA
ATOM     53  C   UNL A   1      41.731  30.366  35.573  1.00  0.00     0.031 C 
ATOM     54  C   UNL A   1      44.158  26.544  31.522  1.00  0.00     0.029 A 
ATOM     55  C   UNL A   1      43.332  27.473  32.133  1.00  0.00     0.049 A 
ATOM     56  H   UNL A   1      41.642  28.465  31.350  1.00  0.00     0.167 HD
ATOM     57  C   UNL A   1      42.586  28.951  33.982  1.00  0.00     0.074 A 
ATOM     58  C   UNL A   1      42.698  29.497  35.319  1.00  0.00     0.031 C 
ATOM     59  C   UNL A   1      43.416  28.007  33.472  1.00  0.00     0.034 A 
BRANCH  46  60
ATOM     60  C   UNL A   1      42.136  26.440  27.605  1.00  0.00     0.023 A 
ATOM     61  C   UNL A   1      41.706  25.108  27.476  1.00  0.00     0.031 A 
ATOM     62  C   UNL A   1      42.942  26.971  26.579  1.00  0.00     0.131 A 
ATOM     63  C   UNL A   1      42.146  24.332  26.391  1.00  0.00     0.055 A 
ATOM     64  C   UNL A   1      43.310  26.218  25.462  1.00  0.00     0.041 A 
ATOM     65  F   UNL A   1      43.399  28.231  26.653  1.00  0.00    -0.206 F 
ATOM     66  C   UNL A   1      42.926  24.884  25.372  1.00  0.00     0.022 A 
BRANCH  63  67
ATOM     67  S   UNL A   1      41.809  22.549  26.406  1.00  0.00     0.124 S 
ATOM     68  O   UNL A   1      42.337  22.158  27.712  1.00  0.00    -0.237 OA
ATOM     69  O   UNL A   1      40.358  22.500  26.265  1.00  0.00    -0.237 OA
ATOM     70  O   UNL A   1      42.566  22.046  25.262  1.00  0.00    -0.744 OA
ENDBRANCH  63  67
ENDBRANCH  46  60
BRANCH  47  71
ATOM     71  C   UNL A   1      39.371  32.089  35.388  1.00  0.00     0.023 A 
ATOM     72  C   UNL A   1      39.789  33.417  35.571  1.00  0.00     0.031 A 
ATOM     73  C   UNL A   1      38.525  31.522  36.358  1.00  0.00     0.131 A 
ATOM     74  C   UNL A   1      39.376  34.125  36.711  1.00  0.00     0.055 A 
ATOM     75  C   UNL A   1      38.077  32.247  37.462  1.00  0.00     0.041 A 
ATOM     76  F   UNL A   1      38.098  30.255  36.229  1.00  0.00    -0.206 F 
ATOM     77  C   UNL A   1      38.510  33.555  37.648  1.00  0.00     0.022 A 
BRANCH  74  78
ATOM     78  S   UNL A   1      40.034  35.793  36.985  1.00  0.00     0.124 S 
ATOM     79  O   UNL A   1      39.327  36.197  38.195  1.00  0.00    -0.237 OA
ATOM     80  O   UNL A   1      41.463  35.535  37.132  1.00  0.00    -0.237 OA
ATOM     81  O   UNL A   1      39.655  36.513  35.771  1.00  0.00    -0.744 OA
ENDBRANCH  74  78
ENDBRANCH  47  71
BRANCH  59  82
ATOM     82  C   UNL A   1      44.532  27.535  34.368  1.00  0.00     0.023 A 
ATOM     83  C   UNL A   1      45.784  28.174  34.379  1.00  0.00     0.031 A 
ATOM     84  C   UNL A   1      44.350  26.413  35.194  1.00  0.00     0.131 A 
ATOM     85  C   UNL A   1      46.825  27.654  35.162  1.00  0.00     0.055 A 
ATOM     86  C   UNL A   1      45.375  25.930  36.008  1.00  0.00     0.041 A 
ATOM     87  F   UNL A   1      43.174  25.766  35.217  1.00  0.00    -0.206 F 
ATOM     88  C   UNL A   1      46.625  26.542  35.986  1.00  0.00     0.022 A 
BRANCH  85  89
ATOM     89  S   UNL A   1      48.474  28.398  35.027  1.00  0.00     0.124 S 
ATOM     90  O   UNL A   1      48.179  29.681  34.399  1.00  0.00    -0.237 OA
ATOM     91  O   UNL A   1      48.907  28.453  36.420  1.00  0.00    -0.237 OA
ATOM     92  O   UNL A   1      49.209  27.452  34.188  1.00  0.00    -0.744 OA
ENDBRANCH  85  89
ENDBRANCH  59  82
ENDBRANCH  33  34
ENDBRANCH  26  28
ENDBRANCH  25  26
ENDBRANCH  24  25
ENDBRANCH   1  24
TORSDOF 19
ENDMDL
MODEL 3
REMARK VINA RESULT:     -11.3      5.016     10.350
REMARK SMILES COc1ccc(CCn2cc(C(=O)OCCOC(=O)c3ccc(-c4c5nc(c(-c6cc(S(=O)(=O)[O-])ccc6F)c6ccc([nH]6)c(-c6cc(S(=O)(=O)[O-])ccc6F)c6nc(c(-c7cc(S(=O)(=O)[O-])ccc7F)c7ccc4[nH]7)C=C6)C=C5)cc3)ccc2=O)cc1OC
REMARK SMILES IDX 15 1 14 2 12 3 13 4 11 5 9 6 10 7 85 8 84 9 86 10 83 11 8 12
REMARK SMILES IDX 7 13 6 14 3 15 4 16 88 17 5 18 87 19 2 20 1 21 89 22 90 23
REMARK SMILES IDX 16 24 17 25 18 26 19 27 20 28 21 29 82 30 22 31 81 32 23 33
REMARK SMILES IDX 24 34 25 35 75 36 26 37 80 38 74 39 76 40 27 41 79 42 73 43
REMARK SMILES IDX 72 44 28 46 60 47 40 48 59 49 41 50 44 51 58 52 77 53 42 54
REMARK SMILES IDX 43 55 57 57 78 58 45 59 29 60 30 61 38 62 31 63 37 64 39 65
REMARK SMILES IDX 36 66 32 67 33 68 34 69 35 70 61 71 62 72 70 73 63 74 69 75
REMARK SMILES IDX 71 76 68 77 64 78 65 79 66 80 67 81 46 82 47 83 55 84 48 85
REMARK SMILES IDX 54 86 56 87 53 88 49 89 50 90 51 91 52 92
REMARK H PARENT 76 45 44 56
REMARK Flexibility Score: inf
ROOT
ATOM      1  C   UNL A   1      36.073  19.684  24.991  1.00  0.00     0.275 C 
ENDROOT
BRANCH   1   2
ATOM      2  O   UNL A   1      35.144  20.712  25.403  1.00  0.00    -0.458 OA
BRANCH   2   3
ATOM      3  C   UNL A   1      33.986  20.734  24.695  1.00  0.00     0.339 C 
ATOM      4  O   UNL A   1      33.355  19.744  24.343  1.00  0.00    -0.246 OA
BRANCH   3   5
ATOM      5  C   UNL A   1      33.519  22.105  24.364  1.00  0.00     0.076 A 
ATOM      6  N   UNL A   1      33.229  24.396  24.959  1.00  0.00    -0.314 N 
ATOM      7  C   UNL A   1      33.360  23.048  25.308  1.00  0.00     0.104 A 
ATOM      8  C   UNL A   1      33.457  24.826  23.645  1.00  0.00     0.250 A 
ATOM      9  C   UNL A   1      33.362  23.777  22.608  1.00  0.00     0.072 A 
ATOM     10  O   UNL A   1      33.674  25.981  23.298  1.00  0.00    -0.269 OA
ATOM     11  C   UNL A   1      33.385  22.493  22.975  1.00  0.00     0.023 A 
BRANCH   6  12
ATOM     12  C   UNL A   1      33.085  25.398  26.016  1.00  0.00     0.130 C 
BRANCH  12  13
ATOM     13  C   UNL A   1      31.653  25.880  26.333  1.00  0.00     0.057 C 
BRANCH  13  14
ATOM     14  C   UNL A   1      31.072  26.977  25.470  1.00  0.00    -0.042 A 
ATOM     15  C   UNL A   1      30.262  29.058  23.733  1.00  0.00     0.160 A 
ATOM     16  C   UNL A   1      29.865  27.737  23.500  1.00  0.00     0.051 A 
ATOM     17  C   UNL A   1      31.037  29.354  24.862  1.00  0.00     0.160 A 
ATOM     18  C   UNL A   1      30.285  26.707  24.347  1.00  0.00     0.008 A 
ATOM     19  C   UNL A   1      31.426  28.311  25.718  1.00  0.00     0.054 A 
BRANCH  15  20
ATOM     20  O   UNL A   1      29.839  30.056  22.896  1.00  0.00    -0.493 OA
ATOM     21  C   UNL A   1      28.421  30.242  22.920  1.00  0.00     0.278 C 
ENDBRANCH  15  20
BRANCH  17  22
ATOM     22  O   UNL A   1      31.507  30.576  25.270  1.00  0.00    -0.493 OA
ATOM     23  C   UNL A   1      32.207  30.629  26.504  1.00  0.00     0.278 C 
ENDBRANCH  17  22
ENDBRANCH  13  14
ENDBRANCH  12  13
ENDBRANCH   6  12
ENDBRANCH   3   5
ENDBRANCH   2   3
ENDBRANCH   1   2
BRANCH   1  24
ATOM     24  C   UNL A   1      37.394  20.264  24.484  1.00  0.00     0.275 C 
BRANCH  24  25
ATOM     25  O   UNL A   1      37.833  21.346  25.324  1.00  0.00    -0.458 OA
BRANCH  25  26
ATOM     26  C   UNL A   1      39.032  21.162  25.926  1.00  0.00     0.338 C 
ATOM     27  O   UNL A   1      39.708  20.148  25.915  1.00  0.00    -0.246 OA
BRANCH  26  28
ATOM     28  C   UNL A   1      39.467  22.392  26.612  1.00  0.00     0.060 A 
ATOM     29  C   UNL A   1      38.976  23.624  26.192  1.00  0.00     0.016 A 
ATOM     30  C   UNL A   1      40.499  22.341  27.545  1.00  0.00     0.016 A 
ATOM     31  C   UNL A   1      39.619  24.800  26.576  1.00  0.00     0.010 A 
ATOM     32  C   UNL A   1      41.047  23.533  28.039  1.00  0.00     0.010 A 
ATOM     33  C   UNL A   1      40.657  24.780  27.518  1.00  0.00    -0.014 A 
BRANCH  33  34
ATOM     34  C   UNL A   1      41.360  26.041  27.918  1.00  0.00     0.031 A 
ATOM     35  C   UNL A   1      40.640  27.089  28.737  1.00  0.00     0.074 A 
ATOM     36  C   UNL A   1      42.645  26.259  27.568  1.00  0.00     0.049 A 
ATOM     37  N   UNL A   1      40.983  28.328  28.991  1.00  0.00    -0.248 NA
ATOM     38  C   UNL A   1      39.352  26.695  29.328  1.00  0.00     0.031 C 
ATOM     39  C   UNL A   1      43.494  25.329  26.821  1.00  0.00     0.029 A 
ATOM     40  N   UNL A   1      43.472  27.333  27.804  1.00  0.00    -0.354 N 
ATOM     41  C   UNL A   1      39.922  28.882  29.704  1.00  0.00     0.074 A 
ATOM     42  C   UNL A   1      38.924  27.842  29.836  1.00  0.00     0.031 C 
ATOM     43  C   UNL A   1      44.726  25.842  26.709  1.00  0.00     0.029 A 
ATOM     44  C   UNL A   1      44.732  27.188  27.270  1.00  0.00     0.049 A 
ATOM     45  H   UNL A   1      43.189  28.130  28.307  1.00  0.00     0.167 HD
ATOM     46  C   UNL A   1      39.792  30.141  30.196  1.00  0.00     0.034 A 
ATOM     47  C   UNL A   1      45.764  28.050  27.182  1.00  0.00     0.034 A 
ATOM     48  C   UNL A   1      40.822  31.150  30.113  1.00  0.00     0.049 A 
ATOM     49  C   UNL A   1      45.594  29.446  27.716  1.00  0.00     0.074 A 
ATOM     50  C   UNL A   1      40.800  32.452  30.587  1.00  0.00     0.029 A 
ATOM     51  N   UNL A   1      42.071  30.965  29.532  1.00  0.00    -0.354 N 
ATOM     52  N   UNL A   1      44.547  29.986  28.294  1.00  0.00    -0.248 NA
ATOM     53  C   UNL A   1      46.738  30.355  27.562  1.00  0.00     0.031 C 
ATOM     54  C   UNL A   1      42.012  33.067  30.250  1.00  0.00     0.029 A 
ATOM     55  C   UNL A   1      42.817  32.132  29.620  1.00  0.00     0.049 A 
ATOM     56  H   UNL A   1      42.380  30.129  29.116  1.00  0.00     0.167 HD
ATOM     57  C   UNL A   1      44.908  31.300  28.574  1.00  0.00     0.074 A 
ATOM     58  C   UNL A   1      46.276  31.462  28.126  1.00  0.00     0.031 C 
ATOM     59  C   UNL A   1      44.171  32.286  29.146  1.00  0.00     0.034 A 
BRANCH  46  60
ATOM     60  C   UNL A   1      38.461  30.514  30.808  1.00  0.00     0.023 A 
ATOM     61  C   UNL A   1      37.461  31.185  30.083  1.00  0.00     0.031 A 
ATOM     62  C   UNL A   1      38.205  30.220  32.162  1.00  0.00     0.131 A 
ATOM     63  C   UNL A   1      36.289  31.607  30.733  1.00  0.00     0.055 A 
ATOM     64  C   UNL A   1      37.004  30.572  32.781  1.00  0.00     0.041 A 
ATOM     65  F   UNL A   1      39.128  29.597  32.911  1.00  0.00    -0.206 F 
ATOM     66  C   UNL A   1      36.045  31.285  32.071  1.00  0.00     0.022 A 
BRANCH  63  67
ATOM     67  S   UNL A   1      35.155  32.712  29.847  1.00  0.00     0.124 S 
ATOM     68  O   UNL A   1      36.085  33.632  29.197  1.00  0.00    -0.237 OA
ATOM     69  O   UNL A   1      34.445  31.794  28.964  1.00  0.00    -0.237 OA
ATOM     70  O   UNL A   1      34.349  33.304  30.913  1.00  0.00    -0.744 OA
ENDBRANCH  63  67
ENDBRANCH  46  60
BRANCH  47  71
ATOM     71  C   UNL A   1      47.018  27.647  26.484  1.00  0.00     0.023 A 
ATOM     72  C   UNL A   1      47.179  27.852  25.104  1.00  0.00     0.031 A 
ATOM     73  C   UNL A   1      48.072  27.039  27.190  1.00  0.00     0.131 A 
ATOM     74  C   UNL A   1      48.360  27.433  24.472  1.00  0.00     0.055 A 
ATOM     75  C   UNL A   1      49.263  26.670  26.566  1.00  0.00     0.041 A 
ATOM     76  F   UNL A   1      47.966  26.820  28.511  1.00  0.00    -0.206 F 
ATOM     77  C   UNL A   1      49.409  26.859  25.196  1.00  0.00     0.022 A 
BRANCH  74  78
ATOM     78  S   UNL A   1      48.488  27.595  22.670  1.00  0.00     0.124 S 
ATOM     79  O   UNL A   1      48.550  26.199  22.250  1.00  0.00    -0.237 OA
ATOM     80  O   UNL A   1      47.260  28.311  22.342  1.00  0.00    -0.237 OA
ATOM     81  O   UNL A   1      49.721  28.358  22.483  1.00  0.00    -0.744 OA
ENDBRANCH  74  78
ENDBRANCH  47  71
BRANCH  59  82
ATOM     82  C   UNL A   1      44.857  33.614  29.338  1.00  0.00     0.023 A 
ATOM     83  C   UNL A   1      44.795  34.620  28.357  1.00  0.00     0.031 A 
ATOM     84  C   UNL A   1      45.607  33.862  30.499  1.00  0.00     0.131 A 
ATOM     85  C   UNL A   1      45.517  35.810  28.533  1.00  0.00     0.055 A 
ATOM     86  C   UNL A   1      46.283  35.067  30.691  1.00  0.00     0.041 A 
ATOM     87  F   UNL A   1      45.700  32.932  31.463  1.00  0.00    -0.206 F 
ATOM     88  C   UNL A   1      46.252  36.044  29.700  1.00  0.00     0.022 A 
BRANCH  85  89
ATOM     89  S   UNL A   1      45.554  37.016  27.179  1.00  0.00     0.124 S 
ATOM     90  O   UNL A   1      44.143  37.116  26.822  1.00  0.00    -0.237 OA
ATOM     91  O   UNL A   1      46.133  38.191  27.824  1.00  0.00    -0.237 OA
ATOM     92  O   UNL A   1      46.405  36.379  26.176  1.00  0.00    -0.744 OA
ENDBRANCH  85  89
ENDBRANCH  59  82
ENDBRANCH  33  34
ENDBRANCH  26  28
ENDBRANCH  25  26
ENDBRANCH  24  25
ENDBRANCH   1  24
TORSDOF 19
ENDMDL
