MODEL 1
REMARK VINA RESULT:     -13.0      0.000      0.000
REMARK SMILES O=C(OCCOC(=O)[C@H]1[C@H]2CC[C@H](C2)[C@@H]1C(=O)N1CCN(c2cccc(Cl)c2)CC1)c1ccc(-c2c3nc(c(-c4cc(S(=O)(=O)[O-])ccc4F)c4ccc([nH]4)c(-c4cc(S(=O)(=O)[O-])ccc4F)c4nc(c(-c5cc(S(=O)(=O)[O-])ccc5F)c5ccc2[nH]5)C=C4)C=C3)cc1
REMARK SMILES IDX 4 1 3 2 2 3 1 4 31 5 32 6 93 7 33 8 92 9 34 10 35 11 36 12
REMARK SMILES IDX 86 13 37 14 91 15 85 16 87 17 38 18 90 19 84 20 83 21 39 23
REMARK SMILES IDX 71 24 51 25 70 26 52 27 55 28 69 29 88 30 53 31 54 32 68 34
REMARK SMILES IDX 89 35 56 36 40 37 41 38 49 39 42 40 48 41 50 42 47 43 43 44
REMARK SMILES IDX 44 45 45 46 46 47 72 48 73 49 81 50 74 51 80 52 82 53 79 54
REMARK SMILES IDX 75 55 76 56 77 57 78 58 57 59 58 60 66 61 59 62 65 63 67 64
REMARK SMILES IDX 64 65 60 66 61 67 62 68 63 69 5 70 6 71 7 72 8 73 9 74 10 75
REMARK SMILES IDX 15 76 11 77 14 78 13 79 12 80 16 81 17 82 18 83 19 84 30 85
REMARK SMILES IDX 20 86 29 87 21 88 22 89 23 90 28 91 24 92 26 93 25 94 27 95
REMARK H PARENT 87 22 55 33
REMARK Flexibility Score: inf
ROOT
ATOM      1  C   UNL A   1      32.264  32.879  26.858  1.00  0.00     0.275 C 
ENDROOT
BRANCH   1   2
ATOM      2  O   UNL A   1      32.519  33.729  27.982  1.00  0.00    -0.458 OA
BRANCH   2   3
ATOM      3  C   UNL A   1      33.699  34.257  28.383  1.00  0.00     0.338 C 
ATOM      4  O   UNL A   1      33.855  35.475  28.312  1.00  0.00    -0.246 OA
BRANCH   3   5
ATOM      5  C   UNL A   1      34.877  33.399  28.721  1.00  0.00     0.060 A 
ATOM      6  C   UNL A   1      36.180  33.530  28.225  1.00  0.00     0.016 A 
ATOM      7  C   UNL A   1      34.642  32.405  29.672  1.00  0.00     0.016 A 
ATOM      8  C   UNL A   1      37.249  32.805  28.776  1.00  0.00     0.010 A 
ATOM      9  C   UNL A   1      35.703  31.684  30.218  1.00  0.00     0.010 A 
ATOM     10  C   UNL A   1      37.026  31.891  29.802  1.00  0.00    -0.014 A 
BRANCH  10  11
ATOM     11  C   UNL A   1      38.098  31.004  30.335  1.00  0.00     0.031 A 
ATOM     12  C   UNL A   1      38.729  31.399  31.646  1.00  0.00     0.074 A 
ATOM     13  C   UNL A   1      38.557  29.923  29.667  1.00  0.00     0.049 A 
ATOM     14  N   UNL A   1      39.802  30.936  32.231  1.00  0.00    -0.248 NA
ATOM     15  C   UNL A   1      38.063  32.488  32.384  1.00  0.00     0.031 C 
ATOM     16  C   UNL A   1      38.038  29.391  28.402  1.00  0.00     0.029 A 
ATOM     17  N   UNL A   1      39.634  29.108  29.937  1.00  0.00    -0.354 N 
ATOM     18  C   UNL A   1      39.901  31.648  33.421  1.00  0.00     0.074 A 
ATOM     19  C   UNL A   1      38.908  32.695  33.377  1.00  0.00     0.031 C 
ATOM     20  C   UNL A   1      38.865  28.425  27.953  1.00  0.00     0.029 A 
ATOM     21  C   UNL A   1      39.958  28.256  28.902  1.00  0.00     0.049 A 
ATOM     22  H   UNL A   1      40.125  29.133  30.789  1.00  0.00     0.167 HD
ATOM     23  C   UNL A   1      40.661  31.381  34.511  1.00  0.00     0.034 A 
ATOM     24  C   UNL A   1      41.045  27.479  28.733  1.00  0.00     0.034 A 
ATOM     25  C   UNL A   1      41.636  30.330  34.557  1.00  0.00     0.049 A 
ATOM     26  C   UNL A   1      42.063  27.383  29.840  1.00  0.00     0.074 A 
ATOM     27  C   UNL A   1      42.392  29.893  35.628  1.00  0.00     0.029 A 
ATOM     28  N   UNL A   1      42.001  29.559  33.465  1.00  0.00    -0.354 N 
ATOM     29  N   UNL A   1      42.115  28.028  30.978  1.00  0.00    -0.248 NA
ATOM     30  C   UNL A   1      43.151  26.415  29.637  1.00  0.00     0.031 C 
ATOM     31  C   UNL A   1      43.252  28.889  35.171  1.00  0.00     0.029 A 
ATOM     32  C   UNL A   1      42.988  28.660  33.831  1.00  0.00     0.049 A 
ATOM     33  H   UNL A   1      41.614  29.638  32.563  1.00  0.00     0.167 HD
ATOM     34  C   UNL A   1      43.190  27.473  31.667  1.00  0.00     0.074 A 
ATOM     35  C   UNL A   1      43.801  26.501  30.786  1.00  0.00     0.031 C 
ATOM     36  C   UNL A   1      43.589  27.700  32.942  1.00  0.00     0.034 A 
BRANCH  23  37
ATOM     37  C   UNL A   1      40.382  32.209  35.738  1.00  0.00     0.023 A 
ATOM     38  C   UNL A   1      39.288  31.901  36.569  1.00  0.00     0.031 A 
ATOM     39  C   UNL A   1      41.140  33.348  36.042  1.00  0.00     0.131 A 
ATOM     40  C   UNL A   1      38.907  32.784  37.586  1.00  0.00     0.055 A 
ATOM     41  C   UNL A   1      40.812  34.175  37.120  1.00  0.00     0.041 A 
ATOM     42  F   UNL A   1      42.187  33.698  35.279  1.00  0.00    -0.206 F 
ATOM     43  C   UNL A   1      39.678  33.908  37.885  1.00  0.00     0.022 A 
BRANCH  40  44
ATOM     44  S   UNL A   1      37.300  32.528  38.386  1.00  0.00     0.124 S 
ATOM     45  O   UNL A   1      36.405  33.259  37.491  1.00  0.00    -0.237 OA
ATOM     46  O   UNL A   1      37.165  31.076  38.373  1.00  0.00    -0.237 OA
ATOM     47  O   UNL A   1      37.477  33.127  39.707  1.00  0.00    -0.744 OA
ENDBRANCH  40  44
ENDBRANCH  23  37
BRANCH  24  48
ATOM     48  C   UNL A   1      41.368  26.799  27.450  1.00  0.00     0.023 A 
ATOM     49  C   UNL A   1      41.362  25.403  27.307  1.00  0.00     0.031 A 
ATOM     50  C   UNL A   1      41.976  27.571  26.447  1.00  0.00     0.131 A 
ATOM     51  C   UNL A   1      41.999  24.824  26.192  1.00  0.00     0.055 A 
ATOM     52  C   UNL A   1      42.576  26.987  25.334  1.00  0.00     0.041 A 
ATOM     53  F   UNL A   1      42.075  28.900  26.598  1.00  0.00    -0.206 F 
ATOM     54  C   UNL A   1      42.589  25.607  25.197  1.00  0.00     0.022 A 
BRANCH  51  55
ATOM     55  S   UNL A   1      42.177  23.019  26.115  1.00  0.00     0.124 S 
ATOM     56  O   UNL A   1      42.865  22.851  24.836  1.00  0.00    -0.237 OA
ATOM     57  O   UNL A   1      42.955  22.729  27.306  1.00  0.00    -0.237 OA
ATOM     58  O   UNL A   1      40.792  22.541  26.144  1.00  0.00    -0.744 OA
ENDBRANCH  51  55
ENDBRANCH  24  48
BRANCH  36  59
ATOM     59  C   UNL A   1      44.632  26.771  33.494  1.00  0.00     0.023 A 
ATOM     60  C   UNL A   1      44.314  25.520  34.045  1.00  0.00     0.031 A 
ATOM     61  C   UNL A   1      45.978  27.185  33.504  1.00  0.00     0.131 A 
ATOM     62  C   UNL A   1      45.326  24.748  34.632  1.00  0.00     0.055 A 
ATOM     63  C   UNL A   1      46.988  26.384  34.030  1.00  0.00     0.041 A 
ATOM     64  F   UNL A   1      46.326  28.383  33.006  1.00  0.00    -0.206 F 
ATOM     65  C   UNL A   1      46.662  25.161  34.609  1.00  0.00     0.022 A 
BRANCH  62  66
ATOM     66  S   UNL A   1      44.863  23.236  35.517  1.00  0.00     0.124 S 
ATOM     67  O   UNL A   1      45.340  23.517  36.866  1.00  0.00    -0.237 OA
ATOM     68  O   UNL A   1      43.413  23.205  35.347  1.00  0.00    -0.237 OA
ATOM     69  O   UNL A   1      45.591  22.186  34.807  1.00  0.00    -0.744 OA
ENDBRANCH  62  66
ENDBRANCH  36  59
ENDBRANCH  10  11
ENDBRANCH   3   5
ENDBRANCH   2   3
ENDBRANCH   1   2
BRANCH   1  70
ATOM     70  C   UNL A   1      32.430  31.369  27.095  1.00  0.00     0.274 C 
BRANCH  70  71
ATOM     71  O   UNL A   1      31.604  30.505  26.275  1.00  0.00    -0.462 OA
BRANCH  71  72
ATOM     72  C   UNL A   1      32.139  29.269  26.086  1.00  0.00     0.310 C 
ATOM     73  O   UNL A   1      33.336  29.061  26.265  1.00  0.00    -0.252 OA
BRANCH  72  74
ATOM     74  C   UNL A   1      31.182  28.245  25.444  1.00  0.00     0.115 C 
ATOM     75  C   UNL A   1      30.840  28.807  24.021  1.00  0.00     0.004 C 
ATOM     76  C   UNL A   1      31.627  26.797  25.093  1.00  0.00     0.096 C 
ATOM     77  C   UNL A   1      32.085  28.897  23.096  1.00  0.00     0.005 C 
ATOM     78  C   UNL A   1      30.131  27.629  23.387  1.00  0.00     0.009 C 
ATOM     79  C   UNL A   1      31.337  26.702  23.564  1.00  0.00     0.003 C 
ATOM     80  C   UNL A   1      32.438  27.438  22.815  1.00  0.00     0.005 C 
BRANCH  76  81
ATOM     81  C   UNL A   1      30.915  25.542  25.642  1.00  0.00     0.226 C 
ATOM     82  O   UNL A   1      30.045  25.661  26.508  1.00  0.00    -0.275 OA
ATOM     83  N   UNL A   1      31.548  24.332  25.452  1.00  0.00    -0.339 N 
ATOM     84  C   UNL A   1      30.979  23.396  24.498  1.00  0.00     0.141 C 
ATOM     85  C   UNL A   1      32.072  23.635  26.630  1.00  0.00     0.141 C 
ATOM     86  C   UNL A   1      32.040  22.400  24.007  1.00  0.00     0.138 C 
ATOM     87  C   UNL A   1      33.182  22.649  26.238  1.00  0.00     0.138 C 
ATOM     88  N   UNL A   1      32.763  21.774  25.131  1.00  0.00    -0.368 N 
BRANCH  88  89
ATOM     89  C   UNL A   1      33.546  20.648  24.906  1.00  0.00     0.038 A 
ATOM     90  C   UNL A   1      34.932  20.712  25.126  1.00  0.00     0.026 A 
ATOM     91  C   UNL A   1      33.011  19.425  24.482  1.00  0.00     0.046 A 
ATOM     92  C   UNL A   1      35.758  19.602  24.931  1.00  0.00     0.004 A 
ATOM     93  C   UNL A   1      33.836  18.317  24.273  1.00  0.00     0.043 A 
ATOM     94  C   UNL A   1      35.208  18.399  24.498  1.00  0.00     0.020 A 
ATOM     95  Cl  UNL A   1      33.148  16.829  23.747  1.00  0.00    -0.084 Cl
ENDBRANCH  88  89
ENDBRANCH  76  81
ENDBRANCH  72  74
ENDBRANCH  71  72
ENDBRANCH  70  71
ENDBRANCH   1  70
TORSDOF 16
ENDMDL
MODEL 2
REMARK VINA RESULT:     -12.6      1.102      7.390
REMARK SMILES O=C(OCCOC(=O)[C@H]1[C@H]2CC[C@H](C2)[C@@H]1C(=O)N1CCN(c2cccc(Cl)c2)CC1)c1ccc(-c2c3nc(c(-c4cc(S(=O)(=O)[O-])ccc4F)c4ccc([nH]4)c(-c4cc(S(=O)(=O)[O-])ccc4F)c4nc(c(-c5cc(S(=O)(=O)[O-])ccc5F)c5ccc2[nH]5)C=C4)C=C3)cc1
REMARK SMILES IDX 4 1 3 2 2 3 1 4 31 5 32 6 93 7 33 8 92 9 34 10 35 11 36 12
REMARK SMILES IDX 86 13 37 14 91 15 85 16 87 17 38 18 90 19 84 20 83 21 39 23
REMARK SMILES IDX 71 24 51 25 70 26 52 27 55 28 69 29 88 30 53 31 54 32 68 34
REMARK SMILES IDX 89 35 56 36 40 37 41 38 49 39 42 40 48 41 50 42 47 43 43 44
REMARK SMILES IDX 44 45 45 46 46 47 72 48 73 49 81 50 74 51 80 52 82 53 79 54
REMARK SMILES IDX 75 55 76 56 77 57 78 58 57 59 58 60 66 61 59 62 65 63 67 64
REMARK SMILES IDX 64 65 60 66 61 67 62 68 63 69 5 70 6 71 7 72 8 73 9 74 10 75
REMARK SMILES IDX 15 76 11 77 14 78 13 79 12 80 16 81 17 82 18 83 19 84 30 85
REMARK SMILES IDX 20 86 29 87 21 88 22 89 23 90 28 91 24 92 26 93 25 94 27 95
REMARK H PARENT 87 22 55 33
REMARK Flexibility Score: inf
ROOT
ATOM      1  C   UNL A   1      32.475  31.548  26.912  1.00  0.00     0.275 C 
ENDROOT
BRANCH   1   2
ATOM      2  O   UNL A   1      32.405  32.947  27.210  1.00  0.00    -0.458 OA
BRANCH   2   3
ATOM      3  C   UNL A   1      33.185  33.665  28.052  1.00  0.00     0.338 C 
ATOM      4  O   UNL A   1      32.893  34.839  28.270  1.00  0.00    -0.246 OA
BRANCH   3   5
ATOM      5  C   UNL A   1      34.487  33.139  28.567  1.00  0.00     0.060 A 
ATOM      6  C   UNL A   1      35.764  33.428  28.070  1.00  0.00     0.016 A 
ATOM      7  C   UNL A   1      34.400  32.319  29.693  1.00  0.00     0.016 A 
ATOM      8  C   UNL A   1      36.924  33.049  28.767  1.00  0.00     0.010 A 
ATOM      9  C   UNL A   1      35.552  31.942  30.384  1.00  0.00     0.010 A 
ATOM     10  C   UNL A   1      36.829  32.323  29.950  1.00  0.00    -0.014 A 
BRANCH  10  11
ATOM     11  C   UNL A   1      38.024  31.786  30.661  1.00  0.00     0.031 A 
ATOM     12  C   UNL A   1      38.703  30.585  30.053  1.00  0.00     0.074 A 
ATOM     13  C   UNL A   1      38.467  32.287  31.834  1.00  0.00     0.049 A 
ATOM     14  N   UNL A   1      39.619  29.800  30.555  1.00  0.00    -0.248 NA
ATOM     15  C   UNL A   1      38.261  30.207  28.698  1.00  0.00     0.031 C 
ATOM     16  C   UNL A   1      37.941  33.460  32.540  1.00  0.00     0.029 A 
ATOM     17  N   UNL A   1      39.438  31.812  32.687  1.00  0.00    -0.354 N 
ATOM     18  C   UNL A   1      39.889  28.873  29.554  1.00  0.00     0.074 A 
ATOM     19  C   UNL A   1      38.910  29.072  28.511  1.00  0.00     0.031 C 
ATOM     20  C   UNL A   1      38.508  33.537  33.760  1.00  0.00     0.029 A 
ATOM     21  C   UNL A   1      39.449  32.436  33.917  1.00  0.00     0.049 A 
ATOM     22  H   UNL A   1      40.065  31.095  32.441  1.00  0.00     0.167 HD
ATOM     23  C   UNL A   1      40.933  28.018  29.447  1.00  0.00     0.034 A 
ATOM     24  C   UNL A   1      40.108  32.108  35.045  1.00  0.00     0.034 A 
ATOM     25  C   UNL A   1      41.915  27.833  30.477  1.00  0.00     0.049 A 
ATOM     26  C   UNL A   1      41.085  30.960  35.022  1.00  0.00     0.074 A 
ATOM     27  C   UNL A   1      43.072  27.078  30.451  1.00  0.00     0.029 A 
ATOM     28  N   UNL A   1      41.836  28.406  31.737  1.00  0.00    -0.354 N 
ATOM     29  N   UNL A   1      41.362  30.125  34.052  1.00  0.00    -0.248 NA
ATOM     30  C   UNL A   1      41.863  30.746  36.252  1.00  0.00     0.031 C 
ATOM     31  C   UNL A   1      43.669  27.155  31.714  1.00  0.00     0.029 A 
ATOM     32  C   UNL A   1      42.915  28.005  32.506  1.00  0.00     0.049 A 
ATOM     33  H   UNL A   1      41.119  29.010  32.040  1.00  0.00     0.167 HD
ATOM     34  C   UNL A   1      42.414  29.347  34.526  1.00  0.00     0.074 A 
ATOM     35  C   UNL A   1      42.667  29.760  35.889  1.00  0.00     0.031 C 
ATOM     36  C   UNL A   1      43.151  28.422  33.863  1.00  0.00     0.034 A 
BRANCH  23  37
ATOM     37  C   UNL A   1      41.074  27.296  28.132  1.00  0.00     0.023 A 
ATOM     38  C   UNL A   1      40.762  25.926  28.037  1.00  0.00     0.031 A 
ATOM     39  C   UNL A   1      41.592  27.934  26.996  1.00  0.00     0.131 A 
ATOM     40  C   UNL A   1      41.085  25.210  26.878  1.00  0.00     0.055 A 
ATOM     41  C   UNL A   1      41.821  27.234  25.809  1.00  0.00     0.041 A 
ATOM     42  F   UNL A   1      41.917  29.236  27.031  1.00  0.00    -0.206 F 
ATOM     43  C   UNL A   1      41.589  25.860  25.752  1.00  0.00     0.022 A 
BRANCH  40  44
ATOM     44  S   UNL A   1      40.996  23.400  26.936  1.00  0.00     0.124 S 
ATOM     45  O   UNL A   1      41.528  23.121  28.269  1.00  0.00    -0.237 OA
ATOM     46  O   UNL A   1      39.573  23.144  26.754  1.00  0.00    -0.237 OA
ATOM     47  O   UNL A   1      41.853  22.981  25.829  1.00  0.00    -0.744 OA
ENDBRANCH  40  44
ENDBRANCH  23  37
BRANCH  24  48
ATOM     48  C   UNL A   1      39.831  32.738  36.364  1.00  0.00     0.023 A 
ATOM     49  C   UNL A   1      38.879  32.234  37.263  1.00  0.00     0.031 A 
ATOM     50  C   UNL A   1      40.331  34.033  36.577  1.00  0.00     0.131 A 
ATOM     51  C   UNL A   1      38.426  33.052  38.316  1.00  0.00     0.055 A 
ATOM     52  C   UNL A   1      39.897  34.821  37.640  1.00  0.00     0.041 A 
ATOM     53  F   UNL A   1      41.174  34.576  35.687  1.00  0.00    -0.206 F 
ATOM     54  C   UNL A   1      38.942  34.333  38.520  1.00  0.00     0.022 A 
BRANCH  51  55
ATOM     55  S   UNL A   1      37.046  32.482  39.347  1.00  0.00     0.124 S 
ATOM     56  O   UNL A   1      37.403  31.080  39.560  1.00  0.00    -0.237 OA
ATOM     57  O   UNL A   1      37.139  33.351  40.507  1.00  0.00    -0.237 OA
ATOM     58  O   UNL A   1      35.874  32.703  38.496  1.00  0.00    -0.744 OA
ENDBRANCH  51  55
ENDBRANCH  24  48
BRANCH  36  59
ATOM     59  C   UNL A   1      44.385  27.922  34.560  1.00  0.00     0.023 A 
ATOM     60  C   UNL A   1      44.389  26.761  35.347  1.00  0.00     0.031 A 
ATOM     61  C   UNL A   1      45.574  28.669  34.461  1.00  0.00     0.131 A 
ATOM     62  C   UNL A   1      45.549  26.408  36.050  1.00  0.00     0.055 A 
ATOM     63  C   UNL A   1      46.742  28.276  35.108  1.00  0.00     0.041 A 
ATOM     64  F   UNL A   1      45.611  29.798  33.735  1.00  0.00    -0.206 F 
ATOM     65  C   UNL A   1      46.731  27.145  35.918  1.00  0.00     0.022 A 
BRANCH  62  66
ATOM     66  S   UNL A   1      45.472  25.025  37.218  1.00  0.00     0.124 S 
ATOM     67  O   UNL A   1      46.668  25.243  38.024  1.00  0.00    -0.237 OA
ATOM     68  O   UNL A   1      44.198  25.256  37.893  1.00  0.00    -0.237 OA
ATOM     69  O   UNL A   1      45.510  23.845  36.356  1.00  0.00    -0.744 OA
ENDBRANCH  62  66
ENDBRANCH  36  59
ENDBRANCH  10  11
ENDBRANCH   3   5
ENDBRANCH   2   3
ENDBRANCH   1   2
BRANCH   1  70
ATOM     70  C   UNL A   1      31.395  30.998  25.967  1.00  0.00     0.274 C 
BRANCH  70  71
ATOM     71  O   UNL A   1      31.669  29.702  25.378  1.00  0.00    -0.462 OA
BRANCH  71  72
ATOM     72  C   UNL A   1      30.793  29.359  24.398  1.00  0.00     0.310 C 
ATOM     73  O   UNL A   1      29.966  30.162  23.975  1.00  0.00    -0.252 OA
BRANCH  72  74
ATOM     74  C   UNL A   1      30.791  27.860  24.031  1.00  0.00     0.115 C 
ATOM     75  C   UNL A   1      31.484  27.759  22.629  1.00  0.00     0.004 C 
ATOM     76  C   UNL A   1      31.597  26.805  24.838  1.00  0.00     0.096 C 
ATOM     77  C   UNL A   1      32.971  28.209  22.660  1.00  0.00     0.005 C 
ATOM     78  C   UNL A   1      31.670  26.263  22.485  1.00  0.00     0.009 C 
ATOM     79  C   UNL A   1      32.517  26.163  23.757  1.00  0.00     0.003 C 
ATOM     80  C   UNL A   1      33.667  27.118  23.470  1.00  0.00     0.005 C 
BRANCH  76  81
ATOM     81  C   UNL A   1      30.944  25.568  25.492  1.00  0.00     0.226 C 
ATOM     82  O   UNL A   1      30.104  25.718  26.383  1.00  0.00    -0.275 OA
ATOM     83  N   UNL A   1      31.605  24.367  25.353  1.00  0.00    -0.339 N 
ATOM     84  C   UNL A   1      31.028  23.357  24.481  1.00  0.00     0.141 C 
ATOM     85  C   UNL A   1      32.193  23.760  26.550  1.00  0.00     0.141 C 
ATOM     86  C   UNL A   1      32.099  22.361  24.012  1.00  0.00     0.138 C 
ATOM     87  C   UNL A   1      33.316  22.781  26.176  1.00  0.00     0.138 C 
ATOM     88  N   UNL A   1      32.882  21.827  25.142  1.00  0.00    -0.368 N 
BRANCH  88  89
ATOM     89  C   UNL A   1      33.689  20.710  24.957  1.00  0.00     0.038 A 
ATOM     90  C   UNL A   1      35.075  20.816  25.157  1.00  0.00     0.026 A 
ATOM     91  C   UNL A   1      33.178  19.459  24.593  1.00  0.00     0.046 A 
ATOM     92  C   UNL A   1      35.925  19.718  25.000  1.00  0.00     0.004 A 
ATOM     93  C   UNL A   1      34.027  18.362  24.422  1.00  0.00     0.043 A 
ATOM     94  C   UNL A   1      35.398  18.485  24.626  1.00  0.00     0.020 A 
ATOM     95  Cl  UNL A   1      33.368  16.837  23.969  1.00  0.00    -0.084 Cl
ENDBRANCH  88  89
ENDBRANCH  76  81
ENDBRANCH  72  74
ENDBRANCH  71  72
ENDBRANCH  70  71
ENDBRANCH   1  70
TORSDOF 16
ENDMDL
MODEL 3
REMARK VINA RESULT:     -12.5      2.339      7.736
REMARK SMILES O=C(OCCOC(=O)[C@H]1[C@H]2CC[C@H](C2)[C@@H]1C(=O)N1CCN(c2cccc(Cl)c2)CC1)c1ccc(-c2c3nc(c(-c4cc(S(=O)(=O)[O-])ccc4F)c4ccc([nH]4)c(-c4cc(S(=O)(=O)[O-])ccc4F)c4nc(c(-c5cc(S(=O)(=O)[O-])ccc5F)c5ccc2[nH]5)C=C4)C=C3)cc1
REMARK SMILES IDX 4 1 3 2 2 3 1 4 31 5 32 6 93 7 33 8 92 9 34 10 35 11 36 12
REMARK SMILES IDX 86 13 37 14 91 15 85 16 87 17 38 18 90 19 84 20 83 21 39 23
REMARK SMILES IDX 71 24 51 25 70 26 52 27 55 28 69 29 88 30 53 31 54 32 68 34
REMARK SMILES IDX 89 35 56 36 40 37 41 38 49 39 42 40 48 41 50 42 47 43 43 44
REMARK SMILES IDX 44 45 45 46 46 47 72 48 73 49 81 50 74 51 80 52 82 53 79 54
REMARK SMILES IDX 75 55 76 56 77 57 78 58 57 59 58 60 66 61 59 62 65 63 67 64
REMARK SMILES IDX 64 65 60 66 61 67 62 68 63 69 5 70 6 71 7 72 8 73 9 74 10 75
REMARK SMILES IDX 15 76 11 77 14 78 13 79 12 80 16 81 17 82 18 83 19 84 30 85
REMARK SMILES IDX 20 86 29 87 21 88 22 89 23 90 28 91 24 92 26 93 25 94 27 95
REMARK H PARENT 87 22 55 33
REMARK Flexibility Score: inf
ROOT
ATOM      1  C   UNL A   1      32.706  32.454  27.059  1.00  0.00     0.275 C 
ENDROOT
BRANCH   1   2
ATOM      2  O   UNL A   1      32.422  33.747  27.605  1.00  0.00    -0.458 OA
BRANCH   2   3
ATOM      3  C   UNL A   1      33.107  34.422  28.558  1.00  0.00     0.338 C 
ATOM      4  O   UNL A   1      32.751  35.564  28.842  1.00  0.00    -0.246 OA
BRANCH   3   5
ATOM      5  C   UNL A   1      34.387  33.903  29.132  1.00  0.00     0.060 A 
ATOM      6  C   UNL A   1      35.683  34.189  28.685  1.00  0.00     0.016 A 
ATOM      7  C   UNL A   1      34.255  33.094  30.262  1.00  0.00     0.016 A 
ATOM      8  C   UNL A   1      36.814  33.819  29.433  1.00  0.00     0.010 A 
ATOM      9  C   UNL A   1      35.377  32.726  31.003  1.00  0.00     0.010 A 
ATOM     10  C   UNL A   1      36.671  33.105  30.619  1.00  0.00    -0.014 A 
BRANCH  10  11
ATOM     11  C   UNL A   1      37.835  32.577  31.383  1.00  0.00     0.031 A 
ATOM     12  C   UNL A   1      38.443  31.283  30.903  1.00  0.00     0.074 A 
ATOM     13  C   UNL A   1      38.311  33.169  32.500  1.00  0.00     0.049 A 
ATOM     14  N   UNL A   1      39.315  30.503  31.485  1.00  0.00    -0.248 NA
ATOM     15  C   UNL A   1      37.976  30.793  29.593  1.00  0.00     0.031 C 
ATOM     16  C   UNL A   1      37.854  34.436  33.081  1.00  0.00     0.029 A 
ATOM     17  N   UNL A   1      39.256  32.730  33.400  1.00  0.00    -0.354 N 
ATOM     18  C   UNL A   1      39.529  29.464  30.585  1.00  0.00     0.074 A 
ATOM     19  C   UNL A   1      38.558  29.610  29.526  1.00  0.00     0.031 C 
ATOM     20  C   UNL A   1      38.430  34.606  34.288  1.00  0.00     0.029 A 
ATOM     21  C   UNL A   1      39.307  33.475  34.559  1.00  0.00     0.049 A 
ATOM     22  H   UNL A   1      39.840  31.956  33.230  1.00  0.00     0.167 HD
ATOM     23  C   UNL A   1      40.522  28.544  30.569  1.00  0.00     0.034 A 
ATOM     24  C   UNL A   1      39.951  33.227  35.716  1.00  0.00     0.034 A 
ATOM     25  C   UNL A   1      41.495  28.410  31.615  1.00  0.00     0.049 A 
ATOM     26  C   UNL A   1      40.860  32.029  35.813  1.00  0.00     0.074 A 
ATOM     27  C   UNL A   1      42.607  27.592  31.668  1.00  0.00     0.029 A 
ATOM     28  N   UNL A   1      41.454  29.114  32.809  1.00  0.00    -0.354 N 
ATOM     29  N   UNL A   1      41.086  31.085  34.934  1.00  0.00    -0.248 NA
ATOM     30  C   UNL A   1      41.630  31.899  37.060  1.00  0.00     0.031 C 
ATOM     31  C   UNL A   1      43.212  27.764  32.918  1.00  0.00     0.029 A 
ATOM     32  C   UNL A   1      42.511  28.733  33.617  1.00  0.00     0.049 A 
ATOM     33  H   UNL A   1      40.774  29.785  33.046  1.00  0.00     0.167 HD
ATOM     34  C   UNL A   1      42.095  30.300  35.488  1.00  0.00     0.074 A 
ATOM     35  C   UNL A   1      42.375  30.836  36.802  1.00  0.00     0.031 C 
ATOM     36  C   UNL A   1      42.775  29.273  34.925  1.00  0.00     0.034 A 
BRANCH  23  37
ATOM     37  C   UNL A   1      40.617  27.684  29.335  1.00  0.00     0.023 A 
ATOM     38  C   UNL A   1      41.568  27.976  28.338  1.00  0.00     0.031 A 
ATOM     39  C   UNL A   1      39.718  26.634  29.102  1.00  0.00     0.131 A 
ATOM     40  C   UNL A   1      41.521  27.311  27.107  1.00  0.00     0.055 A 
ATOM     41  C   UNL A   1      39.741  25.908  27.908  1.00  0.00     0.041 A 
ATOM     42  F   UNL A   1      38.783  26.319  30.011  1.00  0.00    -0.206 F 
ATOM     43  C   UNL A   1      40.630  26.260  26.893  1.00  0.00     0.022 A 
BRANCH  40  44
ATOM     44  S   UNL A   1      42.524  27.963  25.743  1.00  0.00     0.124 S 
ATOM     45  O   UNL A   1      43.849  28.028  26.356  1.00  0.00    -0.237 OA
ATOM     46  O   UNL A   1      42.352  26.950  24.709  1.00  0.00    -0.237 OA
ATOM     47  O   UNL A   1      41.911  29.258  25.458  1.00  0.00    -0.744 OA
ENDBRANCH  40  44
ENDBRANCH  23  37
BRANCH  24  48
ATOM     48  C   UNL A   1      39.714  34.004  36.962  1.00  0.00     0.023 A 
ATOM     49  C   UNL A   1      40.623  34.957  37.448  1.00  0.00     0.031 A 
ATOM     50  C   UNL A   1      38.695  33.556  37.817  1.00  0.00     0.131 A 
ATOM     51  C   UNL A   1      40.510  35.397  38.781  1.00  0.00     0.055 A 
ATOM     52  C   UNL A   1      38.575  34.022  39.124  1.00  0.00     0.041 A 
ATOM     53  F   UNL A   1      37.865  32.583  37.412  1.00  0.00    -0.206 F 
ATOM     54  C   UNL A   1      39.483  34.950  39.615  1.00  0.00     0.022 A 
BRANCH  51  55
ATOM     55  S   UNL A   1      41.807  36.463  39.473  1.00  0.00     0.124 S 
ATOM     56  O   UNL A   1      41.707  36.152  40.898  1.00  0.00    -0.237 OA
ATOM     57  O   UNL A   1      42.999  35.988  38.794  1.00  0.00    -0.237 OA
ATOM     58  O   UNL A   1      41.371  37.811  39.098  1.00  0.00    -0.744 OA
ENDBRANCH  51  55
ENDBRANCH  24  48
BRANCH  36  59
ATOM     59  C   UNL A   1      43.981  28.777  35.673  1.00  0.00     0.023 A 
ATOM     60  C   UNL A   1      43.927  27.688  36.555  1.00  0.00     0.031 A 
ATOM     61  C   UNL A   1      45.204  29.458  35.521  1.00  0.00     0.131 A 
ATOM     62  C   UNL A   1      45.067  27.343  37.294  1.00  0.00     0.055 A 
ATOM     63  C   UNL A   1      46.350  29.068  36.209  1.00  0.00     0.041 A 
ATOM     64  F   UNL A   1      45.297  30.519  34.702  1.00  0.00    -0.206 F 
ATOM     65  C   UNL A   1      46.282  28.012  37.111  1.00  0.00     0.022 A 
BRANCH  62  66
ATOM     66  S   UNL A   1      44.920  26.069  38.575  1.00  0.00     0.124 S 
ATOM     67  O   UNL A   1      44.195  26.778  39.624  1.00  0.00    -0.237 OA
ATOM     68  O   UNL A   1      44.177  25.017  37.886  1.00  0.00    -0.237 OA
ATOM     69  O   UNL A   1      46.308  25.739  38.892  1.00  0.00    -0.744 OA
ENDBRANCH  62  66
ENDBRANCH  36  59
ENDBRANCH  10  11
ENDBRANCH   3   5
ENDBRANCH   2   3
ENDBRANCH   1   2
BRANCH   1  70
ATOM     70  C   UNL A   1      31.500  31.527  26.841  1.00  0.00     0.274 C 
BRANCH  70  71
ATOM     71  O   UNL A   1      31.485  30.789  25.593  1.00  0.00    -0.462 OA
BRANCH  71  72
ATOM     72  C   UNL A   1      31.970  29.525  25.708  1.00  0.00     0.310 C 
ATOM     73  O   UNL A   1      33.130  29.319  26.055  1.00  0.00    -0.252 OA
BRANCH  72  74
ATOM     74  C   UNL A   1      31.031  28.423  25.175  1.00  0.00     0.115 C 
ATOM     75  C   UNL A   1      30.631  28.862  23.725  1.00  0.00     0.004 C 
ATOM     76  C   UNL A   1      31.516  26.968  24.923  1.00  0.00     0.096 C 
ATOM     77  C   UNL A   1      31.847  28.919  22.758  1.00  0.00     0.005 C 
ATOM     78  C   UNL A   1      29.946  27.616  23.205  1.00  0.00     0.009 C 
ATOM     79  C   UNL A   1      31.187  26.745  23.416  1.00  0.00     0.003 C 
ATOM     80  C   UNL A   1      32.242  27.456  22.580  1.00  0.00     0.005 C 
BRANCH  76  81
ATOM     81  C   UNL A   1      30.863  25.737  25.588  1.00  0.00     0.226 C 
ATOM     82  O   UNL A   1      30.052  25.894  26.504  1.00  0.00    -0.275 OA
ATOM     83  N   UNL A   1      31.501  24.526  25.423  1.00  0.00    -0.339 N 
ATOM     84  C   UNL A   1      30.883  23.531  24.562  1.00  0.00     0.141 C 
ATOM     85  C   UNL A   1      32.114  23.903  26.598  1.00  0.00     0.141 C 
ATOM     86  C   UNL A   1      31.924  22.522  24.056  1.00  0.00     0.138 C 
ATOM     87  C   UNL A   1      33.211  22.909  26.186  1.00  0.00     0.138 C 
ATOM     88  N   UNL A   1      32.732  21.969  25.160  1.00  0.00    -0.368 N 
BRANCH  88  89
ATOM     89  C   UNL A   1      33.515  20.841  24.945  1.00  0.00     0.038 A 
ATOM     90  C   UNL A   1      34.906  20.917  25.129  1.00  0.00     0.026 A 
ATOM     91  C   UNL A   1      32.977  19.606  24.565  1.00  0.00     0.046 A 
ATOM     92  C   UNL A   1      35.733  19.807  24.943  1.00  0.00     0.004 A 
ATOM     93  C   UNL A   1      33.803  18.497  24.363  1.00  0.00     0.043 A 
ATOM     94  C   UNL A   1      35.179  18.591  24.553  1.00  0.00     0.020 A 
ATOM     95  Cl  UNL A   1      33.111  16.993  23.892  1.00  0.00    -0.084 Cl
ENDBRANCH  88  89
ENDBRANCH  76  81
ENDBRANCH  72  74
ENDBRANCH  71  72
ENDBRANCH  70  71
ENDBRANCH   1  70
TORSDOF 16
ENDMDL
