MODEL 1
REMARK VINA RESULT:     -11.5      0.000      0.000
REMARK SMILES NC(=O)C[NH+]1CCC([NH2+]Cc2cc(C(=O)OCCOC(=O)c3ccc(-c4c5nc(c(-c6cc(S(=O)(=O)[O-])ccc6F)c6ccc([nH]6)c(-c6cc(S(=O)(=O)[O-])ccc6F)c6nc(c(-c7cc(S(=O)(=O)[O-])ccc7F)c7ccc4[nH]7)C=C6)C=C5)cc3)cs2)CC1
REMARK SMILES IDX 17 1 16 2 14 3 15 4 13 5 11 6 12 7 86 8 85 9 10 10 9 11 8 14
REMARK SMILES IDX 5 15 6 16 88 17 7 19 87 20 4 21 2 22 1 23 3 26 18 27 19 28
REMARK SMILES IDX 20 29 21 30 22 31 23 32 84 33 24 34 83 35 25 36 26 37 27 38
REMARK SMILES IDX 77 39 28 40 82 41 76 42 78 43 29 44 81 45 75 46 74 47 30 49
REMARK SMILES IDX 62 50 42 51 61 52 43 53 46 54 60 55 79 56 44 57 45 58 59 60
REMARK SMILES IDX 80 61 47 62 31 63 32 64 40 65 33 66 39 67 41 68 38 69 34 70
REMARK SMILES IDX 35 71 36 72 37 73 63 74 64 75 72 76 65 77 71 78 73 79 70 80
REMARK SMILES IDX 66 81 67 82 68 83 69 84 48 85 49 86 57 87 50 88 56 89 58 90
REMARK SMILES IDX 55 91 51 92 52 93 53 94 54 95
REMARK H PARENT 9 12 9 13 5 18 1 24 1 25 78 48 46 59
REMARK Flexibility Score: inf
ROOT
ATOM      1  C   UNL A   1      35.257  20.449  25.259  1.00  0.00     0.275 C 
ENDROOT
BRANCH   1   2
ATOM      2  O   UNL A   1      34.421  19.448  24.643  1.00  0.00    -0.458 OA
BRANCH   2   3
ATOM      3  C   UNL A   1      33.079  19.510  24.919  1.00  0.00     0.339 C 
ATOM      4  O   UNL A   1      32.412  18.572  25.323  1.00  0.00    -0.246 OA
BRANCH   3   5
ATOM      5  C   UNL A   1      32.553  20.865  24.754  1.00  0.00     0.071 A 
ATOM      6  C   UNL A   1      31.325  22.789  25.311  1.00  0.00     0.060 A 
ATOM      7  C   UNL A   1      32.069  21.724  25.793  1.00  0.00     0.037 A 
ATOM      8  S   UNL A   1      31.501  22.930  23.615  1.00  0.00    -0.142 S 
ATOM      9  C   UNL A   1      32.428  21.493  23.529  1.00  0.00     0.081 A 
BRANCH   6  10
ATOM     10  C   UNL A   1      30.437  23.731  26.078  1.00  0.00     0.308 C 
BRANCH  10  11
ATOM     11  N   UNL A   1      31.149  24.900  26.635  1.00  0.00    -0.339 N 
ATOM     12  H   UNL A   1      30.971  24.938  27.639  1.00  0.00     0.346 HD
ATOM     13  H   UNL A   1      32.138  24.778  26.419  1.00  0.00     0.346 HD
BRANCH  11  14
ATOM     14  C   UNL A   1      30.733  26.178  26.042  1.00  0.00     0.194 C 
ATOM     15  N   UNL A   1      30.515  28.407  24.205  1.00  0.00    -0.327 N 
ATOM     16  C   UNL A   1      31.377  28.507  25.385  1.00  0.00     0.268 C 
ATOM     17  C   UNL A   1      29.515  27.346  24.220  1.00  0.00     0.268 C 
ATOM     18  H   UNL A   1      31.185  28.088  23.505  1.00  0.00     0.348 HD
ATOM     19  C   UNL A   1      31.907  27.148  25.878  1.00  0.00     0.126 C 
ATOM     20  C   UNL A   1      30.118  26.012  24.646  1.00  0.00     0.126 C 
BRANCH  15  21
ATOM     21  C   UNL A   1      30.012  29.690  23.677  1.00  0.00     0.363 C 
BRANCH  21  22
ATOM     22  C   UNL A   1      29.867  29.768  22.154  1.00  0.00     0.272 C 
ATOM     23  N   UNL A   1      30.988  30.050  21.431  1.00  0.00    -0.365 N 
ATOM     24  H   UNL A   1      30.939  30.109  20.449  1.00  0.00     0.159 HD
ATOM     25  H   UNL A   1      31.847  30.197  21.889  1.00  0.00     0.159 HD
ATOM     26  O   UNL A   1      28.790  29.636  21.576  1.00  0.00    -0.269 OA
ENDBRANCH  21  22
ENDBRANCH  15  21
ENDBRANCH  11  14
ENDBRANCH  10  11
ENDBRANCH   6  10
ENDBRANCH   3   5
ENDBRANCH   2   3
ENDBRANCH   1   2
BRANCH   1  27
ATOM     27  C   UNL A   1      36.742  20.232  24.949  1.00  0.00     0.275 C 
BRANCH  27  28
ATOM     28  O   UNL A   1      37.535  21.295  25.502  1.00  0.00    -0.458 OA
BRANCH  28  29
ATOM     29  C   UNL A   1      38.776  20.950  25.920  1.00  0.00     0.338 C 
ATOM     30  O   UNL A   1      39.323  19.870  25.792  1.00  0.00    -0.246 OA
BRANCH  29  31
ATOM     31  C   UNL A   1      39.451  22.153  26.427  1.00  0.00     0.060 A 
ATOM     32  C   UNL A   1      38.937  23.384  26.029  1.00  0.00     0.016 A 
ATOM     33  C   UNL A   1      40.598  22.086  27.218  1.00  0.00     0.016 A 
ATOM     34  C   UNL A   1      39.565  24.564  26.411  1.00  0.00     0.010 A 
ATOM     35  C   UNL A   1      41.219  23.277  27.623  1.00  0.00     0.010 A 
ATOM     36  C   UNL A   1      40.712  24.526  27.215  1.00  0.00    -0.014 A 
BRANCH  36  37
ATOM     37  C   UNL A   1      41.396  25.801  27.562  1.00  0.00     0.031 A 
ATOM     38  C   UNL A   1      40.696  26.818  28.420  1.00  0.00     0.074 A 
ATOM     39  C   UNL A   1      42.664  26.019  27.159  1.00  0.00     0.049 A 
ATOM     40  N   UNL A   1      41.083  28.017  28.770  1.00  0.00    -0.248 NA
ATOM     41  C   UNL A   1      39.380  26.432  28.947  1.00  0.00     0.031 C 
ATOM     42  C   UNL A   1      43.469  25.084  26.370  1.00  0.00     0.029 A 
ATOM     43  N   UNL A   1      43.502  27.085  27.368  1.00  0.00    -0.354 N 
ATOM     44  C   UNL A   1      40.045  28.547  29.530  1.00  0.00     0.074 A 
ATOM     45  C   UNL A   1      39.004  27.540  29.570  1.00  0.00     0.031 C 
ATOM     46  C   UNL A   1      44.692  25.605  26.187  1.00  0.00     0.029 A 
ATOM     47  C   UNL A   1      44.738  26.938  26.781  1.00  0.00     0.049 A 
ATOM     48  H   UNL A   1      43.245  27.879  27.889  1.00  0.00     0.167 HD
ATOM     49  C   UNL A   1      39.970  29.759  30.136  1.00  0.00     0.034 A 
ATOM     50  C   UNL A   1      45.777  27.793  26.697  1.00  0.00     0.034 A 
ATOM     51  C   UNL A   1      41.030  30.740  30.104  1.00  0.00     0.049 A 
ATOM     52  C   UNL A   1      45.653  29.153  27.332  1.00  0.00     0.074 A 
ATOM     53  C   UNL A   1      41.064  31.995  30.687  1.00  0.00     0.029 A 
ATOM     54  N   UNL A   1      42.246  30.577  29.452  1.00  0.00    -0.354 N 
ATOM     55  N   UNL A   1      44.646  29.660  28.004  1.00  0.00    -0.248 NA
ATOM     56  C   UNL A   1      46.801  30.057  27.191  1.00  0.00     0.031 C 
ATOM     57  C   UNL A   1      42.271  32.613  30.337  1.00  0.00     0.029 A 
ATOM     58  C   UNL A   1      43.024  31.718  29.595  1.00  0.00     0.049 A 
ATOM     59  H   UNL A   1      42.518  29.769  28.959  1.00  0.00     0.167 HD
ATOM     60  C   UNL A   1      45.042  30.942  28.372  1.00  0.00     0.074 A 
ATOM     61  C   UNL A   1      46.390  31.119  27.868  1.00  0.00     0.031 C 
ATOM     62  C   UNL A   1      44.356  31.888  29.064  1.00  0.00     0.034 A 
BRANCH  49  63
ATOM     63  C   UNL A   1      38.670  30.108  30.821  1.00  0.00     0.023 A 
ATOM     64  C   UNL A   1      37.642  30.807  30.165  1.00  0.00     0.031 A 
ATOM     65  C   UNL A   1      38.481  29.783  32.177  1.00  0.00     0.131 A 
ATOM     66  C   UNL A   1      36.510  31.226  30.883  1.00  0.00     0.055 A 
ATOM     67  C   UNL A   1      37.317  30.132  32.865  1.00  0.00     0.041 A 
ATOM     68  F   UNL A   1      39.435  29.136  32.864  1.00  0.00    -0.206 F 
ATOM     69  C   UNL A   1      36.331  30.873  32.223  1.00  0.00     0.022 A 
BRANCH  66  70
ATOM     70  S   UNL A   1      35.354  32.377  30.087  1.00  0.00     0.124 S 
ATOM     71  O   UNL A   1      34.899  31.593  28.941  1.00  0.00    -0.237 OA
ATOM     72  O   UNL A   1      34.369  32.608  31.137  1.00  0.00    -0.237 OA
ATOM     73  O   UNL A   1      36.191  33.527  29.752  1.00  0.00    -0.744 OA
ENDBRANCH  66  70
ENDBRANCH  49  63
BRANCH  50  74
ATOM     74  C   UNL A   1      46.999  27.415  25.927  1.00  0.00     0.023 A 
ATOM     75  C   UNL A   1      47.139  27.741  24.569  1.00  0.00     0.031 A 
ATOM     76  C   UNL A   1      48.038  26.695  26.545  1.00  0.00     0.131 A 
ATOM     77  C   UNL A   1      48.282  27.325  23.867  1.00  0.00     0.055 A 
ATOM     78  C   UNL A   1      49.194  26.328  25.855  1.00  0.00     0.041 A 
ATOM     79  F   UNL A   1      47.952  26.356  27.841  1.00  0.00    -0.206 F 
ATOM     80  C   UNL A   1      49.317  26.635  24.504  1.00  0.00     0.022 A 
BRANCH  77  81
ATOM     81  S   UNL A   1      48.376  27.645  22.083  1.00  0.00     0.124 S 
ATOM     82  O   UNL A   1      49.519  28.548  22.002  1.00  0.00    -0.237 OA
ATOM     83  O   UNL A   1      48.579  26.303  21.544  1.00  0.00    -0.237 OA
ATOM     84  O   UNL A   1      47.081  28.246  21.776  1.00  0.00    -0.744 OA
ENDBRANCH  77  81
ENDBRANCH  50  74
BRANCH  62  85
ATOM     85  C   UNL A   1      45.075  33.187  29.332  1.00  0.00     0.023 A 
ATOM     86  C   UNL A   1      44.988  34.274  28.444  1.00  0.00     0.031 A 
ATOM     87  C   UNL A   1      45.874  33.329  30.480  1.00  0.00     0.131 A 
ATOM     88  C   UNL A   1      45.733  35.438  28.693  1.00  0.00     0.055 A 
ATOM     89  C   UNL A   1      46.568  34.509  30.750  1.00  0.00     0.041 A 
ATOM     90  F   UNL A   1      45.993  32.321  31.358  1.00  0.00    -0.206 F 
ATOM     91  C   UNL A   1      46.510  35.567  29.847  1.00  0.00     0.022 A 
BRANCH  88  92
ATOM     92  S   UNL A   1      45.739  36.752  27.442  1.00  0.00     0.124 S 
ATOM     93  O   UNL A   1      45.706  37.955  28.266  1.00  0.00    -0.237 OA
ATOM     94  O   UNL A   1      46.988  36.500  26.730  1.00  0.00    -0.237 OA
ATOM     95  O   UNL A   1      44.525  36.496  26.670  1.00  0.00    -0.744 OA
ENDBRANCH  88  92
ENDBRANCH  62  85
ENDBRANCH  36  37
ENDBRANCH  29  31
ENDBRANCH  28  29
ENDBRANCH  27  28
ENDBRANCH   1  27
TORSDOF 19
ENDMDL
MODEL 2
REMARK VINA RESULT:     -11.2      1.252      7.676
REMARK SMILES NC(=O)C[NH+]1CCC([NH2+]Cc2cc(C(=O)OCCOC(=O)c3ccc(-c4c5nc(c(-c6cc(S(=O)(=O)[O-])ccc6F)c6ccc([nH]6)c(-c6cc(S(=O)(=O)[O-])ccc6F)c6nc(c(-c7cc(S(=O)(=O)[O-])ccc7F)c7ccc4[nH]7)C=C6)C=C5)cc3)cs2)CC1
REMARK SMILES IDX 17 1 16 2 14 3 15 4 13 5 11 6 12 7 86 8 85 9 10 10 9 11 8 14
REMARK SMILES IDX 5 15 6 16 88 17 7 19 87 20 4 21 2 22 1 23 3 26 18 27 19 28
REMARK SMILES IDX 20 29 21 30 22 31 23 32 84 33 24 34 83 35 25 36 26 37 27 38
REMARK SMILES IDX 77 39 28 40 82 41 76 42 78 43 29 44 81 45 75 46 74 47 30 49
REMARK SMILES IDX 62 50 42 51 61 52 43 53 46 54 60 55 79 56 44 57 45 58 59 60
REMARK SMILES IDX 80 61 47 62 31 63 32 64 40 65 33 66 39 67 41 68 38 69 34 70
REMARK SMILES IDX 35 71 36 72 37 73 63 74 64 75 72 76 65 77 71 78 73 79 70 80
REMARK SMILES IDX 66 81 67 82 68 83 69 84 48 85 49 86 57 87 50 88 56 89 58 90
REMARK SMILES IDX 55 91 51 92 52 93 53 94 54 95
REMARK H PARENT 9 12 9 13 5 18 1 24 1 25 78 48 46 59
REMARK Flexibility Score: inf
ROOT
ATOM      1  C   UNL A   1      35.603  21.538  24.521  1.00  0.00     0.275 C 
ENDROOT
BRANCH   1   2
ATOM      2  O   UNL A   1      34.353  20.991  24.989  1.00  0.00    -0.458 OA
BRANCH   2   3
ATOM      3  C   UNL A   1      33.823  21.548  26.125  1.00  0.00     0.339 C 
ATOM      4  O   UNL A   1      34.319  21.459  27.235  1.00  0.00    -0.246 OA
BRANCH   3   5
ATOM      5  C   UNL A   1      32.629  22.342  25.834  1.00  0.00     0.071 A 
ATOM      6  C   UNL A   1      31.213  23.738  24.583  1.00  0.00     0.060 A 
ATOM      7  C   UNL A   1      32.147  22.715  24.538  1.00  0.00     0.037 A 
ATOM      8  S   UNL A   1      30.682  24.001  26.188  1.00  0.00    -0.142 S 
ATOM      9  C   UNL A   1      31.806  22.870  26.812  1.00  0.00     0.081 A 
BRANCH   6  10
ATOM     10  C   UNL A   1      30.691  24.576  23.447  1.00  0.00     0.308 C 
BRANCH  10  11
ATOM     11  N   UNL A   1      31.492  25.788  23.183  1.00  0.00    -0.339 N 
ATOM     12  H   UNL A   1      31.967  26.055  24.045  1.00  0.00     0.346 HD
ATOM     13  H   UNL A   1      32.146  25.557  22.435  1.00  0.00     0.346 HD
BRANCH  11  14
ATOM     14  C   UNL A   1      30.695  26.930  22.720  1.00  0.00     0.194 C 
ATOM     15  N   UNL A   1      29.281  29.458  22.695  1.00  0.00    -0.327 N 
ATOM     16  C   UNL A   1      28.546  28.206  22.879  1.00  0.00     0.268 C 
ATOM     17  C   UNL A   1      30.627  29.346  22.147  1.00  0.00     0.268 C 
ATOM     18  H   UNL A   1      29.444  29.728  23.665  1.00  0.00     0.348 HD
ATOM     19  C   UNL A   1      29.389  27.081  23.507  1.00  0.00     0.126 C 
ATOM     20  C   UNL A   1      31.435  28.267  22.860  1.00  0.00     0.126 C 
BRANCH  15  21
ATOM     21  C   UNL A   1      28.499  30.574  22.128  1.00  0.00     0.363 C 
BRANCH  21  22
ATOM     22  C   UNL A   1      28.199  31.728  23.090  1.00  0.00     0.272 C 
ATOM     23  N   UNL A   1      29.149  32.698  23.222  1.00  0.00    -0.365 N 
ATOM     24  H   UNL A   1      28.996  33.458  23.830  1.00  0.00     0.159 HD
ATOM     25  H   UNL A   1      29.988  32.639  22.711  1.00  0.00     0.159 HD
ATOM     26  O   UNL A   1      27.176  31.786  23.769  1.00  0.00    -0.269 OA
ENDBRANCH  21  22
ENDBRANCH  15  21
ENDBRANCH  11  14
ENDBRANCH  10  11
ENDBRANCH   6  10
ENDBRANCH   3   5
ENDBRANCH   2   3
ENDBRANCH   1   2
BRANCH   1  27
ATOM     27  C   UNL A   1      36.810  20.761  25.056  1.00  0.00     0.275 C 
BRANCH  27  28
ATOM     28  O   UNL A   1      37.510  21.532  26.047  1.00  0.00    -0.458 OA
BRANCH  28  29
ATOM     29  C   UNL A   1      38.847  21.329  26.117  1.00  0.00     0.338 C 
ATOM     30  O   UNL A   1      39.463  20.343  25.752  1.00  0.00    -0.246 OA
BRANCH  29  31
ATOM     31  C   UNL A   1      39.488  22.572  26.565  1.00  0.00     0.060 A 
ATOM     32  C   UNL A   1      38.972  23.767  26.067  1.00  0.00     0.016 A 
ATOM     33  C   UNL A   1      40.606  22.577  27.399  1.00  0.00     0.016 A 
ATOM     34  C   UNL A   1      39.570  24.979  26.391  1.00  0.00     0.010 A 
ATOM     35  C   UNL A   1      41.196  23.801  27.744  1.00  0.00     0.010 A 
ATOM     36  C   UNL A   1      40.687  25.012  27.236  1.00  0.00    -0.014 A 
BRANCH  36  37
ATOM     37  C   UNL A   1      41.341  26.318  27.520  1.00  0.00     0.031 A 
ATOM     38  C   UNL A   1      42.684  26.631  26.917  1.00  0.00     0.074 A 
ATOM     39  C   UNL A   1      40.707  27.244  28.266  1.00  0.00     0.049 A 
ATOM     40  N   UNL A   1      43.454  27.672  27.101  1.00  0.00    -0.248 NA
ATOM     41  C   UNL A   1      43.231  25.632  25.989  1.00  0.00     0.031 C 
ATOM     42  C   UNL A   1      39.378  27.081  28.858  1.00  0.00     0.029 A 
ATOM     43  N   UNL A   1      41.084  28.509  28.640  1.00  0.00    -0.354 N 
ATOM     44  C   UNL A   1      44.596  27.440  26.340  1.00  0.00     0.074 A 
ATOM     45  C   UNL A   1      44.420  26.147  25.709  1.00  0.00     0.031 C 
ATOM     46  C   UNL A   1      39.040  28.212  29.497  1.00  0.00     0.029 A 
ATOM     47  C   UNL A   1      40.154  29.154  29.422  1.00  0.00     0.049 A 
ATOM     48  H   UNL A   1      41.940  28.917  28.375  1.00  0.00     0.167 HD
ATOM     49  C   UNL A   1      45.687  28.233  26.183  1.00  0.00     0.034 A 
ATOM     50  C   UNL A   1      40.204  30.351  30.040  1.00  0.00     0.034 A 
ATOM     51  C   UNL A   1      45.832  29.530  26.802  1.00  0.00     0.049 A 
ATOM     52  C   UNL A   1      41.445  31.192  29.895  1.00  0.00     0.074 A 
ATOM     53  C   UNL A   1      46.889  30.419  26.707  1.00  0.00     0.029 A 
ATOM     54  N   UNL A   1      44.891  30.126  27.632  1.00  0.00    -0.354 N 
ATOM     55  N   UNL A   1      42.539  30.938  29.214  1.00  0.00    -0.248 NA
ATOM     56  C   UNL A   1      41.462  32.476  30.608  1.00  0.00     0.031 C 
ATOM     57  C   UNL A   1      46.615  31.521  27.526  1.00  0.00     0.029 A 
ATOM     58  C   UNL A   1      45.355  31.356  28.078  1.00  0.00     0.049 A 
ATOM     59  H   UNL A   1      44.020  29.733  27.871  1.00  0.00     0.167 HD
ATOM     60  C   UNL A   1      43.372  32.035  29.412  1.00  0.00     0.074 A 
ATOM     61  C   UNL A   1      42.643  32.962  30.255  1.00  0.00     0.031 C 
ATOM     62  C   UNL A   1      44.626  32.257  28.940  1.00  0.00     0.034 A 
BRANCH  49  63
ATOM     63  C   UNL A   1      46.830  27.679  25.366  1.00  0.00     0.023 A 
ATOM     64  C   UNL A   1      47.074  28.090  24.044  1.00  0.00     0.031 A 
ATOM     65  C   UNL A   1      47.659  26.678  25.906  1.00  0.00     0.131 A 
ATOM     66  C   UNL A   1      48.063  27.448  23.282  1.00  0.00     0.055 A 
ATOM     67  C   UNL A   1      48.695  26.101  25.170  1.00  0.00     0.041 A 
ATOM     68  F   UNL A   1      47.462  26.229  27.156  1.00  0.00    -0.206 F 
ATOM     69  C   UNL A   1      48.891  26.472  23.844  1.00  0.00     0.022 A 
BRANCH  66  70
ATOM     70  S   UNL A   1      48.147  27.790  21.502  1.00  0.00     0.124 S 
ATOM     71  O   UNL A   1      46.824  28.357  21.248  1.00  0.00    -0.237 OA
ATOM     72  O   UNL A   1      49.268  28.717  21.412  1.00  0.00    -0.237 OA
ATOM     73  O   UNL A   1      48.375  26.473  20.910  1.00  0.00    -0.744 OA
ENDBRANCH  66  70
ENDBRANCH  49  63
BRANCH  50  74
ATOM     74  C   UNL A   1      39.073  30.797  30.905  1.00  0.00     0.023 A 
ATOM     75  C   UNL A   1      37.962  31.469  30.372  1.00  0.00     0.031 A 
ATOM     76  C   UNL A   1      39.105  30.574  32.295  1.00  0.00     0.131 A 
ATOM     77  C   UNL A   1      36.941  31.916  31.226  1.00  0.00     0.055 A 
ATOM     78  C   UNL A   1      38.065  30.977  33.132  1.00  0.00     0.041 A 
ATOM     79  F   UNL A   1      40.147  29.939  32.856  1.00  0.00    -0.206 F 
ATOM     80  C   UNL A   1      36.977  31.660  32.600  1.00  0.00     0.022 A 
BRANCH  77  81
ATOM     81  S   UNL A   1      35.583  32.896  30.526  1.00  0.00     0.124 S 
ATOM     82  O   UNL A   1      35.934  34.243  30.960  1.00  0.00    -0.237 OA
ATOM     83  O   UNL A   1      35.719  32.625  29.099  1.00  0.00    -0.237 OA
ATOM     84  O   UNL A   1      34.393  32.326  31.155  1.00  0.00    -0.744 OA
ENDBRANCH  77  81
ENDBRANCH  50  74
BRANCH  62  85
ATOM     85  C   UNL A   1      45.267  33.570  29.312  1.00  0.00     0.023 A 
ATOM     86  C   UNL A   1      45.107  34.720  28.518  1.00  0.00     0.031 A 
ATOM     87  C   UNL A   1      46.066  33.666  30.465  1.00  0.00     0.131 A 
ATOM     88  C   UNL A   1      45.782  35.903  28.860  1.00  0.00     0.055 A 
ATOM     89  C   UNL A   1      46.690  34.860  30.829  1.00  0.00     0.041 A 
ATOM     90  F   UNL A   1      46.254  32.598  31.256  1.00  0.00    -0.206 F 
ATOM     91  C   UNL A   1      46.560  35.983  30.018  1.00  0.00     0.022 A 
BRANCH  88  92
ATOM     92  S   UNL A   1      45.698  37.314  27.722  1.00  0.00     0.124 S 
ATOM     93  O   UNL A   1      44.282  37.337  27.373  1.00  0.00    -0.237 OA
ATOM     94  O   UNL A   1      46.168  38.416  28.555  1.00  0.00    -0.237 OA
ATOM     95  O   UNL A   1      46.598  36.932  26.636  1.00  0.00    -0.744 OA
ENDBRANCH  88  92
ENDBRANCH  62  85
ENDBRANCH  36  37
ENDBRANCH  29  31
ENDBRANCH  28  29
ENDBRANCH  27  28
ENDBRANCH   1  27
TORSDOF 19
ENDMDL
MODEL 3
REMARK VINA RESULT:     -11.1      5.199     10.410
REMARK SMILES NC(=O)C[NH+]1CCC([NH2+]Cc2cc(C(=O)OCCOC(=O)c3ccc(-c4c5nc(c(-c6cc(S(=O)(=O)[O-])ccc6F)c6ccc([nH]6)c(-c6cc(S(=O)(=O)[O-])ccc6F)c6nc(c(-c7cc(S(=O)(=O)[O-])ccc7F)c7ccc4[nH]7)C=C6)C=C5)cc3)cs2)CC1
REMARK SMILES IDX 17 1 16 2 14 3 15 4 13 5 11 6 12 7 86 8 85 9 10 10 9 11 8 14
REMARK SMILES IDX 5 15 6 16 88 17 7 19 87 20 4 21 2 22 1 23 3 26 18 27 19 28
REMARK SMILES IDX 20 29 21 30 22 31 23 32 84 33 24 34 83 35 25 36 26 37 27 38
REMARK SMILES IDX 77 39 28 40 82 41 76 42 78 43 29 44 81 45 75 46 74 47 30 49
REMARK SMILES IDX 62 50 42 51 61 52 43 53 46 54 60 55 79 56 44 57 45 58 59 60
REMARK SMILES IDX 80 61 47 62 31 63 32 64 40 65 33 66 39 67 41 68 38 69 34 70
REMARK SMILES IDX 35 71 36 72 37 73 63 74 64 75 72 76 65 77 71 78 73 79 70 80
REMARK SMILES IDX 66 81 67 82 68 83 69 84 48 85 49 86 57 87 50 88 56 89 58 90
REMARK SMILES IDX 55 91 51 92 52 93 53 94 54 95
REMARK H PARENT 9 12 9 13 5 18 1 24 1 25 78 48 46 59
REMARK Flexibility Score: inf
ROOT
ATOM      1  C   UNL A   1      31.504  29.354  24.340  1.00  0.00     0.275 C 
ENDROOT
BRANCH   1   2
ATOM      2  O   UNL A   1      30.482  28.337  24.306  1.00  0.00    -0.458 OA
BRANCH   2   3
ATOM      3  C   UNL A   1      30.838  27.121  23.783  1.00  0.00     0.339 C 
ATOM      4  O   UNL A   1      30.849  26.856  22.593  1.00  0.00    -0.246 OA
BRANCH   3   5
ATOM      5  C   UNL A   1      31.295  26.196  24.821  1.00  0.00     0.071 A 
ATOM      6  C   UNL A   1      32.787  24.769  25.939  1.00  0.00     0.060 A 
ATOM      7  C   UNL A   1      32.653  25.920  25.181  1.00  0.00     0.037 A 
ATOM      8  S   UNL A   1      31.261  24.226  26.490  1.00  0.00    -0.142 S 
ATOM      9  C   UNL A   1      30.439  25.428  25.590  1.00  0.00     0.081 A 
BRANCH   6  10
ATOM     10  C   UNL A   1      34.045  24.011  26.271  1.00  0.00     0.308 C 
BRANCH  10  11
ATOM     11  N   UNL A   1      34.585  23.227  25.142  1.00  0.00    -0.339 N 
ATOM     12  H   UNL A   1      34.477  23.775  24.288  1.00  0.00     0.346 HD
ATOM     13  H   UNL A   1      35.562  23.029  25.356  1.00  0.00     0.346 HD
BRANCH  11  14
ATOM     14  C   UNL A   1      33.915  21.935  24.950  1.00  0.00     0.194 C 
ATOM     15  N   UNL A   1      33.160  19.379  23.815  1.00  0.00    -0.327 N 
ATOM     16  C   UNL A   1      32.331  20.563  23.579  1.00  0.00     0.268 C 
ATOM     17  C   UNL A   1      34.105  19.458  24.922  1.00  0.00     0.268 C 
ATOM     18  H   UNL A   1      33.762  19.399  22.991  1.00  0.00     0.348 HD
ATOM     19  C   UNL A   1      33.113  21.887  23.645  1.00  0.00     0.126 C 
ATOM     20  C   UNL A   1      34.900  20.759  24.889  1.00  0.00     0.126 C 
BRANCH  15  21
ATOM     21  C   UNL A   1      32.456  18.085  23.725  1.00  0.00     0.363 C 
BRANCH  21  22
ATOM     22  C   UNL A   1      33.352  16.855  23.539  1.00  0.00     0.272 C 
ATOM     23  N   UNL A   1      33.337  15.914  24.526  1.00  0.00    -0.365 N 
ATOM     24  H   UNL A   1      33.897  15.108  24.446  1.00  0.00     0.159 HD
ATOM     25  H   UNL A   1      32.767  16.039  25.319  1.00  0.00     0.159 HD
ATOM     26  O   UNL A   1      34.103  16.713  22.577  1.00  0.00    -0.269 OA
ENDBRANCH  21  22
ENDBRANCH  15  21
ENDBRANCH  11  14
ENDBRANCH  10  11
ENDBRANCH   6  10
ENDBRANCH   3   5
ENDBRANCH   2   3
ENDBRANCH   1   2
BRANCH   1  27
ATOM     27  C   UNL A   1      31.628  30.003  25.722  1.00  0.00     0.275 C 
BRANCH  27  28
ATOM     28  O   UNL A   1      33.007  30.257  26.040  1.00  0.00    -0.458 OA
BRANCH  28  29
ATOM     29  C   UNL A   1      33.237  31.283  26.893  1.00  0.00     0.338 C 
ATOM     30  O   UNL A   1      32.475  32.189  27.178  1.00  0.00    -0.246 OA
BRANCH  29  31
ATOM     31  C   UNL A   1      34.521  31.052  27.569  1.00  0.00     0.060 A 
ATOM     32  C   UNL A   1      34.812  29.744  27.948  1.00  0.00     0.016 A 
ATOM     33  C   UNL A   1      35.394  32.093  27.886  1.00  0.00     0.016 A 
ATOM     34  C   UNL A   1      35.976  29.460  28.654  1.00  0.00     0.010 A 
ATOM     35  C   UNL A   1      36.579  31.803  28.578  1.00  0.00     0.010 A 
ATOM     36  C   UNL A   1      36.875  30.485  28.975  1.00  0.00    -0.014 A 
BRANCH  36  37
ATOM     37  C   UNL A   1      38.084  30.161  29.780  1.00  0.00     0.031 A 
ATOM     38  C   UNL A   1      39.142  29.255  29.213  1.00  0.00     0.074 A 
ATOM     39  C   UNL A   1      38.261  30.727  30.991  1.00  0.00     0.049 A 
ATOM     40  N   UNL A   1      40.226  28.789  29.778  1.00  0.00    -0.248 NA
ATOM     41  C   UNL A   1      38.946  28.810  27.827  1.00  0.00     0.031 C 
ATOM     42  C   UNL A   1      37.335  31.667  31.624  1.00  0.00     0.029 A 
ATOM     43  N   UNL A   1      39.285  30.609  31.897  1.00  0.00    -0.354 N 
ATOM     44  C   UNL A   1      40.826  27.966  28.830  1.00  0.00     0.074 A 
ATOM     45  C   UNL A   1      39.969  27.985  27.661  1.00  0.00     0.031 C 
ATOM     46  C   UNL A   1      37.845  32.060  32.802  1.00  0.00     0.029 A 
ATOM     47  C   UNL A   1      39.098  31.349  33.041  1.00  0.00     0.049 A 
ATOM     48  H   UNL A   1      40.079  30.047  31.743  1.00  0.00     0.167 HD
ATOM     49  C   UNL A   1      41.983  27.262  28.927  1.00  0.00     0.034 A 
ATOM     50  C   UNL A   1      39.831  31.421  34.171  1.00  0.00     0.034 A 
ATOM     51  C   UNL A   1      42.835  27.276  30.093  1.00  0.00     0.049 A 
ATOM     52  C   UNL A   1      41.084  30.591  34.278  1.00  0.00     0.074 A 
ATOM     53  C   UNL A   1      44.030  26.607  30.298  1.00  0.00     0.029 A 
ATOM     54  N   UNL A   1      42.584  27.996  31.255  1.00  0.00    -0.354 N 
ATOM     55  N   UNL A   1      41.613  29.778  33.393  1.00  0.00    -0.248 NA
ATOM     56  C   UNL A   1      41.833  30.684  35.537  1.00  0.00     0.031 C 
ATOM     57  C   UNL A   1      44.468  26.873  31.601  1.00  0.00     0.029 A 
ATOM     58  C   UNL A   1      43.585  27.765  32.188  1.00  0.00     0.049 A 
ATOM     59  H   UNL A   1      41.807  28.584  31.396  1.00  0.00     0.167 HD
ATOM     60  C   UNL A   1      42.761  29.266  33.988  1.00  0.00     0.074 A 
ATOM     61  C   UNL A   1      42.860  29.883  35.296  1.00  0.00     0.031 C 
ATOM     62  C   UNL A   1      43.655  28.368  33.499  1.00  0.00     0.034 A 
BRANCH  49  63
ATOM     63  C   UNL A   1      42.346  26.368  27.765  1.00  0.00     0.023 A 
ATOM     64  C   UNL A   1      42.007  25.004  27.735  1.00  0.00     0.031 A 
ATOM     65  C   UNL A   1      43.097  26.882  26.691  1.00  0.00     0.131 A 
ATOM     66  C   UNL A   1      42.485  24.187  26.698  1.00  0.00     0.055 A 
ATOM     67  C   UNL A   1      43.499  26.081  25.621  1.00  0.00     0.041 A 
ATOM     68  F   UNL A   1      43.469  28.172  26.674  1.00  0.00    -0.206 F 
ATOM     69  C   UNL A   1      43.209  24.720  25.629  1.00  0.00     0.022 A 
BRANCH  66  70
ATOM     70  S   UNL A   1      42.286  22.389  26.848  1.00  0.00     0.124 S 
ATOM     71  O   UNL A   1      43.419  21.900  26.066  1.00  0.00    -0.237 OA
ATOM     72  O   UNL A   1      42.365  22.183  28.289  1.00  0.00    -0.237 OA
ATOM     73  O   UNL A   1      40.974  22.138  26.252  1.00  0.00    -0.744 OA
ENDBRANCH  66  70
ENDBRANCH  49  63
BRANCH  50  74
ATOM     74  C   UNL A   1      39.365  32.257  35.315  1.00  0.00     0.023 A 
ATOM     75  C   UNL A   1      39.802  33.580  35.483  1.00  0.00     0.031 A 
ATOM     76  C   UNL A   1      38.485  31.725  36.277  1.00  0.00     0.131 A 
ATOM     77  C   UNL A   1      39.380  34.317  36.601  1.00  0.00     0.055 A 
ATOM     78  C   UNL A   1      38.030  32.479  37.359  1.00  0.00     0.041 A 
ATOM     79  F   UNL A   1      38.039  30.463  36.165  1.00  0.00    -0.206 F 
ATOM     80  C   UNL A   1      38.484  33.782  37.531  1.00  0.00     0.022 A 
BRANCH  77  81
ATOM     81  S   UNL A   1      40.065  35.978  36.862  1.00  0.00     0.124 S 
ATOM     82  O   UNL A   1      39.300  36.438  38.016  1.00  0.00    -0.237 OA
ATOM     83  O   UNL A   1      41.476  35.689  37.100  1.00  0.00    -0.237 OA
ATOM     84  O   UNL A   1      39.776  36.666  35.606  1.00  0.00    -0.744 OA
ENDBRANCH  77  81
ENDBRANCH  50  74
BRANCH  62  85
ATOM     85  C   UNL A   1      44.828  28.028  34.384  1.00  0.00     0.023 A 
ATOM     86  C   UNL A   1      44.749  27.013  35.354  1.00  0.00     0.031 A 
ATOM     87  C   UNL A   1      46.033  28.743  34.267  1.00  0.00     0.131 A 
ATOM     88  C   UNL A   1      45.839  26.779  36.207  1.00  0.00     0.055 A 
ATOM     89  C   UNL A   1      47.132  28.467  35.082  1.00  0.00     0.041 A 
ATOM     90  F   UNL A   1      46.161  29.722  33.358  1.00  0.00    -0.206 F 
ATOM     91  C   UNL A   1      47.034  27.489  36.067  1.00  0.00     0.022 A 
BRANCH  88  92
ATOM     92  S   UNL A   1      45.644  25.588  37.563  1.00  0.00     0.124 S 
ATOM     93  O   UNL A   1      44.882  26.361  38.537  1.00  0.00    -0.237 OA
ATOM     94  O   UNL A   1      44.929  24.493  36.916  1.00  0.00    -0.237 OA
ATOM     95  O   UNL A   1      47.020  25.284  37.951  1.00  0.00    -0.744 OA
ENDBRANCH  88  92
ENDBRANCH  62  85
ENDBRANCH  36  37
ENDBRANCH  29  31
ENDBRANCH  28  29
ENDBRANCH  27  28
ENDBRANCH   1  27
TORSDOF 19
ENDMDL
