MODEL 1
REMARK VINA RESULT:     -10.6      0.000      0.000
REMARK SMILES CCCN(CC(=O)OCCOC(=O)c1ccc(-c2c3nc(c(-c4cc(S(=O)(=O)[O-])ccc4F)c4ccc([nH]4)c(-c4cc(S(=O)(=O)[O-])ccc4F)c4nc(c(-c5cc(S(=O)(=O)[O-])ccc5F)c5ccc2[nH]5)C=C4)C=C3)cc1)C(=O)Cc1ccc(F)c(F)c1
REMARK SMILES IDX 9 1 8 2 6 3 7 4 5 5 4 6 3 7 2 8 1 9 77 10 78 11 79 12 80 13
REMARK SMILES IDX 81 14 87 15 82 16 85 17 83 18 86 19 84 20 10 21 11 22 12 23
REMARK SMILES IDX 13 24 14 25 15 26 76 27 16 28 75 29 17 30 18 31 19 32 69 33
REMARK SMILES IDX 20 34 74 35 68 36 70 37 21 38 73 39 67 40 66 41 22 43 54 44
REMARK SMILES IDX 34 45 53 46 35 47 38 48 52 49 71 50 36 51 37 52 51 54 72 55
REMARK SMILES IDX 39 56 23 57 24 58 32 59 25 60 31 61 33 62 30 63 26 64 27 65
REMARK SMILES IDX 28 66 29 67 55 68 56 69 64 70 57 71 63 72 65 73 62 74 58 75
REMARK SMILES IDX 59 76 60 77 61 78 40 79 41 80 49 81 42 82 48 83 50 84 47 85
REMARK SMILES IDX 43 86 44 87 45 88 46 89
REMARK H PARENT 70 42 38 53
REMARK Flexibility Score: inf
ROOT
ATOM      1  C   UNL A   1      32.024  29.371  24.750  1.00  0.00     0.274 C 
ENDROOT
BRANCH   1   2
ATOM      2  O   UNL A   1      31.254  29.221  23.542  1.00  0.00    -0.461 OA
BRANCH   2   3
ATOM      3  C   UNL A   1      31.303  27.987  22.976  1.00  0.00     0.325 C 
ATOM      4  O   UNL A   1      30.654  27.646  21.992  1.00  0.00    -0.250 OA
BRANCH   3   5
ATOM      5  C   UNL A   1      32.373  27.080  23.579  1.00  0.00     0.242 C 
BRANCH   5   6
ATOM      6  N   UNL A   1      32.311  25.632  23.353  1.00  0.00    -0.331 N 
BRANCH   6   7
ATOM      7  C   UNL A   1      31.393  24.866  24.194  1.00  0.00     0.120 C 
BRANCH   7   8
ATOM      8  C   UNL A   1      31.567  25.182  25.693  1.00  0.00     0.018 C 
ATOM      9  C   UNL A   1      32.312  24.114  26.488  1.00  0.00     0.006 C 
ENDBRANCH   7   8
ENDBRANCH   6   7
BRANCH   6  10
ATOM     10  C   UNL A   1      33.028  24.933  22.389  1.00  0.00     0.227 C 
ATOM     11  O   UNL A   1      33.461  25.523  21.391  1.00  0.00    -0.275 OA
BRANCH  10  12
ATOM     12  C   UNL A   1      33.296  23.443  22.536  1.00  0.00     0.135 C 
BRANCH  12  13
ATOM     13  C   UNL A   1      34.255  22.924  23.600  1.00  0.00    -0.036 A 
ATOM     14  C   UNL A   1      34.163  21.680  24.245  1.00  0.00     0.007 A 
ATOM     15  C   UNL A   1      35.368  23.732  23.905  1.00  0.00     0.046 A 
ATOM     16  C   UNL A   1      35.190  21.211  25.072  1.00  0.00     0.043 A 
ATOM     17  C   UNL A   1      36.366  23.278  24.767  1.00  0.00     0.159 A 
ATOM     18  C   UNL A   1      36.293  22.012  25.321  1.00  0.00     0.158 A 
ATOM     19  F   UNL A   1      37.413  24.064  25.034  1.00  0.00    -0.204 F 
ATOM     20  F   UNL A   1      37.281  21.546  26.095  1.00  0.00    -0.204 F 
ENDBRANCH  12  13
ENDBRANCH  10  12
ENDBRANCH   6  10
ENDBRANCH   5   6
ENDBRANCH   3   5
ENDBRANCH   2   3
ENDBRANCH   1   2
BRANCH   1  21
ATOM     21  C   UNL A   1      31.482  30.518  25.602  1.00  0.00     0.275 C 
BRANCH  21  22
ATOM     22  O   UNL A   1      32.072  30.506  26.918  1.00  0.00    -0.458 OA
BRANCH  22  23
ATOM     23  C   UNL A   1      32.845  31.578  27.200  1.00  0.00     0.338 C 
ATOM     24  O   UNL A   1      32.537  32.757  27.083  1.00  0.00    -0.246 OA
BRANCH  23  25
ATOM     25  C   UNL A   1      34.173  31.170  27.683  1.00  0.00     0.060 A 
ATOM     26  C   UNL A   1      34.453  29.829  27.941  1.00  0.00     0.016 A 
ATOM     27  C   UNL A   1      35.084  32.162  28.052  1.00  0.00     0.016 A 
ATOM     28  C   UNL A   1      35.601  29.491  28.662  1.00  0.00     0.010 A 
ATOM     29  C   UNL A   1      36.278  31.810  28.688  1.00  0.00     0.010 A 
ATOM     30  C   UNL A   1      36.530  30.476  29.044  1.00  0.00    -0.014 A 
BRANCH  30  31
ATOM     31  C   UNL A   1      37.751  30.105  29.818  1.00  0.00     0.031 A 
ATOM     32  C   UNL A   1      38.773  29.146  29.254  1.00  0.00     0.074 A 
ATOM     33  C   UNL A   1      37.962  30.650  31.033  1.00  0.00     0.049 A 
ATOM     34  N   UNL A   1      39.891  28.720  29.789  1.00  0.00    -0.248 NA
ATOM     35  C   UNL A   1      38.509  28.600  27.913  1.00  0.00     0.031 C 
ATOM     36  C   UNL A   1      37.068  31.601  31.698  1.00  0.00     0.029 A 
ATOM     37  N   UNL A   1      38.992  30.487  31.925  1.00  0.00    -0.354 N 
ATOM     38  C   UNL A   1      40.489  27.907  28.832  1.00  0.00     0.074 A 
ATOM     39  C   UNL A   1      39.574  27.836  27.713  1.00  0.00     0.031 C 
ATOM     40  C   UNL A   1      37.599  31.951  32.879  1.00  0.00     0.029 A 
ATOM     41  C   UNL A   1      38.833  31.201  33.089  1.00  0.00     0.049 A 
ATOM     42  H   UNL A   1      39.773  29.912  31.749  1.00  0.00     0.167 HD
ATOM     43  C   UNL A   1      41.700  27.297  28.865  1.00  0.00     0.034 A 
ATOM     44  C   UNL A   1      39.566  31.224  34.219  1.00  0.00     0.034 A 
ATOM     45  C   UNL A   1      42.594  27.324  29.998  1.00  0.00     0.049 A 
ATOM     46  C   UNL A   1      40.801  30.372  34.314  1.00  0.00     0.074 A 
ATOM     47  C   UNL A   1      43.846  26.745  30.126  1.00  0.00     0.029 A 
ATOM     48  N   UNL A   1      42.320  27.941  31.210  1.00  0.00    -0.354 N 
ATOM     49  N   UNL A   1      41.347  29.607  33.400  1.00  0.00    -0.248 NA
ATOM     50  C   UNL A   1      41.507  30.376  35.602  1.00  0.00     0.031 C 
ATOM     51  C   UNL A   1      44.292  26.943  31.439  1.00  0.00     0.029 A 
ATOM     52  C   UNL A   1      43.350  27.704  32.112  1.00  0.00     0.049 A 
ATOM     53  H   UNL A   1      41.513  28.468  31.404  1.00  0.00     0.167 HD
ATOM     54  C   UNL A   1      42.469  29.045  33.999  1.00  0.00     0.074 A 
ATOM     55  C   UNL A   1      42.527  29.568  35.349  1.00  0.00     0.031 C 
ATOM     56  C   UNL A   1      43.375  28.181  33.474  1.00  0.00     0.034 A 
BRANCH  43  57
ATOM     57  C   UNL A   1      42.111  26.512  27.644  1.00  0.00     0.023 A 
ATOM     58  C   UNL A   1      41.844  25.134  27.531  1.00  0.00     0.031 A 
ATOM     59  C   UNL A   1      42.782  27.146  26.584  1.00  0.00     0.131 A 
ATOM     60  C   UNL A   1      42.281  24.429  26.399  1.00  0.00     0.055 A 
ATOM     61  C   UNL A   1      43.169  26.449  25.439  1.00  0.00     0.041 A 
ATOM     62  F   UNL A   1      43.080  28.453  26.651  1.00  0.00    -0.206 F 
ATOM     63  C   UNL A   1      42.928  25.081  25.346  1.00  0.00     0.022 A 
BRANCH  60  64
ATOM     64  S   UNL A   1      42.095  22.624  26.364  1.00  0.00     0.124 S 
ATOM     65  O   UNL A   1      42.661  22.285  25.061  1.00  0.00    -0.237 OA
ATOM     66  O   UNL A   1      42.867  22.205  27.528  1.00  0.00    -0.237 OA
ATOM     67  O   UNL A   1      40.650  22.428  26.473  1.00  0.00    -0.744 OA
ENDBRANCH  60  64
ENDBRANCH  43  57
BRANCH  44  68
ATOM     68  C   UNL A   1      39.100  32.023  35.386  1.00  0.00     0.023 A 
ATOM     69  C   UNL A   1      38.430  31.425  36.463  1.00  0.00     0.031 A 
ATOM     70  C   UNL A   1      39.315  33.414  35.426  1.00  0.00     0.131 A 
ATOM     71  C   UNL A   1      37.985  32.220  37.531  1.00  0.00     0.055 A 
ATOM     72  C   UNL A   1      38.908  34.191  36.509  1.00  0.00     0.041 A 
ATOM     73  F   UNL A   1      39.950  34.031  34.416  1.00  0.00    -0.206 F 
ATOM     74  C   UNL A   1      38.233  33.596  37.568  1.00  0.00     0.022 A 
BRANCH  71  75
ATOM     75  S   UNL A   1      37.036  31.439  38.866  1.00  0.00     0.124 S 
ATOM     76  O   UNL A   1      37.928  31.612  40.007  1.00  0.00    -0.237 OA
ATOM     77  O   UNL A   1      35.815  32.239  38.879  1.00  0.00    -0.237 OA
ATOM     78  O   UNL A   1      36.871  30.063  38.406  1.00  0.00    -0.744 OA
ENDBRANCH  71  75
ENDBRANCH  44  68
BRANCH  56  79
ATOM     79  C   UNL A   1      44.506  27.755  34.375  1.00  0.00     0.023 A 
ATOM     80  C   UNL A   1      44.387  26.634  35.216  1.00  0.00     0.031 A 
ATOM     81  C   UNL A   1      45.697  28.498  34.424  1.00  0.00     0.131 A 
ATOM     82  C   UNL A   1      45.422  26.319  36.110  1.00  0.00     0.055 A 
ATOM     83  C   UNL A   1      46.745  28.149  35.279  1.00  0.00     0.041 A 
ATOM     84  F   UNL A   1      45.861  29.580  33.647  1.00  0.00    -0.206 F 
ATOM     85  C   UNL A   1      46.605  27.062  36.137  1.00  0.00     0.022 A 
BRANCH  82  86
ATOM     86  S   UNL A   1      45.167  24.976  37.302  1.00  0.00     0.124 S 
ATOM     87  O   UNL A   1      43.717  24.807  37.265  1.00  0.00    -0.237 OA
ATOM     88  O   UNL A   1      45.951  23.890  36.724  1.00  0.00    -0.237 OA
ATOM     89  O   UNL A   1      45.693  25.521  38.553  1.00  0.00    -0.744 OA
ENDBRANCH  82  86
ENDBRANCH  56  79
ENDBRANCH  30  31
ENDBRANCH  23  25
ENDBRANCH  22  23
ENDBRANCH  21  22
ENDBRANCH   1  21
TORSDOF 20
ENDMDL
MODEL 2
REMARK VINA RESULT:     -10.6      5.347     10.224
REMARK SMILES CCCN(CC(=O)OCCOC(=O)c1ccc(-c2c3nc(c(-c4cc(S(=O)(=O)[O-])ccc4F)c4ccc([nH]4)c(-c4cc(S(=O)(=O)[O-])ccc4F)c4nc(c(-c5cc(S(=O)(=O)[O-])ccc5F)c5ccc2[nH]5)C=C4)C=C3)cc1)C(=O)Cc1ccc(F)c(F)c1
REMARK SMILES IDX 9 1 8 2 6 3 7 4 5 5 4 6 3 7 2 8 1 9 77 10 78 11 79 12 80 13
REMARK SMILES IDX 81 14 87 15 82 16 85 17 83 18 86 19 84 20 10 21 11 22 12 23
REMARK SMILES IDX 13 24 14 25 15 26 76 27 16 28 75 29 17 30 18 31 19 32 69 33
REMARK SMILES IDX 20 34 74 35 68 36 70 37 21 38 73 39 67 40 66 41 22 43 54 44
REMARK SMILES IDX 34 45 53 46 35 47 38 48 52 49 71 50 36 51 37 52 51 54 72 55
REMARK SMILES IDX 39 56 23 57 24 58 32 59 25 60 31 61 33 62 30 63 26 64 27 65
REMARK SMILES IDX 28 66 29 67 55 68 56 69 64 70 57 71 63 72 65 73 62 74 58 75
REMARK SMILES IDX 59 76 60 77 61 78 40 79 41 80 49 81 42 82 48 83 50 84 47 85
REMARK SMILES IDX 43 86 44 87 45 88 46 89
REMARK H PARENT 70 42 38 53
REMARK Flexibility Score: inf
ROOT
ATOM      1  C   UNL A   1      35.948  21.157  25.022  1.00  0.00     0.274 C 
ENDROOT
BRANCH   1   2
ATOM      2  O   UNL A   1      35.542  21.435  26.375  1.00  0.00    -0.461 OA
BRANCH   2   3
ATOM      3  C   UNL A   1      34.710  22.499  26.521  1.00  0.00     0.325 C 
ATOM      4  O   UNL A   1      34.286  22.910  27.597  1.00  0.00    -0.250 OA
BRANCH   3   5
ATOM      5  C   UNL A   1      34.460  23.262  25.222  1.00  0.00     0.242 C 
BRANCH   5   6
ATOM      6  N   UNL A   1      33.128  23.236  24.608  1.00  0.00    -0.331 N 
BRANCH   6   7
ATOM      7  C   UNL A   1      32.314  24.444  24.733  1.00  0.00     0.120 C 
BRANCH   7   8
ATOM      8  C   UNL A   1      31.786  24.651  26.167  1.00  0.00     0.018 C 
ATOM      9  C   UNL A   1      30.788  23.597  26.638  1.00  0.00     0.006 C 
ENDBRANCH   7   8
ENDBRANCH   6   7
BRANCH   6  10
ATOM     10  C   UNL A   1      32.588  22.173  23.895  1.00  0.00     0.227 C 
ATOM     11  O   UNL A   1      32.442  22.260  22.669  1.00  0.00    -0.275 OA
BRANCH  10  12
ATOM     12  C   UNL A   1      32.168  20.889  24.595  1.00  0.00     0.135 C 
BRANCH  12  13
ATOM     13  C   UNL A   1      32.633  19.533  24.082  1.00  0.00    -0.036 A 
ATOM     14  C   UNL A   1      32.140  18.877  22.943  1.00  0.00     0.007 A 
ATOM     15  C   UNL A   1      33.701  18.923  24.769  1.00  0.00     0.046 A 
ATOM     16  C   UNL A   1      32.754  17.723  22.443  1.00  0.00     0.043 A 
ATOM     17  C   UNL A   1      34.280  17.747  24.292  1.00  0.00     0.159 A 
ATOM     18  C   UNL A   1      33.830  17.168  23.119  1.00  0.00     0.158 A 
ATOM     19  F   UNL A   1      35.295  17.194  24.963  1.00  0.00    -0.204 F 
ATOM     20  F   UNL A   1      34.425  16.077  22.621  1.00  0.00    -0.204 F 
ENDBRANCH  12  13
ENDBRANCH  10  12
ENDBRANCH   6  10
ENDBRANCH   5   6
ENDBRANCH   3   5
ENDBRANCH   2   3
ENDBRANCH   1   2
BRANCH   1  21
ATOM     21  C   UNL A   1      37.275  20.399  24.996  1.00  0.00     0.275 C 
BRANCH  21  22
ATOM     22  O   UNL A   1      38.391  21.311  25.033  1.00  0.00    -0.458 OA
BRANCH  22  23
ATOM     23  C   UNL A   1      39.232  21.134  26.075  1.00  0.00     0.338 C 
ATOM     24  O   UNL A   1      39.614  20.067  26.539  1.00  0.00    -0.246 OA
BRANCH  23  25
ATOM     25  C   UNL A   1      39.665  22.421  26.641  1.00  0.00     0.060 A 
ATOM     26  C   UNL A   1      39.110  23.617  26.189  1.00  0.00     0.016 A 
ATOM     27  C   UNL A   1      40.766  22.437  27.499  1.00  0.00     0.016 A 
ATOM     28  C   UNL A   1      39.723  24.828  26.517  1.00  0.00     0.010 A 
ATOM     29  C   UNL A   1      41.317  23.656  27.902  1.00  0.00     0.010 A 
ATOM     30  C   UNL A   1      40.834  24.866  27.380  1.00  0.00    -0.014 A 
BRANCH  30  31
ATOM     31  C   UNL A   1      41.484  26.165  27.720  1.00  0.00     0.031 A 
ATOM     32  C   UNL A   1      40.735  27.242  28.470  1.00  0.00     0.074 A 
ATOM     33  C   UNL A   1      42.770  26.378  27.376  1.00  0.00     0.049 A 
ATOM     34  N   UNL A   1      41.149  28.425  28.850  1.00  0.00    -0.248 NA
ATOM     35  C   UNL A   1      39.342  26.949  28.846  1.00  0.00     0.031 C 
ATOM     36  C   UNL A   1      43.622  25.424  26.663  1.00  0.00     0.029 A 
ATOM     37  N   UNL A   1      43.589  27.461  27.580  1.00  0.00    -0.354 N 
ATOM     38  C   UNL A   1      40.094  28.992  29.557  1.00  0.00     0.074 A 
ATOM     39  C   UNL A   1      38.993  28.056  29.487  1.00  0.00     0.031 C 
ATOM     40  C   UNL A   1      44.844  25.954  26.508  1.00  0.00     0.029 A 
ATOM     41  C   UNL A   1      44.847  27.310  27.047  1.00  0.00     0.049 A 
ATOM     42  H   UNL A   1      43.301  28.271  28.062  1.00  0.00     0.167 HD
ATOM     43  C   UNL A   1      40.051  30.170  30.229  1.00  0.00     0.034 A 
ATOM     44  C   UNL A   1      45.878  28.172  26.959  1.00  0.00     0.034 A 
ATOM     45  C   UNL A   1      41.129  31.129  30.261  1.00  0.00     0.049 A 
ATOM     46  C   UNL A   1      45.733  29.556  27.529  1.00  0.00     0.074 A 
ATOM     47  C   UNL A   1      41.184  32.347  30.920  1.00  0.00     0.029 A 
ATOM     48  N   UNL A   1      42.331  30.994  29.581  1.00  0.00    -0.354 N 
ATOM     49  N   UNL A   1      44.726  30.074  28.190  1.00  0.00    -0.248 NA
ATOM     50  C   UNL A   1      46.860  30.475  27.324  1.00  0.00     0.031 C 
ATOM     51  C   UNL A   1      42.384  32.981  30.574  1.00  0.00     0.029 A 
ATOM     52  C   UNL A   1      43.109  32.131  29.754  1.00  0.00     0.049 A 
ATOM     53  H   UNL A   1      42.594  30.207  29.053  1.00  0.00     0.167 HD
ATOM     54  C   UNL A   1      45.103  31.379  28.491  1.00  0.00     0.074 A 
ATOM     55  C   UNL A   1      46.433  31.564  27.948  1.00  0.00     0.031 C 
ATOM     56  C   UNL A   1      44.411  32.334  29.163  1.00  0.00     0.034 A 
BRANCH  43  57
ATOM     57  C   UNL A   1      38.772  30.502  30.956  1.00  0.00     0.023 A 
ATOM     58  C   UNL A   1      37.738  31.228  30.333  1.00  0.00     0.031 A 
ATOM     59  C   UNL A   1      38.585  30.095  32.288  1.00  0.00     0.131 A 
ATOM     60  C   UNL A   1      36.581  31.557  31.058  1.00  0.00     0.055 A 
ATOM     61  C   UNL A   1      37.411  30.381  32.987  1.00  0.00     0.041 A 
ATOM     62  F   UNL A   1      39.548  29.419  32.935  1.00  0.00    -0.206 F 
ATOM     63  C   UNL A   1      36.405  31.124  32.375  1.00  0.00     0.022 A 
BRANCH  60  64
ATOM     64  S   UNL A   1      35.352  32.653  30.296  1.00  0.00     0.124 S 
ATOM     65  O   UNL A   1      36.078  33.918  30.221  1.00  0.00    -0.237 OA
ATOM     66  O   UNL A   1      35.083  31.990  29.025  1.00  0.00    -0.237 OA
ATOM     67  O   UNL A   1      34.244  32.639  31.250  1.00  0.00    -0.744 OA
ENDBRANCH  60  64
ENDBRANCH  43  57
BRANCH  44  68
ATOM     68  C   UNL A   1      47.112  27.776  26.226  1.00  0.00     0.023 A 
ATOM     69  C   UNL A   1      47.220  27.929  24.836  1.00  0.00     0.031 A 
ATOM     70  C   UNL A   1      48.204  27.222  26.921  1.00  0.00     0.131 A 
ATOM     71  C   UNL A   1      48.392  27.518  24.182  1.00  0.00     0.055 A 
ATOM     72  C   UNL A   1      49.381  26.855  26.272  1.00  0.00     0.041 A 
ATOM     73  F   UNL A   1      48.146  27.055  28.253  1.00  0.00    -0.206 F 
ATOM     74  C   UNL A   1      49.478  26.996  24.892  1.00  0.00     0.022 A 
BRANCH  71  75
ATOM     75  S   UNL A   1      48.470  27.635  22.373  1.00  0.00     0.124 S 
ATOM     76  O   UNL A   1      47.204  28.290  22.062  1.00  0.00    -0.237 OA
ATOM     77  O   UNL A   1      49.674  28.436  22.172  1.00  0.00    -0.237 OA
ATOM     78  O   UNL A   1      48.575  26.243  21.946  1.00  0.00    -0.744 OA
ENDBRANCH  71  75
ENDBRANCH  44  68
BRANCH  56  79
ATOM     79  C   UNL A   1      45.096  33.664  29.345  1.00  0.00     0.023 A 
ATOM     80  C   UNL A   1      44.958  34.692  28.396  1.00  0.00     0.031 A 
ATOM     81  C   UNL A   1      45.925  33.893  30.456  1.00  0.00     0.131 A 
ATOM     82  C   UNL A   1      45.682  35.885  28.548  1.00  0.00     0.055 A 
ATOM     83  C   UNL A   1      46.603  35.101  30.629  1.00  0.00     0.041 A 
ATOM     84  F   UNL A   1      46.096  32.943  31.389  1.00  0.00    -0.206 F 
ATOM     85  C   UNL A   1      46.494  36.100  29.666  1.00  0.00     0.022 A 
BRANCH  82  86
ATOM     86  S   UNL A   1      45.621  37.119  27.220  1.00  0.00     0.124 S 
ATOM     87  O   UNL A   1      44.184  37.246  26.989  1.00  0.00    -0.237 OA
ATOM     88  O   UNL A   1      46.273  38.271  27.833  1.00  0.00    -0.237 OA
ATOM     89  O   UNL A   1      46.368  36.492  26.132  1.00  0.00    -0.744 OA
ENDBRANCH  82  86
ENDBRANCH  56  79
ENDBRANCH  30  31
ENDBRANCH  23  25
ENDBRANCH  22  23
ENDBRANCH  21  22
ENDBRANCH   1  21
TORSDOF 20
ENDMDL
MODEL 3
REMARK VINA RESULT:     -10.2      4.193      6.974
REMARK SMILES CCCN(CC(=O)OCCOC(=O)c1ccc(-c2c3nc(c(-c4cc(S(=O)(=O)[O-])ccc4F)c4ccc([nH]4)c(-c4cc(S(=O)(=O)[O-])ccc4F)c4nc(c(-c5cc(S(=O)(=O)[O-])ccc5F)c5ccc2[nH]5)C=C4)C=C3)cc1)C(=O)Cc1ccc(F)c(F)c1
REMARK SMILES IDX 9 1 8 2 6 3 7 4 5 5 4 6 3 7 2 8 1 9 77 10 78 11 79 12 80 13
REMARK SMILES IDX 81 14 87 15 82 16 85 17 83 18 86 19 84 20 10 21 11 22 12 23
REMARK SMILES IDX 13 24 14 25 15 26 76 27 16 28 75 29 17 30 18 31 19 32 69 33
REMARK SMILES IDX 20 34 74 35 68 36 70 37 21 38 73 39 67 40 66 41 22 43 54 44
REMARK SMILES IDX 34 45 53 46 35 47 38 48 52 49 71 50 36 51 37 52 51 54 72 55
REMARK SMILES IDX 39 56 23 57 24 58 32 59 25 60 31 61 33 62 30 63 26 64 27 65
REMARK SMILES IDX 28 66 29 67 55 68 56 69 64 70 57 71 63 72 65 73 62 74 58 75
REMARK SMILES IDX 59 76 60 77 61 78 40 79 41 80 49 81 42 82 48 83 50 84 47 85
REMARK SMILES IDX 43 86 44 87 45 88 46 89
REMARK H PARENT 70 42 38 53
REMARK Flexibility Score: inf
ROOT
ATOM      1  C   UNL A   1      33.817  33.684  28.012  1.00  0.00     0.274 C 
ENDROOT
BRANCH   1   2
ATOM      2  O   UNL A   1      32.791  34.366  28.758  1.00  0.00    -0.461 OA
BRANCH   2   3
ATOM      3  C   UNL A   1      33.205  35.473  29.430  1.00  0.00     0.325 C 
ATOM      4  O   UNL A   1      33.651  36.484  28.897  1.00  0.00    -0.250 OA
BRANCH   3   5
ATOM      5  C   UNL A   1      32.920  35.419  30.929  1.00  0.00     0.242 C 
BRANCH   5   6
ATOM      6  N   UNL A   1      33.950  34.923  31.848  1.00  0.00    -0.331 N 
BRANCH   6   7
ATOM      7  C   UNL A   1      34.768  35.923  32.534  1.00  0.00     0.120 C 
BRANCH   7   8
ATOM      8  C   UNL A   1      33.915  37.003  33.227  1.00  0.00     0.018 C 
ATOM      9  C   UNL A   1      33.880  38.349  32.507  1.00  0.00     0.006 C 
ENDBRANCH   7   8
ENDBRANCH   6   7
BRANCH   6  10
ATOM     10  C   UNL A   1      34.194  33.587  32.143  1.00  0.00     0.227 C 
ATOM     11  O   UNL A   1      33.708  33.079  33.161  1.00  0.00    -0.275 OA
BRANCH  10  12
ATOM     12  C   UNL A   1      35.054  32.726  31.231  1.00  0.00     0.135 C 
BRANCH  12  13
ATOM     13  C   UNL A   1      36.441  33.186  30.801  1.00  0.00    -0.036 A 
ATOM     14  C   UNL A   1      36.906  33.252  29.478  1.00  0.00     0.007 A 
ATOM     15  C   UNL A   1      37.299  33.657  31.814  1.00  0.00     0.046 A 
ATOM     16  C   UNL A   1      38.126  33.862  29.164  1.00  0.00     0.043 A 
ATOM     17  C   UNL A   1      38.535  34.221  31.499  1.00  0.00     0.159 A 
ATOM     18  C   UNL A   1      38.932  34.352  30.180  1.00  0.00     0.158 A 
ATOM     19  F   UNL A   1      39.327  34.663  32.481  1.00  0.00    -0.204 F 
ATOM     20  F   UNL A   1      40.087  34.954  29.868  1.00  0.00    -0.204 F 
ENDBRANCH  12  13
ENDBRANCH  10  12
ENDBRANCH   6  10
ENDBRANCH   5   6
ENDBRANCH   3   5
ENDBRANCH   2   3
ENDBRANCH   1   2
BRANCH   1  21
ATOM     21  C   UNL A   1      33.280  32.385  27.411  1.00  0.00     0.275 C 
BRANCH  21  22
ATOM     22  O   UNL A   1      33.711  31.244  28.179  1.00  0.00    -0.458 OA
BRANCH  22  23
ATOM     23  C   UNL A   1      34.431  30.335  27.485  1.00  0.00     0.338 C 
ATOM     24  O   UNL A   1      34.063  29.696  26.508  1.00  0.00    -0.246 OA
BRANCH  23  25
ATOM     25  C   UNL A   1      35.778  30.170  28.054  1.00  0.00     0.060 A 
ATOM     26  C   UNL A   1      36.910  30.325  27.255  1.00  0.00     0.016 A 
ATOM     27  C   UNL A   1      35.898  29.678  29.355  1.00  0.00     0.016 A 
ATOM     28  C   UNL A   1      38.150  29.890  27.725  1.00  0.00     0.010 A 
ATOM     29  C   UNL A   1      37.157  29.333  29.855  1.00  0.00     0.010 A 
ATOM     30  C   UNL A   1      38.293  29.389  29.032  1.00  0.00    -0.014 A 
BRANCH  30  31
ATOM     31  C   UNL A   1      39.622  28.922  29.523  1.00  0.00     0.031 A 
ATOM     32  C   UNL A   1      40.279  27.689  28.948  1.00  0.00     0.074 A 
ATOM     33  C   UNL A   1      40.263  29.622  30.481  1.00  0.00     0.049 A 
ATOM     34  N   UNL A   1      41.432  27.147  29.255  1.00  0.00    -0.248 NA
ATOM     35  C   UNL A   1      39.550  26.977  27.886  1.00  0.00     0.031 C 
ATOM     36  C   UNL A   1      39.757  30.839  31.119  1.00  0.00     0.029 A 
ATOM     37  N   UNL A   1      41.479  29.415  31.085  1.00  0.00    -0.354 N 
ATOM     38  C   UNL A   1      41.593  26.071  28.389  1.00  0.00     0.074 A 
ATOM     39  C   UNL A   1      40.385  25.988  27.596  1.00  0.00     0.031 C 
ATOM     40  C   UNL A   1      40.661  31.280  32.006  1.00  0.00     0.029 A 
ATOM     41  C   UNL A   1      41.779  30.344  32.052  1.00  0.00     0.049 A 
ATOM     42  H   UNL A   1      42.079  28.671  30.847  1.00  0.00     0.167 HD
ATOM     43  C   UNL A   1      42.657  25.242  28.243  1.00  0.00     0.034 A 
ATOM     44  C   UNL A   1      42.812  30.419  32.914  1.00  0.00     0.034 A 
ATOM     45  C   UNL A   1      43.843  25.289  29.064  1.00  0.00     0.049 A 
ATOM     46  C   UNL A   1      43.882  29.364  32.876  1.00  0.00     0.074 A 
ATOM     47  C   UNL A   1      44.979  24.499  28.990  1.00  0.00     0.029 A 
ATOM     48  N   UNL A   1      44.036  26.156  30.130  1.00  0.00    -0.354 N 
ATOM     49  N   UNL A   1      44.013  28.352  32.053  1.00  0.00    -0.248 NA
ATOM     50  C   UNL A   1      44.934  29.455  33.897  1.00  0.00     0.031 C 
ATOM     51  C   UNL A   1      45.820  24.835  30.058  1.00  0.00     0.029 A 
ATOM     52  C   UNL A   1      45.243  25.881  30.760  1.00  0.00     0.049 A 
ATOM     53  H   UNL A   1      43.409  26.864  30.402  1.00  0.00     0.167 HD
ATOM     54  C   UNL A   1      45.170  27.690  32.450  1.00  0.00     0.074 A 
ATOM     55  C   UNL A   1      45.704  28.425  33.579  1.00  0.00     0.031 C 
ATOM     56  C   UNL A   1      45.743  26.579  31.920  1.00  0.00     0.034 A 
BRANCH  43  57
ATOM     57  C   UNL A   1      42.565  24.184  27.173  1.00  0.00     0.023 A 
ATOM     58  C   UNL A   1      41.720  23.066  27.313  1.00  0.00     0.031 A 
ATOM     59  C   UNL A   1      43.336  24.289  26.002  1.00  0.00     0.131 A 
ATOM     60  C   UNL A   1      41.697  22.079  26.315  1.00  0.00     0.055 A 
ATOM     61  C   UNL A   1      43.270  23.330  24.990  1.00  0.00     0.041 A 
ATOM     62  F   UNL A   1      44.174  25.323  25.828  1.00  0.00    -0.206 F 
ATOM     63  C   UNL A   1      42.454  22.212  25.148  1.00  0.00     0.022 A 
BRANCH  60  64
ATOM     64  S   UNL A   1      40.747  20.560  26.606  1.00  0.00     0.124 S 
ATOM     65  O   UNL A   1      41.521  19.570  25.861  1.00  0.00    -0.237 OA
ATOM     66  O   UNL A   1      40.781  20.441  28.059  1.00  0.00    -0.237 OA
ATOM     67  O   UNL A   1      39.434  20.864  26.038  1.00  0.00    -0.744 OA
ENDBRANCH  60  64
ENDBRANCH  43  57
BRANCH  44  68
ATOM     68  C   UNL A   1      42.837  31.493  33.945  1.00  0.00     0.023 A 
ATOM     69  C   UNL A   1      42.087  31.393  35.126  1.00  0.00     0.031 A 
ATOM     70  C   UNL A   1      43.615  32.650  33.748  1.00  0.00     0.131 A 
ATOM     71  C   UNL A   1      42.119  32.440  36.060  1.00  0.00     0.055 A 
ATOM     72  C   UNL A   1      43.676  33.668  34.698  1.00  0.00     0.041 A 
ATOM     73  F   UNL A   1      44.348  32.792  32.631  1.00  0.00    -0.206 F 
ATOM     74  C   UNL A   1      42.920  33.569  35.860  1.00  0.00     0.022 A 
BRANCH  71  75
ATOM     75  S   UNL A   1      41.066  32.331  37.533  1.00  0.00     0.124 S 
ATOM     76  O   UNL A   1      39.896  31.632  37.012  1.00  0.00    -0.237 OA
ATOM     77  O   UNL A   1      41.909  31.576  38.455  1.00  0.00    -0.237 OA
ATOM     78  O   UNL A   1      40.846  33.728  37.899  1.00  0.00    -0.744 OA
ENDBRANCH  71  75
ENDBRANCH  44  68
BRANCH  56  79
ATOM     79  C   UNL A   1      47.018  26.100  32.567  1.00  0.00     0.023 A 
ATOM     80  C   UNL A   1      48.274  26.560  32.132  1.00  0.00     0.031 A 
ATOM     81  C   UNL A   1      46.980  25.148  33.598  1.00  0.00     0.131 A 
ATOM     82  C   UNL A   1      49.445  26.027  32.692  1.00  0.00     0.055 A 
ATOM     83  C   UNL A   1      48.148  24.658  34.187  1.00  0.00     0.041 A 
ATOM     84  F   UNL A   1      45.808  24.672  34.048  1.00  0.00    -0.206 F 
ATOM     85  C   UNL A   1      49.389  25.088  33.726  1.00  0.00     0.022 A 
BRANCH  82  86
ATOM     86  S   UNL A   1      51.046  26.509  31.990  1.00  0.00     0.124 S 
ATOM     87  O   UNL A   1      51.820  26.825  33.187  1.00  0.00    -0.237 OA
ATOM     88  O   UNL A   1      51.448  25.306  31.270  1.00  0.00    -0.237 OA
ATOM     89  O   UNL A   1      50.721  27.657  31.145  1.00  0.00    -0.744 OA
ENDBRANCH  82  86
ENDBRANCH  56  79
ENDBRANCH  30  31
ENDBRANCH  23  25
ENDBRANCH  22  23
ENDBRANCH  21  22
ENDBRANCH   1  21
TORSDOF 20
ENDMDL
