MODEL 1
REMARK VINA RESULT:     -12.0      0.000      0.000
REMARK SMILES Cc1c(Cl)cccc1NC(=O)C[C@](C)(C(=O)OCCOC(=O)c1ccc(-c2c3nc(c(-c4cc(S(=O)(=O)[O-])ccc4F)c4ccc([nH]4)c(-c4cc(S(=O)(=O)[O-])ccc4F)c4nc(c(-c5cc(S(=O)(=O)[O-])ccc5F)c5ccc2[nH]5)C=C4)C=C3)cc1)c1ccccc1
REMARK SMILES IDX 18 1 17 2 15 3 16 4 13 5 14 6 12 7 10 8 9 9 11 11 8 12 1 13
REMARK SMILES IDX 2 14 3 15 4 16 5 17 7 18 6 19 86 20 87 21 91 22 88 23 90 24
REMARK SMILES IDX 89 25 19 26 20 27 21 28 22 29 23 30 24 31 85 32 25 33 84 34
REMARK SMILES IDX 26 35 27 36 28 37 78 38 29 39 83 40 77 41 79 42 30 43 82 44
REMARK SMILES IDX 76 45 75 46 31 48 63 49 43 50 62 51 44 52 47 53 61 54 80 55
REMARK SMILES IDX 45 56 46 57 60 59 81 60 48 61 32 62 33 63 41 64 34 65 40 66
REMARK SMILES IDX 42 67 39 68 35 69 36 70 37 71 38 72 64 73 65 74 73 75 66 76
REMARK SMILES IDX 72 77 74 78 71 79 67 80 68 81 69 82 70 83 49 84 50 85 58 86
REMARK SMILES IDX 51 87 57 88 59 89 56 90 52 91 53 92 54 93 55 94
REMARK H PARENT 9 10 79 47 47 58
REMARK Flexibility Score: inf
ROOT
ATOM      1  C   UNL A   1      35.955  22.335  24.020  1.00  0.00     0.274 C 
ENDROOT
BRANCH   1   2
ATOM      2  O   UNL A   1      34.804  22.674  24.824  1.00  0.00    -0.461 OA
BRANCH   2   3
ATOM      3  C   UNL A   1      33.573  22.392  24.304  1.00  0.00     0.316 C 
ATOM      4  O   UNL A   1      33.359  21.373  23.659  1.00  0.00    -0.251 OA
BRANCH   3   5
ATOM      5  C   UNL A   1      32.538  23.550  24.517  1.00  0.00     0.099 C 
ATOM      6  C   UNL A   1      31.110  23.061  24.126  1.00  0.00     0.029 C 
BRANCH   5   7
ATOM      7  C   UNL A   1      32.516  23.989  26.015  1.00  0.00     0.123 C 
BRANCH   7   8
ATOM      8  C   UNL A   1      31.174  24.293  26.656  1.00  0.00     0.225 C 
ATOM      9  N   UNL A   1      30.497  25.468  26.537  1.00  0.00    -0.326 N 
ATOM     10  H   UNL A   1      29.610  25.431  26.962  1.00  0.00     0.169 HD
ATOM     11  O   UNL A   1      30.619  23.421  27.336  1.00  0.00    -0.275 OA
BRANCH   9  12
ATOM     12  C   UNL A   1      30.753  26.723  25.953  1.00  0.00     0.045 A 
ATOM     13  C   UNL A   1      29.248  26.122  23.946  1.00  0.00     0.048 C 
ATOM     14  C   UNL A   1      30.199  27.034  24.685  1.00  0.00    -0.009 A 
ATOM     15  C   UNL A   1      30.601  28.233  24.047  1.00  0.00     0.046 A 
ATOM     16  Cl  UNL A   1      30.051  28.654  22.458  1.00  0.00    -0.084 Cl
ATOM     17  C   UNL A   1      31.490  29.116  24.655  1.00  0.00     0.021 A 
ATOM     18  C   UNL A   1      31.554  27.679  26.584  1.00  0.00     0.026 A 
ATOM     19  C   UNL A   1      31.945  28.853  25.935  1.00  0.00     0.004 A 
ENDBRANCH   9  12
ENDBRANCH   7   8
ENDBRANCH   5   7
BRANCH   5  20
ATOM     20  C   UNL A   1      32.881  24.822  23.665  1.00  0.00    -0.030 A 
ATOM     21  C   UNL A   1      32.341  25.023  22.374  1.00  0.00     0.005 A 
ATOM     22  C   UNL A   1      33.711  25.845  24.162  1.00  0.00     0.005 A 
ATOM     23  C   UNL A   1      32.677  26.138  21.597  1.00  0.00     0.000 A 
ATOM     24  C   UNL A   1      34.051  26.960  23.383  1.00  0.00     0.000 A 
ATOM     25  C   UNL A   1      33.543  27.101  22.096  1.00  0.00     0.000 A 
ENDBRANCH   5  20
ENDBRANCH   3   5
ENDBRANCH   2   3
ENDBRANCH   1   2
BRANCH   1  26
ATOM     26  C   UNL A   1      36.858  21.355  24.772  1.00  0.00     0.275 C 
BRANCH  26  27
ATOM     27  O   UNL A   1      37.508  22.049  25.847  1.00  0.00    -0.458 OA
BRANCH  27  28
ATOM     28  C   UNL A   1      38.765  21.610  26.114  1.00  0.00     0.338 C 
ATOM     29  O   UNL A   1      39.257  20.551  25.789  1.00  0.00    -0.246 OA
BRANCH  28  30
ATOM     30  C   UNL A   1      39.530  22.771  26.606  1.00  0.00     0.060 A 
ATOM     31  C   UNL A   1      39.142  24.023  26.129  1.00  0.00     0.016 A 
ATOM     32  C   UNL A   1      40.551  22.658  27.550  1.00  0.00     0.016 A 
ATOM     33  C   UNL A   1      39.741  25.173  26.614  1.00  0.00     0.010 A 
ATOM     34  C   UNL A   1      41.176  23.818  28.018  1.00  0.00     0.010 A 
ATOM     35  C   UNL A   1      40.763  25.080  27.559  1.00  0.00    -0.014 A 
BRANCH  35  36
ATOM     36  C   UNL A   1      41.474  26.312  27.954  1.00  0.00     0.031 A 
ATOM     37  C   UNL A   1      40.743  27.322  28.779  1.00  0.00     0.074 A 
ATOM     38  C   UNL A   1      42.775  26.481  27.661  1.00  0.00     0.049 A 
ATOM     39  N   UNL A   1      41.100  28.529  29.126  1.00  0.00    -0.248 NA
ATOM     40  C   UNL A   1      39.432  26.901  29.296  1.00  0.00     0.031 C 
ATOM     41  C   UNL A   1      43.634  25.483  27.024  1.00  0.00     0.029 A 
ATOM     42  N   UNL A   1      43.603  27.554  27.870  1.00  0.00    -0.354 N 
ATOM     43  C   UNL A   1      40.053  29.021  29.895  1.00  0.00     0.074 A 
ATOM     44  C   UNL A   1      39.046  27.983  29.952  1.00  0.00     0.031 C 
ATOM     45  C   UNL A   1      44.868  25.999  26.884  1.00  0.00     0.029 A 
ATOM     46  C   UNL A   1      44.865  27.384  27.351  1.00  0.00     0.049 A 
ATOM     47  H   UNL A   1      43.320  28.368  28.346  1.00  0.00     0.167 HD
ATOM     48  C   UNL A   1      39.945  30.236  30.486  1.00  0.00     0.034 A 
ATOM     49  C   UNL A   1      45.874  28.270  27.220  1.00  0.00     0.034 A 
ATOM     50  C   UNL A   1      40.950  31.263  30.372  1.00  0.00     0.049 A 
ATOM     51  C   UNL A   1      45.646  29.690  27.691  1.00  0.00     0.074 A 
ATOM     52  C   UNL A   1      40.923  32.559  30.854  1.00  0.00     0.029 A 
ATOM     53  N   UNL A   1      42.163  31.110  29.710  1.00  0.00    -0.354 N 
ATOM     54  N   UNL A   1      44.615  30.196  28.329  1.00  0.00    -0.248 NA
ATOM     55  C   UNL A   1      46.707  30.663  27.398  1.00  0.00     0.031 C 
ATOM     56  C   UNL A   1      42.081  33.211  30.416  1.00  0.00     0.029 A 
ATOM     57  C   UNL A   1      42.873  32.300  29.732  1.00  0.00     0.049 A 
ATOM     58  H   UNL A   1      42.474  30.277  29.287  1.00  0.00     0.167 HD
ATOM     59  C   UNL A   1      44.915  31.540  28.535  1.00  0.00     0.074 A 
ATOM     60  C   UNL A   1      46.228  31.763  27.962  1.00  0.00     0.031 C 
ATOM     61  C   UNL A   1      44.177  32.504  29.142  1.00  0.00     0.034 A 
BRANCH  48  62
ATOM     62  C   UNL A   1      38.648  30.529  31.196  1.00  0.00     0.023 A 
ATOM     63  C   UNL A   1      37.587  31.195  30.558  1.00  0.00     0.031 A 
ATOM     64  C   UNL A   1      38.512  30.228  32.564  1.00  0.00     0.131 A 
ATOM     65  C   UNL A   1      36.481  31.622  31.308  1.00  0.00     0.055 A 
ATOM     66  C   UNL A   1      37.369  30.576  33.283  1.00  0.00     0.041 A 
ATOM     67  F   UNL A   1      39.506  29.623  33.233  1.00  0.00    -0.206 F 
ATOM     68  C   UNL A   1      36.353  31.296  32.661  1.00  0.00     0.022 A 
BRANCH  65  69
ATOM     69  S   UNL A   1      35.308  32.774  30.541  1.00  0.00     0.124 S 
ATOM     70  O   UNL A   1      35.992  34.054  30.715  1.00  0.00    -0.237 OA
ATOM     71  O   UNL A   1      35.226  32.276  29.172  1.00  0.00    -0.237 OA
ATOM     72  O   UNL A   1      34.094  32.612  31.339  1.00  0.00    -0.744 OA
ENDBRANCH  65  69
ENDBRANCH  48  62
BRANCH  49  73
ATOM     73  C   UNL A   1      47.146  27.891  26.538  1.00  0.00     0.023 A 
ATOM     74  C   UNL A   1      47.272  27.973  25.142  1.00  0.00     0.031 A 
ATOM     75  C   UNL A   1      48.232  27.367  27.265  1.00  0.00     0.131 A 
ATOM     76  C   UNL A   1      48.436  27.498  24.515  1.00  0.00     0.055 A 
ATOM     77  C   UNL A   1      49.411  26.953  26.641  1.00  0.00     0.041 A 
ATOM     78  F   UNL A   1      48.162  27.245  28.600  1.00  0.00    -0.206 F 
ATOM     79  C   UNL A   1      49.512  27.005  25.256  1.00  0.00     0.022 A 
BRANCH  76  80
ATOM     80  S   UNL A   1      48.486  27.441  22.702  1.00  0.00     0.124 S 
ATOM     81  O   UNL A   1      48.341  26.012  22.447  1.00  0.00    -0.237 OA
ATOM     82  O   UNL A   1      47.345  28.276  22.339  1.00  0.00    -0.237 OA
ATOM     83  O   UNL A   1      49.795  28.003  22.379  1.00  0.00    -0.744 OA
ENDBRANCH  76  80
ENDBRANCH  49  73
BRANCH  61  84
ATOM     84  C   UNL A   1      44.791  33.879  29.253  1.00  0.00     0.023 A 
ATOM     85  C   UNL A   1      44.371  34.946  28.439  1.00  0.00     0.031 A 
ATOM     86  C   UNL A   1      45.794  34.128  30.207  1.00  0.00     0.131 A 
ATOM     87  C   UNL A   1      44.979  36.205  28.572  1.00  0.00     0.055 A 
ATOM     88  C   UNL A   1      46.354  35.395  30.372  1.00  0.00     0.041 A 
ATOM     89  F   UNL A   1      46.234  33.144  31.007  1.00  0.00    -0.206 F 
ATOM     90  C   UNL A   1      45.952  36.440  29.546  1.00  0.00     0.022 A 
BRANCH  87  91
ATOM     91  S   UNL A   1      44.522  37.521  27.411  1.00  0.00     0.124 S 
ATOM     92  O   UNL A   1      44.155  38.608  28.314  1.00  0.00    -0.237 OA
ATOM     93  O   UNL A   1      45.752  37.712  26.651  1.00  0.00    -0.237 OA
ATOM     94  O   UNL A   1      43.412  36.944  26.656  1.00  0.00    -0.744 OA
ENDBRANCH  87  91
ENDBRANCH  61  84
ENDBRANCH  35  36
ENDBRANCH  28  30
ENDBRANCH  27  28
ENDBRANCH  26  27
ENDBRANCH   1  26
TORSDOF 18
ENDMDL
MODEL 2
REMARK VINA RESULT:     -11.9      4.898      9.844
REMARK SMILES Cc1c(Cl)cccc1NC(=O)C[C@](C)(C(=O)OCCOC(=O)c1ccc(-c2c3nc(c(-c4cc(S(=O)(=O)[O-])ccc4F)c4ccc([nH]4)c(-c4cc(S(=O)(=O)[O-])ccc4F)c4nc(c(-c5cc(S(=O)(=O)[O-])ccc5F)c5ccc2[nH]5)C=C4)C=C3)cc1)c1ccccc1
REMARK SMILES IDX 18 1 17 2 15 3 16 4 13 5 14 6 12 7 10 8 9 9 11 11 8 12 1 13
REMARK SMILES IDX 2 14 3 15 4 16 5 17 7 18 6 19 86 20 87 21 91 22 88 23 90 24
REMARK SMILES IDX 89 25 19 26 20 27 21 28 22 29 23 30 24 31 85 32 25 33 84 34
REMARK SMILES IDX 26 35 27 36 28 37 78 38 29 39 83 40 77 41 79 42 30 43 82 44
REMARK SMILES IDX 76 45 75 46 31 48 63 49 43 50 62 51 44 52 47 53 61 54 80 55
REMARK SMILES IDX 45 56 46 57 60 59 81 60 48 61 32 62 33 63 41 64 34 65 40 66
REMARK SMILES IDX 42 67 39 68 35 69 36 70 37 71 38 72 64 73 65 74 73 75 66 76
REMARK SMILES IDX 72 77 74 78 71 79 67 80 68 81 69 82 70 83 49 84 50 85 58 86
REMARK SMILES IDX 51 87 57 88 59 89 56 90 52 91 53 92 54 93 55 94
REMARK H PARENT 9 10 79 47 47 58
REMARK Flexibility Score: inf
ROOT
ATOM      1  C   UNL A   1      31.963  28.716  24.348  1.00  0.00     0.274 C 
ENDROOT
BRANCH   1   2
ATOM      2  O   UNL A   1      31.382  27.589  25.041  1.00  0.00    -0.461 OA
BRANCH   2   3
ATOM      3  C   UNL A   1      31.234  26.429  24.335  1.00  0.00     0.316 C 
ATOM      4  O   UNL A   1      30.633  26.392  23.268  1.00  0.00    -0.251 OA
BRANCH   3   5
ATOM      5  C   UNL A   1      31.794  25.176  25.090  1.00  0.00     0.099 C 
ATOM      6  C   UNL A   1      32.238  25.581  26.530  1.00  0.00     0.029 C 
BRANCH   5   7
ATOM      7  C   UNL A   1      30.694  24.075  25.207  1.00  0.00     0.123 C 
BRANCH   7   8
ATOM      8  C   UNL A   1      30.620  23.262  26.486  1.00  0.00     0.225 C 
ATOM      9  N   UNL A   1      31.411  22.194  26.783  1.00  0.00    -0.326 N 
ATOM     10  H   UNL A   1      31.257  21.860  27.696  1.00  0.00     0.169 HD
ATOM     11  O   UNL A   1      29.797  23.577  27.354  1.00  0.00    -0.275 OA
BRANCH   9  12
ATOM     12  C   UNL A   1      32.395  21.451  26.104  1.00  0.00     0.045 A 
ATOM     13  C   UNL A   1      34.234  22.498  27.581  1.00  0.00     0.048 C 
ATOM     14  C   UNL A   1      33.762  21.622  26.444  1.00  0.00    -0.009 A 
ATOM     15  C   UNL A   1      34.742  20.988  25.642  1.00  0.00     0.046 A 
ATOM     16  Cl  UNL A   1      36.438  21.212  25.921  1.00  0.00    -0.084 Cl
ATOM     17  C   UNL A   1      34.387  20.181  24.564  1.00  0.00     0.021 A 
ATOM     18  C   UNL A   1      32.068  20.550  25.089  1.00  0.00     0.026 A 
ATOM     19  C   UNL A   1      33.049  19.939  24.304  1.00  0.00     0.004 A 
ENDBRANCH   9  12
ENDBRANCH   7   8
ENDBRANCH   5   7
BRANCH   5  20
ATOM     20  C   UNL A   1      33.020  24.532  24.353  1.00  0.00    -0.030 A 
ATOM     21  C   UNL A   1      34.348  24.746  24.786  1.00  0.00     0.005 A 
ATOM     22  C   UNL A   1      32.853  23.676  23.247  1.00  0.00     0.005 A 
ATOM     23  C   UNL A   1      35.446  24.205  24.105  1.00  0.00     0.000 A 
ATOM     24  C   UNL A   1      33.951  23.137  22.563  1.00  0.00     0.000 A 
ATOM     25  C   UNL A   1      35.248  23.410  22.984  1.00  0.00     0.000 A 
ENDBRANCH   5  20
ENDBRANCH   3   5
ENDBRANCH   2   3
ENDBRANCH   1   2
BRANCH   1  26
ATOM     26  C   UNL A   1      31.876  29.974  25.215  1.00  0.00     0.275 C 
BRANCH  26  27
ATOM     27  O   UNL A   1      33.162  30.227  25.799  1.00  0.00    -0.458 OA
BRANCH  27  28
ATOM     28  C   UNL A   1      33.146  31.136  26.807  1.00  0.00     0.338 C 
ATOM     29  O   UNL A   1      32.199  31.783  27.198  1.00  0.00    -0.246 OA
BRANCH  28  30
ATOM     30  C   UNL A   1      34.412  30.977  27.548  1.00  0.00     0.060 A 
ATOM     31  C   UNL A   1      34.704  29.697  28.018  1.00  0.00     0.016 A 
ATOM     32  C   UNL A   1      35.319  32.022  27.728  1.00  0.00     0.016 A 
ATOM     33  C   UNL A   1      35.916  29.439  28.637  1.00  0.00     0.010 A 
ATOM     34  C   UNL A   1      36.530  31.767  28.379  1.00  0.00     0.010 A 
ATOM     35  C   UNL A   1      36.836  30.470  28.825  1.00  0.00    -0.014 A 
BRANCH  35  36
ATOM     36  C   UNL A   1      38.057  30.196  29.608  1.00  0.00     0.031 A 
ATOM     37  C   UNL A   1      39.108  29.320  29.003  1.00  0.00     0.074 A 
ATOM     38  C   UNL A   1      38.263  30.791  30.795  1.00  0.00     0.049 A 
ATOM     39  N   UNL A   1      40.188  28.824  29.541  1.00  0.00    -0.248 NA
ATOM     40  C   UNL A   1      38.916  28.972  27.587  1.00  0.00     0.031 C 
ATOM     41  C   UNL A   1      37.393  31.803  31.395  1.00  0.00     0.029 A 
ATOM     42  N   UNL A   1      39.276  30.634  31.706  1.00  0.00    -0.354 N 
ATOM     43  C   UNL A   1      40.804  28.093  28.534  1.00  0.00     0.074 A 
ATOM     44  C   UNL A   1      39.969  28.205  27.358  1.00  0.00     0.031 C 
ATOM     45  C   UNL A   1      37.909  32.168  32.582  1.00  0.00     0.029 A 
ATOM     46  C   UNL A   1      39.097  31.363  32.858  1.00  0.00     0.049 A 
ATOM     47  H   UNL A   1      40.057  30.056  31.549  1.00  0.00     0.167 HD
ATOM     48  C   UNL A   1      41.958  27.384  28.598  1.00  0.00     0.034 A 
ATOM     49  C   UNL A   1      39.786  31.332  34.017  1.00  0.00     0.034 A 
ATOM     50  C   UNL A   1      42.743  27.258  29.800  1.00  0.00     0.049 A 
ATOM     51  C   UNL A   1      40.942  30.364  34.139  1.00  0.00     0.074 A 
ATOM     52  C   UNL A   1      43.884  26.506  30.015  1.00  0.00     0.029 A 
ATOM     53  N   UNL A   1      42.455  27.894  31.002  1.00  0.00    -0.354 N 
ATOM     54  N   UNL A   1      41.472  29.587  33.221  1.00  0.00    -0.248 NA
ATOM     55  C   UNL A   1      41.574  30.248  35.461  1.00  0.00     0.031 C 
ATOM     56  C   UNL A   1      44.236  26.624  31.364  1.00  0.00     0.029 A 
ATOM     57  C   UNL A   1      43.367  27.517  31.974  1.00  0.00     0.049 A 
ATOM     58  H   UNL A   1      41.709  28.522  31.143  1.00  0.00     0.167 HD
ATOM     59  C   UNL A   1      42.514  28.909  33.849  1.00  0.00     0.074 A 
ATOM     60  C   UNL A   1      42.544  29.378  35.220  1.00  0.00     0.031 C 
ATOM     61  C   UNL A   1      43.371  27.986  33.341  1.00  0.00     0.034 A 
BRANCH  48  62
ATOM     62  C   UNL A   1      42.348  26.614  27.362  1.00  0.00     0.023 A 
ATOM     63  C   UNL A   1      41.990  25.266  27.183  1.00  0.00     0.031 A 
ATOM     64  C   UNL A   1      43.178  27.211  26.395  1.00  0.00     0.131 A 
ATOM     65  C   UNL A   1      42.538  24.535  26.119  1.00  0.00     0.055 A 
ATOM     66  C   UNL A   1      43.645  26.501  25.288  1.00  0.00     0.041 A 
ATOM     67  F   UNL A   1      43.578  28.484  26.530  1.00  0.00    -0.206 F 
ATOM     68  C   UNL A   1      43.343  25.149  25.157  1.00  0.00     0.022 A 
BRANCH  65  69
ATOM     69  S   UNL A   1      42.343  22.731  26.118  1.00  0.00     0.124 S 
ATOM     70  O   UNL A   1      40.896  22.589  26.261  1.00  0.00    -0.237 OA
ATOM     71  O   UNL A   1      42.897  22.353  24.823  1.00  0.00    -0.237 OA
ATOM     72  O   UNL A   1      43.120  22.300  27.280  1.00  0.00    -0.744 OA
ENDBRANCH  65  69
ENDBRANCH  48  62
BRANCH  49  73
ATOM     73  C   UNL A   1      39.360  32.156  35.187  1.00  0.00     0.023 A 
ATOM     74  C   UNL A   1      39.889  33.439  35.401  1.00  0.00     0.031 A 
ATOM     75  C   UNL A   1      38.475  31.642  36.154  1.00  0.00     0.131 A 
ATOM     76  C   UNL A   1      39.564  34.145  36.570  1.00  0.00     0.055 A 
ATOM     77  C   UNL A   1      38.107  32.374  37.285  1.00  0.00     0.041 A 
ATOM     78  F   UNL A   1      37.954  30.413  36.014  1.00  0.00    -0.206 F 
ATOM     79  C   UNL A   1      38.664  33.629  37.505  1.00  0.00     0.022 A 
BRANCH  76  80
ATOM     80  S   UNL A   1      40.414  35.713  36.906  1.00  0.00     0.124 S 
ATOM     81  O   UNL A   1      40.217  35.854  38.344  1.00  0.00    -0.237 OA
ATOM     82  O   UNL A   1      41.776  35.420  36.471  1.00  0.00    -0.237 OA
ATOM     83  O   UNL A   1      39.691  36.676  36.079  1.00  0.00    -0.744 OA
ENDBRANCH  76  80
ENDBRANCH  49  73
BRANCH  61  84
ATOM     84  C   UNL A   1      44.438  27.452  34.265  1.00  0.00     0.023 A 
ATOM     85  C   UNL A   1      44.309  26.207  34.906  1.00  0.00     0.031 A 
ATOM     86  C   UNL A   1      45.614  28.190  34.485  1.00  0.00     0.131 A 
ATOM     87  C   UNL A   1      45.323  25.755  35.765  1.00  0.00     0.055 A 
ATOM     88  C   UNL A   1      46.644  27.710  35.295  1.00  0.00     0.041 A 
ATOM     89  F   UNL A   1      45.789  29.386  33.901  1.00  0.00    -0.206 F 
ATOM     90  C   UNL A   1      46.498  26.490  35.946  1.00  0.00     0.022 A 
BRANCH  87  91
ATOM     91  S   UNL A   1      45.063  24.218  36.691  1.00  0.00     0.124 S 
ATOM     92  O   UNL A   1      46.361  23.562  36.560  1.00  0.00    -0.237 OA
ATOM     93  O   UNL A   1      44.727  24.706  38.024  1.00  0.00    -0.237 OA
ATOM     94  O   UNL A   1      43.967  23.567  35.976  1.00  0.00    -0.744 OA
ENDBRANCH  87  91
ENDBRANCH  61  84
ENDBRANCH  35  36
ENDBRANCH  28  30
ENDBRANCH  27  28
ENDBRANCH  26  27
ENDBRANCH   1  26
TORSDOF 18
ENDMDL
MODEL 3
REMARK VINA RESULT:     -11.7      5.074      9.979
REMARK SMILES Cc1c(Cl)cccc1NC(=O)C[C@](C)(C(=O)OCCOC(=O)c1ccc(-c2c3nc(c(-c4cc(S(=O)(=O)[O-])ccc4F)c4ccc([nH]4)c(-c4cc(S(=O)(=O)[O-])ccc4F)c4nc(c(-c5cc(S(=O)(=O)[O-])ccc5F)c5ccc2[nH]5)C=C4)C=C3)cc1)c1ccccc1
REMARK SMILES IDX 18 1 17 2 15 3 16 4 13 5 14 6 12 7 10 8 9 9 11 11 8 12 1 13
REMARK SMILES IDX 2 14 3 15 4 16 5 17 7 18 6 19 86 20 87 21 91 22 88 23 90 24
REMARK SMILES IDX 89 25 19 26 20 27 21 28 22 29 23 30 24 31 85 32 25 33 84 34
REMARK SMILES IDX 26 35 27 36 28 37 78 38 29 39 83 40 77 41 79 42 30 43 82 44
REMARK SMILES IDX 76 45 75 46 31 48 63 49 43 50 62 51 44 52 47 53 61 54 80 55
REMARK SMILES IDX 45 56 46 57 60 59 81 60 48 61 32 62 33 63 41 64 34 65 40 66
REMARK SMILES IDX 42 67 39 68 35 69 36 70 37 71 38 72 64 73 65 74 73 75 66 76
REMARK SMILES IDX 72 77 74 78 71 79 67 80 68 81 69 82 70 83 49 84 50 85 58 86
REMARK SMILES IDX 51 87 57 88 59 89 56 90 52 91 53 92 54 93 55 94
REMARK H PARENT 9 10 79 47 47 58
REMARK Flexibility Score: inf
ROOT
ATOM      1  C   UNL A   1      31.821  29.894  25.419  1.00  0.00     0.274 C 
ENDROOT
BRANCH   1   2
ATOM      2  O   UNL A   1      31.776  28.469  25.183  1.00  0.00    -0.461 OA
BRANCH   2   3
ATOM      3  C   UNL A   1      32.823  27.914  24.505  1.00  0.00     0.316 C 
ATOM      4  O   UNL A   1      33.916  28.464  24.435  1.00  0.00    -0.251 OA
BRANCH   3   5
ATOM      5  C   UNL A   1      32.433  26.598  23.748  1.00  0.00     0.099 C 
ATOM      6  C   UNL A   1      31.159  26.843  22.883  1.00  0.00     0.029 C 
BRANCH   5   7
ATOM      7  C   UNL A   1      33.592  26.152  22.802  1.00  0.00     0.123 C 
BRANCH   7   8
ATOM      8  C   UNL A   1      33.286  25.134  21.719  1.00  0.00     0.225 C 
ATOM      9  N   UNL A   1      33.400  23.785  21.857  1.00  0.00    -0.326 N 
ATOM     10  H   UNL A   1      33.076  23.301  21.064  1.00  0.00     0.169 HD
ATOM     11  O   UNL A   1      32.888  25.528  20.616  1.00  0.00    -0.275 OA
BRANCH   9  12
ATOM     12  C   UNL A   1      33.866  22.911  22.858  1.00  0.00     0.045 A 
ATOM     13  C   UNL A   1      31.803  21.397  22.527  1.00  0.00     0.048 C 
ATOM     14  C   UNL A   1      33.086  21.784  23.225  1.00  0.00    -0.009 A 
ATOM     15  C   UNL A   1      33.495  21.014  24.341  1.00  0.00     0.046 A 
ATOM     16  Cl  UNL A   1      32.559  19.676  24.923  1.00  0.00    -0.084 Cl
ATOM     17  C   UNL A   1      34.655  21.319  25.049  1.00  0.00     0.021 A 
ATOM     18  C   UNL A   1      35.079  23.125  23.516  1.00  0.00     0.026 A 
ATOM     19  C   UNL A   1      35.462  22.359  24.619  1.00  0.00     0.004 A 
ENDBRANCH   9  12
ENDBRANCH   7   8
ENDBRANCH   5   7
BRANCH   5  20
ATOM     20  C   UNL A   1      32.149  25.406  24.728  1.00  0.00    -0.030 A 
ATOM     21  C   UNL A   1      33.014  25.102  25.803  1.00  0.00     0.005 A 
ATOM     22  C   UNL A   1      30.996  24.607  24.607  1.00  0.00     0.005 A 
ATOM     23  C   UNL A   1      32.783  24.014  26.655  1.00  0.00     0.000 A 
ATOM     24  C   UNL A   1      30.766  23.515  25.456  1.00  0.00     0.000 A 
ATOM     25  C   UNL A   1      31.665  23.212  26.473  1.00  0.00     0.000 A 
ENDBRANCH   5  20
ENDBRANCH   3   5
ENDBRANCH   2   3
ENDBRANCH   1   2
BRANCH   1  26
ATOM     26  C   UNL A   1      31.996  30.180  26.912  1.00  0.00     0.275 C 
BRANCH  26  27
ATOM     27  O   UNL A   1      33.392  30.117  27.238  1.00  0.00    -0.458 OA
BRANCH  27  28
ATOM     28  C   UNL A   1      33.942  31.314  27.565  1.00  0.00     0.338 C 
ATOM     29  O   UNL A   1      33.391  32.393  27.588  1.00  0.00    -0.246 OA
BRANCH  28  30
ATOM     30  C   UNL A   1      35.251  31.031  28.184  1.00  0.00     0.060 A 
ATOM     31  C   UNL A   1      35.394  29.789  28.802  1.00  0.00     0.016 A 
ATOM     32  C   UNL A   1      36.327  31.915  28.113  1.00  0.00     0.016 A 
ATOM     33  C   UNL A   1      36.619  29.403  29.321  1.00  0.00     0.010 A 
ATOM     34  C   UNL A   1      37.556  31.537  28.662  1.00  0.00     0.010 A 
ATOM     35  C   UNL A   1      37.707  30.273  29.257  1.00  0.00    -0.014 A 
BRANCH  35  36
ATOM     36  C   UNL A   1      38.959  29.890  29.939  1.00  0.00     0.031 A 
ATOM     37  C   UNL A   1      39.856  28.896  29.273  1.00  0.00     0.074 A 
ATOM     38  C   UNL A   1      39.331  30.487  31.084  1.00  0.00     0.049 A 
ATOM     39  N   UNL A   1      40.924  28.302  29.731  1.00  0.00    -0.248 NA
ATOM     40  C   UNL A   1      39.503  28.538  27.891  1.00  0.00     0.031 C 
ATOM     41  C   UNL A   1      38.628  31.599  31.725  1.00  0.00     0.029 A 
ATOM     42  N   UNL A   1      40.402  30.246  31.907  1.00  0.00    -0.354 N 
ATOM     43  C   UNL A   1      41.369  27.488  28.698  1.00  0.00     0.074 A 
ATOM     44  C   UNL A   1      40.447  27.659  27.595  1.00  0.00     0.031 C 
ATOM     45  C   UNL A   1      39.283  31.934  32.850  1.00  0.00     0.029 A 
ATOM     46  C   UNL A   1      40.403  31.016  33.047  1.00  0.00     0.049 A 
ATOM     47  H   UNL A   1      41.102  29.586  31.701  1.00  0.00     0.167 HD
ATOM     48  C   UNL A   1      42.446  26.663  28.683  1.00  0.00     0.034 A 
ATOM     49  C   UNL A   1      41.187  30.940  34.142  1.00  0.00     0.034 A 
ATOM     50  C   UNL A   1      43.319  26.484  29.815  1.00  0.00     0.049 A 
ATOM     51  C   UNL A   1      42.245  29.859  34.193  1.00  0.00     0.074 A 
ATOM     52  C   UNL A   1      44.392  25.621  29.953  1.00  0.00     0.029 A 
ATOM     53  N   UNL A   1      43.207  27.174  31.017  1.00  0.00    -0.354 N 
ATOM     54  N   UNL A   1      42.607  29.010  33.257  1.00  0.00    -0.248 NA
ATOM     55  C   UNL A   1      42.978  29.708  35.457  1.00  0.00     0.031 C 
ATOM     56  C   UNL A   1      44.875  25.733  31.262  1.00  0.00     0.029 A 
ATOM     57  C   UNL A   1      44.161  26.726  31.917  1.00  0.00     0.049 A 
ATOM     58  H   UNL A   1      42.546  27.879  31.202  1.00  0.00     0.167 HD
ATOM     59  C   UNL A   1      43.627  28.242  33.813  1.00  0.00     0.074 A 
ATOM     60  C   UNL A   1      43.829  28.736  35.161  1.00  0.00     0.031 C 
ATOM     61  C   UNL A   1      44.336  27.223  33.262  1.00  0.00     0.034 A 
BRANCH  48  62
ATOM     62  C   UNL A   1      42.641  25.829  27.442  1.00  0.00     0.023 A 
ATOM     63  C   UNL A   1      42.090  24.541  27.320  1.00  0.00     0.031 A 
ATOM     64  C   UNL A   1      43.478  26.290  26.410  1.00  0.00     0.131 A 
ATOM     65  C   UNL A   1      42.459  23.725  26.240  1.00  0.00     0.055 A 
ATOM     66  C   UNL A   1      43.768  25.507  25.293  1.00  0.00     0.041 A 
ATOM     67  F   UNL A   1      44.059  27.497  26.488  1.00  0.00    -0.206 F 
ATOM     68  C   UNL A   1      43.274  24.207  25.213  1.00  0.00     0.022 A 
BRANCH  65  69
ATOM     69  S   UNL A   1      42.018  21.966  26.295  1.00  0.00     0.124 S 
ATOM     70  O   UNL A   1      42.864  21.415  25.239  1.00  0.00    -0.237 OA
ATOM     71  O   UNL A   1      42.373  21.594  27.660  1.00  0.00    -0.237 OA
ATOM     72  O   UNL A   1      40.586  21.962  25.999  1.00  0.00    -0.744 OA
ENDBRANCH  65  69
ENDBRANCH  48  62
BRANCH  49  73
ATOM     73  C   UNL A   1      40.955  31.830  35.317  1.00  0.00     0.023 A 
ATOM     74  C   UNL A   1      39.863  31.627  36.176  1.00  0.00     0.031 A 
ATOM     75  C   UNL A   1      41.778  32.948  35.556  1.00  0.00     0.131 A 
ATOM     76  C   UNL A   1      39.598  32.548  37.203  1.00  0.00     0.055 A 
ATOM     77  C   UNL A   1      41.545  33.826  36.616  1.00  0.00     0.041 A 
ATOM     78  F   UNL A   1      42.824  33.205  34.755  1.00  0.00    -0.206 F 
ATOM     79  C   UNL A   1      40.441  33.636  37.439  1.00  0.00     0.022 A 
BRANCH  76  80
ATOM     80  S   UNL A   1      38.074  32.360  38.169  1.00  0.00     0.124 S 
ATOM     81  O   UNL A   1      37.571  31.080  37.683  1.00  0.00    -0.237 OA
ATOM     82  O   UNL A   1      38.578  32.374  39.539  1.00  0.00    -0.237 OA
ATOM     83  O   UNL A   1      37.282  33.527  37.787  1.00  0.00    -0.744 OA
ENDBRANCH  76  80
ENDBRANCH  49  73
BRANCH  61  84
ATOM     84  C   UNL A   1      45.422  26.601  34.106  1.00  0.00     0.023 A 
ATOM     85  C   UNL A   1      45.162  25.527  34.975  1.00  0.00     0.031 A 
ATOM     86  C   UNL A   1      46.742  27.076  34.017  1.00  0.00     0.131 A 
ATOM     87  C   UNL A   1      46.202  24.987  35.748  1.00  0.00     0.055 A 
ATOM     88  C   UNL A   1      47.783  26.497  34.745  1.00  0.00     0.041 A 
ATOM     89  F   UNL A   1      47.046  28.101  33.205  1.00  0.00    -0.206 F 
ATOM     90  C   UNL A   1      47.513  25.452  35.622  1.00  0.00     0.022 A 
BRANCH  87  91
ATOM     91  S   UNL A   1      45.809  23.702  36.967  1.00  0.00     0.124 S 
ATOM     92  O   UNL A   1      44.825  24.375  37.809  1.00  0.00    -0.237 OA
ATOM     93  O   UNL A   1      45.301  22.620  36.132  1.00  0.00    -0.237 OA
ATOM     94  O   UNL A   1      47.094  23.435  37.610  1.00  0.00    -0.744 OA
ENDBRANCH  87  91
ENDBRANCH  61  84
ENDBRANCH  35  36
ENDBRANCH  28  30
ENDBRANCH  27  28
ENDBRANCH  26  27
ENDBRANCH   1  26
TORSDOF 18
ENDMDL
