MODEL 1
REMARK VINA RESULT:     -10.5      0.000      0.000
REMARK SMILES C#Cc1ccc2c(c1)C=C(C(=O)OCCOC(=O)c1ccc(-c3c4nc(c(-c5cc(S(=O)(=O)[O-])ccc5F)c5ccc([nH]5)c(-c5cc(S(=O)(=O)[O-])ccc5F)c5nc(c(-c6cc(S(=O)(=O)[O-])ccc6F)c6ccc3[nH]6)C=C5)C=C4)cc1)[C@@H](C(F)(F)F)O2
REMARK SMILES IDX 15 1 14 2 13 3 11 4 12 5 10 6 3 7 4 8 8 9 5 10 7 11 6 12
REMARK SMILES IDX 9 13 87 14 82 15 2 16 1 17 83 18 84 19 85 20 86 21 16 22
REMARK SMILES IDX 17 23 18 24 19 25 20 26 81 27 21 28 80 29 22 30 23 31 24 32
REMARK SMILES IDX 74 33 25 34 79 35 73 36 75 37 26 38 78 39 72 40 71 41 27 43
REMARK SMILES IDX 59 44 39 45 58 46 40 47 43 48 57 49 76 50 41 51 42 52 56 54
REMARK SMILES IDX 77 55 44 56 28 57 29 58 37 59 30 60 36 61 38 62 35 63 31 64
REMARK SMILES IDX 32 65 33 66 34 67 60 68 61 69 69 70 62 71 68 72 70 73 67 74
REMARK SMILES IDX 63 75 64 76 65 77 66 78 45 79 46 80 54 81 47 82 53 83 55 84
REMARK SMILES IDX 52 85 48 86 49 87 50 88 51 89
REMARK H PARENT 75 42 43 53
REMARK Flexibility Score: inf
ROOT
ATOM      1  C   UNL A   1      40.881  19.964  26.177  1.00  0.00     0.275 C 
ENDROOT
BRANCH   1   2
ATOM      2  C   UNL A   1      42.273  19.764  26.784  1.00  0.00     0.275 C 
BRANCH   2   3
ATOM      3  O   UNL A   1      43.313  20.300  25.934  1.00  0.00    -0.459 OA
BRANCH   3   4
ATOM      4  C   UNL A   1      43.256  21.634  25.709  1.00  0.00     0.338 C 
ATOM      5  O   UNL A   1      42.406  22.219  25.056  1.00  0.00    -0.246 OA
BRANCH   4   6
ATOM      6  C   UNL A   1      44.376  22.333  26.373  1.00  0.00     0.087 C 
ATOM      7  C   UNL A   1      45.852  25.356  29.821  1.00  0.00     0.025 A 
ATOM      8  C   UNL A   1      47.092  25.472  29.191  1.00  0.00     0.021 A 
ATOM      9  C   UNL A   1      44.892  24.499  29.290  1.00  0.00     0.029 A 
ATOM     10  C   UNL A   1      47.369  24.729  28.034  1.00  0.00     0.048 A 
ATOM     11  C   UNL A   1      45.166  23.780  28.119  1.00  0.00     0.018 A 
ATOM     12  C   UNL A   1      46.401  23.884  27.492  1.00  0.00     0.128 A 
ATOM     13  C   UNL A   1      44.133  22.961  27.528  1.00  0.00     0.027 C 
ATOM     14  O   UNL A   1      46.731  23.193  26.358  1.00  0.00    -0.475 OA
ATOM     15  C   UNL A   1      45.686  22.452  25.654  1.00  0.00     0.316 C 
BRANCH   7  16
ATOM     16  C   UNL A   1      45.540  26.119  30.989  1.00  0.00    -0.070 C 
ATOM     17  C   UNL A   1      45.225  26.771  31.950  1.00  0.00     0.010 C 
ENDBRANCH   7  16
BRANCH  15  18
ATOM     18  C   UNL A   1      45.488  23.081  24.265  1.00  0.00     0.430 C 
ATOM     19  F   UNL A   1      44.685  24.171  24.326  1.00  0.00    -0.167 F 
ATOM     20  F   UNL A   1      46.662  23.506  23.734  1.00  0.00    -0.167 F 
ATOM     21  F   UNL A   1      44.936  22.219  23.383  1.00  0.00    -0.167 F 
ENDBRANCH  15  18
ENDBRANCH   4   6
ENDBRANCH   3   4
ENDBRANCH   2   3
ENDBRANCH   1   2
BRANCH   1  22
ATOM     22  O   UNL A   1      40.040  20.738  27.050  1.00  0.00    -0.458 OA
BRANCH  22  23
ATOM     23  C   UNL A   1      39.325  21.703  26.428  1.00  0.00     0.338 C 
ATOM     24  O   UNL A   1      38.406  21.550  25.642  1.00  0.00    -0.246 OA
BRANCH  23  25
ATOM     25  C   UNL A   1      39.713  23.015  26.954  1.00  0.00     0.060 A 
ATOM     26  C   UNL A   1      40.609  23.161  28.000  1.00  0.00     0.016 A 
ATOM     27  C   UNL A   1      39.280  24.131  26.251  1.00  0.00     0.016 A 
ATOM     28  C   UNL A   1      41.046  24.449  28.334  1.00  0.00     0.010 A 
ATOM     29  C   UNL A   1      39.872  25.367  26.445  1.00  0.00     0.010 A 
ATOM     30  C   UNL A   1      40.717  25.566  27.533  1.00  0.00    -0.014 A 
BRANCH  30  31
ATOM     31  C   UNL A   1      41.220  26.936  27.839  1.00  0.00     0.031 A 
ATOM     32  C   UNL A   1      40.336  27.956  28.526  1.00  0.00     0.074 A 
ATOM     33  C   UNL A   1      42.473  27.275  27.471  1.00  0.00     0.049 A 
ATOM     34  N   UNL A   1      40.634  29.170  28.912  1.00  0.00    -0.248 NA
ATOM     35  C   UNL A   1      38.929  27.594  28.781  1.00  0.00     0.031 C 
ATOM     36  C   UNL A   1      43.379  26.420  26.700  1.00  0.00     0.029 A 
ATOM     37  N   UNL A   1      43.214  28.406  27.710  1.00  0.00    -0.354 N 
ATOM     38  C   UNL A   1      39.460  29.705  29.437  1.00  0.00     0.074 A 
ATOM     39  C   UNL A   1      38.421  28.731  29.229  1.00  0.00     0.031 C 
ATOM     40  C   UNL A   1      44.577  27.014  26.612  1.00  0.00     0.029 A 
ATOM     41  C   UNL A   1      44.512  28.322  27.258  1.00  0.00     0.049 A 
ATOM     42  H   UNL A   1      42.851  29.203  28.161  1.00  0.00     0.167 HD
ATOM     43  C   UNL A   1      39.277  30.877  30.087  1.00  0.00     0.034 A 
ATOM     44  C   UNL A   1      45.541  29.190  27.361  1.00  0.00     0.034 A 
ATOM     45  C   UNL A   1      40.340  31.813  30.338  1.00  0.00     0.049 A 
ATOM     46  C   UNL A   1      45.324  30.473  28.119  1.00  0.00     0.074 A 
ATOM     47  C   UNL A   1      40.284  32.990  31.060  1.00  0.00     0.029 A 
ATOM     48  N   UNL A   1      41.644  31.679  29.885  1.00  0.00    -0.354 N 
ATOM     49  N   UNL A   1      44.238  30.901  28.722  1.00  0.00    -0.248 NA
ATOM     50  C   UNL A   1      46.468  31.390  28.229  1.00  0.00     0.031 C 
ATOM     51  C   UNL A   1      41.528  33.610  30.974  1.00  0.00     0.029 A 
ATOM     52  C   UNL A   1      42.393  32.772  30.285  1.00  0.00     0.049 A 
ATOM     53  H   UNL A   1      41.986  30.921  29.359  1.00  0.00     0.167 HD
ATOM     54  C   UNL A   1      44.576  32.119  29.303  1.00  0.00     0.074 A 
ATOM     55  C   UNL A   1      45.975  32.345  29.008  1.00  0.00     0.031 C 
ATOM     56  C   UNL A   1      43.796  32.975  30.009  1.00  0.00     0.034 A 
BRANCH  43  57
ATOM     57  C   UNL A   1      37.909  31.211  30.639  1.00  0.00     0.023 A 
ATOM     58  C   UNL A   1      36.974  31.889  29.833  1.00  0.00     0.031 A 
ATOM     59  C   UNL A   1      37.592  31.014  31.996  1.00  0.00     0.131 A 
ATOM     60  C   UNL A   1      35.801  32.396  30.404  1.00  0.00     0.055 A 
ATOM     61  C   UNL A   1      36.392  31.467  32.545  1.00  0.00     0.041 A 
ATOM     62  F   UNL A   1      38.450  30.379  32.813  1.00  0.00    -0.206 F 
ATOM     63  C   UNL A   1      35.500  32.180  31.752  1.00  0.00     0.022 A 
BRANCH  60  64
ATOM     64  S   UNL A   1      34.671  33.443  29.445  1.00  0.00     0.124 S 
ATOM     65  O   UNL A   1      34.053  32.472  28.544  1.00  0.00    -0.237 OA
ATOM     66  O   UNL A   1      33.795  33.974  30.485  1.00  0.00    -0.237 OA
ATOM     67  O   UNL A   1      35.551  34.412  28.803  1.00  0.00    -0.744 OA
ENDBRANCH  60  64
ENDBRANCH  43  57
BRANCH  44  68
ATOM     68  C   UNL A   1      46.872  28.811  26.797  1.00  0.00     0.023 A 
ATOM     69  C   UNL A   1      47.044  28.635  25.412  1.00  0.00     0.031 A 
ATOM     70  C   UNL A   1      47.955  28.505  27.638  1.00  0.00     0.131 A 
ATOM     71  C   UNL A   1      48.237  28.088  24.920  1.00  0.00     0.055 A 
ATOM     72  C   UNL A   1      49.173  28.041  27.135  1.00  0.00     0.041 A 
ATOM     73  F   UNL A   1      47.838  28.637  28.969  1.00  0.00    -0.206 F 
ATOM     74  C   UNL A   1      49.311  27.810  25.770  1.00  0.00     0.022 A 
BRANCH  71  75
ATOM     75  S   UNL A   1      48.373  27.572  23.185  1.00  0.00     0.124 S 
ATOM     76  O   UNL A   1      47.232  28.250  22.576  1.00  0.00    -0.237 OA
ATOM     77  O   UNL A   1      49.688  28.097  22.822  1.00  0.00    -0.237 OA
ATOM     78  O   UNL A   1      48.283  26.118  23.250  1.00  0.00    -0.744 OA
ENDBRANCH  71  75
ENDBRANCH  44  68
BRANCH  56  79
ATOM     79  C   UNL A   1      44.406  34.248  30.546  1.00  0.00     0.023 A 
ATOM     80  C   UNL A   1      44.421  35.404  29.742  1.00  0.00     0.031 A 
ATOM     81  C   UNL A   1      45.130  34.265  31.749  1.00  0.00     0.131 A 
ATOM     82  C   UNL A   1      45.199  36.505  30.119  1.00  0.00     0.055 A 
ATOM     83  C   UNL A   1      45.849  35.390  32.155  1.00  0.00     0.041 A 
ATOM     84  F   UNL A   1      45.162  33.182  32.542  1.00  0.00    -0.206 F 
ATOM     85  C   UNL A   1      45.902  36.509  31.328  1.00  0.00     0.022 A 
BRANCH  82  86
ATOM     86  S   UNL A   1      45.424  37.916  29.002  1.00  0.00     0.124 S 
ATOM     87  O   UNL A   1      46.711  38.449  29.444  1.00  0.00    -0.237 OA
ATOM     88  O   UNL A   1      45.434  37.271  27.691  1.00  0.00    -0.237 OA
ATOM     89  O   UNL A   1      44.272  38.770  29.274  1.00  0.00    -0.744 OA
ENDBRANCH  82  86
ENDBRANCH  56  79
ENDBRANCH  30  31
ENDBRANCH  23  25
ENDBRANCH  22  23
ENDBRANCH   1  22
TORSDOF 16
ENDMDL
MODEL 2
REMARK VINA RESULT:     -10.5      5.585      9.174
REMARK SMILES C#Cc1ccc2c(c1)C=C(C(=O)OCCOC(=O)c1ccc(-c3c4nc(c(-c5cc(S(=O)(=O)[O-])ccc5F)c5ccc([nH]5)c(-c5cc(S(=O)(=O)[O-])ccc5F)c5nc(c(-c6cc(S(=O)(=O)[O-])ccc6F)c6ccc3[nH]6)C=C5)C=C4)cc1)[C@@H](C(F)(F)F)O2
REMARK SMILES IDX 15 1 14 2 13 3 11 4 12 5 10 6 3 7 4 8 8 9 5 10 7 11 6 12
REMARK SMILES IDX 9 13 87 14 82 15 2 16 1 17 83 18 84 19 85 20 86 21 16 22
REMARK SMILES IDX 17 23 18 24 19 25 20 26 81 27 21 28 80 29 22 30 23 31 24 32
REMARK SMILES IDX 74 33 25 34 79 35 73 36 75 37 26 38 78 39 72 40 71 41 27 43
REMARK SMILES IDX 59 44 39 45 58 46 40 47 43 48 57 49 76 50 41 51 42 52 56 54
REMARK SMILES IDX 77 55 44 56 28 57 29 58 37 59 30 60 36 61 38 62 35 63 31 64
REMARK SMILES IDX 32 65 33 66 34 67 60 68 61 69 69 70 62 71 68 72 70 73 67 74
REMARK SMILES IDX 63 75 64 76 65 77 66 78 45 79 46 80 54 81 47 82 53 83 55 84
REMARK SMILES IDX 52 85 48 86 49 87 50 88 51 89
REMARK H PARENT 75 42 43 53
REMARK Flexibility Score: inf
ROOT
ATOM      1  C   UNL A   1      31.501  29.990  25.383  1.00  0.00     0.275 C 
ENDROOT
BRANCH   1   2
ATOM      2  C   UNL A   1      31.324  28.835  24.393  1.00  0.00     0.275 C 
BRANCH   2   3
ATOM      3  O   UNL A   1      32.032  27.648  24.820  1.00  0.00    -0.459 OA
BRANCH   3   4
ATOM      4  C   UNL A   1      31.487  26.470  24.432  1.00  0.00     0.338 C 
ATOM      5  O   UNL A   1      30.295  26.229  24.324  1.00  0.00    -0.246 OA
BRANCH   4   6
ATOM      6  C   UNL A   1      32.536  25.471  24.137  1.00  0.00     0.087 C 
ATOM      7  C   UNL A   1      36.866  23.642  25.190  1.00  0.00     0.025 A 
ATOM      8  C   UNL A   1      36.875  22.958  23.974  1.00  0.00     0.021 A 
ATOM      9  C   UNL A   1      35.750  24.396  25.543  1.00  0.00     0.029 A 
ATOM     10  C   UNL A   1      35.767  23.028  23.117  1.00  0.00     0.048 A 
ATOM     11  C   UNL A   1      34.658  24.482  24.670  1.00  0.00     0.018 A 
ATOM     12  C   UNL A   1      34.657  23.797  23.462  1.00  0.00     0.128 A 
ATOM     13  C   UNL A   1      33.542  25.336  25.006  1.00  0.00     0.027 C 
ATOM     14  O   UNL A   1      33.612  23.829  22.579  1.00  0.00    -0.475 OA
ATOM     15  C   UNL A   1      32.520  24.772  22.811  1.00  0.00     0.316 C 
BRANCH   7  16
ATOM     16  C   UNL A   1      37.992  23.604  26.071  1.00  0.00    -0.070 C 
ATOM     17  C   UNL A   1      38.973  23.569  26.766  1.00  0.00     0.010 C 
ENDBRANCH   7  16
BRANCH  15  18
ATOM     18  C   UNL A   1      32.496  25.791  21.660  1.00  0.00     0.430 C 
ATOM     19  F   UNL A   1      32.909  25.232  20.496  1.00  0.00    -0.167 F 
ATOM     20  F   UNL A   1      31.244  26.258  21.430  1.00  0.00    -0.167 F 
ATOM     21  F   UNL A   1      33.287  26.859  21.901  1.00  0.00    -0.167 F 
ENDBRANCH  15  18
ENDBRANCH   4   6
ENDBRANCH   3   4
ENDBRANCH   2   3
ENDBRANCH   1   2
BRANCH   1  22
ATOM     22  O   UNL A   1      32.875  30.126  25.783  1.00  0.00    -0.458 OA
BRANCH  22  23
ATOM     23  C   UNL A   1      33.087  31.034  26.762  1.00  0.00     0.338 C 
ATOM     24  O   UNL A   1      32.276  31.812  27.235  1.00  0.00    -0.246 OA
BRANCH  23  25
ATOM     25  C   UNL A   1      34.435  30.857  27.311  1.00  0.00     0.060 A 
ATOM     26  C   UNL A   1      35.232  31.927  27.681  1.00  0.00     0.016 A 
ATOM     27  C   UNL A   1      34.831  29.561  27.609  1.00  0.00     0.016 A 
ATOM     28  C   UNL A   1      36.440  31.667  28.341  1.00  0.00     0.010 A 
ATOM     29  C   UNL A   1      35.911  29.323  28.442  1.00  0.00     0.010 A 
ATOM     30  C   UNL A   1      36.775  30.364  28.770  1.00  0.00    -0.014 A 
BRANCH  30  31
ATOM     31  C   UNL A   1      38.027  30.075  29.525  1.00  0.00     0.031 A 
ATOM     32  C   UNL A   1      38.230  30.604  30.930  1.00  0.00     0.074 A 
ATOM     33  C   UNL A   1      39.002  29.354  28.933  1.00  0.00     0.049 A 
ATOM     34  N   UNL A   1      39.234  30.401  31.745  1.00  0.00    -0.248 NA
ATOM     35  C   UNL A   1      37.205  31.507  31.485  1.00  0.00     0.031 C 
ATOM     36  C   UNL A   1      38.974  28.889  27.545  1.00  0.00     0.029 A 
ATOM     37  N   UNL A   1      40.190  28.863  29.419  1.00  0.00    -0.354 N 
ATOM     38  C   UNL A   1      38.961  31.151  32.885  1.00  0.00     0.074 A 
ATOM     39  C   UNL A   1      37.756  31.896  32.624  1.00  0.00     0.031 C 
ATOM     40  C   UNL A   1      40.038  28.107  27.320  1.00  0.00     0.029 A 
ATOM     41  C   UNL A   1      40.865  28.066  28.523  1.00  0.00     0.049 A 
ATOM     42  H   UNL A   1      40.526  29.063  30.323  1.00  0.00     0.167 HD
ATOM     43  C   UNL A   1      39.620  31.174  34.066  1.00  0.00     0.034 A 
ATOM     44  C   UNL A   1      42.013  27.367  28.653  1.00  0.00     0.034 A 
ATOM     45  C   UNL A   1      40.790  30.379  34.330  1.00  0.00     0.049 A 
ATOM     46  C   UNL A   1      42.713  27.378  29.987  1.00  0.00     0.074 A 
ATOM     47  C   UNL A   1      41.487  30.261  35.517  1.00  0.00     0.029 A 
ATOM     48  N   UNL A   1      41.428  29.567  33.404  1.00  0.00    -0.354 N 
ATOM     49  N   UNL A   1      42.365  27.993  31.094  1.00  0.00    -0.248 NA
ATOM     50  C   UNL A   1      43.950  26.595  30.103  1.00  0.00     0.031 C 
ATOM     51  C   UNL A   1      42.594  29.446  35.289  1.00  0.00     0.029 A 
ATOM     52  C   UNL A   1      42.533  28.971  33.987  1.00  0.00     0.049 A 
ATOM     53  H   UNL A   1      41.138  29.433  32.473  1.00  0.00     0.167 HD
ATOM     54  C   UNL A   1      43.323  27.649  32.042  1.00  0.00     0.074 A 
ATOM     55  C   UNL A   1      44.247  26.746  31.388  1.00  0.00     0.031 C 
ATOM     56  C   UNL A   1      43.432  28.050  33.333  1.00  0.00     0.034 A 
BRANCH  43  57
ATOM     57  C   UNL A   1      39.085  32.023  35.197  1.00  0.00     0.023 A 
ATOM     58  C   UNL A   1      39.555  33.339  35.370  1.00  0.00     0.031 A 
ATOM     59  C   UNL A   1      38.247  31.484  36.192  1.00  0.00     0.131 A 
ATOM     60  C   UNL A   1      39.235  34.045  36.535  1.00  0.00     0.055 A 
ATOM     61  C   UNL A   1      37.881  32.216  37.322  1.00  0.00     0.041 A 
ATOM     62  F   UNL A   1      37.774  30.231  36.081  1.00  0.00    -0.206 F 
ATOM     63  C   UNL A   1      38.392  33.496  37.507  1.00  0.00     0.022 A 
BRANCH  60  64
ATOM     64  S   UNL A   1      39.982  35.661  36.885  1.00  0.00     0.124 S 
ATOM     65  O   UNL A   1      39.296  36.050  38.116  1.00  0.00    -0.237 OA
ATOM     66  O   UNL A   1      41.392  35.315  37.040  1.00  0.00    -0.237 OA
ATOM     67  O   UNL A   1      39.652  36.462  35.712  1.00  0.00    -0.744 OA
ENDBRANCH  60  64
ENDBRANCH  43  57
BRANCH  44  68
ATOM     68  C   UNL A   1      42.500  26.546  27.504  1.00  0.00     0.023 A 
ATOM     69  C   UNL A   1      42.246  25.163  27.447  1.00  0.00     0.031 A 
ATOM     70  C   UNL A   1      43.325  27.104  26.512  1.00  0.00     0.131 A 
ATOM     71  C   UNL A   1      42.876  24.376  26.473  1.00  0.00     0.055 A 
ATOM     72  C   UNL A   1      43.881  26.328  25.492  1.00  0.00     0.041 A 
ATOM     73  F   UNL A   1      43.614  28.414  26.530  1.00  0.00    -0.206 F 
ATOM     74  C   UNL A   1      43.675  24.953  25.482  1.00  0.00     0.022 A 
BRANCH  71  75
ATOM     75  S   UNL A   1      42.806  22.565  26.560  1.00  0.00     0.124 S 
ATOM     76  O   UNL A   1      44.221  22.204  26.548  1.00  0.00    -0.237 OA
ATOM     77  O   UNL A   1      42.112  22.356  27.830  1.00  0.00    -0.237 OA
ATOM     78  O   UNL A   1      42.048  22.191  25.371  1.00  0.00    -0.744 OA
ENDBRANCH  71  75
ENDBRANCH  44  68
BRANCH  56  79
ATOM     79  C   UNL A   1      44.575  27.525  34.169  1.00  0.00     0.023 A 
ATOM     80  C   UNL A   1      44.361  26.434  35.033  1.00  0.00     0.031 A 
ATOM     81  C   UNL A   1      45.799  28.210  34.254  1.00  0.00     0.131 A 
ATOM     82  C   UNL A   1      45.327  26.102  35.990  1.00  0.00     0.055 A 
ATOM     83  C   UNL A   1      46.787  27.832  35.163  1.00  0.00     0.041 A 
ATOM     84  F   UNL A   1      46.045  29.267  33.464  1.00  0.00    -0.206 F 
ATOM     85  C   UNL A   1      46.545  26.787  36.051  1.00  0.00     0.022 A 
BRANCH  82  86
ATOM     86  S   UNL A   1      44.991  24.857  37.266  1.00  0.00     0.124 S 
ATOM     87  O   UNL A   1      46.025  25.150  38.255  1.00  0.00    -0.237 OA
ATOM     88  O   UNL A   1      43.628  25.193  37.670  1.00  0.00    -0.237 OA
ATOM     89  O   UNL A   1      45.143  23.585  36.566  1.00  0.00    -0.744 OA
ENDBRANCH  82  86
ENDBRANCH  56  79
ENDBRANCH  30  31
ENDBRANCH  23  25
ENDBRANCH  22  23
ENDBRANCH   1  22
TORSDOF 16
ENDMDL
MODEL 3
REMARK VINA RESULT:     -10.5      3.984     10.073
REMARK SMILES C#Cc1ccc2c(c1)C=C(C(=O)OCCOC(=O)c1ccc(-c3c4nc(c(-c5cc(S(=O)(=O)[O-])ccc5F)c5ccc([nH]5)c(-c5cc(S(=O)(=O)[O-])ccc5F)c5nc(c(-c6cc(S(=O)(=O)[O-])ccc6F)c6ccc3[nH]6)C=C5)C=C4)cc1)[C@@H](C(F)(F)F)O2
REMARK SMILES IDX 15 1 14 2 13 3 11 4 12 5 10 6 3 7 4 8 8 9 5 10 7 11 6 12
REMARK SMILES IDX 9 13 87 14 82 15 2 16 1 17 83 18 84 19 85 20 86 21 16 22
REMARK SMILES IDX 17 23 18 24 19 25 20 26 81 27 21 28 80 29 22 30 23 31 24 32
REMARK SMILES IDX 74 33 25 34 79 35 73 36 75 37 26 38 78 39 72 40 71 41 27 43
REMARK SMILES IDX 59 44 39 45 58 46 40 47 43 48 57 49 76 50 41 51 42 52 56 54
REMARK SMILES IDX 77 55 44 56 28 57 29 58 37 59 30 60 36 61 38 62 35 63 31 64
REMARK SMILES IDX 32 65 33 66 34 67 60 68 61 69 69 70 62 71 68 72 70 73 67 74
REMARK SMILES IDX 63 75 64 76 65 77 66 78 45 79 46 80 54 81 47 82 53 83 55 84
REMARK SMILES IDX 52 85 48 86 49 87 50 88 51 89
REMARK H PARENT 75 42 43 53
REMARK Flexibility Score: inf
ROOT
ATOM      1  C   UNL A   1      36.073  20.672  24.994  1.00  0.00     0.275 C 
ENDROOT
BRANCH   1   2
ATOM      2  C   UNL A   1      34.592  20.901  25.311  1.00  0.00     0.275 C 
BRANCH   2   3
ATOM      3  O   UNL A   1      34.278  22.307  25.428  1.00  0.00    -0.459 OA
BRANCH   3   4
ATOM      4  C   UNL A   1      33.268  22.749  24.642  1.00  0.00     0.338 C 
ATOM      5  O   UNL A   1      32.821  22.182  23.657  1.00  0.00    -0.246 OA
BRANCH   4   6
ATOM      6  C   UNL A   1      32.742  24.042  25.128  1.00  0.00     0.087 C 
ATOM      7  C   UNL A   1      33.645  28.400  26.971  1.00  0.00     0.025 A 
ATOM      8  C   UNL A   1      32.297  28.540  27.305  1.00  0.00     0.021 A 
ATOM      9  C   UNL A   1      34.068  27.258  26.298  1.00  0.00     0.029 A 
ATOM     10  C   UNL A   1      31.377  27.539  26.961  1.00  0.00     0.048 A 
ATOM     11  C   UNL A   1      33.148  26.249  25.982  1.00  0.00     0.018 A 
ATOM     12  C   UNL A   1      31.803  26.387  26.303  1.00  0.00     0.128 A 
ATOM     13  C   UNL A   1      33.612  25.030  25.362  1.00  0.00     0.027 C 
ATOM     14  O   UNL A   1      30.858  25.444  26.004  1.00  0.00    -0.475 OA
ATOM     15  C   UNL A   1      31.292  24.145  25.493  1.00  0.00     0.316 C 
BRANCH   7  16
ATOM     16  C   UNL A   1      34.605  29.398  27.329  1.00  0.00    -0.070 C 
ATOM     17  C   UNL A   1      35.454  30.202  27.611  1.00  0.00     0.010 C 
ENDBRANCH   7  16
BRANCH  15  18
ATOM     18  C   UNL A   1      30.911  23.062  26.515  1.00  0.00     0.430 C 
ATOM     19  F   UNL A   1      29.788  23.397  27.195  1.00  0.00    -0.167 F 
ATOM     20  F   UNL A   1      30.648  21.875  25.914  1.00  0.00    -0.167 F 
ATOM     21  F   UNL A   1      31.887  22.846  27.424  1.00  0.00    -0.167 F 
ENDBRANCH  15  18
ENDBRANCH   4   6
ENDBRANCH   3   4
ENDBRANCH   2   3
ENDBRANCH   1   2
BRANCH   1  22
ATOM     22  O   UNL A   1      36.893  21.703  25.572  1.00  0.00    -0.458 OA
BRANCH  22  23
ATOM     23  C   UNL A   1      38.190  21.359  25.738  1.00  0.00     0.338 C 
ATOM     24  O   UNL A   1      38.753  20.369  25.304  1.00  0.00    -0.246 OA
BRANCH  23  25
ATOM     25  C   UNL A   1      38.902  22.449  26.413  1.00  0.00     0.060 A 
ATOM     26  C   UNL A   1      40.042  22.235  27.168  1.00  0.00     0.016 A 
ATOM     27  C   UNL A   1      38.489  23.744  26.132  1.00  0.00     0.016 A 
ATOM     28  C   UNL A   1      40.749  23.346  27.646  1.00  0.00     0.010 A 
ATOM     29  C   UNL A   1      39.300  24.827  26.423  1.00  0.00     0.010 A 
ATOM     30  C   UNL A   1      40.412  24.657  27.244  1.00  0.00    -0.014 A 
BRANCH  30  31
ATOM     31  C   UNL A   1      41.187  25.848  27.695  1.00  0.00     0.031 A 
ATOM     32  C   UNL A   1      42.627  26.049  27.271  1.00  0.00     0.074 A 
ATOM     33  C   UNL A   1      40.599  26.745  28.515  1.00  0.00     0.049 A 
ATOM     34  N   UNL A   1      43.425  27.053  27.529  1.00  0.00    -0.248 NA
ATOM     35  C   UNL A   1      43.276  24.975  26.496  1.00  0.00     0.031 C 
ATOM     36  C   UNL A   1      39.258  26.603  29.085  1.00  0.00     0.029 A 
ATOM     37  N   UNL A   1      41.032  27.958  28.992  1.00  0.00    -0.354 N 
ATOM     38  C   UNL A   1      44.652  26.724  26.960  1.00  0.00     0.074 A 
ATOM     39  C   UNL A   1      44.532  25.389  26.435  1.00  0.00     0.031 C 
ATOM     40  C   UNL A   1      38.942  27.721  29.754  1.00  0.00     0.029 A 
ATOM     41  C   UNL A   1      40.081  28.636  29.721  1.00  0.00     0.049 A 
ATOM     42  H   UNL A   1      41.937  28.309  28.829  1.00  0.00     0.167 HD
ATOM     43  C   UNL A   1      45.762  27.488  26.833  1.00  0.00     0.034 A 
ATOM     44  C   UNL A   1      40.110  29.860  30.289  1.00  0.00     0.034 A 
ATOM     45  C   UNL A   1      45.846  28.841  27.312  1.00  0.00     0.049 A 
ATOM     46  C   UNL A   1      41.342  30.706  30.107  1.00  0.00     0.074 A 
ATOM     47  C   UNL A   1      46.890  29.733  27.163  1.00  0.00     0.029 A 
ATOM     48  N   UNL A   1      44.853  29.499  28.023  1.00  0.00    -0.354 N 
ATOM     49  N   UNL A   1      42.446  30.425  29.451  1.00  0.00    -0.248 NA
ATOM     50  C   UNL A   1      41.338  32.041  30.722  1.00  0.00     0.031 C 
ATOM     51  C   UNL A   1      46.566  30.899  27.853  1.00  0.00     0.029 A 
ATOM     52  C   UNL A   1      45.276  30.775  28.349  1.00  0.00     0.049 A 
ATOM     53  H   UNL A   1      43.977  29.116  28.260  1.00  0.00     0.167 HD
ATOM     54  C   UNL A   1      43.252  31.554  29.553  1.00  0.00     0.074 A 
ATOM     55  C   UNL A   1      42.498  32.535  30.306  1.00  0.00     0.031 C 
ATOM     56  C   UNL A   1      44.505  31.756  29.075  1.00  0.00     0.034 A 
BRANCH  43  57
ATOM     57  C   UNL A   1      46.963  26.931  26.102  1.00  0.00     0.023 A 
ATOM     58  C   UNL A   1      47.988  26.290  26.823  1.00  0.00     0.031 A 
ATOM     59  C   UNL A   1      47.174  27.180  24.733  1.00  0.00     0.131 A 
ATOM     60  C   UNL A   1      49.196  25.977  26.188  1.00  0.00     0.055 A 
ATOM     61  C   UNL A   1      48.356  26.809  24.090  1.00  0.00     0.041 A 
ATOM     62  F   UNL A   1      46.232  27.794  23.997  1.00  0.00    -0.206 F 
ATOM     63  C   UNL A   1      49.381  26.222  24.824  1.00  0.00     0.022 A 
BRANCH  60  64
ATOM     64  S   UNL A   1      50.609  25.335  27.128  1.00  0.00     0.124 S 
ATOM     65  O   UNL A   1      50.001  24.229  27.866  1.00  0.00    -0.237 OA
ATOM     66  O   UNL A   1      51.528  24.943  26.063  1.00  0.00    -0.237 OA
ATOM     67  O   UNL A   1      51.030  26.467  27.945  1.00  0.00    -0.744 OA
ENDBRANCH  60  64
ENDBRANCH  43  57
BRANCH  44  68
ATOM     68  C   UNL A   1      38.897  30.361  31.002  1.00  0.00     0.023 A 
ATOM     69  C   UNL A   1      37.958  31.177  30.344  1.00  0.00     0.031 A 
ATOM     70  C   UNL A   1      38.719  30.134  32.378  1.00  0.00     0.131 A 
ATOM     71  C   UNL A   1      36.938  31.800  31.075  1.00  0.00     0.055 A 
ATOM     72  C   UNL A   1      37.649  30.689  33.086  1.00  0.00     0.041 A 
ATOM     73  F   UNL A   1      39.595  29.379  33.059  1.00  0.00    -0.206 F 
ATOM     74  C   UNL A   1      36.764  31.544  32.438  1.00  0.00     0.022 A 
BRANCH  71  75
ATOM     75  S   UNL A   1      35.906  33.084  30.314  1.00  0.00     0.124 S 
ATOM     76  O   UNL A   1      34.629  32.393  30.153  1.00  0.00    -0.237 OA
ATOM     77  O   UNL A   1      35.934  34.130  31.333  1.00  0.00    -0.237 OA
ATOM     78  O   UNL A   1      36.610  33.405  29.077  1.00  0.00    -0.744 OA
ENDBRANCH  71  75
ENDBRANCH  44  68
BRANCH  56  79
ATOM     79  C   UNL A   1      45.175  33.088  29.317  1.00  0.00     0.023 A 
ATOM     80  C   UNL A   1      45.165  34.066  28.304  1.00  0.00     0.031 A 
ATOM     81  C   UNL A   1      45.972  33.314  30.451  1.00  0.00     0.131 A 
ATOM     82  C   UNL A   1      45.988  35.192  28.414  1.00  0.00     0.055 A 
ATOM     83  C   UNL A   1      46.739  34.471  30.587  1.00  0.00     0.041 A 
ATOM     84  F   UNL A   1      46.030  32.404  31.437  1.00  0.00    -0.206 F 
ATOM     85  C   UNL A   1      46.766  35.407  29.557  1.00  0.00     0.022 A 
BRANCH  82  86
ATOM     86  S   UNL A   1      46.175  36.352  27.032  1.00  0.00     0.124 S 
ATOM     87  O   UNL A   1      45.830  35.515  25.885  1.00  0.00    -0.237 OA
ATOM     88  O   UNL A   1      45.198  37.386  27.366  1.00  0.00    -0.237 OA
ATOM     89  O   UNL A   1      47.574  36.763  27.102  1.00  0.00    -0.744 OA
ENDBRANCH  82  86
ENDBRANCH  56  79
ENDBRANCH  30  31
ENDBRANCH  23  25
ENDBRANCH  22  23
ENDBRANCH   1  22
TORSDOF 16
ENDMDL
