MODEL 1
REMARK VINA RESULT:     -11.5      0.000      0.000
REMARK SMILES O=C(Cn1cnnn1)Nc1cccc(F)c1C(=O)OCCOC(=O)c1ccc(-c2c3nc(c(-c4cc(S(=O)(=O)[O-])ccc4F)c4ccc([nH]4)c(-c4cc(S(=O)(=O)[O-])ccc4F)c4nc(c(-c5cc(S(=O)(=O)[O-])ccc5F)c5ccc2[nH]5)C=C4)C=C3)cc1
REMARK SMILES IDX 20 1 19 2 17 3 18 4 16 5 10 6 11 7 12 8 14 9 13 10 15 11
REMARK SMILES IDX 9 12 1 13 2 14 3 16 4 17 5 18 8 19 6 20 7 21 21 22 22 23
REMARK SMILES IDX 23 24 24 25 25 26 26 27 87 28 27 29 86 30 28 31 29 32 30 33
REMARK SMILES IDX 80 34 31 35 85 36 79 37 81 38 32 39 84 40 78 41 77 42 33 44
REMARK SMILES IDX 65 45 45 46 64 47 46 48 49 49 63 50 82 51 47 52 48 53 62 55
REMARK SMILES IDX 83 56 50 57 34 58 35 59 43 60 36 61 42 62 44 63 41 64 37 65
REMARK SMILES IDX 38 66 39 67 40 68 66 69 67 70 75 71 68 72 74 73 76 74 73 75
REMARK SMILES IDX 69 76 70 77 71 78 72 79 51 80 52 81 60 82 53 83 59 84 61 85
REMARK SMILES IDX 58 86 54 87 55 88 56 89 57 90
REMARK H PARENT 9 15 81 43 49 54
REMARK Flexibility Score: inf
ROOT
ATOM      1  C   UNL A   1      35.835  32.714  28.311  1.00  0.00     0.275 C 
ENDROOT
BRANCH   1   2
ATOM      2  O   UNL A   1      36.044  33.594  29.428  1.00  0.00    -0.458 OA
BRANCH   2   3
ATOM      3  C   UNL A   1      37.322  33.726  29.853  1.00  0.00     0.343 C 
ATOM      4  O   UNL A   1      38.110  34.583  29.467  1.00  0.00    -0.246 OA
BRANCH   3   5
ATOM      5  C   UNL A   1      37.662  32.766  30.933  1.00  0.00     0.119 A 
ATOM      6  C   UNL A   1      36.836  32.667  32.078  1.00  0.00     0.058 A 
ATOM      7  C   UNL A   1      37.223  31.818  33.126  1.00  0.00     0.027 A 
ATOM      8  C   UNL A   1      38.392  31.058  33.039  1.00  0.00     0.005 A 
ATOM      9  C   UNL A   1      38.831  31.998  30.866  1.00  0.00     0.139 A 
ATOM     10  C   UNL A   1      39.191  31.144  31.905  1.00  0.00     0.040 A 
ATOM     11  F   UNL A   1      39.671  32.080  29.822  1.00  0.00    -0.206 F 
BRANCH   6  12
ATOM     12  N   UNL A   1      35.594  33.356  32.138  1.00  0.00    -0.324 N 
ATOM     13  O   UNL A   1      36.222  35.260  33.293  1.00  0.00    -0.273 OA
ATOM     14  C   UNL A   1      35.348  34.527  32.830  1.00  0.00     0.246 C 
ATOM     15  H   UNL A   1      34.840  32.964  31.642  1.00  0.00     0.170 HD
BRANCH  14  16
ATOM     16  C   UNL A   1      33.889  34.855  33.043  1.00  0.00     0.248 C 
BRANCH  16  17
ATOM     17  N   UNL A   1      33.491  36.083  32.408  1.00  0.00    -0.223 N 
ATOM     18  C   UNL A   1      33.056  36.284  31.138  1.00  0.00     0.246 A 
ATOM     19  N   UNL A   1      33.643  37.262  33.030  1.00  0.00    -0.045 NA
ATOM     20  N   UNL A   1      32.911  37.576  30.951  1.00  0.00    -0.117 NA
ATOM     21  N   UNL A   1      33.278  38.171  32.135  1.00  0.00    -0.024 NA
ENDBRANCH  16  17
ENDBRANCH  14  16
ENDBRANCH   6  12
ENDBRANCH   3   5
ENDBRANCH   2   3
ENDBRANCH   1   2
BRANCH   1  22
ATOM     22  C   UNL A   1      35.051  31.478  28.729  1.00  0.00     0.275 C 
BRANCH  22  23
ATOM     23  O   UNL A   1      35.753  30.268  28.441  1.00  0.00    -0.458 OA
BRANCH  23  24
ATOM     24  C   UNL A   1      36.290  29.651  29.517  1.00  0.00     0.338 C 
ATOM     25  O   UNL A   1      35.905  29.707  30.672  1.00  0.00    -0.246 OA
BRANCH  24  26
ATOM     26  C   UNL A   1      37.554  29.017  29.141  1.00  0.00     0.060 A 
ATOM     27  C   UNL A   1      38.146  28.158  30.072  1.00  0.00     0.016 A 
ATOM     28  C   UNL A   1      38.239  29.456  27.998  1.00  0.00     0.016 A 
ATOM     29  C   UNL A   1      39.475  27.822  29.909  1.00  0.00     0.010 A 
ATOM     30  C   UNL A   1      39.566  29.125  27.843  1.00  0.00     0.010 A 
ATOM     31  C   UNL A   1      40.183  28.355  28.825  1.00  0.00    -0.014 A 
BRANCH  31  32
ATOM     32  C   UNL A   1      41.566  27.950  28.653  1.00  0.00     0.031 A 
ATOM     33  C   UNL A   1      41.704  26.652  27.943  1.00  0.00     0.074 A 
ATOM     34  C   UNL A   1      42.606  28.744  28.972  1.00  0.00     0.049 A 
ATOM     35  N   UNL A   1      42.203  25.551  28.394  1.00  0.00    -0.248 NA
ATOM     36  C   UNL A   1      41.047  26.514  26.631  1.00  0.00     0.031 C 
ATOM     37  C   UNL A   1      42.576  30.135  29.427  1.00  0.00     0.029 A 
ATOM     38  N   UNL A   1      43.935  28.496  28.841  1.00  0.00    -0.354 N 
ATOM     39  C   UNL A   1      42.137  24.647  27.341  1.00  0.00     0.074 A 
ATOM     40  C   UNL A   1      41.254  25.225  26.366  1.00  0.00     0.031 C 
ATOM     41  C   UNL A   1      43.812  30.671  29.298  1.00  0.00     0.029 A 
ATOM     42  C   UNL A   1      44.738  29.632  28.876  1.00  0.00     0.049 A 
ATOM     43  H   UNL A   1      44.300  27.588  28.729  1.00  0.00     0.167 HD
ATOM     44  C   UNL A   1      43.011  23.608  27.249  1.00  0.00     0.034 A 
ATOM     45  C   UNL A   1      46.045  29.710  28.505  1.00  0.00     0.034 A 
ATOM     46  C   UNL A   1      43.621  23.325  28.527  1.00  0.00     0.049 A 
ATOM     47  C   UNL A   1      46.586  28.328  28.591  1.00  0.00     0.074 A 
ATOM     48  C   UNL A   1      43.138  22.967  29.771  1.00  0.00     0.029 A 
ATOM     49  N   UNL A   1      44.903  23.775  28.746  1.00  0.00    -0.354 N 
ATOM     50  N   UNL A   1      46.679  27.660  29.709  1.00  0.00    -0.248 NA
ATOM     51  C   UNL A   1      46.570  27.515  27.383  1.00  0.00     0.031 C 
ATOM     52  C   UNL A   1      43.942  23.691  30.699  1.00  0.00     0.029 A 
ATOM     53  C   UNL A   1      44.911  24.388  29.975  1.00  0.00     0.049 A 
ATOM     54  H   UNL A   1      45.670  23.677  28.137  1.00  0.00     0.167 HD
ATOM     55  C   UNL A   1      46.301  26.366  29.384  1.00  0.00     0.074 A 
ATOM     56  C   UNL A   1      46.333  26.316  27.923  1.00  0.00     0.031 C 
ATOM     57  C   UNL A   1      45.727  25.540  30.307  1.00  0.00     0.034 A 
BRANCH  44  58
ATOM     58  C   UNL A   1      43.592  23.110  25.946  1.00  0.00     0.023 A 
ATOM     59  C   UNL A   1      43.505  21.731  25.685  1.00  0.00     0.031 A 
ATOM     60  C   UNL A   1      44.472  23.841  25.113  1.00  0.00     0.131 A 
ATOM     61  C   UNL A   1      44.329  21.127  24.721  1.00  0.00     0.055 A 
ATOM     62  C   UNL A   1      45.242  23.246  24.112  1.00  0.00     0.041 A 
ATOM     63  F   UNL A   1      44.710  25.147  25.277  1.00  0.00    -0.206 F 
ATOM     64  C   UNL A   1      45.200  21.875  23.932  1.00  0.00     0.022 A 
BRANCH  61  65
ATOM     65  S   UNL A   1      44.361  19.319  24.627  1.00  0.00     0.124 S 
ATOM     66  O   UNL A   1      45.509  19.002  25.471  1.00  0.00    -0.237 OA
ATOM     67  O   UNL A   1      43.050  18.969  25.166  1.00  0.00    -0.237 OA
ATOM     68  O   UNL A   1      44.539  19.056  23.202  1.00  0.00    -0.744 OA
ENDBRANCH  61  65
ENDBRANCH  44  58
BRANCH  45  69
ATOM     69  C   UNL A   1      46.721  30.809  27.752  1.00  0.00     0.023 A 
ATOM     70  C   UNL A   1      45.994  31.745  26.982  1.00  0.00     0.031 A 
ATOM     71  C   UNL A   1      48.080  31.116  27.988  1.00  0.00     0.131 A 
ATOM     72  C   UNL A   1      46.619  32.920  26.500  1.00  0.00     0.055 A 
ATOM     73  C   UNL A   1      48.694  32.275  27.506  1.00  0.00     0.041 A 
ATOM     74  F   UNL A   1      48.846  30.347  28.777  1.00  0.00    -0.206 F 
ATOM     75  C   UNL A   1      47.962  33.190  26.770  1.00  0.00     0.022 A 
BRANCH  72  76
ATOM     76  S   UNL A   1      45.657  34.192  25.616  1.00  0.00     0.124 S 
ATOM     77  O   UNL A   1      46.708  35.019  25.036  1.00  0.00    -0.237 OA
ATOM     78  O   UNL A   1      44.865  33.401  24.681  1.00  0.00    -0.237 OA
ATOM     79  O   UNL A   1      44.884  34.832  26.681  1.00  0.00    -0.744 OA
ENDBRANCH  72  76
ENDBRANCH  45  69
BRANCH  57  80
ATOM     80  C   UNL A   1      45.758  25.945  31.766  1.00  0.00     0.023 A 
ATOM     81  C   UNL A   1      44.646  26.416  32.501  1.00  0.00     0.031 A 
ATOM     82  C   UNL A   1      46.945  25.679  32.469  1.00  0.00     0.131 A 
ATOM     83  C   UNL A   1      44.757  26.603  33.895  1.00  0.00     0.055 A 
ATOM     84  C   UNL A   1      47.043  25.848  33.848  1.00  0.00     0.041 A 
ATOM     85  F   UNL A   1      48.021  25.195  31.826  1.00  0.00    -0.206 F 
ATOM     86  C   UNL A   1      45.949  26.311  34.568  1.00  0.00     0.022 A 
BRANCH  83  87
ATOM     87  S   UNL A   1      43.334  27.195  34.874  1.00  0.00     0.124 S 
ATOM     88  O   UNL A   1      42.378  27.612  33.855  1.00  0.00    -0.237 OA
ATOM     89  O   UNL A   1      42.969  26.016  35.655  1.00  0.00    -0.237 OA
ATOM     90  O   UNL A   1      43.895  28.292  35.665  1.00  0.00    -0.744 OA
ENDBRANCH  83  87
ENDBRANCH  57  80
ENDBRANCH  31  32
ENDBRANCH  24  26
ENDBRANCH  23  24
ENDBRANCH  22  23
ENDBRANCH   1  22
TORSDOF 17
ENDMDL
MODEL 2
REMARK VINA RESULT:     -11.2      4.803      8.965
REMARK SMILES O=C(Cn1cnnn1)Nc1cccc(F)c1C(=O)OCCOC(=O)c1ccc(-c2c3nc(c(-c4cc(S(=O)(=O)[O-])ccc4F)c4ccc([nH]4)c(-c4cc(S(=O)(=O)[O-])ccc4F)c4nc(c(-c5cc(S(=O)(=O)[O-])ccc5F)c5ccc2[nH]5)C=C4)C=C3)cc1
REMARK SMILES IDX 20 1 19 2 17 3 18 4 16 5 10 6 11 7 12 8 14 9 13 10 15 11
REMARK SMILES IDX 9 12 1 13 2 14 3 16 4 17 5 18 8 19 6 20 7 21 21 22 22 23
REMARK SMILES IDX 23 24 24 25 25 26 26 27 87 28 27 29 86 30 28 31 29 32 30 33
REMARK SMILES IDX 80 34 31 35 85 36 79 37 81 38 32 39 84 40 78 41 77 42 33 44
REMARK SMILES IDX 65 45 45 46 64 47 46 48 49 49 63 50 82 51 47 52 48 53 62 55
REMARK SMILES IDX 83 56 50 57 34 58 35 59 43 60 36 61 42 62 44 63 41 64 37 65
REMARK SMILES IDX 38 66 39 67 40 68 66 69 67 70 75 71 68 72 74 73 76 74 73 75
REMARK SMILES IDX 69 76 70 77 71 78 72 79 51 80 52 81 60 82 53 83 59 84 61 85
REMARK SMILES IDX 58 86 54 87 55 88 56 89 57 90
REMARK H PARENT 9 15 81 43 49 54
REMARK Flexibility Score: inf
ROOT
ATOM      1  C   UNL A   1      32.485  30.062  27.263  1.00  0.00     0.275 C 
ENDROOT
BRANCH   1   2
ATOM      2  O   UNL A   1      32.305  28.993  26.319  1.00  0.00    -0.458 OA
BRANCH   2   3
ATOM      3  C   UNL A   1      31.723  29.325  25.144  1.00  0.00     0.343 C 
ATOM      4  O   UNL A   1      31.074  30.345  24.940  1.00  0.00    -0.246 OA
BRANCH   3   5
ATOM      5  C   UNL A   1      32.032  28.355  24.064  1.00  0.00     0.119 A 
ATOM      6  C   UNL A   1      31.023  27.974  23.146  1.00  0.00     0.058 A 
ATOM      7  C   UNL A   1      31.312  26.990  22.188  1.00  0.00     0.027 A 
ATOM      8  C   UNL A   1      32.579  26.407  22.116  1.00  0.00     0.005 A 
ATOM      9  C   UNL A   1      33.295  27.758  23.976  1.00  0.00     0.139 A 
ATOM     10  C   UNL A   1      33.572  26.798  23.007  1.00  0.00     0.040 A 
ATOM     11  F   UNL A   1      34.277  28.053  24.842  1.00  0.00    -0.206 F 
BRANCH   6  12
ATOM     12  N   UNL A   1      29.762  28.628  23.142  1.00  0.00    -0.324 N 
ATOM     13  O   UNL A   1      28.374  26.873  23.732  1.00  0.00    -0.273 OA
ATOM     14  C   UNL A   1      28.532  28.021  23.315  1.00  0.00     0.246 C 
ATOM     15  H   UNL A   1      29.763  29.602  23.002  1.00  0.00     0.170 HD
BRANCH  14  16
ATOM     16  C   UNL A   1      27.340  28.852  22.906  1.00  0.00     0.248 C 
BRANCH  16  17
ATOM     17  N   UNL A   1      27.704  30.157  22.421  1.00  0.00    -0.223 N 
ATOM     18  C   UNL A   1      27.608  31.357  23.049  1.00  0.00     0.246 A 
ATOM     19  N   UNL A   1      28.093  30.337  21.150  1.00  0.00    -0.045 NA
ATOM     20  N   UNL A   1      27.949  32.297  22.197  1.00  0.00    -0.117 NA
ATOM     21  N   UNL A   1      28.249  31.649  21.022  1.00  0.00    -0.024 NA
ENDBRANCH  16  17
ENDBRANCH  14  16
ENDBRANCH   6  12
ENDBRANCH   3   5
ENDBRANCH   2   3
ENDBRANCH   1   2
BRANCH   1  22
ATOM     22  C   UNL A   1      33.816  30.767  27.043  1.00  0.00     0.275 C 
BRANCH  22  23
ATOM     23  O   UNL A   1      34.431  31.158  28.271  1.00  0.00    -0.458 OA
BRANCH  23  24
ATOM     24  C   UNL A   1      35.593  31.835  28.138  1.00  0.00     0.338 C 
ATOM     25  O   UNL A   1      35.781  32.868  27.519  1.00  0.00    -0.246 OA
BRANCH  24  26
ATOM     26  C   UNL A   1      36.689  31.049  28.705  1.00  0.00     0.060 A 
ATOM     27  C   UNL A   1      37.804  31.747  29.179  1.00  0.00     0.016 A 
ATOM     28  C   UNL A   1      36.700  29.656  28.546  1.00  0.00     0.016 A 
ATOM     29  C   UNL A   1      38.976  31.051  29.394  1.00  0.00     0.010 A 
ATOM     30  C   UNL A   1      37.872  28.966  28.755  1.00  0.00     0.010 A 
ATOM     31  C   UNL A   1      39.010  29.677  29.127  1.00  0.00    -0.014 A 
BRANCH  31  32
ATOM     32  C   UNL A   1      40.242  28.962  29.404  1.00  0.00     0.031 A 
ATOM     33  C   UNL A   1      40.549  28.880  30.855  1.00  0.00     0.074 A 
ATOM     34  C   UNL A   1      40.944  28.318  28.452  1.00  0.00     0.049 A 
ATOM     35  N   UNL A   1      41.558  29.383  31.482  1.00  0.00    -0.248 NA
ATOM     36  C   UNL A   1      39.515  28.320  31.744  1.00  0.00     0.031 C 
ATOM     37  C   UNL A   1      40.588  28.116  27.046  1.00  0.00     0.029 A 
ATOM     38  N   UNL A   1      42.090  27.600  28.582  1.00  0.00    -0.354 N 
ATOM     39  C   UNL A   1      41.408  29.000  32.809  1.00  0.00     0.074 A 
ATOM     40  C   UNL A   1      40.058  28.526  32.943  1.00  0.00     0.031 C 
ATOM     41  C   UNL A   1      41.367  27.137  26.528  1.00  0.00     0.029 A 
ATOM     42  C   UNL A   1      42.352  26.738  27.521  1.00  0.00     0.049 A 
ATOM     43  H   UNL A   1      42.686  27.682  29.362  1.00  0.00     0.167 HD
ATOM     44  C   UNL A   1      42.484  28.872  33.631  1.00  0.00     0.034 A 
ATOM     45  C   UNL A   1      43.259  25.724  27.508  1.00  0.00     0.034 A 
ATOM     46  C   UNL A   1      43.621  29.600  33.119  1.00  0.00     0.049 A 
ATOM     47  C   UNL A   1      44.259  26.045  28.560  1.00  0.00     0.074 A 
ATOM     48  C   UNL A   1      43.861  30.925  32.809  1.00  0.00     0.029 A 
ATOM     49  N   UNL A   1      44.612  28.888  32.482  1.00  0.00    -0.354 N 
ATOM     50  N   UNL A   1      45.042  27.089  28.513  1.00  0.00    -0.248 NA
ATOM     51  C   UNL A   1      44.052  25.485  29.889  1.00  0.00     0.031 C 
ATOM     52  C   UNL A   1      44.643  30.888  31.617  1.00  0.00     0.029 A 
ATOM     53  C   UNL A   1      44.895  29.549  31.311  1.00  0.00     0.049 A 
ATOM     54  H   UNL A   1      45.038  28.061  32.803  1.00  0.00     0.167 HD
ATOM     55  C   UNL A   1      45.075  27.570  29.813  1.00  0.00     0.074 A 
ATOM     56  C   UNL A   1      44.522  26.492  30.632  1.00  0.00     0.031 C 
ATOM     57  C   UNL A   1      45.282  28.893  30.078  1.00  0.00     0.034 A 
BRANCH  44  58
ATOM     58  C   UNL A   1      42.620  27.793  34.680  1.00  0.00     0.023 A 
ATOM     59  C   UNL A   1      43.350  26.642  34.332  1.00  0.00     0.031 A 
ATOM     60  C   UNL A   1      41.840  27.696  35.857  1.00  0.00     0.131 A 
ATOM     61  C   UNL A   1      43.212  25.452  35.067  1.00  0.00     0.055 A 
ATOM     62  C   UNL A   1      41.757  26.530  36.620  1.00  0.00     0.041 A 
ATOM     63  F   UNL A   1      41.043  28.682  36.282  1.00  0.00    -0.206 F 
ATOM     64  C   UNL A   1      42.419  25.387  36.209  1.00  0.00     0.022 A 
BRANCH  61  65
ATOM     65  S   UNL A   1      43.965  23.943  34.408  1.00  0.00     0.124 S 
ATOM     66  O   UNL A   1      44.401  24.386  33.088  1.00  0.00    -0.237 OA
ATOM     67  O   UNL A   1      45.020  23.684  35.382  1.00  0.00    -0.237 OA
ATOM     68  O   UNL A   1      42.863  22.985  34.414  1.00  0.00    -0.744 OA
ENDBRANCH  61  65
ENDBRANCH  44  58
BRANCH  45  69
ATOM     69  C   UNL A   1      43.105  24.362  26.913  1.00  0.00     0.023 A 
ATOM     70  C   UNL A   1      44.010  23.859  25.952  1.00  0.00     0.031 A 
ATOM     71  C   UNL A   1      42.207  23.427  27.475  1.00  0.00     0.131 A 
ATOM     72  C   UNL A   1      44.000  22.486  25.604  1.00  0.00     0.055 A 
ATOM     73  C   UNL A   1      42.197  22.074  27.124  1.00  0.00     0.041 A 
ATOM     74  F   UNL A   1      41.361  23.770  28.459  1.00  0.00    -0.206 F 
ATOM     75  C   UNL A   1      43.104  21.595  26.196  1.00  0.00     0.022 A 
BRANCH  72  76
ATOM     76  S   UNL A   1      45.247  21.806  24.461  1.00  0.00     0.124 S 
ATOM     77  O   UNL A   1      45.488  22.933  23.568  1.00  0.00    -0.237 OA
ATOM     78  O   UNL A   1      46.340  21.444  25.358  1.00  0.00    -0.237 OA
ATOM     79  O   UNL A   1      44.559  20.668  23.849  1.00  0.00    -0.744 OA
ENDBRANCH  72  76
ENDBRANCH  45  69
BRANCH  57  80
ATOM     80  C   UNL A   1      45.755  29.793  28.956  1.00  0.00     0.023 A 
ATOM     81  C   UNL A   1      44.924  30.649  28.196  1.00  0.00     0.031 A 
ATOM     82  C   UNL A   1      47.144  29.896  28.773  1.00  0.00     0.131 A 
ATOM     83  C   UNL A   1      45.501  31.564  27.291  1.00  0.00     0.055 A 
ATOM     84  C   UNL A   1      47.710  30.814  27.892  1.00  0.00     0.041 A 
ATOM     85  F   UNL A   1      47.982  29.133  29.495  1.00  0.00    -0.206 F 
ATOM     86  C   UNL A   1      46.891  31.653  27.146  1.00  0.00     0.022 A 
BRANCH  83  87
ATOM     87  S   UNL A   1      44.455  32.692  26.309  1.00  0.00     0.124 S 
ATOM     88  O   UNL A   1      43.508  31.791  25.662  1.00  0.00    -0.237 OA
ATOM     89  O   UNL A   1      43.903  33.584  27.324  1.00  0.00    -0.237 OA
ATOM     90  O   UNL A   1      45.404  33.332  25.395  1.00  0.00    -0.744 OA
ENDBRANCH  83  87
ENDBRANCH  57  80
ENDBRANCH  31  32
ENDBRANCH  24  26
ENDBRANCH  23  24
ENDBRANCH  22  23
ENDBRANCH   1  22
TORSDOF 17
ENDMDL
MODEL 3
REMARK VINA RESULT:     -11.0      3.707     12.502
REMARK SMILES O=C(Cn1cnnn1)Nc1cccc(F)c1C(=O)OCCOC(=O)c1ccc(-c2c3nc(c(-c4cc(S(=O)(=O)[O-])ccc4F)c4ccc([nH]4)c(-c4cc(S(=O)(=O)[O-])ccc4F)c4nc(c(-c5cc(S(=O)(=O)[O-])ccc5F)c5ccc2[nH]5)C=C4)C=C3)cc1
REMARK SMILES IDX 20 1 19 2 17 3 18 4 16 5 10 6 11 7 12 8 14 9 13 10 15 11
REMARK SMILES IDX 9 12 1 13 2 14 3 16 4 17 5 18 8 19 6 20 7 21 21 22 22 23
REMARK SMILES IDX 23 24 24 25 25 26 26 27 87 28 27 29 86 30 28 31 29 32 30 33
REMARK SMILES IDX 80 34 31 35 85 36 79 37 81 38 32 39 84 40 78 41 77 42 33 44
REMARK SMILES IDX 65 45 45 46 64 47 46 48 49 49 63 50 82 51 47 52 48 53 62 55
REMARK SMILES IDX 83 56 50 57 34 58 35 59 43 60 36 61 42 62 44 63 41 64 37 65
REMARK SMILES IDX 38 66 39 67 40 68 66 69 67 70 75 71 68 72 74 73 76 74 73 75
REMARK SMILES IDX 69 76 70 77 71 78 72 79 51 80 52 81 60 82 53 83 59 84 61 85
REMARK SMILES IDX 58 86 54 87 55 88 56 89 57 90
REMARK H PARENT 9 15 81 43 49 54
REMARK Flexibility Score: inf
ROOT
ATOM      1  C   UNL A   1      40.873  22.341  27.706  1.00  0.00     0.275 C 
ENDROOT
BRANCH   1   2
ATOM      2  O   UNL A   1      42.288  22.254  27.467  1.00  0.00    -0.458 OA
BRANCH   2   3
ATOM      3  C   UNL A   1      43.079  22.976  28.294  1.00  0.00     0.343 C 
ATOM      4  O   UNL A   1      43.472  22.607  29.395  1.00  0.00    -0.246 OA
BRANCH   3   5
ATOM      5  C   UNL A   1      43.516  24.257  27.685  1.00  0.00     0.119 A 
ATOM      6  C   UNL A   1      44.161  24.257  26.425  1.00  0.00     0.058 A 
ATOM      7  C   UNL A   1      44.646  25.469  25.908  1.00  0.00     0.027 A 
ATOM      8  C   UNL A   1      44.476  26.666  26.607  1.00  0.00     0.005 A 
ATOM      9  C   UNL A   1      43.358  25.467  28.371  1.00  0.00     0.139 A 
ATOM     10  C   UNL A   1      43.825  26.665  27.835  1.00  0.00     0.040 A 
ATOM     11  F   UNL A   1      42.788  25.522  29.585  1.00  0.00    -0.206 F 
BRANCH   6  12
ATOM     12  N   UNL A   1      44.253  23.065  25.657  1.00  0.00    -0.324 N 
ATOM     13  O   UNL A   1      46.505  22.586  25.884  1.00  0.00    -0.273 OA
ATOM     14  C   UNL A   1      45.416  22.388  25.345  1.00  0.00     0.246 C 
ATOM     15  H   UNL A   1      43.410  22.688  25.314  1.00  0.00     0.170 HD
BRANCH  14  16
ATOM     16  C   UNL A   1      45.295  21.378  24.228  1.00  0.00     0.248 C 
BRANCH  16  17
ATOM     17  N   UNL A   1      45.504  20.025  24.668  1.00  0.00    -0.223 N 
ATOM     18  C   UNL A   1      44.594  19.030  24.826  1.00  0.00     0.246 A 
ATOM     19  N   UNL A   1      46.702  19.623  25.117  1.00  0.00    -0.045 NA
ATOM     20  N   UNL A   1      45.204  17.993  25.354  1.00  0.00    -0.117 NA
ATOM     21  N   UNL A   1      46.514  18.375  25.528  1.00  0.00    -0.024 NA
ENDBRANCH  16  17
ENDBRANCH  14  16
ENDBRANCH   6  12
ENDBRANCH   3   5
ENDBRANCH   2   3
ENDBRANCH   1   2
BRANCH   1  22
ATOM     22  C   UNL A   1      40.146  22.895  26.489  1.00  0.00     0.275 C 
BRANCH  22  23
ATOM     23  O   UNL A   1      39.500  24.139  26.763  1.00  0.00    -0.458 OA
BRANCH  23  24
ATOM     24  C   UNL A   1      40.155  25.233  26.316  1.00  0.00     0.338 C 
ATOM     25  O   UNL A   1      40.914  25.304  25.365  1.00  0.00    -0.246 OA
BRANCH  24  26
ATOM     26  C   UNL A   1      39.974  26.336  27.260  1.00  0.00     0.060 A 
ATOM     27  C   UNL A   1      40.395  27.607  26.855  1.00  0.00     0.016 A 
ATOM     28  C   UNL A   1      39.619  26.063  28.589  1.00  0.00     0.016 A 
ATOM     29  C   UNL A   1      40.564  28.584  27.815  1.00  0.00     0.010 A 
ATOM     30  C   UNL A   1      39.795  27.037  29.544  1.00  0.00     0.010 A 
ATOM     31  C   UNL A   1      40.313  28.270  29.157  1.00  0.00    -0.014 A 
BRANCH  31  32
ATOM     32  C   UNL A   1      40.455  29.327  30.139  1.00  0.00     0.031 A 
ATOM     33  C   UNL A   1      39.210  30.117  30.323  1.00  0.00     0.074 A 
ATOM     34  C   UNL A   1      41.554  29.474  30.903  1.00  0.00     0.049 A 
ATOM     35  N   UNL A   1      39.021  31.369  30.078  1.00  0.00    -0.248 NA
ATOM     36  C   UNL A   1      37.975  29.383  30.654  1.00  0.00     0.031 C 
ATOM     37  C   UNL A   1      42.722  28.594  30.986  1.00  0.00     0.029 A 
ATOM     38  N   UNL A   1      41.803  30.400  31.866  1.00  0.00    -0.354 N 
ATOM     39  C   UNL A   1      37.708  31.634  30.448  1.00  0.00     0.074 A 
ATOM     40  C   UNL A   1      37.068  30.357  30.605  1.00  0.00     0.031 C 
ATOM     41  C   UNL A   1      43.425  28.894  32.104  1.00  0.00     0.029 A 
ATOM     42  C   UNL A   1      42.831  30.059  32.740  1.00  0.00     0.049 A 
ATOM     43  H   UNL A   1      41.296  31.241  31.940  1.00  0.00     0.167 HD
ATOM     44  C   UNL A   1      37.323  32.879  30.836  1.00  0.00     0.034 A 
ATOM     45  C   UNL A   1      43.108  30.652  33.933  1.00  0.00     0.034 A 
ATOM     46  C   UNL A   1      38.255  33.881  30.374  1.00  0.00     0.049 A 
ATOM     47  C   UNL A   1      42.508  32.011  33.872  1.00  0.00     0.074 A 
ATOM     48  C   UNL A   1      38.712  34.277  29.132  1.00  0.00     0.029 A 
ATOM     49  N   UNL A   1      39.161  34.388  31.277  1.00  0.00    -0.354 N 
ATOM     50  N   UNL A   1      42.899  32.932  33.033  1.00  0.00    -0.248 NA
ATOM     51  C   UNL A   1      41.163  32.186  34.403  1.00  0.00     0.031 C 
ATOM     52  C   UNL A   1      40.100  34.540  29.318  1.00  0.00     0.029 A 
ATOM     53  C   UNL A   1      40.393  34.362  30.671  1.00  0.00     0.049 A 
ATOM     54  H   UNL A   1      38.964  34.708  32.187  1.00  0.00     0.167 HD
ATOM     55  C   UNL A   1      41.730  33.543  32.603  1.00  0.00     0.074 A 
ATOM     56  C   UNL A   1      40.703  33.103  33.547  1.00  0.00     0.031 C 
ATOM     57  C   UNL A   1      41.641  34.118  31.368  1.00  0.00     0.034 A 
BRANCH  44  58
ATOM     58  C   UNL A   1      36.330  33.147  31.943  1.00  0.00     0.023 A 
ATOM     59  C   UNL A   1      35.237  33.980  31.643  1.00  0.00     0.031 A 
ATOM     60  C   UNL A   1      36.550  32.888  33.316  1.00  0.00     0.131 A 
ATOM     61  C   UNL A   1      34.493  34.588  32.669  1.00  0.00     0.055 A 
ATOM     62  C   UNL A   1      35.767  33.444  34.330  1.00  0.00     0.041 A 
ATOM     63  F   UNL A   1      37.585  32.167  33.763  1.00  0.00    -0.206 F 
ATOM     64  C   UNL A   1      34.751  34.327  34.012  1.00  0.00     0.022 A 
BRANCH  61  65
ATOM     65  S   UNL A   1      33.282  35.856  32.216  1.00  0.00     0.124 S 
ATOM     66  O   UNL A   1      33.687  36.967  33.070  1.00  0.00    -0.237 OA
ATOM     67  O   UNL A   1      33.536  36.016  30.787  1.00  0.00    -0.237 OA
ATOM     68  O   UNL A   1      32.003  35.239  32.555  1.00  0.00    -0.744 OA
ENDBRANCH  61  65
ENDBRANCH  44  58
BRANCH  45  69
ATOM     69  C   UNL A   1      43.522  29.996  35.209  1.00  0.00     0.023 A 
ATOM     70  C   UNL A   1      42.884  28.831  35.693  1.00  0.00     0.031 A 
ATOM     71  C   UNL A   1      44.731  30.356  35.847  1.00  0.00     0.131 A 
ATOM     72  C   UNL A   1      43.457  28.083  36.750  1.00  0.00     0.055 A 
ATOM     73  C   UNL A   1      45.290  29.617  36.893  1.00  0.00     0.041 A 
ATOM     74  F   UNL A   1      45.469  31.390  35.417  1.00  0.00    -0.206 F 
ATOM     75  C   UNL A   1      44.661  28.468  37.341  1.00  0.00     0.022 A 
BRANCH  72  76
ATOM     76  S   UNL A   1      42.707  26.513  37.293  1.00  0.00     0.124 S 
ATOM     77  O   UNL A   1      41.296  26.866  37.388  1.00  0.00    -0.237 OA
ATOM     78  O   UNL A   1      43.074  25.595  36.221  1.00  0.00    -0.237 OA
ATOM     79  O   UNL A   1      43.365  26.249  38.573  1.00  0.00    -0.744 OA
ENDBRANCH  72  76
ENDBRANCH  45  69
BRANCH  57  80
ATOM     80  C   UNL A   1      42.911  34.334  30.573  1.00  0.00     0.023 A 
ATOM     81  C   UNL A   1      43.392  33.472  29.562  1.00  0.00     0.031 A 
ATOM     82  C   UNL A   1      43.564  35.565  30.751  1.00  0.00     0.131 A 
ATOM     83  C   UNL A   1      44.496  33.862  28.774  1.00  0.00     0.055 A 
ATOM     84  C   UNL A   1      44.642  35.954  29.959  1.00  0.00     0.041 A 
ATOM     85  F   UNL A   1      43.126  36.439  31.674  1.00  0.00    -0.206 F 
ATOM     86  C   UNL A   1      45.113  35.104  28.967  1.00  0.00     0.022 A 
BRANCH  83  87
ATOM     87  S   UNL A   1      45.130  32.777  27.451  1.00  0.00     0.124 S 
ATOM     88  O   UNL A   1      45.665  31.635  28.183  1.00  0.00    -0.237 OA
ATOM     89  O   UNL A   1      43.939  32.523  26.645  1.00  0.00    -0.237 OA
ATOM     90  O   UNL A   1      46.142  33.601  26.787  1.00  0.00    -0.744 OA
ENDBRANCH  83  87
ENDBRANCH  57  80
ENDBRANCH  31  32
ENDBRANCH  24  26
ENDBRANCH  23  24
ENDBRANCH  22  23
ENDBRANCH   1  22
TORSDOF 17
ENDMDL
