MODEL 1
REMARK VINA RESULT:     -11.9      0.000      0.000
REMARK SMILES CC[C@@H](Oc1cccc(/C=C2/SC(=O)N(c3cccc(OC)c3)C2=O)c1)C(=O)OCCOC(=O)c1ccc(-c2c3nc(c(-c4cc(S(=O)(=O)[O-])ccc4F)c4ccc([nH]4)c(-c4cc(S(=O)(=O)[O-])ccc4F)c4nc(c(-c5cc(S(=O)(=O)[O-])ccc5F)c5ccc2[nH]5)C=C4)C=C3)cc1
REMARK SMILES IDX 30 1 29 2 27 3 28 4 3 5 2 6 1 7 4 8 5 9 6 10 26 11 7 12 9 13
REMARK SMILES IDX 8 14 10 15 11 16 12 17 24 18 13 19 15 20 25 21 14 22 16 23
REMARK SMILES IDX 17 24 23 25 18 26 20 27 19 28 21 29 22 30 31 31 32 32 33 33
REMARK SMILES IDX 34 34 35 35 36 36 97 37 37 38 96 39 38 40 39 41 40 42 90 43
REMARK SMILES IDX 41 44 95 45 89 46 91 47 42 48 94 49 88 50 87 51 43 53 75 54
REMARK SMILES IDX 55 55 74 56 56 57 59 58 73 59 92 60 57 61 58 62 72 64 93 65
REMARK SMILES IDX 60 66 44 67 45 68 53 69 46 70 52 71 54 72 51 73 47 74 48 75
REMARK SMILES IDX 49 76 50 77 76 78 77 79 85 80 78 81 84 82 86 83 83 84 79 85
REMARK SMILES IDX 80 86 81 87 82 88 61 89 62 90 70 91 63 92 69 93 71 94 68 95
REMARK SMILES IDX 64 96 65 97 66 98 67 99
REMARK H PARENT 91 52 59 63
REMARK Flexibility Score: inf
ROOT
ATOM      1  C   UNL A   1      31.403  29.591  25.439  1.00  0.00     0.274 C 
ENDROOT
BRANCH   1   2
ATOM      2  O   UNL A   1      30.615  29.971  24.297  1.00  0.00    -0.459 OA
BRANCH   2   3
ATOM      3  C   UNL A   1      30.551  29.067  23.278  1.00  0.00     0.347 C 
ATOM      4  O   UNL A   1      31.032  29.239  22.163  1.00  0.00    -0.248 OA
BRANCH   3   5
ATOM      5  C   UNL A   1      29.805  27.791  23.682  1.00  0.00     0.282 C 
BRANCH   5   6
ATOM      6  C   UNL A   1      28.356  27.803  23.139  1.00  0.00     0.054 C 
ATOM      7  C   UNL A   1      27.707  29.184  23.186  1.00  0.00     0.008 C 
ENDBRANCH   5   6
BRANCH   5   8
ATOM      8  O   UNL A   1      30.602  26.707  23.167  1.00  0.00    -0.479 OA
BRANCH   8   9
ATOM      9  C   UNL A   1      31.255  26.036  24.163  1.00  0.00     0.121 A 
ATOM     10  C   UNL A   1      30.596  25.632  25.315  1.00  0.00     0.046 A 
ATOM     11  C   UNL A   1      32.621  25.827  24.040  1.00  0.00     0.054 A 
ATOM     12  C   UNL A   1      31.312  24.962  26.315  1.00  0.00     0.004 A 
ATOM     13  C   UNL A   1      33.353  25.154  25.026  1.00  0.00    -0.021 A 
ATOM     14  C   UNL A   1      32.684  24.705  26.164  1.00  0.00     0.008 A 
BRANCH  13  15
ATOM     15  C   UNL A   1      34.770  24.859  24.755  1.00  0.00     0.029 C 
ATOM     16  C   UNL A   1      35.216  23.624  24.472  1.00  0.00     0.083 C 
ATOM     17  S   UNL A   1      36.826  23.097  24.735  1.00  0.00    -0.022 SA
ATOM     18  C   UNL A   1      34.366  22.446  24.144  1.00  0.00     0.272 C 
ATOM     19  C   UNL A   1      36.288  21.429  24.988  1.00  0.00     0.298 C 
ATOM     20  N   UNL A   1      34.959  21.289  24.631  1.00  0.00    -0.236 N 
ATOM     21  O   UNL A   1      33.317  22.565  23.527  1.00  0.00    -0.268 OA
ATOM     22  O   UNL A   1      37.072  20.581  25.384  1.00  0.00    -0.260 OA
BRANCH  20  23
ATOM     23  C   UNL A   1      34.243  20.047  24.737  1.00  0.00     0.057 A 
ATOM     24  C   UNL A   1      32.924  20.006  25.221  1.00  0.00     0.027 A 
ATOM     25  C   UNL A   1      34.855  18.818  24.418  1.00  0.00     0.073 A 
ATOM     26  C   UNL A   1      32.240  18.799  25.382  1.00  0.00     0.006 A 
ATOM     27  C   UNL A   1      34.180  17.601  24.599  1.00  0.00     0.120 A 
ATOM     28  C   UNL A   1      32.870  17.601  25.072  1.00  0.00     0.046 A 
BRANCH  27  29
ATOM     29  O   UNL A   1      34.687  16.352  24.359  1.00  0.00    -0.497 OA
ATOM     30  C   UNL A   1      35.535  15.796  25.355  1.00  0.00     0.278 C 
ENDBRANCH  27  29
ENDBRANCH  20  23
ENDBRANCH  13  15
ENDBRANCH   8   9
ENDBRANCH   5   8
ENDBRANCH   3   5
ENDBRANCH   2   3
ENDBRANCH   1   2
BRANCH   1  31
ATOM     31  C   UNL A   1      31.782  30.817  26.273  1.00  0.00     0.275 C 
BRANCH  31  32
ATOM     32  O   UNL A   1      32.978  30.566  27.033  1.00  0.00    -0.458 OA
BRANCH  32  33
ATOM     33  C   UNL A   1      33.646  31.662  27.462  1.00  0.00     0.338 C 
ATOM     34  O   UNL A   1      33.238  32.808  27.512  1.00  0.00    -0.246 OA
BRANCH  33  35
ATOM     35  C   UNL A   1      34.966  31.256  27.964  1.00  0.00     0.060 A 
ATOM     36  C   UNL A   1      35.143  29.946  28.412  1.00  0.00     0.016 A 
ATOM     37  C   UNL A   1      35.994  32.190  28.080  1.00  0.00     0.016 A 
ATOM     38  C   UNL A   1      36.342  29.565  29.005  1.00  0.00     0.010 A 
ATOM     39  C   UNL A   1      37.210  31.799  28.649  1.00  0.00     0.010 A 
ATOM     40  C   UNL A   1      37.386  30.488  29.130  1.00  0.00    -0.014 A 
BRANCH  40  41
ATOM     41  C   UNL A   1      38.645  30.099  29.813  1.00  0.00     0.031 A 
ATOM     42  C   UNL A   1      39.561  29.097  29.169  1.00  0.00     0.074 A 
ATOM     43  C   UNL A   1      38.964  30.649  31.000  1.00  0.00     0.049 A 
ATOM     44  N   UNL A   1      40.641  28.535  29.645  1.00  0.00    -0.248 NA
ATOM     45  C   UNL A   1      39.205  28.667  27.809  1.00  0.00     0.031 C 
ATOM     46  C   UNL A   1      38.179  31.670  31.694  1.00  0.00     0.029 A 
ATOM     47  N   UNL A   1      40.028  30.419  31.835  1.00  0.00    -0.354 N 
ATOM     48  C   UNL A   1      41.084  27.665  28.654  1.00  0.00     0.074 A 
ATOM     49  C   UNL A   1      40.138  27.761  27.561  1.00  0.00     0.031 C 
ATOM     50  C   UNL A   1      38.787  31.977  32.851  1.00  0.00     0.029 A 
ATOM     51  C   UNL A   1      39.969  31.136  33.007  1.00  0.00     0.049 A 
ATOM     52  H   UNL A   1      40.762  29.802  31.616  1.00  0.00     0.167 HD
ATOM     53  C   UNL A   1      42.180  26.864  28.659  1.00  0.00     0.034 A 
ATOM     54  C   UNL A   1      40.758  31.090  34.099  1.00  0.00     0.034 A 
ATOM     55  C   UNL A   1      43.112  26.787  29.759  1.00  0.00     0.049 A 
ATOM     56  C   UNL A   1      41.925  30.136  34.114  1.00  0.00     0.074 A 
ATOM     57  C   UNL A   1      44.259  26.021  29.866  1.00  0.00     0.029 A 
ATOM     58  N   UNL A   1      42.998  27.497  30.949  1.00  0.00    -0.354 N 
ATOM     59  N   UNL A   1      42.322  29.301  33.181  1.00  0.00    -0.248 NA
ATOM     60  C   UNL A   1      42.748  30.116  35.330  1.00  0.00     0.031 C 
ATOM     61  C   UNL A   1      44.803  26.219  31.142  1.00  0.00     0.029 A 
ATOM     62  C   UNL A   1      44.035  27.164  31.806  1.00  0.00     0.049 A 
ATOM     63  H   UNL A   1      42.283  28.143  31.153  1.00  0.00     0.167 HD
ATOM     64  C   UNL A   1      43.456  28.675  33.690  1.00  0.00     0.074 A 
ATOM     65  C   UNL A   1      43.685  29.239  35.005  1.00  0.00     0.031 C 
ATOM     66  C   UNL A   1      44.240  27.724  33.122  1.00  0.00     0.034 A 
BRANCH  53  67
ATOM     67  C   UNL A   1      42.385  25.967  27.462  1.00  0.00     0.023 A 
ATOM     68  C   UNL A   1      41.850  24.669  27.405  1.00  0.00     0.031 A 
ATOM     69  C   UNL A   1      43.165  26.405  26.376  1.00  0.00     0.131 A 
ATOM     70  C   UNL A   1      42.161  23.829  26.324  1.00  0.00     0.055 A 
ATOM     71  C   UNL A   1      43.406  25.593  25.267  1.00  0.00     0.041 A 
ATOM     72  F   UNL A   1      43.721  27.627  26.383  1.00  0.00    -0.206 F 
ATOM     73  C   UNL A   1      42.916  24.290  25.243  1.00  0.00     0.022 A 
BRANCH  70  74
ATOM     74  S   UNL A   1      41.687  22.080  26.418  1.00  0.00     0.124 S 
ATOM     75  O   UNL A   1      42.591  21.477  25.442  1.00  0.00    -0.237 OA
ATOM     76  O   UNL A   1      41.949  21.757  27.815  1.00  0.00    -0.237 OA
ATOM     77  O   UNL A   1      40.278  22.085  26.030  1.00  0.00    -0.744 OA
ENDBRANCH  70  74
ENDBRANCH  53  67
BRANCH  54  78
ATOM     78  C   UNL A   1      40.444  31.929  35.290  1.00  0.00     0.023 A 
ATOM     79  C   UNL A   1      39.398  31.590  36.161  1.00  0.00     0.031 A 
ATOM     80  C   UNL A   1      41.165  33.109  35.551  1.00  0.00     0.131 A 
ATOM     81  C   UNL A   1      39.077  32.438  37.233  1.00  0.00     0.055 A 
ATOM     82  C   UNL A   1      40.875  33.923  36.647  1.00  0.00     0.041 A 
ATOM     83  F   UNL A   1      42.175  33.479  34.748  1.00  0.00    -0.206 F 
ATOM     84  C   UNL A   1      39.817  33.595  37.488  1.00  0.00     0.022 A 
BRANCH  81  85
ATOM     85  S   UNL A   1      37.628  32.045  38.249  1.00  0.00     0.124 S 
ATOM     86  O   UNL A   1      37.381  30.653  37.889  1.00  0.00    -0.237 OA
ATOM     87  O   UNL A   1      38.132  32.278  39.598  1.00  0.00    -0.237 OA
ATOM     88  O   UNL A   1      36.620  32.998  37.788  1.00  0.00    -0.744 OA
ENDBRANCH  81  85
ENDBRANCH  54  78
BRANCH  66  89
ATOM     89  C   UNL A   1      45.443  27.272  33.912  1.00  0.00     0.023 A 
ATOM     90  C   UNL A   1      46.693  27.902  33.782  1.00  0.00     0.031 A 
ATOM     91  C   UNL A   1      45.340  26.180  34.791  1.00  0.00     0.131 A 
ATOM     92  C   UNL A   1      47.803  27.402  34.480  1.00  0.00     0.055 A 
ATOM     93  C   UNL A   1      46.434  25.721  35.525  1.00  0.00     0.041 A 
ATOM     94  F   UNL A   1      44.170  25.540  34.951  1.00  0.00    -0.206 F 
ATOM     95  C   UNL A   1      47.677  26.325  35.363  1.00  0.00     0.022 A 
BRANCH  92  96
ATOM     96  S   UNL A   1      49.435  28.122  34.155  1.00  0.00     0.124 S 
ATOM     97  O   UNL A   1      50.265  27.459  35.156  1.00  0.00    -0.237 OA
ATOM     98  O   UNL A   1      49.678  27.738  32.769  1.00  0.00    -0.237 OA
ATOM     99  O   UNL A   1      49.228  29.554  34.372  1.00  0.00    -0.744 OA
ENDBRANCH  92  96
ENDBRANCH  66  89
ENDBRANCH  40  41
ENDBRANCH  33  35
ENDBRANCH  32  33
ENDBRANCH  31  32
ENDBRANCH   1  31
TORSDOF 20
ENDMDL
MODEL 2
REMARK VINA RESULT:     -11.3      4.338     11.635
REMARK SMILES CC[C@@H](Oc1cccc(/C=C2/SC(=O)N(c3cccc(OC)c3)C2=O)c1)C(=O)OCCOC(=O)c1ccc(-c2c3nc(c(-c4cc(S(=O)(=O)[O-])ccc4F)c4ccc([nH]4)c(-c4cc(S(=O)(=O)[O-])ccc4F)c4nc(c(-c5cc(S(=O)(=O)[O-])ccc5F)c5ccc2[nH]5)C=C4)C=C3)cc1
REMARK SMILES IDX 30 1 29 2 27 3 28 4 3 5 2 6 1 7 4 8 5 9 6 10 26 11 7 12 9 13
REMARK SMILES IDX 8 14 10 15 11 16 12 17 24 18 13 19 15 20 25 21 14 22 16 23
REMARK SMILES IDX 17 24 23 25 18 26 20 27 19 28 21 29 22 30 31 31 32 32 33 33
REMARK SMILES IDX 34 34 35 35 36 36 97 37 37 38 96 39 38 40 39 41 40 42 90 43
REMARK SMILES IDX 41 44 95 45 89 46 91 47 42 48 94 49 88 50 87 51 43 53 75 54
REMARK SMILES IDX 55 55 74 56 56 57 59 58 73 59 92 60 57 61 58 62 72 64 93 65
REMARK SMILES IDX 60 66 44 67 45 68 53 69 46 70 52 71 54 72 51 73 47 74 48 75
REMARK SMILES IDX 49 76 50 77 76 78 77 79 85 80 78 81 84 82 86 83 83 84 79 85
REMARK SMILES IDX 80 86 81 87 82 88 61 89 62 90 70 91 63 92 69 93 71 94 68 95
REMARK SMILES IDX 64 96 65 97 66 98 67 99
REMARK H PARENT 91 52 59 63
REMARK Flexibility Score: inf
ROOT
ATOM      1  C   UNL A   1      33.963  34.949  28.477  1.00  0.00     0.274 C 
ENDROOT
BRANCH   1   2
ATOM      2  O   UNL A   1      35.184  34.801  29.223  1.00  0.00    -0.459 OA
BRANCH   2   3
ATOM      3  C   UNL A   1      35.053  34.623  30.569  1.00  0.00     0.347 C 
ATOM      4  O   UNL A   1      34.117  35.045  31.239  1.00  0.00    -0.248 OA
BRANCH   3   5
ATOM      5  C   UNL A   1      36.218  33.825  31.163  1.00  0.00     0.282 C 
BRANCH   5   6
ATOM      6  C   UNL A   1      35.850  32.328  31.300  1.00  0.00     0.054 C 
ATOM      7  C   UNL A   1      35.834  31.843  32.748  1.00  0.00     0.008 C 
ENDBRANCH   5   6
BRANCH   5   8
ATOM      8  O   UNL A   1      37.331  34.063  30.280  1.00  0.00    -0.479 OA
BRANCH   8   9
ATOM      9  C   UNL A   1      38.525  34.033  30.944  1.00  0.00     0.121 A 
ATOM     10  C   UNL A   1      38.649  34.535  32.231  1.00  0.00     0.046 A 
ATOM     11  C   UNL A   1      39.644  33.554  30.278  1.00  0.00     0.054 A 
ATOM     12  C   UNL A   1      39.898  34.497  32.864  1.00  0.00     0.004 A 
ATOM     13  C   UNL A   1      40.900  33.501  30.897  1.00  0.00    -0.021 A 
ATOM     14  C   UNL A   1      41.019  33.964  32.207  1.00  0.00     0.008 A 
BRANCH  13  15
ATOM     15  C   UNL A   1      42.004  32.857  30.166  1.00  0.00     0.029 C 
ATOM     16  C   UNL A   1      42.859  33.540  29.388  1.00  0.00     0.083 C 
ATOM     17  S   UNL A   1      43.741  32.853  28.089  1.00  0.00    -0.022 SA
ATOM     18  C   UNL A   1      42.995  35.023  29.337  1.00  0.00     0.272 C 
ATOM     19  C   UNL A   1      43.764  34.399  27.226  1.00  0.00     0.298 C 
ATOM     20  N   UNL A   1      43.324  35.420  28.049  1.00  0.00    -0.236 N 
ATOM     21  O   UNL A   1      42.830  35.715  30.332  1.00  0.00    -0.268 OA
ATOM     22  O   UNL A   1      44.175  34.458  26.078  1.00  0.00    -0.260 OA
BRANCH  20  23
ATOM     23  C   UNL A   1      43.225  36.788  27.620  1.00  0.00     0.057 A 
ATOM     24  C   UNL A   1      41.978  37.385  27.369  1.00  0.00     0.027 A 
ATOM     25  C   UNL A   1      44.376  37.565  27.375  1.00  0.00     0.073 A 
ATOM     26  C   UNL A   1      41.874  38.695  26.897  1.00  0.00     0.006 A 
ATOM     27  C   UNL A   1      44.278  38.874  26.880  1.00  0.00     0.120 A 
ATOM     28  C   UNL A   1      43.023  39.435  26.653  1.00  0.00     0.046 A 
BRANCH  27  29
ATOM     29  O   UNL A   1      45.323  39.703  26.572  1.00  0.00    -0.497 OA
ATOM     30  C   UNL A   1      46.605  39.104  26.435  1.00  0.00     0.278 C 
ENDBRANCH  27  29
ENDBRANCH  20  23
ENDBRANCH  13  15
ENDBRANCH   8   9
ENDBRANCH   5   8
ENDBRANCH   3   5
ENDBRANCH   2   3
ENDBRANCH   1   2
BRANCH   1  31
ATOM     31  C   UNL A   1      33.490  33.600  27.930  1.00  0.00     0.275 C 
BRANCH  31  32
ATOM     32  O   UNL A   1      34.613  32.778  27.563  1.00  0.00    -0.458 OA
BRANCH  32  33
ATOM     33  C   UNL A   1      34.405  31.442  27.604  1.00  0.00     0.338 C 
ATOM     34  O   UNL A   1      33.402  30.835  27.271  1.00  0.00    -0.246 OA
BRANCH  33  35
ATOM     35  C   UNL A   1      35.637  30.775  28.045  1.00  0.00     0.060 A 
ATOM     36  C   UNL A   1      35.538  29.577  28.756  1.00  0.00     0.016 A 
ATOM     37  C   UNL A   1      36.877  31.379  27.843  1.00  0.00     0.016 A 
ATOM     38  C   UNL A   1      36.678  28.985  29.292  1.00  0.00     0.010 A 
ATOM     39  C   UNL A   1      38.025  30.768  28.357  1.00  0.00     0.010 A 
ATOM     40  C   UNL A   1      37.931  29.576  29.098  1.00  0.00    -0.014 A 
BRANCH  40  41
ATOM     41  C   UNL A   1      39.139  28.976  29.718  1.00  0.00     0.031 A 
ATOM     42  C   UNL A   1      39.644  29.506  31.030  1.00  0.00     0.074 A 
ATOM     43  C   UNL A   1      39.773  27.958  29.106  1.00  0.00     0.049 A 
ATOM     44  N   UNL A   1      40.738  29.208  31.680  1.00  0.00    -0.248 NA
ATOM     45  C   UNL A   1      38.802  30.513  31.693  1.00  0.00     0.031 C 
ATOM     46  C   UNL A   1      39.345  27.326  27.857  1.00  0.00     0.029 A 
ATOM     47  N   UNL A   1      40.917  27.281  29.448  1.00  0.00    -0.354 N 
ATOM     48  C   UNL A   1      40.732  30.006  32.818  1.00  0.00     0.074 A 
ATOM     49  C   UNL A   1      39.534  30.818  32.754  1.00  0.00     0.031 C 
ATOM     50  C   UNL A   1      40.215  26.356  27.537  1.00  0.00     0.029 A 
ATOM     51  C   UNL A   1      41.292  26.335  28.523  1.00  0.00     0.049 A 
ATOM     52  H   UNL A   1      41.419  27.455  30.276  1.00  0.00     0.167 HD
ATOM     53  C   UNL A   1      41.644  30.054  33.823  1.00  0.00     0.034 A 
ATOM     54  C   UNL A   1      42.398  25.567  28.458  1.00  0.00     0.034 A 
ATOM     55  C   UNL A   1      42.831  29.233  33.868  1.00  0.00     0.049 A 
ATOM     56  C   UNL A   1      43.435  25.693  29.545  1.00  0.00     0.074 A 
ATOM     57  C   UNL A   1      43.814  29.189  34.841  1.00  0.00     0.029 A 
ATOM     58  N   UNL A   1      43.200  28.315  32.892  1.00  0.00    -0.354 N 
ATOM     59  N   UNL A   1      43.431  26.468  30.605  1.00  0.00    -0.248 NA
ATOM     60  C   UNL A   1      44.625  24.842  29.423  1.00  0.00     0.031 C 
ATOM     61  C   UNL A   1      44.807  28.294  34.424  1.00  0.00     0.029 A 
ATOM     62  C   UNL A   1      44.410  27.724  33.224  1.00  0.00     0.049 A 
ATOM     63  H   UNL A   1      42.678  28.113  32.081  1.00  0.00     0.167 HD
ATOM     64  C   UNL A   1      44.608  26.179  31.289  1.00  0.00     0.074 A 
ATOM     65  C   UNL A   1      45.288  25.150  30.528  1.00  0.00     0.031 C 
ATOM     66  C   UNL A   1      45.083  26.711  32.444  1.00  0.00     0.034 A 
BRANCH  53  67
ATOM     67  C   UNL A   1      41.417  31.072  34.914  1.00  0.00     0.023 A 
ATOM     68  C   UNL A   1      40.285  31.032  35.746  1.00  0.00     0.031 A 
ATOM     69  C   UNL A   1      42.330  32.127  35.097  1.00  0.00     0.131 A 
ATOM     70  C   UNL A   1      40.058  32.063  36.671  1.00  0.00     0.055 A 
ATOM     71  C   UNL A   1      42.138  33.107  36.071  1.00  0.00     0.041 A 
ATOM     72  F   UNL A   1      43.418  32.231  34.317  1.00  0.00    -0.206 F 
ATOM     73  C   UNL A   1      40.988  33.089  36.855  1.00  0.00     0.022 A 
BRANCH  70  74
ATOM     74  S   UNL A   1      38.459  32.126  37.526  1.00  0.00     0.124 S 
ATOM     75  O   UNL A   1      38.874  32.274  38.919  1.00  0.00    -0.237 OA
ATOM     76  O   UNL A   1      37.824  33.291  36.922  1.00  0.00    -0.237 OA
ATOM     77  O   UNL A   1      37.845  30.840  37.201  1.00  0.00    -0.744 OA
ENDBRANCH  70  74
ENDBRANCH  53  67
BRANCH  54  78
ATOM     78  C   UNL A   1      42.611  24.653  27.301  1.00  0.00     0.023 A 
ATOM     79  C   UNL A   1      42.106  23.344  27.308  1.00  0.00     0.031 A 
ATOM     80  C   UNL A   1      43.361  25.066  26.184  1.00  0.00     0.131 A 
ATOM     81  C   UNL A   1      42.386  22.481  26.236  1.00  0.00     0.055 A 
ATOM     82  C   UNL A   1      43.593  24.222  25.098  1.00  0.00     0.041 A 
ATOM     83  F   UNL A   1      43.866  26.309  26.128  1.00  0.00    -0.206 F 
ATOM     84  C   UNL A   1      43.114  22.916  25.126  1.00  0.00     0.022 A 
BRANCH  81  85
ATOM     85  S   UNL A   1      41.843  20.755  26.346  1.00  0.00     0.124 S 
ATOM     86  O   UNL A   1      40.462  20.847  25.886  1.00  0.00    -0.237 OA
ATOM     87  O   UNL A   1      42.776  20.086  25.444  1.00  0.00    -0.237 OA
ATOM     88  O   UNL A   1      42.011  20.435  27.762  1.00  0.00    -0.744 OA
ENDBRANCH  81  85
ENDBRANCH  54  78
BRANCH  66  89
ATOM     89  C   UNL A   1      46.381  26.150  32.969  1.00  0.00     0.023 A 
ATOM     90  C   UNL A   1      47.626  26.654  32.555  1.00  0.00     0.031 A 
ATOM     91  C   UNL A   1      46.369  25.080  33.882  1.00  0.00     0.131 A 
ATOM     92  C   UNL A   1      48.810  26.053  33.011  1.00  0.00     0.055 A 
ATOM     93  C   UNL A   1      47.549  24.523  34.376  1.00  0.00     0.041 A 
ATOM     94  F   UNL A   1      45.208  24.560  34.309  1.00  0.00    -0.206 F 
ATOM     95  C   UNL A   1      48.778  25.001  33.932  1.00  0.00     0.022 A 
BRANCH  92  96
ATOM     96  S   UNL A   1      50.392  26.608  32.321  1.00  0.00     0.124 S 
ATOM     97  O   UNL A   1      50.927  27.424  33.407  1.00  0.00    -0.237 OA
ATOM     98  O   UNL A   1      51.084  25.348  32.069  1.00  0.00    -0.237 OA
ATOM     99  O   UNL A   1      50.003  27.350  31.122  1.00  0.00    -0.744 OA
ENDBRANCH  92  96
ENDBRANCH  66  89
ENDBRANCH  40  41
ENDBRANCH  33  35
ENDBRANCH  32  33
ENDBRANCH  31  32
ENDBRANCH   1  31
TORSDOF 20
ENDMDL
MODEL 3
REMARK VINA RESULT:     -11.2      4.829     11.864
REMARK SMILES CC[C@@H](Oc1cccc(/C=C2/SC(=O)N(c3cccc(OC)c3)C2=O)c1)C(=O)OCCOC(=O)c1ccc(-c2c3nc(c(-c4cc(S(=O)(=O)[O-])ccc4F)c4ccc([nH]4)c(-c4cc(S(=O)(=O)[O-])ccc4F)c4nc(c(-c5cc(S(=O)(=O)[O-])ccc5F)c5ccc2[nH]5)C=C4)C=C3)cc1
REMARK SMILES IDX 30 1 29 2 27 3 28 4 3 5 2 6 1 7 4 8 5 9 6 10 26 11 7 12 9 13
REMARK SMILES IDX 8 14 10 15 11 16 12 17 24 18 13 19 15 20 25 21 14 22 16 23
REMARK SMILES IDX 17 24 23 25 18 26 20 27 19 28 21 29 22 30 31 31 32 32 33 33
REMARK SMILES IDX 34 34 35 35 36 36 97 37 37 38 96 39 38 40 39 41 40 42 90 43
REMARK SMILES IDX 41 44 95 45 89 46 91 47 42 48 94 49 88 50 87 51 43 53 75 54
REMARK SMILES IDX 55 55 74 56 56 57 59 58 73 59 92 60 57 61 58 62 72 64 93 65
REMARK SMILES IDX 60 66 44 67 45 68 53 69 46 70 52 71 54 72 51 73 47 74 48 75
REMARK SMILES IDX 49 76 50 77 76 78 77 79 85 80 78 81 84 82 86 83 83 84 79 85
REMARK SMILES IDX 80 86 81 87 82 88 61 89 62 90 70 91 63 92 69 93 71 94 68 95
REMARK SMILES IDX 64 96 65 97 66 98 67 99
REMARK H PARENT 91 52 59 63
REMARK Flexibility Score: inf
ROOT
ATOM      1  C   UNL A   1      34.350  34.937  28.731  1.00  0.00     0.274 C 
ENDROOT
BRANCH   1   2
ATOM      2  O   UNL A   1      35.546  34.595  29.455  1.00  0.00    -0.459 OA
BRANCH   2   3
ATOM      3  C   UNL A   1      35.389  34.298  30.777  1.00  0.00     0.347 C 
ATOM      4  O   UNL A   1      34.332  34.393  31.391  1.00  0.00    -0.248 OA
BRANCH   3   5
ATOM      5  C   UNL A   1      36.695  33.822  31.422  1.00  0.00     0.282 C 
BRANCH   5   6
ATOM      6  C   UNL A   1      36.628  32.313  31.756  1.00  0.00     0.054 C 
ATOM      7  C   UNL A   1      36.319  32.036  33.226  1.00  0.00     0.008 C 
ENDBRANCH   5   6
BRANCH   5   8
ATOM      8  O   UNL A   1      37.728  34.154  30.474  1.00  0.00    -0.479 OA
BRANCH   8   9
ATOM      9  C   UNL A   1      38.970  34.133  31.046  1.00  0.00     0.121 A 
ATOM     10  C   UNL A   1      39.183  34.615  32.329  1.00  0.00     0.046 A 
ATOM     11  C   UNL A   1      40.043  33.685  30.289  1.00  0.00     0.054 A 
ATOM     12  C   UNL A   1      40.476  34.587  32.865  1.00  0.00     0.004 A 
ATOM     13  C   UNL A   1      41.342  33.642  30.810  1.00  0.00    -0.021 A 
ATOM     14  C   UNL A   1      41.552  34.084  32.116  1.00  0.00     0.008 A 
BRANCH  13  15
ATOM     15  C   UNL A   1      42.398  33.030  29.987  1.00  0.00     0.029 C 
ATOM     16  C   UNL A   1      43.190  33.742  29.170  1.00  0.00     0.083 C 
ATOM     17  S   UNL A   1      43.984  33.099  27.794  1.00  0.00    -0.022 SA
ATOM     18  C   UNL A   1      43.309  35.227  29.150  1.00  0.00     0.272 C 
ATOM     19  C   UNL A   1      43.933  34.667  26.974  1.00  0.00     0.298 C 
ATOM     20  N   UNL A   1      43.544  35.661  27.853  1.00  0.00    -0.236 N 
ATOM     21  O   UNL A   1      43.209  35.891  30.172  1.00  0.00    -0.268 OA
ATOM     22  O   UNL A   1      44.262  34.761  25.802  1.00  0.00    -0.260 OA
BRANCH  20  23
ATOM     23  C   UNL A   1      43.403  37.039  27.469  1.00  0.00     0.057 A 
ATOM     24  C   UNL A   1      44.440  37.964  27.679  1.00  0.00     0.027 A 
ATOM     25  C   UNL A   1      42.199  37.530  26.925  1.00  0.00     0.073 A 
ATOM     26  C   UNL A   1      44.292  39.316  27.363  1.00  0.00     0.006 A 
ATOM     27  C   UNL A   1      42.036  38.891  26.626  1.00  0.00     0.120 A 
ATOM     28  C   UNL A   1      43.091  39.775  26.838  1.00  0.00     0.046 A 
BRANCH  27  29
ATOM     29  O   UNL A   1      40.904  39.481  26.131  1.00  0.00    -0.497 OA
ATOM     30  C   UNL A   1      40.771  40.883  26.320  1.00  0.00     0.278 C 
ENDBRANCH  27  29
ENDBRANCH  20  23
ENDBRANCH  13  15
ENDBRANCH   8   9
ENDBRANCH   5   8
ENDBRANCH   3   5
ENDBRANCH   2   3
ENDBRANCH   1   2
BRANCH   1  31
ATOM     31  C   UNL A   1      33.862  33.753  27.893  1.00  0.00     0.275 C 
BRANCH  31  32
ATOM     32  O   UNL A   1      34.933  32.822  27.653  1.00  0.00    -0.458 OA
BRANCH  32  33
ATOM     33  C   UNL A   1      34.675  31.531  27.963  1.00  0.00     0.338 C 
ATOM     34  O   UNL A   1      33.606  30.950  27.895  1.00  0.00    -0.246 OA
BRANCH  33  35
ATOM     35  C   UNL A   1      35.930  30.862  28.328  1.00  0.00     0.060 A 
ATOM     36  C   UNL A   1      35.877  29.572  28.859  1.00  0.00     0.016 A 
ATOM     37  C   UNL A   1      37.144  31.541  28.237  1.00  0.00     0.016 A 
ATOM     38  C   UNL A   1      37.035  28.958  29.327  1.00  0.00     0.010 A 
ATOM     39  C   UNL A   1      38.312  30.913  28.681  1.00  0.00     0.010 A 
ATOM     40  C   UNL A   1      38.263  29.624  29.243  1.00  0.00    -0.014 A 
BRANCH  40  41
ATOM     41  C   UNL A   1      39.489  28.995  29.794  1.00  0.00     0.031 A 
ATOM     42  C   UNL A   1      40.091  29.525  31.064  1.00  0.00     0.074 A 
ATOM     43  C   UNL A   1      40.051  27.950  29.158  1.00  0.00     0.049 A 
ATOM     44  N   UNL A   1      41.215  29.201  31.648  1.00  0.00    -0.248 NA
ATOM     45  C   UNL A   1      39.324  30.566  31.764  1.00  0.00     0.031 C 
ATOM     46  C   UNL A   1      39.526  27.316  27.948  1.00  0.00     0.029 A 
ATOM     47  N   UNL A   1      41.193  27.242  29.438  1.00  0.00    -0.354 N 
ATOM     48  C   UNL A   1      41.306  30.013  32.773  1.00  0.00     0.074 A 
ATOM     49  C   UNL A   1      40.131  30.861  32.772  1.00  0.00     0.031 C 
ATOM     50  C   UNL A   1      40.345  26.316  27.587  1.00  0.00     0.029 A 
ATOM     51  C   UNL A   1      41.480  26.274  28.504  1.00  0.00     0.049 A 
ATOM     52  H   UNL A   1      41.752  27.410  30.229  1.00  0.00     0.167 HD
ATOM     53  C   UNL A   1      42.280  30.045  33.718  1.00  0.00     0.034 A 
ATOM     54  C   UNL A   1      42.556  25.471  28.381  1.00  0.00     0.034 A 
ATOM     55  C   UNL A   1      43.441  29.188  33.700  1.00  0.00     0.049 A 
ATOM     56  C   UNL A   1      43.663  25.577  29.398  1.00  0.00     0.074 A 
ATOM     57  C   UNL A   1      44.483  29.125  34.610  1.00  0.00     0.029 A 
ATOM     58  N   UNL A   1      43.721  28.246  32.716  1.00  0.00    -0.354 N 
ATOM     59  N   UNL A   1      43.750  26.365  30.445  1.00  0.00    -0.248 NA
ATOM     60  C   UNL A   1      44.817  24.688  29.215  1.00  0.00     0.031 C 
ATOM     61  C   UNL A   1      45.420  28.195  34.144  1.00  0.00     0.029 A 
ATOM     62  C   UNL A   1      44.930  27.622  32.979  1.00  0.00     0.049 A 
ATOM     63  H   UNL A   1      43.143  28.051  31.942  1.00  0.00     0.167 HD
ATOM     64  C   UNL A   1      44.958  26.048  31.058  1.00  0.00     0.074 A 
ATOM     65  C   UNL A   1      45.557  24.989  30.271  1.00  0.00     0.031 C 
ATOM     66  C   UNL A   1      45.521  26.579  32.174  1.00  0.00     0.034 A 
BRANCH  53  67
ATOM     67  C   UNL A   1      42.153  31.083  34.806  1.00  0.00     0.023 A 
ATOM     68  C   UNL A   1      42.861  32.296  34.764  1.00  0.00     0.031 A 
ATOM     69  C   UNL A   1      41.340  30.835  35.928  1.00  0.00     0.131 A 
ATOM     70  C   UNL A   1      42.801  33.181  35.852  1.00  0.00     0.055 A 
ATOM     71  C   UNL A   1      41.223  31.754  36.971  1.00  0.00     0.041 A 
ATOM     72  F   UNL A   1      40.657  29.684  36.035  1.00  0.00    -0.206 F 
ATOM     73  C   UNL A   1      41.968  32.930  36.945  1.00  0.00     0.022 A 
BRANCH  70  74
ATOM     74  S   UNL A   1      43.937  34.595  35.885  1.00  0.00     0.124 S 
ATOM     75  O   UNL A   1      43.219  35.571  35.069  1.00  0.00    -0.237 OA
ATOM     76  O   UNL A   1      44.026  34.895  37.308  1.00  0.00    -0.237 OA
ATOM     77  O   UNL A   1      45.159  34.069  35.279  1.00  0.00    -0.744 OA
ENDBRANCH  70  74
ENDBRANCH  53  67
BRANCH  54  78
ATOM     78  C   UNL A   1      42.668  24.536  27.226  1.00  0.00     0.023 A 
ATOM     79  C   UNL A   1      42.136  23.239  27.288  1.00  0.00     0.031 A 
ATOM     80  C   UNL A   1      43.347  24.916  26.054  1.00  0.00     0.131 A 
ATOM     81  C   UNL A   1      42.321  22.356  26.212  1.00  0.00     0.055 A 
ATOM     82  C   UNL A   1      43.484  24.052  24.967  1.00  0.00     0.041 A 
ATOM     83  F   UNL A   1      43.875  26.146  25.943  1.00  0.00    -0.206 F 
ATOM     84  C   UNL A   1      42.980  22.758  25.048  1.00  0.00     0.022 A 
BRANCH  81  85
ATOM     85  S   UNL A   1      41.749  20.644  26.386  1.00  0.00     0.124 S 
ATOM     86  O   UNL A   1      42.107  20.349  27.769  1.00  0.00    -0.237 OA
ATOM     87  O   UNL A   1      40.322  20.771  26.107  1.00  0.00    -0.237 OA
ATOM     88  O   UNL A   1      42.518  19.923  25.374  1.00  0.00    -0.744 OA
ENDBRANCH  81  85
ENDBRANCH  54  78
BRANCH  66  89
ATOM     89  C   UNL A   1      46.833  25.984  32.624  1.00  0.00     0.023 A 
ATOM     90  C   UNL A   1      46.887  24.907  33.525  1.00  0.00     0.031 A 
ATOM     91  C   UNL A   1      48.046  26.521  32.159  1.00  0.00     0.131 A 
ATOM     92  C   UNL A   1      48.129  24.434  33.975  1.00  0.00     0.055 A 
ATOM     93  C   UNL A   1      49.280  26.010  32.566  1.00  0.00     0.041 A 
ATOM     94  F   UNL A   1      48.053  27.552  31.299  1.00  0.00    -0.206 F 
ATOM     95  C   UNL A   1      49.325  24.969  33.489  1.00  0.00     0.022 A 
BRANCH  92  96
ATOM     96  S   UNL A   1      48.162  23.166  35.271  1.00  0.00     0.124 S 
ATOM     97  O   UNL A   1      47.198  22.192  34.767  1.00  0.00    -0.237 OA
ATOM     98  O   UNL A   1      49.559  22.744  35.261  1.00  0.00    -0.237 OA
ATOM     99  O   UNL A   1      47.743  23.889  36.471  1.00  0.00    -0.744 OA
ENDBRANCH  92  96
ENDBRANCH  66  89
ENDBRANCH  40  41
ENDBRANCH  33  35
ENDBRANCH  32  33
ENDBRANCH  31  32
ENDBRANCH   1  31
TORSDOF 20
ENDMDL
