MODEL 1
REMARK VINA RESULT:     -11.8      0.000      0.000
REMARK SMILES CC1(C)[C@@H](C(=O)NCCc2ccccc2)CC[C@@]1(C)C(=O)OCCOC(=O)c1ccc(-c2c3nc(c(-c4cc(S(=O)(=O)[O-])ccc4F)c4ccc([nH]4)c(-c4cc(S(=O)(=O)[O-])ccc4F)c4nc(c(-c5cc(S(=O)(=O)[O-])ccc5F)c5ccc2[nH]5)C=C4)C=C3)cc1
REMARK SMILES IDX 23 1 22 2 20 3 21 4 18 5 1 6 2 7 3 8 4 9 16 10 17 11 19 12
REMARK SMILES IDX 5 13 6 14 7 15 8 17 9 18 10 19 11 20 15 21 12 22 14 23 13 24
REMARK SMILES IDX 24 25 25 26 26 27 27 28 28 29 29 30 90 31 30 32 89 33 31 34
REMARK SMILES IDX 32 35 33 36 83 37 34 38 88 39 82 40 84 41 35 42 87 43 81 44
REMARK SMILES IDX 80 45 36 47 68 48 48 49 67 50 49 51 52 52 66 53 85 54 50 55
REMARK SMILES IDX 51 56 65 58 86 59 53 60 37 61 38 62 46 63 39 64 45 65 47 66
REMARK SMILES IDX 44 67 40 68 41 69 42 70 43 71 69 72 70 73 78 74 71 75 77 76
REMARK SMILES IDX 79 77 76 78 72 79 73 80 74 81 75 82 54 83 55 84 63 85 56 86
REMARK SMILES IDX 62 87 64 88 61 89 57 90 58 91 59 92 60 93
REMARK H PARENT 7 16 84 46 52 57
REMARK Flexibility Score: inf
ROOT
ATOM      1  C   UNL A   1      37.477  19.450  25.013  1.00  0.00     0.274 C 
ENDROOT
BRANCH   1   2
ATOM      2  O   UNL A   1      36.928  20.716  25.433  1.00  0.00    -0.462 OA
BRANCH   2   3
ATOM      3  C   UNL A   1      35.745  21.076  24.858  1.00  0.00     0.312 C 
ATOM      4  O   UNL A   1      34.849  20.279  24.627  1.00  0.00    -0.252 OA
BRANCH   3   5
ATOM      5  C   UNL A   1      35.716  22.562  24.429  1.00  0.00     0.071 C 
ATOM      6  C   UNL A   1      33.272  21.989  23.701  1.00  0.00     0.013 C 
ATOM      7  C   UNL A   1      34.230  23.050  24.268  1.00  0.00    -0.008 C 
ATOM      8  C   UNL A   1      34.140  24.252  23.280  1.00  0.00     0.013 C 
ATOM      9  C   UNL A   1      33.860  23.557  25.712  1.00  0.00     0.085 C 
ATOM     10  C   UNL A   1      35.113  24.306  26.122  1.00  0.00     0.015 C 
ATOM     11  C   UNL A   1      36.276  23.492  25.552  1.00  0.00     0.020 C 
ATOM     12  C   UNL A   1      36.608  22.715  23.182  1.00  0.00     0.024 C 
BRANCH   9  13
ATOM     13  C   UNL A   1      33.212  22.539  26.682  1.00  0.00     0.223 C 
ATOM     14  O   UNL A   1      33.954  21.981  27.506  1.00  0.00    -0.275 OA
ATOM     15  N   UNL A   1      31.924  22.122  26.705  1.00  0.00    -0.356 N 
ATOM     16  H   UNL A   1      31.808  21.308  27.247  1.00  0.00     0.163 HD
BRANCH  15  17
ATOM     17  C   UNL A   1      30.662  22.582  26.124  1.00  0.00     0.120 C 
BRANCH  17  18
ATOM     18  C   UNL A   1      30.303  24.025  26.502  1.00  0.00     0.056 C 
BRANCH  18  19
ATOM     19  C   UNL A   1      30.649  25.138  25.535  1.00  0.00    -0.046 A 
ATOM     20  C   UNL A   1      30.607  25.015  24.140  1.00  0.00     0.004 A 
ATOM     21  C   UNL A   1      30.975  26.392  26.082  1.00  0.00     0.004 A 
ATOM     22  C   UNL A   1      30.897  26.111  23.320  1.00  0.00     0.000 A 
ATOM     23  C   UNL A   1      31.261  27.485  25.263  1.00  0.00     0.000 A 
ATOM     24  C   UNL A   1      31.225  27.344  23.880  1.00  0.00     0.000 A 
ENDBRANCH  18  19
ENDBRANCH  17  18
ENDBRANCH  15  17
ENDBRANCH   9  13
ENDBRANCH   3   5
ENDBRANCH   2   3
ENDBRANCH   1   2
BRANCH   1  25
ATOM     25  C   UNL A   1      38.893  19.218  25.541  1.00  0.00     0.275 C 
BRANCH  25  26
ATOM     26  O   UNL A   1      39.585  20.462  25.753  1.00  0.00    -0.458 OA
BRANCH  26  27
ATOM     27  C   UNL A   1      40.361  20.512  26.857  1.00  0.00     0.338 C 
ATOM     28  O   UNL A   1      40.882  19.575  27.442  1.00  0.00    -0.246 OA
BRANCH  27  29
ATOM     29  C   UNL A   1      40.608  21.917  27.208  1.00  0.00     0.060 A 
ATOM     30  C   UNL A   1      39.902  22.889  26.501  1.00  0.00     0.016 A 
ATOM     31  C   UNL A   1      41.585  22.285  28.127  1.00  0.00     0.016 A 
ATOM     32  C   UNL A   1      40.165  24.241  26.687  1.00  0.00     0.010 A 
ATOM     33  C   UNL A   1      41.851  23.645  28.322  1.00  0.00     0.010 A 
ATOM     34  C   UNL A   1      41.156  24.628  27.590  1.00  0.00    -0.014 A 
BRANCH  34  35
ATOM     35  C   UNL A   1      41.564  26.049  27.675  1.00  0.00     0.031 A 
ATOM     36  C   UNL A   1      42.872  26.458  27.063  1.00  0.00     0.074 A 
ATOM     37  C   UNL A   1      40.774  26.962  28.267  1.00  0.00     0.049 A 
ATOM     38  N   UNL A   1      43.553  27.561  27.216  1.00  0.00    -0.248 NA
ATOM     39  C   UNL A   1      43.496  25.479  26.160  1.00  0.00     0.031 C 
ATOM     40  C   UNL A   1      39.430  26.709  28.787  1.00  0.00     0.029 A 
ATOM     41  N   UNL A   1      40.996  28.288  28.541  1.00  0.00    -0.354 N 
ATOM     42  C   UNL A   1      44.712  27.394  26.466  1.00  0.00     0.074 A 
ATOM     43  C   UNL A   1      44.632  26.085  25.853  1.00  0.00     0.031 C 
ATOM     44  C   UNL A   1      38.955  27.840  29.334  1.00  0.00     0.029 A 
ATOM     45  C   UNL A   1      39.989  28.871  29.274  1.00  0.00     0.049 A 
ATOM     46  H   UNL A   1      41.799  28.775  28.242  1.00  0.00     0.167 HD
ATOM     47  C   UNL A   1      45.751  28.253  26.323  1.00  0.00     0.034 A 
ATOM     48  C   UNL A   1      39.940  30.074  29.881  1.00  0.00     0.034 A 
ATOM     49  C   UNL A   1      45.798  29.551  26.949  1.00  0.00     0.049 A 
ATOM     50  C   UNL A   1      41.145  30.980  29.793  1.00  0.00     0.074 A 
ATOM     51  C   UNL A   1      46.817  30.488  26.930  1.00  0.00     0.029 A 
ATOM     52  N   UNL A   1      44.772  30.097  27.710  1.00  0.00    -0.354 N 
ATOM     53  N   UNL A   1      42.286  30.779  29.174  1.00  0.00    -0.248 NA
ATOM     54  C   UNL A   1      41.064  32.266  30.499  1.00  0.00     0.031 C 
ATOM     55  C   UNL A   1      46.426  31.576  27.719  1.00  0.00     0.029 A 
ATOM     56  C   UNL A   1      45.138  31.348  28.177  1.00  0.00     0.049 A 
ATOM     57  H   UNL A   1      43.909  29.658  27.891  1.00  0.00     0.167 HD
ATOM     58  C   UNL A   1      43.048  31.922  29.398  1.00  0.00     0.074 A 
ATOM     59  C   UNL A   1      42.237  32.811  30.203  1.00  0.00     0.031 C 
ATOM     60  C   UNL A   1      44.304  32.216  28.974  1.00  0.00     0.034 A 
BRANCH  47  61
ATOM     61  C   UNL A   1      46.943  27.764  25.540  1.00  0.00     0.023 A 
ATOM     62  C   UNL A   1      47.150  28.119  24.197  1.00  0.00     0.031 A 
ATOM     63  C   UNL A   1      47.854  26.871  26.136  1.00  0.00     0.131 A 
ATOM     64  C   UNL A   1      48.197  27.527  23.473  1.00  0.00     0.055 A 
ATOM     65  C   UNL A   1      48.937  26.346  25.432  1.00  0.00     0.041 A 
ATOM     66  F   UNL A   1      47.690  26.476  27.409  1.00  0.00    -0.206 F 
ATOM     67  C   UNL A   1      49.105  26.660  24.087  1.00  0.00     0.022 A 
BRANCH  64  68
ATOM     68  S   UNL A   1      48.270  27.790  21.679  1.00  0.00     0.124 S 
ATOM     69  O   UNL A   1      48.654  26.464  21.201  1.00  0.00    -0.237 OA
ATOM     70  O   UNL A   1      46.909  28.212  21.367  1.00  0.00    -0.237 OA
ATOM     71  O   UNL A   1      49.294  28.822  21.524  1.00  0.00    -0.744 OA
ENDBRANCH  64  68
ENDBRANCH  47  61
BRANCH  48  72
ATOM     72  C   UNL A   1      38.754  30.457  30.700  1.00  0.00     0.023 A 
ATOM     73  C   UNL A   1      37.672  31.148  30.134  1.00  0.00     0.031 A 
ATOM     74  C   UNL A   1      38.706  30.173  32.078  1.00  0.00     0.131 A 
ATOM     75  C   UNL A   1      36.604  31.561  30.947  1.00  0.00     0.055 A 
ATOM     76  C   UNL A   1      37.618  30.538  32.871  1.00  0.00     0.041 A 
ATOM     77  F   UNL A   1      39.719  29.522  32.673  1.00  0.00    -0.206 F 
ATOM     78  C   UNL A   1      36.562  31.247  32.308  1.00  0.00     0.022 A 
BRANCH  75  79
ATOM     79  S   UNL A   1      35.297  32.582  30.214  1.00  0.00     0.124 S 
ATOM     80  O   UNL A   1      34.836  31.735  29.120  1.00  0.00    -0.237 OA
ATOM     81  O   UNL A   1      34.377  32.744  31.334  1.00  0.00    -0.237 OA
ATOM     82  O   UNL A   1      36.002  33.797  29.809  1.00  0.00    -0.744 OA
ENDBRANCH  75  79
ENDBRANCH  48  72
BRANCH  60  83
ATOM     83  C   UNL A   1      44.844  33.578  29.319  1.00  0.00     0.023 A 
ATOM     84  C   UNL A   1      44.683  34.679  28.462  1.00  0.00     0.031 A 
ATOM     85  C   UNL A   1      45.507  33.775  30.543  1.00  0.00     0.131 A 
ATOM     86  C   UNL A   1      45.210  35.927  28.829  1.00  0.00     0.055 A 
ATOM     87  C   UNL A   1      45.992  35.026  30.921  1.00  0.00     0.041 A 
ATOM     88  F   UNL A   1      45.682  32.752  31.396  1.00  0.00    -0.206 F 
ATOM     89  C   UNL A   1      45.851  36.110  30.059  1.00  0.00     0.022 A 
BRANCH  86  90
ATOM     90  S   UNL A   1      45.082  37.309  27.661  1.00  0.00     0.124 S 
ATOM     91  O   UNL A   1      43.640  37.413  27.471  1.00  0.00    -0.237 OA
ATOM     92  O   UNL A   1      45.709  38.403  28.397  1.00  0.00    -0.237 OA
ATOM     93  O   UNL A   1      45.829  36.843  26.494  1.00  0.00    -0.744 OA
ENDBRANCH  86  90
ENDBRANCH  60  83
ENDBRANCH  34  35
ENDBRANCH  27  29
ENDBRANCH  26  27
ENDBRANCH  25  26
ENDBRANCH   1  25
TORSDOF 18
ENDMDL
MODEL 2
REMARK VINA RESULT:     -11.8      4.981      8.031
REMARK SMILES CC1(C)[C@@H](C(=O)NCCc2ccccc2)CC[C@@]1(C)C(=O)OCCOC(=O)c1ccc(-c2c3nc(c(-c4cc(S(=O)(=O)[O-])ccc4F)c4ccc([nH]4)c(-c4cc(S(=O)(=O)[O-])ccc4F)c4nc(c(-c5cc(S(=O)(=O)[O-])ccc5F)c5ccc2[nH]5)C=C4)C=C3)cc1
REMARK SMILES IDX 23 1 22 2 20 3 21 4 18 5 1 6 2 7 3 8 4 9 16 10 17 11 19 12
REMARK SMILES IDX 5 13 6 14 7 15 8 17 9 18 10 19 11 20 15 21 12 22 14 23 13 24
REMARK SMILES IDX 24 25 25 26 26 27 27 28 28 29 29 30 90 31 30 32 89 33 31 34
REMARK SMILES IDX 32 35 33 36 83 37 34 38 88 39 82 40 84 41 35 42 87 43 81 44
REMARK SMILES IDX 80 45 36 47 68 48 48 49 67 50 49 51 52 52 66 53 85 54 50 55
REMARK SMILES IDX 51 56 65 58 86 59 53 60 37 61 38 62 46 63 39 64 45 65 47 66
REMARK SMILES IDX 44 67 40 68 41 69 42 70 43 71 69 72 70 73 78 74 71 75 77 76
REMARK SMILES IDX 79 77 76 78 72 79 73 80 74 81 75 82 54 83 55 84 63 85 56 86
REMARK SMILES IDX 62 87 64 88 61 89 57 90 58 91 59 92 60 93
REMARK H PARENT 7 16 84 46 52 57
REMARK Flexibility Score: inf
ROOT
ATOM      1  C   UNL A   1      31.935  29.705  24.964  1.00  0.00     0.274 C 
ENDROOT
BRANCH   1   2
ATOM      2  O   UNL A   1      31.529  28.336  25.167  1.00  0.00    -0.462 OA
BRANCH   2   3
ATOM      3  C   UNL A   1      31.260  27.617  24.039  1.00  0.00     0.312 C 
ATOM      4  O   UNL A   1      31.505  28.028  22.915  1.00  0.00    -0.252 OA
BRANCH   3   5
ATOM      5  C   UNL A   1      30.510  26.298  24.334  1.00  0.00     0.071 C 
ATOM      6  C   UNL A   1      32.164  25.315  22.566  1.00  0.00     0.013 C 
ATOM      7  C   UNL A   1      31.367  25.068  23.858  1.00  0.00    -0.008 C 
ATOM      8  C   UNL A   1      30.460  23.839  23.551  1.00  0.00     0.013 C 
ATOM      9  C   UNL A   1      32.253  24.738  25.117  1.00  0.00     0.085 C 
ATOM     10  C   UNL A   1      31.260  24.876  26.255  1.00  0.00     0.015 C 
ATOM     11  C   UNL A   1      30.365  26.056  25.871  1.00  0.00     0.020 C 
ATOM     12  C   UNL A   1      29.099  26.405  23.725  1.00  0.00     0.024 C 
BRANCH   9  13
ATOM     13  C   UNL A   1      33.640  25.417  25.212  1.00  0.00     0.223 C 
ATOM     14  O   UNL A   1      33.707  26.503  25.810  1.00  0.00    -0.275 OA
ATOM     15  N   UNL A   1      34.804  25.003  24.658  1.00  0.00    -0.356 N 
ATOM     16  H   UNL A   1      35.487  25.712  24.656  1.00  0.00     0.163 HD
BRANCH  15  17
ATOM     17  C   UNL A   1      35.300  23.761  24.062  1.00  0.00     0.120 C 
BRANCH  17  18
ATOM     18  C   UNL A   1      35.090  22.529  24.952  1.00  0.00     0.056 C 
BRANCH  18  19
ATOM     19  C   UNL A   1      34.136  21.448  24.487  1.00  0.00    -0.046 A 
ATOM     20  C   UNL A   1      33.097  21.653  23.570  1.00  0.00     0.004 A 
ATOM     21  C   UNL A   1      34.353  20.144  24.966  1.00  0.00     0.004 A 
ATOM     22  C   UNL A   1      32.290  20.585  23.159  1.00  0.00     0.000 A 
ATOM     23  C   UNL A   1      33.551  19.080  24.553  1.00  0.00     0.000 A 
ATOM     24  C   UNL A   1      32.516  19.301  23.650  1.00  0.00     0.000 A 
ENDBRANCH  18  19
ENDBRANCH  17  18
ENDBRANCH  15  17
ENDBRANCH   9  13
ENDBRANCH   3   5
ENDBRANCH   2   3
ENDBRANCH   1   2
BRANCH   1  25
ATOM     25  C   UNL A   1      31.603  30.601  26.157  1.00  0.00     0.275 C 
BRANCH  25  26
ATOM     26  O   UNL A   1      32.628  30.535  27.164  1.00  0.00    -0.458 OA
BRANCH  26  27
ATOM     27  C   UNL A   1      33.268  31.698  27.417  1.00  0.00     0.338 C 
ATOM     28  O   UNL A   1      32.799  32.825  27.384  1.00  0.00    -0.246 OA
BRANCH  27  29
ATOM     29  C   UNL A   1      34.633  31.407  27.875  1.00  0.00     0.060 A 
ATOM     30  C   UNL A   1      34.910  30.103  28.283  1.00  0.00     0.016 A 
ATOM     31  C   UNL A   1      35.591  32.406  28.011  1.00  0.00     0.016 A 
ATOM     32  C   UNL A   1      36.138  29.774  28.843  1.00  0.00     0.010 A 
ATOM     33  C   UNL A   1      36.832  32.079  28.570  1.00  0.00     0.010 A 
ATOM     34  C   UNL A   1      37.104  30.767  29.004  1.00  0.00    -0.014 A 
BRANCH  34  35
ATOM     35  C   UNL A   1      38.349  30.472  29.751  1.00  0.00     0.031 A 
ATOM     36  C   UNL A   1      39.355  29.547  29.132  1.00  0.00     0.074 A 
ATOM     37  C   UNL A   1      38.587  31.034  30.949  1.00  0.00     0.049 A 
ATOM     38  N   UNL A   1      40.381  28.950  29.675  1.00  0.00    -0.248 NA
ATOM     39  C   UNL A   1      39.169  29.255  27.702  1.00  0.00     0.031 C 
ATOM     40  C   UNL A   1      37.744  32.040  31.596  1.00  0.00     0.029 A 
ATOM     41  N   UNL A   1      39.608  30.827  31.843  1.00  0.00    -0.354 N 
ATOM     42  C   UNL A   1      40.940  28.171  28.667  1.00  0.00     0.074 A 
ATOM     43  C   UNL A   1      40.140  28.383  27.479  1.00  0.00     0.031 C 
ATOM     44  C   UNL A   1      38.273  32.348  32.791  1.00  0.00     0.029 A 
ATOM     45  C   UNL A   1      39.444  31.506  33.027  1.00  0.00     0.049 A 
ATOM     46  H   UNL A   1      40.382  30.248  31.655  1.00  0.00     0.167 HD
ATOM     47  C   UNL A   1      42.011  27.343  28.742  1.00  0.00     0.034 A 
ATOM     48  C   UNL A   1      40.122  31.407  34.188  1.00  0.00     0.034 A 
ATOM     49  C   UNL A   1      42.786  27.155  29.943  1.00  0.00     0.049 A 
ATOM     50  C   UNL A   1      41.252  30.409  34.284  1.00  0.00     0.074 A 
ATOM     51  C   UNL A   1      43.855  26.304  30.162  1.00  0.00     0.029 A 
ATOM     52  N   UNL A   1      42.572  27.839  31.133  1.00  0.00    -0.354 N 
ATOM     53  N   UNL A   1      41.713  29.592  33.364  1.00  0.00    -0.248 NA
ATOM     54  C   UNL A   1      41.942  30.306  35.577  1.00  0.00     0.031 C 
ATOM     55  C   UNL A   1      44.253  26.436  31.498  1.00  0.00     0.029 A 
ATOM     56  C   UNL A   1      43.477  27.418  32.094  1.00  0.00     0.049 A 
ATOM     57  H   UNL A   1      41.878  28.523  31.274  1.00  0.00     0.167 HD
ATOM     58  C   UNL A   1      42.759  28.896  33.962  1.00  0.00     0.074 A 
ATOM     59  C   UNL A   1      42.867  29.392  35.318  1.00  0.00     0.031 C 
ATOM     60  C   UNL A   1      43.564  27.936  33.438  1.00  0.00     0.034 A 
BRANCH  47  61
ATOM     61  C   UNL A   1      42.329  26.522  27.518  1.00  0.00     0.023 A 
ATOM     62  C   UNL A   1      41.906  25.188  27.384  1.00  0.00     0.031 A 
ATOM     63  C   UNL A   1      43.127  27.068  26.496  1.00  0.00     0.131 A 
ATOM     64  C   UNL A   1      42.345  24.425  26.291  1.00  0.00     0.055 A 
ATOM     65  C   UNL A   1      43.496  26.326  25.374  1.00  0.00     0.041 A 
ATOM     66  F   UNL A   1      43.581  28.328  26.583  1.00  0.00    -0.206 F 
ATOM     67  C   UNL A   1      43.118  24.990  25.274  1.00  0.00     0.022 A 
BRANCH  64  68
ATOM     68  S   UNL A   1      42.014  22.640  26.290  1.00  0.00     0.124 S 
ATOM     69  O   UNL A   1      42.763  22.201  27.465  1.00  0.00    -0.237 OA
ATOM     70  O   UNL A   1      40.561  22.589  26.402  1.00  0.00    -0.237 OA
ATOM     71  O   UNL A   1      42.558  22.191  25.009  1.00  0.00    -0.744 OA
ENDBRANCH  64  68
ENDBRANCH  47  61
BRANCH  48  72
ATOM     72  C   UNL A   1      39.701  32.200  35.378  1.00  0.00     0.023 A 
ATOM     73  C   UNL A   1      38.890  31.640  36.376  1.00  0.00     0.031 A 
ATOM     74  C   UNL A   1      40.073  33.551  35.513  1.00  0.00     0.131 A 
ATOM     75  C   UNL A   1      38.449  32.435  37.447  1.00  0.00     0.055 A 
ATOM     76  C   UNL A   1      39.676  34.322  36.605  1.00  0.00     0.041 A 
ATOM     77  F   UNL A   1      40.841  34.140  34.582  1.00  0.00    -0.206 F 
ATOM     78  C   UNL A   1      38.849  33.768  37.576  1.00  0.00     0.022 A 
BRANCH  75  79
ATOM     79  S   UNL A   1      37.279  31.722  38.635  1.00  0.00     0.124 S 
ATOM     80  O   UNL A   1      37.055  30.395  38.072  1.00  0.00    -0.237 OA
ATOM     81  O   UNL A   1      38.042  31.773  39.877  1.00  0.00    -0.237 OA
ATOM     82  O   UNL A   1      36.135  32.629  38.573  1.00  0.00    -0.744 OA
ENDBRANCH  75  79
ENDBRANCH  48  72
BRANCH  60  83
ATOM     83  C   UNL A   1      44.670  27.413  34.316  1.00  0.00     0.023 A 
ATOM     84  C   UNL A   1      44.516  26.254  35.094  1.00  0.00     0.031 A 
ATOM     85  C   UNL A   1      45.908  28.080  34.349  1.00  0.00     0.131 A 
ATOM     86  C   UNL A   1      45.576  25.812  35.899  1.00  0.00     0.055 A 
ATOM     87  C   UNL A   1      46.972  27.613  35.119  1.00  0.00     0.041 A 
ATOM     88  F   UNL A   1      46.103  29.191  33.620  1.00  0.00    -0.206 F 
ATOM     89  C   UNL A   1      46.807  26.476  35.905  1.00  0.00     0.022 A 
BRANCH  86  90
ATOM     90  S   UNL A   1      45.319  24.372  36.973  1.00  0.00     0.124 S 
ATOM     91  O   UNL A   1      44.672  24.972  38.134  1.00  0.00    -0.237 OA
ATOM     92  O   UNL A   1      44.477  23.510  36.147  1.00  0.00    -0.237 OA
ATOM     93  O   UNL A   1      46.672  23.872  37.206  1.00  0.00    -0.744 OA
ENDBRANCH  86  90
ENDBRANCH  60  83
ENDBRANCH  34  35
ENDBRANCH  27  29
ENDBRANCH  26  27
ENDBRANCH  25  26
ENDBRANCH   1  25
TORSDOF 18
ENDMDL
MODEL 3
REMARK VINA RESULT:     -11.7      4.838      7.742
REMARK SMILES CC1(C)[C@@H](C(=O)NCCc2ccccc2)CC[C@@]1(C)C(=O)OCCOC(=O)c1ccc(-c2c3nc(c(-c4cc(S(=O)(=O)[O-])ccc4F)c4ccc([nH]4)c(-c4cc(S(=O)(=O)[O-])ccc4F)c4nc(c(-c5cc(S(=O)(=O)[O-])ccc5F)c5ccc2[nH]5)C=C4)C=C3)cc1
REMARK SMILES IDX 23 1 22 2 20 3 21 4 18 5 1 6 2 7 3 8 4 9 16 10 17 11 19 12
REMARK SMILES IDX 5 13 6 14 7 15 8 17 9 18 10 19 11 20 15 21 12 22 14 23 13 24
REMARK SMILES IDX 24 25 25 26 26 27 27 28 28 29 29 30 90 31 30 32 89 33 31 34
REMARK SMILES IDX 32 35 33 36 83 37 34 38 88 39 82 40 84 41 35 42 87 43 81 44
REMARK SMILES IDX 80 45 36 47 68 48 48 49 67 50 49 51 52 52 66 53 85 54 50 55
REMARK SMILES IDX 51 56 65 58 86 59 53 60 37 61 38 62 46 63 39 64 45 65 47 66
REMARK SMILES IDX 44 67 40 68 41 69 42 70 43 71 69 72 70 73 78 74 71 75 77 76
REMARK SMILES IDX 79 77 76 78 72 79 73 80 74 81 75 82 54 83 55 84 63 85 56 86
REMARK SMILES IDX 62 87 64 88 61 89 57 90 58 91 59 92 60 93
REMARK H PARENT 7 16 84 46 52 57
REMARK Flexibility Score: inf
ROOT
ATOM      1  C   UNL A   1      32.674  28.846  24.633  1.00  0.00     0.274 C 
ENDROOT
BRANCH   1   2
ATOM      2  O   UNL A   1      32.119  27.564  24.270  1.00  0.00    -0.462 OA
BRANCH   2   3
ATOM      3  C   UNL A   1      33.017  26.553  24.090  1.00  0.00     0.312 C 
ATOM      4  O   UNL A   1      34.103  26.521  24.647  1.00  0.00    -0.252 OA
BRANCH   3   5
ATOM      5  C   UNL A   1      32.560  25.530  23.024  1.00  0.00     0.071 C 
ATOM      6  C   UNL A   1      34.613  24.166  23.891  1.00  0.00     0.013 C 
ATOM      7  C   UNL A   1      33.184  24.118  23.325  1.00  0.00    -0.008 C 
ATOM      8  C   UNL A   1      33.286  23.264  22.025  1.00  0.00     0.013 C 
ATOM      9  C   UNL A   1      32.125  23.454  24.282  1.00  0.00     0.085 C 
ATOM     10  C   UNL A   1      30.812  23.841  23.630  1.00  0.00     0.015 C 
ATOM     11  C   UNL A   1      31.022  25.265  23.110  1.00  0.00     0.020 C 
ATOM     12  C   UNL A   1      32.873  26.117  21.634  1.00  0.00     0.024 C 
BRANCH   9  13
ATOM     13  C   UNL A   1      32.321  23.645  25.806  1.00  0.00     0.223 C 
ATOM     14  O   UNL A   1      31.904  24.701  26.309  1.00  0.00    -0.275 OA
ATOM     15  N   UNL A   1      32.959  22.820  26.668  1.00  0.00    -0.356 N 
ATOM     16  H   UNL A   1      33.158  23.262  27.525  1.00  0.00     0.163 HD
BRANCH  15  17
ATOM     17  C   UNL A   1      33.426  21.433  26.644  1.00  0.00     0.120 C 
BRANCH  17  18
ATOM     18  C   UNL A   1      34.175  21.062  25.357  1.00  0.00     0.056 C 
BRANCH  18  19
ATOM     19  C   UNL A   1      33.725  19.843  24.578  1.00  0.00    -0.046 A 
ATOM     20  C   UNL A   1      32.589  19.803  23.760  1.00  0.00     0.004 A 
ATOM     21  C   UNL A   1      34.542  18.699  24.639  1.00  0.00     0.004 A 
ATOM     22  C   UNL A   1      32.272  18.647  23.038  1.00  0.00     0.000 A 
ATOM     23  C   UNL A   1      34.228  17.548  23.915  1.00  0.00     0.000 A 
ATOM     24  C   UNL A   1      33.089  17.521  23.116  1.00  0.00     0.000 A 
ENDBRANCH  18  19
ENDBRANCH  17  18
ENDBRANCH  15  17
ENDBRANCH   9  13
ENDBRANCH   3   5
ENDBRANCH   2   3
ENDBRANCH   1   2
BRANCH   1  25
ATOM     25  C   UNL A   1      31.786  29.616  25.609  1.00  0.00     0.275 C 
BRANCH  25  26
ATOM     26  O   UNL A   1      32.436  29.798  26.880  1.00  0.00    -0.458 OA
BRANCH  26  27
ATOM     27  C   UNL A   1      32.943  31.031  27.100  1.00  0.00     0.338 C 
ATOM     28  O   UNL A   1      32.356  32.099  27.028  1.00  0.00    -0.246 OA
BRANCH  27  29
ATOM     29  C   UNL A   1      34.327  30.903  27.578  1.00  0.00     0.060 A 
ATOM     30  C   UNL A   1      34.792  29.621  27.866  1.00  0.00     0.016 A 
ATOM     31  C   UNL A   1      35.117  32.016  27.846  1.00  0.00     0.016 A 
ATOM     32  C   UNL A   1      36.044  29.425  28.435  1.00  0.00     0.010 A 
ATOM     33  C   UNL A   1      36.381  31.824  28.416  1.00  0.00     0.010 A 
ATOM     34  C   UNL A   1      36.842  30.531  28.729  1.00  0.00    -0.014 A 
BRANCH  34  35
ATOM     35  C   UNL A   1      38.101  30.351  29.488  1.00  0.00     0.031 A 
ATOM     36  C   UNL A   1      39.177  29.485  28.901  1.00  0.00     0.074 A 
ATOM     37  C   UNL A   1      38.291  30.967  30.669  1.00  0.00     0.049 A 
ATOM     38  N   UNL A   1      40.241  28.982  29.466  1.00  0.00    -0.248 NA
ATOM     39  C   UNL A   1      39.020  29.136  27.481  1.00  0.00     0.031 C 
ATOM     40  C   UNL A   1      37.372  31.927  31.281  1.00  0.00     0.029 A 
ATOM     41  N   UNL A   1      39.319  30.863  31.572  1.00  0.00    -0.354 N 
ATOM     42  C   UNL A   1      40.861  28.216  28.485  1.00  0.00     0.074 A 
ATOM     43  C   UNL A   1      40.054  28.332  27.288  1.00  0.00     0.031 C 
ATOM     44  C   UNL A   1      37.870  32.310  32.468  1.00  0.00     0.029 A 
ATOM     45  C   UNL A   1      39.100  31.565  32.734  1.00  0.00     0.049 A 
ATOM     46  H   UNL A   1      40.135  30.337  31.404  1.00  0.00     0.167 HD
ATOM     47  C   UNL A   1      41.990  27.473  28.588  1.00  0.00     0.034 A 
ATOM     48  C   UNL A   1      39.777  31.552  33.900  1.00  0.00     0.034 A 
ATOM     49  C   UNL A   1      42.770  27.380  29.797  1.00  0.00     0.049 A 
ATOM     50  C   UNL A   1      40.977  30.644  34.030  1.00  0.00     0.074 A 
ATOM     51  C   UNL A   1      43.898  26.617  30.046  1.00  0.00     0.029 A 
ATOM     52  N   UNL A   1      42.500  28.082  30.965  1.00  0.00    -0.354 N 
ATOM     53  N   UNL A   1      41.501  29.835  33.137  1.00  0.00    -0.248 NA
ATOM     54  C   UNL A   1      41.665  30.632  35.328  1.00  0.00     0.031 C 
ATOM     55  C   UNL A   1      44.278  26.820  31.378  1.00  0.00     0.029 A 
ATOM     56  C   UNL A   1      43.428  27.760  31.941  1.00  0.00     0.049 A 
ATOM     57  H   UNL A   1      41.756  28.717  31.082  1.00  0.00     0.167 HD
ATOM     58  C   UNL A   1      42.593  29.237  33.759  1.00  0.00     0.074 A 
ATOM     59  C   UNL A   1      42.657  29.781  35.100  1.00  0.00     0.031 C 
ATOM     60  C   UNL A   1      43.470  28.324  33.269  1.00  0.00     0.034 A 
BRANCH  47  61
ATOM     61  C   UNL A   1      42.374  26.639  27.392  1.00  0.00     0.023 A 
ATOM     62  C   UNL A   1      41.986  25.295  27.263  1.00  0.00     0.031 A 
ATOM     63  C   UNL A   1      43.200  27.188  26.393  1.00  0.00     0.131 A 
ATOM     64  C   UNL A   1      42.485  24.524  26.201  1.00  0.00     0.055 A 
ATOM     65  C   UNL A   1      43.630  26.436  25.299  1.00  0.00     0.041 A 
ATOM     66  F   UNL A   1      43.623  28.459  26.478  1.00  0.00    -0.206 F 
ATOM     67  C   UNL A   1      43.286  25.091  25.206  1.00  0.00     0.022 A 
BRANCH  64  68
ATOM     68  S   UNL A   1      42.193  22.733  26.216  1.00  0.00     0.124 S 
ATOM     69  O   UNL A   1      42.857  22.316  24.983  1.00  0.00    -0.237 OA
ATOM     70  O   UNL A   1      42.835  22.321  27.459  1.00  0.00    -0.237 OA
ATOM     71  O   UNL A   1      40.736  22.623  26.200  1.00  0.00    -0.744 OA
ENDBRANCH  64  68
ENDBRANCH  47  61
BRANCH  48  72
ATOM     72  C   UNL A   1      39.292  32.348  35.063  1.00  0.00     0.023 A 
ATOM     73  C   UNL A   1      39.752  33.653  35.293  1.00  0.00     0.031 A 
ATOM     74  C   UNL A   1      38.388  31.795  35.990  1.00  0.00     0.131 A 
ATOM     75  C   UNL A   1      39.333  34.350  36.438  1.00  0.00     0.055 A 
ATOM     76  C   UNL A   1      37.934  32.511  37.097  1.00  0.00     0.041 A 
ATOM     77  F   UNL A   1      37.923  30.546  35.823  1.00  0.00    -0.206 F 
ATOM     78  C   UNL A   1      38.416  33.794  37.334  1.00  0.00     0.022 A 
BRANCH  75  79
ATOM     79  S   UNL A   1      40.064  35.974  36.784  1.00  0.00     0.124 S 
ATOM     80  O   UNL A   1      41.454  35.623  37.054  1.00  0.00    -0.237 OA
ATOM     81  O   UNL A   1      39.812  36.689  35.538  1.00  0.00    -0.237 OA
ATOM     82  O   UNL A   1      39.304  36.450  37.938  1.00  0.00    -0.744 OA
ENDBRANCH  75  79
ENDBRANCH  48  72
BRANCH  60  83
ATOM     83  C   UNL A   1      44.606  27.911  34.166  1.00  0.00     0.023 A 
ATOM     84  C   UNL A   1      44.482  26.857  35.085  1.00  0.00     0.031 A 
ATOM     85  C   UNL A   1      45.842  28.575  34.074  1.00  0.00     0.131 A 
ATOM     86  C   UNL A   1      45.571  26.515  35.901  1.00  0.00     0.055 A 
ATOM     87  C   UNL A   1      46.934  28.205  34.859  1.00  0.00     0.041 A 
ATOM     88  F   UNL A   1      46.010  29.588  33.208  1.00  0.00    -0.206 F 
ATOM     89  C   UNL A   1      46.799  27.174  35.784  1.00  0.00     0.022 A 
BRANCH  86  90
ATOM     90  S   UNL A   1      45.355  25.220  37.153  1.00  0.00     0.124 S 
ATOM     91  O   UNL A   1      45.686  25.928  38.384  1.00  0.00    -0.237 OA
ATOM     92  O   UNL A   1      43.951  24.852  36.985  1.00  0.00    -0.237 OA
ATOM     93  O   UNL A   1      46.313  24.191  36.751  1.00  0.00    -0.744 OA
ENDBRANCH  86  90
ENDBRANCH  60  83
ENDBRANCH  34  35
ENDBRANCH  27  29
ENDBRANCH  26  27
ENDBRANCH  25  26
ENDBRANCH   1  25
TORSDOF 18
ENDMDL
