MODEL 1
REMARK VINA RESULT:     -12.3      0.000      0.000
REMARK SMILES O=C(OCCOC(=O)c1ccc(-c2c3nc(c(-c4cc(S(=O)(=O)[O-])ccc4F)c4ccc([nH]4)c(-c4cc(S(=O)(=O)[O-])ccc4F)c4nc(c(-c5cc(S(=O)(=O)[O-])ccc5F)c5ccc2[nH]5)C=C4)C=C3)cc1)C1=Cc2cc(S(F)(F)(F)(F)F)cc(Br)c2O[C@@H]1C(F)(F)F
REMARK SMILES IDX 5 1 4 2 3 3 2 4 1 5 72 6 73 7 88 8 74 9 87 10 75 11 86 12
REMARK SMILES IDX 76 13 84 14 83 15 85 16 89 17 90 18 91 19 92 20 77 21 78 22
REMARK SMILES IDX 79 23 80 24 81 25 82 26 6 27 7 28 8 29 9 30 10 31 71 32
REMARK SMILES IDX 11 33 70 34 12 35 13 36 14 37 64 38 15 39 69 40 63 41 65 42
REMARK SMILES IDX 16 43 68 44 62 45 61 46 17 48 49 49 29 50 48 51 30 52 33 53
REMARK SMILES IDX 47 54 66 55 31 56 32 57 46 59 67 60 34 61 18 62 19 63 27 64
REMARK SMILES IDX 20 65 26 66 28 67 25 68 21 69 22 70 23 71 24 72 50 73 51 74
REMARK SMILES IDX 59 75 52 76 58 77 60 78 57 79 53 80 54 81 55 82 56 83 35 84
REMARK SMILES IDX 36 85 44 86 37 87 43 88 45 89 42 90 38 91 39 92 40 93 41 94
REMARK H PARENT 65 47 33 58
REMARK Flexibility Score: inf
ROOT
ATOM      1  C   UNL A   1      31.766  29.079  25.156  1.00  0.00     0.275 C 
ENDROOT
BRANCH   1   2
ATOM      2  C   UNL A   1      31.776  27.936  26.158  1.00  0.00     0.275 C 
BRANCH   2   3
ATOM      3  O   UNL A   1      31.989  26.709  25.475  1.00  0.00    -0.459 OA
BRANCH   3   4
ATOM      4  C   UNL A   1      33.283  26.382  24.990  1.00  0.00     0.338 C 
ATOM      5  O   UNL A   1      34.294  26.497  25.750  1.00  0.00    -0.246 OA
BRANCH   4   6
ATOM      6  C   UNL A   1      33.457  25.895  23.561  1.00  0.00     0.087 C 
ATOM      7  C   UNL A   1      33.950  24.650  23.321  1.00  0.00     0.027 C 
ATOM      8  C   UNL A   1      33.081  26.802  22.399  1.00  0.00     0.316 C 
ATOM      9  C   UNL A   1      34.326  23.745  24.482  1.00  0.00     0.020 A 
ATOM     10  O   UNL A   1      32.344  24.303  25.669  1.00  0.00    -0.474 OA
ATOM     11  C   UNL A   1      35.588  23.180  24.406  1.00  0.00     0.036 A 
ATOM     12  C   UNL A   1      33.561  23.580  25.555  1.00  0.00     0.142 A 
ATOM     13  C   UNL A   1      35.843  22.209  25.403  1.00  0.00     0.109 A 
ATOM     14  C   UNL A   1      33.937  22.718  26.556  1.00  0.00     0.062 A 
ATOM     15  C   UNL A   1      35.145  22.079  26.517  1.00  0.00     0.044 A 
ATOM     16  Br  UNL A   1      32.724  22.398  28.062  1.00  0.00    -0.047 Br
BRANCH   8  17
ATOM     17  C   UNL A   1      32.000  26.132  21.566  1.00  0.00     0.430 C 
ATOM     18  F   UNL A   1      31.491  25.105  22.240  1.00  0.00    -0.167 F 
ATOM     19  F   UNL A   1      31.035  27.011  21.303  1.00  0.00    -0.167 F 
ATOM     20  F   UNL A   1      32.525  25.697  20.424  1.00  0.00    -0.167 F 
ENDBRANCH   8  17
BRANCH  13  21
ATOM     21  S   UNL A   1      37.220  21.066  25.133  1.00  0.00     0.310 S 
ATOM     22  F   UNL A   1      37.347  21.505  23.615  1.00  0.00    -0.094 F 
ATOM     23  F   UNL A   1      36.197  19.966  24.658  1.00  0.00    -0.094 F 
ATOM     24  F   UNL A   1      38.414  20.101  24.891  1.00  0.00    -0.094 F 
ATOM     25  F   UNL A   1      38.237  22.224  25.478  1.00  0.00    -0.094 F 
ATOM     26  F   UNL A   1      36.025  22.091  25.276  1.00  0.00    -0.094 F 
ENDBRANCH  13  21
ENDBRANCH   4   6
ENDBRANCH   3   4
ENDBRANCH   2   3
ENDBRANCH   1   2
BRANCH   1  27
ATOM     27  O   UNL A   1      32.894  29.911  25.376  1.00  0.00    -0.458 OA
BRANCH  27  28
ATOM     28  C   UNL A   1      32.955  30.736  26.530  1.00  0.00     0.338 C 
ATOM     29  O   UNL A   1      32.002  31.537  26.789  1.00  0.00    -0.246 OA
BRANCH  28  30
ATOM     30  C   UNL A   1      34.158  30.664  27.456  1.00  0.00     0.060 A 
ATOM     31  C   UNL A   1      34.837  31.841  27.726  1.00  0.00     0.016 A 
ATOM     32  C   UNL A   1      34.636  29.488  27.845  1.00  0.00     0.016 A 
ATOM     33  C   UNL A   1      36.167  31.647  28.166  1.00  0.00     0.010 A 
ATOM     34  C   UNL A   1      35.891  29.390  28.394  1.00  0.00     0.010 A 
ATOM     35  C   UNL A   1      36.643  30.507  28.635  1.00  0.00    -0.014 A 
BRANCH  35  36
ATOM     36  C   UNL A   1      37.954  30.441  29.401  1.00  0.00     0.031 A 
ATOM     37  C   UNL A   1      38.091  31.007  30.669  1.00  0.00     0.074 A 
ATOM     38  C   UNL A   1      38.922  29.659  28.793  1.00  0.00     0.049 A 
ATOM     39  N   UNL A   1      39.119  30.879  31.510  1.00  0.00    -0.248 NA
ATOM     40  C   UNL A   1      37.080  31.866  31.302  1.00  0.00     0.031 C 
ATOM     41  C   UNL A   1      38.787  29.078  27.517  1.00  0.00     0.029 A 
ATOM     42  N   UNL A   1      40.157  29.308  29.288  1.00  0.00    -0.354 N 
ATOM     43  C   UNL A   1      38.878  31.552  32.637  1.00  0.00     0.074 A 
ATOM     44  C   UNL A   1      37.565  32.202  32.517  1.00  0.00     0.031 C 
ATOM     45  C   UNL A   1      39.930  28.395  27.243  1.00  0.00     0.029 A 
ATOM     46  C   UNL A   1      40.796  28.537  28.342  1.00  0.00     0.049 A 
ATOM     47  H   UNL A   1      40.521  29.562  30.167  1.00  0.00     0.167 HD
ATOM     48  C   UNL A   1      39.701  31.648  33.761  1.00  0.00     0.034 A 
ATOM     49  C   UNL A   1      42.065  27.982  28.415  1.00  0.00     0.034 A 
ATOM     50  C   UNL A   1      40.950  31.057  33.851  1.00  0.00     0.049 A 
ATOM     51  C   UNL A   1      42.912  28.127  29.516  1.00  0.00     0.074 A 
ATOM     52  C   UNL A   1      41.789  31.137  34.980  1.00  0.00     0.029 A 
ATOM     53  N   UNL A   1      41.600  30.308  32.895  1.00  0.00    -0.354 N 
ATOM     54  N   UNL A   1      42.655  28.766  30.658  1.00  0.00    -0.248 NA
ATOM     55  C   UNL A   1      44.270  27.571  29.591  1.00  0.00     0.031 C 
ATOM     56  C   UNL A   1      42.932  30.453  34.705  1.00  0.00     0.029 A 
ATOM     57  C   UNL A   1      42.827  29.935  33.400  1.00  0.00     0.049 A 
ATOM     58  H   UNL A   1      41.248  30.077  32.005  1.00  0.00     0.167 HD
ATOM     59  C   UNL A   1      43.700  28.672  31.482  1.00  0.00     0.074 A 
ATOM     60  C   UNL A   1      44.756  27.908  30.805  1.00  0.00     0.031 C 
ATOM     61  C   UNL A   1      43.813  29.190  32.774  1.00  0.00     0.034 A 
BRANCH  48  62
ATOM     62  C   UNL A   1      39.196  32.444  34.954  1.00  0.00     0.023 A 
ATOM     63  C   UNL A   1      39.552  33.781  34.998  1.00  0.00     0.031 A 
ATOM     64  C   UNL A   1      38.406  31.910  35.879  1.00  0.00     0.131 A 
ATOM     65  C   UNL A   1      39.254  34.413  36.228  1.00  0.00     0.055 A 
ATOM     66  C   UNL A   1      38.044  32.631  36.990  1.00  0.00     0.041 A 
ATOM     67  F   UNL A   1      37.962  30.665  35.726  1.00  0.00    -0.206 F 
ATOM     68  C   UNL A   1      38.410  33.941  37.128  1.00  0.00     0.022 A 
BRANCH  65  69
ATOM     69  S   UNL A   1      40.089  35.976  36.596  1.00  0.00     0.124 S 
ATOM     70  O   UNL A   1      39.963  36.917  35.396  1.00  0.00    -0.237 OA
ATOM     71  O   UNL A   1      39.442  36.624  37.823  1.00  0.00    -0.237 OA
ATOM     72  O   UNL A   1      41.743  35.678  36.915  1.00  0.00    -0.744 OA
ENDBRANCH  65  69
ENDBRANCH  48  62
BRANCH  49  73
ATOM     73  C   UNL A   1      42.561  27.172  27.229  1.00  0.00     0.023 A 
ATOM     74  C   UNL A   1      42.322  25.812  27.129  1.00  0.00     0.031 A 
ATOM     75  C   UNL A   1      43.291  27.811  26.322  1.00  0.00     0.131 A 
ATOM     76  C   UNL A   1      43.142  25.152  26.184  1.00  0.00     0.055 A 
ATOM     77  C   UNL A   1      43.958  27.114  25.343  1.00  0.00     0.041 A 
ATOM     78  F   UNL A   1      43.379  29.137  26.362  1.00  0.00    -0.206 F 
ATOM     79  C   UNL A   1      43.813  25.759  25.222  1.00  0.00     0.022 A 
BRANCH  76  80
ATOM     80  S   UNL A   1      43.280  23.351  26.299  1.00  0.00     0.124 S 
ATOM     81  O   UNL A   1      42.410  22.845  27.452  1.00  0.00    -0.237 OA
ATOM     82  O   UNL A   1      42.810  22.718  24.988  1.00  0.00    -0.237 OA
ATOM     83  O   UNL A   1      44.911  22.921  26.587  1.00  0.00    -0.744 OA
ENDBRANCH  76  80
ENDBRANCH  49  73
BRANCH  61  84
ATOM     84  C   UNL A   1      45.097  28.917  33.542  1.00  0.00     0.023 A 
ATOM     85  C   UNL A   1      45.113  27.796  34.355  1.00  0.00     0.031 A 
ATOM     86  C   UNL A   1      46.110  29.776  33.533  1.00  0.00     0.131 A 
ATOM     87  C   UNL A   1      46.124  27.819  35.344  1.00  0.00     0.055 A 
ATOM     88  C   UNL A   1      47.134  29.660  34.443  1.00  0.00     0.041 A 
ATOM     89  F   UNL A   1      46.133  30.758  32.637  1.00  0.00    -0.206 F 
ATOM     90  C   UNL A   1      47.182  28.608  35.315  1.00  0.00     0.022 A 
BRANCH  87  91
ATOM     91  S   UNL A   1      45.954  26.689  36.749  1.00  0.00     0.124 S 
ATOM     92  O   UNL A   1      44.862  25.662  36.447  1.00  0.00    -0.237 OA
ATOM     93  O   UNL A   1      47.283  25.968  36.986  1.00  0.00    -0.237 OA
ATOM     94  O   UNL A   1      45.530  27.578  38.147  1.00  0.00    -0.744 OA
ENDBRANCH  87  91
ENDBRANCH  61  84
ENDBRANCH  35  36
ENDBRANCH  28  30
ENDBRANCH  27  28
ENDBRANCH   1  27
TORSDOF 16
ENDMDL
MODEL 2
REMARK VINA RESULT:     -12.1      1.617      2.020
REMARK SMILES O=C(OCCOC(=O)c1ccc(-c2c3nc(c(-c4cc(S(=O)(=O)[O-])ccc4F)c4ccc([nH]4)c(-c4cc(S(=O)(=O)[O-])ccc4F)c4nc(c(-c5cc(S(=O)(=O)[O-])ccc5F)c5ccc2[nH]5)C=C4)C=C3)cc1)C1=Cc2cc(S(F)(F)(F)(F)F)cc(Br)c2O[C@@H]1C(F)(F)F
REMARK SMILES IDX 5 1 4 2 3 3 2 4 1 5 72 6 73 7 88 8 74 9 87 10 75 11 86 12
REMARK SMILES IDX 76 13 84 14 83 15 85 16 89 17 90 18 91 19 92 20 77 21 78 22
REMARK SMILES IDX 79 23 80 24 81 25 82 26 6 27 7 28 8 29 9 30 10 31 71 32
REMARK SMILES IDX 11 33 70 34 12 35 13 36 14 37 64 38 15 39 69 40 63 41 65 42
REMARK SMILES IDX 16 43 68 44 62 45 61 46 17 48 49 49 29 50 48 51 30 52 33 53
REMARK SMILES IDX 47 54 66 55 31 56 32 57 46 59 67 60 34 61 18 62 19 63 27 64
REMARK SMILES IDX 20 65 26 66 28 67 25 68 21 69 22 70 23 71 24 72 50 73 51 74
REMARK SMILES IDX 59 75 52 76 58 77 60 78 57 79 53 80 54 81 55 82 56 83 35 84
REMARK SMILES IDX 36 85 44 86 37 87 43 88 45 89 42 90 38 91 39 92 40 93 41 94
REMARK H PARENT 65 47 33 58
REMARK Flexibility Score: inf
ROOT
ATOM      1  C   UNL A   1      33.180  28.669  25.143  1.00  0.00     0.275 C 
ENDROOT
BRANCH   1   2
ATOM      2  C   UNL A   1      33.464  28.297  23.697  1.00  0.00     0.275 C 
BRANCH   2   3
ATOM      3  O   UNL A   1      33.867  26.937  23.628  1.00  0.00    -0.459 OA
BRANCH   3   4
ATOM      4  C   UNL A   1      33.161  26.029  22.796  1.00  0.00     0.338 C 
ATOM      5  O   UNL A   1      33.766  25.425  21.856  1.00  0.00    -0.246 OA
BRANCH   4   6
ATOM      6  C   UNL A   1      31.680  25.779  23.030  1.00  0.00     0.087 C 
ATOM      7  C   UNL A   1      31.266  24.609  23.586  1.00  0.00     0.027 C 
ATOM      8  C   UNL A   1      30.661  26.839  22.642  1.00  0.00     0.316 C 
ATOM      9  C   UNL A   1      32.284  23.550  23.974  1.00  0.00     0.020 A 
ATOM     10  O   UNL A   1      33.727  25.171  24.943  1.00  0.00    -0.474 OA
ATOM     11  C   UNL A   1      32.017  22.274  23.506  1.00  0.00     0.036 A 
ATOM     12  C   UNL A   1      33.412  23.825  24.621  1.00  0.00     0.142 A 
ATOM     13  C   UNL A   1      32.879  21.280  24.026  1.00  0.00     0.109 A 
ATOM     14  C   UNL A   1      34.276  22.818  24.978  1.00  0.00     0.062 A 
ATOM     15  C   UNL A   1      34.043  21.525  24.600  1.00  0.00     0.044 A 
ATOM     16  Br  UNL A   1      35.864  23.243  26.045  1.00  0.00    -0.047 Br
BRANCH   8  17
ATOM     17  C   UNL A   1      29.886  27.272  23.876  1.00  0.00     0.430 C 
ATOM     18  F   UNL A   1      30.586  26.974  24.967  1.00  0.00    -0.167 F 
ATOM     19  F   UNL A   1      29.677  28.586  23.830  1.00  0.00    -0.167 F 
ATOM     20  F   UNL A   1      28.718  26.639  23.911  1.00  0.00    -0.167 F 
ENDBRANCH   8  17
BRANCH  13  21
ATOM     21  S   UNL A   1      32.352  19.555  23.896  1.00  0.00     0.310 S 
ATOM     22  F   UNL A   1      33.854  19.050  23.852  1.00  0.00    -0.094 F 
ATOM     23  F   UNL A   1      32.416  19.666  22.326  1.00  0.00    -0.094 F 
ATOM     24  F   UNL A   1      31.913  18.066  23.800  1.00  0.00    -0.094 F 
ATOM     25  F   UNL A   1      32.428  19.421  25.467  1.00  0.00    -0.094 F 
ATOM     26  F   UNL A   1      32.904  21.031  24.007  1.00  0.00    -0.094 F 
ENDBRANCH  13  21
ENDBRANCH   4   6
ENDBRANCH   3   4
ENDBRANCH   2   3
ENDBRANCH   1   2
BRANCH   1  27
ATOM     27  O   UNL A   1      33.045  30.077  25.251  1.00  0.00    -0.458 OA
BRANCH  27  28
ATOM     28  C   UNL A   1      32.985  30.689  26.531  1.00  0.00     0.338 C 
ATOM     29  O   UNL A   1      31.925  31.286  26.901  1.00  0.00    -0.246 OA
BRANCH  28  30
ATOM     30  C   UNL A   1      34.187  30.631  27.459  1.00  0.00     0.060 A 
ATOM     31  C   UNL A   1      34.917  31.794  27.644  1.00  0.00     0.016 A 
ATOM     32  C   UNL A   1      34.615  29.467  27.932  1.00  0.00     0.016 A 
ATOM     33  C   UNL A   1      36.239  31.575  28.097  1.00  0.00     0.010 A 
ATOM     34  C   UNL A   1      35.867  29.354  28.486  1.00  0.00     0.010 A 
ATOM     35  C   UNL A   1      36.667  30.452  28.646  1.00  0.00    -0.014 A 
BRANCH  35  36
ATOM     36  C   UNL A   1      37.977  30.384  29.414  1.00  0.00     0.031 A 
ATOM     37  C   UNL A   1      38.101  30.913  30.700  1.00  0.00     0.074 A 
ATOM     38  C   UNL A   1      38.960  29.638  28.786  1.00  0.00     0.049 A 
ATOM     39  N   UNL A   1      39.127  30.777  31.540  1.00  0.00    -0.248 NA
ATOM     40  C   UNL A   1      37.073  31.736  31.355  1.00  0.00     0.031 C 
ATOM     41  C   UNL A   1      38.839  29.094  27.492  1.00  0.00     0.029 A 
ATOM     42  N   UNL A   1      40.199  29.292  29.275  1.00  0.00    -0.354 N 
ATOM     43  C   UNL A   1      38.872  31.411  32.686  1.00  0.00     0.074 A 
ATOM     44  C   UNL A   1      37.549  32.042  32.581  1.00  0.00     0.031 C 
ATOM     45  C   UNL A   1      39.993  28.438  27.201  1.00  0.00     0.029 A 
ATOM     46  C   UNL A   1      40.854  28.561  28.308  1.00  0.00     0.049 A 
ATOM     47  H   UNL A   1      40.556  29.525  30.162  1.00  0.00     0.167 HD
ATOM     48  C   UNL A   1      39.689  31.485  33.815  1.00  0.00     0.034 A 
ATOM     49  C   UNL A   1      42.131  28.026  28.368  1.00  0.00     0.034 A 
ATOM     50  C   UNL A   1      40.948  30.913  33.892  1.00  0.00     0.049 A 
ATOM     51  C   UNL A   1      42.972  28.150  29.476  1.00  0.00     0.074 A 
ATOM     52  C   UNL A   1      41.782  30.972  35.026  1.00  0.00     0.029 A 
ATOM     53  N   UNL A   1      41.614  30.204  32.916  1.00  0.00    -0.354 N 
ATOM     54  N   UNL A   1      42.701  28.750  30.637  1.00  0.00    -0.248 NA
ATOM     55  C   UNL A   1      44.339  27.615  29.539  1.00  0.00     0.031 C 
ATOM     56  C   UNL A   1      42.937  30.316  34.734  1.00  0.00     0.029 A 
ATOM     57  C   UNL A   1      42.845  29.837  33.413  1.00  0.00     0.049 A 
ATOM     58  H   UNL A   1      41.268  29.995  32.017  1.00  0.00     0.167 HD
ATOM     59  C   UNL A   1      43.745  28.648  31.461  1.00  0.00     0.074 A 
ATOM     60  C   UNL A   1      44.816  27.923  30.764  1.00  0.00     0.031 C 
ATOM     61  C   UNL A   1      43.845  29.127  32.768  1.00  0.00     0.034 A 
BRANCH  48  62
ATOM     62  C   UNL A   1      39.167  32.236  35.030  1.00  0.00     0.023 A 
ATOM     63  C   UNL A   1      39.512  33.573  35.124  1.00  0.00     0.031 A 
ATOM     64  C   UNL A   1      38.374  31.664  35.929  1.00  0.00     0.131 A 
ATOM     65  C   UNL A   1      39.199  34.161  36.373  1.00  0.00     0.055 A 
ATOM     66  C   UNL A   1      37.996  32.344  37.061  1.00  0.00     0.041 A 
ATOM     67  F   UNL A   1      37.941  30.422  35.730  1.00  0.00    -0.206 F 
ATOM     68  C   UNL A   1      38.350  33.651  37.247  1.00  0.00     0.022 A 
BRANCH  65  69
ATOM     69  S   UNL A   1      40.018  35.716  36.801  1.00  0.00     0.124 S 
ATOM     70  O   UNL A   1      41.533  35.505  36.830  1.00  0.00    -0.237 OA
ATOM     71  O   UNL A   1      39.671  36.780  35.757  1.00  0.00    -0.237 OA
ATOM     72  O   UNL A   1      39.485  36.235  38.342  1.00  0.00    -0.744 OA
ENDBRANCH  65  69
ENDBRANCH  48  62
BRANCH  49  73
ATOM     73  C   UNL A   1      42.645  27.260  27.160  1.00  0.00     0.023 A 
ATOM     74  C   UNL A   1      42.277  25.946  26.923  1.00  0.00     0.031 A 
ATOM     75  C   UNL A   1      43.514  27.884  26.373  1.00  0.00     0.131 A 
ATOM     76  C   UNL A   1      43.105  25.277  25.993  1.00  0.00     0.055 A 
ATOM     77  C   UNL A   1      44.189  27.196  25.393  1.00  0.00     0.041 A 
ATOM     78  F   UNL A   1      43.733  29.186  26.534  1.00  0.00    -0.206 F 
ATOM     79  C   UNL A   1      43.918  25.880  25.144  1.00  0.00     0.022 A 
BRANCH  76  80
ATOM     80  S   UNL A   1      43.048  23.468  25.962  1.00  0.00     0.124 S 
ATOM     81  O   UNL A   1      43.983  22.909  27.038  1.00  0.00    -0.237 OA
ATOM     82  O   UNL A   1      41.617  22.998  26.236  1.00  0.00    -0.237 OA
ATOM     83  O   UNL A   1      43.548  22.907  24.426  1.00  0.00    -0.744 OA
ENDBRANCH  76  80
ENDBRANCH  49  73
BRANCH  61  84
ATOM     84  C   UNL A   1      45.131  28.853  33.532  1.00  0.00     0.023 A 
ATOM     85  C   UNL A   1      45.133  27.757  34.379  1.00  0.00     0.031 A 
ATOM     86  C   UNL A   1      46.161  29.690  33.488  1.00  0.00     0.131 A 
ATOM     87  C   UNL A   1      46.154  27.791  35.358  1.00  0.00     0.055 A 
ATOM     88  C   UNL A   1      47.191  29.581  34.390  1.00  0.00     0.041 A 
ATOM     89  F   UNL A   1      46.195  30.643  32.560  1.00  0.00    -0.206 F 
ATOM     90  C   UNL A   1      47.228  28.556  35.294  1.00  0.00     0.022 A 
BRANCH  87  91
ATOM     91  S   UNL A   1      45.976  26.708  36.798  1.00  0.00     0.124 S 
ATOM     92  O   UNL A   1      45.393  25.364  36.357  1.00  0.00    -0.237 OA
ATOM     93  O   UNL A   1      47.347  26.484  37.441  1.00  0.00    -0.237 OA
ATOM     94  O   UNL A   1      44.928  27.440  37.935  1.00  0.00    -0.744 OA
ENDBRANCH  87  91
ENDBRANCH  61  84
ENDBRANCH  35  36
ENDBRANCH  28  30
ENDBRANCH  27  28
ENDBRANCH   1  27
TORSDOF 16
ENDMDL
MODEL 3
REMARK VINA RESULT:     -12.1      5.041      9.678
REMARK SMILES O=C(OCCOC(=O)c1ccc(-c2c3nc(c(-c4cc(S(=O)(=O)[O-])ccc4F)c4ccc([nH]4)c(-c4cc(S(=O)(=O)[O-])ccc4F)c4nc(c(-c5cc(S(=O)(=O)[O-])ccc5F)c5ccc2[nH]5)C=C4)C=C3)cc1)C1=Cc2cc(S(F)(F)(F)(F)F)cc(Br)c2O[C@@H]1C(F)(F)F
REMARK SMILES IDX 5 1 4 2 3 3 2 4 1 5 72 6 73 7 88 8 74 9 87 10 75 11 86 12
REMARK SMILES IDX 76 13 84 14 83 15 85 16 89 17 90 18 91 19 92 20 77 21 78 22
REMARK SMILES IDX 79 23 80 24 81 25 82 26 6 27 7 28 8 29 9 30 10 31 71 32
REMARK SMILES IDX 11 33 70 34 12 35 13 36 14 37 64 38 15 39 69 40 63 41 65 42
REMARK SMILES IDX 16 43 68 44 62 45 61 46 17 48 49 49 29 50 48 51 30 52 33 53
REMARK SMILES IDX 47 54 66 55 31 56 32 57 46 59 67 60 34 61 18 62 19 63 27 64
REMARK SMILES IDX 20 65 26 66 28 67 25 68 21 69 22 70 23 71 24 72 50 73 51 74
REMARK SMILES IDX 59 75 52 76 58 77 60 78 57 79 53 80 54 81 55 82 56 83 35 84
REMARK SMILES IDX 36 85 44 86 37 87 43 88 45 89 42 90 38 91 39 92 40 93 41 94
REMARK H PARENT 65 47 33 58
REMARK Flexibility Score: inf
ROOT
ATOM      1  C   UNL A   1      36.169  22.000  24.308  1.00  0.00     0.275 C 
ENDROOT
BRANCH   1   2
ATOM      2  C   UNL A   1      34.656  22.111  24.400  1.00  0.00     0.275 C 
BRANCH   2   3
ATOM      3  O   UNL A   1      34.269  23.466  24.224  1.00  0.00    -0.459 OA
BRANCH   3   4
ATOM      4  C   UNL A   1      34.065  24.299  25.355  1.00  0.00     0.338 C 
ATOM      5  O   UNL A   1      34.997  25.062  25.759  1.00  0.00    -0.246 OA
BRANCH   4   6
ATOM      6  C   UNL A   1      32.730  24.278  26.082  1.00  0.00     0.087 C 
ATOM      7  C   UNL A   1      31.983  25.411  26.167  1.00  0.00     0.027 C 
ATOM      8  C   UNL A   1      32.230  22.988  26.714  1.00  0.00     0.316 C 
ATOM      9  C   UNL A   1      32.482  26.700  25.536  1.00  0.00     0.020 A 
ATOM     10  O   UNL A   1      33.156  25.569  23.557  1.00  0.00    -0.474 OA
ATOM     11  C   UNL A   1      32.462  27.810  26.364  1.00  0.00     0.036 A 
ATOM     12  C   UNL A   1      33.006  26.759  24.316  1.00  0.00     0.142 A 
ATOM     13  C   UNL A   1      32.763  29.024  25.702  1.00  0.00     0.109 A 
ATOM     14  C   UNL A   1      33.405  27.961  23.785  1.00  0.00     0.062 A 
ATOM     15  C   UNL A   1      33.357  29.109  24.526  1.00  0.00     0.044 A 
ATOM     16  Br  UNL A   1      34.051  28.032  21.935  1.00  0.00    -0.047 Br
BRANCH   8  17
ATOM     17  C   UNL A   1      30.900  22.600  26.088  1.00  0.00     0.430 C 
ATOM     18  F   UNL A   1      29.910  22.919  26.916  1.00  0.00    -0.167 F 
ATOM     19  F   UNL A   1      30.745  23.254  24.939  1.00  0.00    -0.167 F 
ATOM     20  F   UNL A   1      30.884  21.291  25.857  1.00  0.00    -0.167 F 
ENDBRANCH   8  17
BRANCH  13  21
ATOM     21  S   UNL A   1      32.301  30.568  26.525  1.00  0.00     0.310 S 
ATOM     22  F   UNL A   1      31.394  29.794  27.570  1.00  0.00    -0.094 F 
ATOM     23  F   UNL A   1      31.030  30.667  25.599  1.00  0.00    -0.094 F 
ATOM     24  F   UNL A   1      31.908  31.885  27.252  1.00  0.00    -0.094 F 
ATOM     25  F   UNL A   1      33.500  30.379  27.535  1.00  0.00    -0.094 F 
ATOM     26  F   UNL A   1      32.649  29.172  25.871  1.00  0.00    -0.094 F 
ENDBRANCH  13  21
ENDBRANCH   4   6
ENDBRANCH   3   4
ENDBRANCH   2   3
ENDBRANCH   1   2
BRANCH   1  27
ATOM     27  O   UNL A   1      36.691  21.600  25.566  1.00  0.00    -0.458 OA
BRANCH  27  28
ATOM     28  C   UNL A   1      38.096  21.510  25.756  1.00  0.00     0.338 C 
ATOM     29  O   UNL A   1      38.722  20.469  25.383  1.00  0.00    -0.246 OA
BRANCH  28  30
ATOM     30  C   UNL A   1      38.851  22.658  26.405  1.00  0.00     0.060 A 
ATOM     31  C   UNL A   1      38.429  23.948  26.127  1.00  0.00     0.016 A 
ATOM     32  C   UNL A   1      39.975  22.430  27.072  1.00  0.00     0.016 A 
ATOM     33  C   UNL A   1      39.419  24.935  26.346  1.00  0.00     0.010 A 
ATOM     34  C   UNL A   1      40.832  23.461  27.373  1.00  0.00     0.010 A 
ATOM     35  C   UNL A   1      40.507  24.756  27.074  1.00  0.00    -0.014 A 
BRANCH  35  36
ATOM     36  C   UNL A   1      41.351  25.925  27.554  1.00  0.00     0.031 A 
ATOM     37  C   UNL A   1      42.690  26.063  27.184  1.00  0.00     0.074 A 
ATOM     38  C   UNL A   1      40.638  26.886  28.251  1.00  0.00     0.049 A 
ATOM     39  N   UNL A   1      43.487  27.111  27.393  1.00  0.00    -0.248 NA
ATOM     40  C   UNL A   1      43.459  25.031  26.474  1.00  0.00     0.031 C 
ATOM     41  C   UNL A   1      39.284  26.758  28.620  1.00  0.00     0.029 A 
ATOM     42  N   UNL A   1      41.085  28.106  28.706  1.00  0.00    -0.354 N 
ATOM     43  C   UNL A   1      44.697  26.880  26.878  1.00  0.00     0.074 A 
ATOM     44  C   UNL A   1      44.697  25.535  26.285  1.00  0.00     0.031 C 
ATOM     45  C   UNL A   1      38.924  27.879  29.298  1.00  0.00     0.029 A 
ATOM     46  C   UNL A   1      40.046  28.727  29.362  1.00  0.00     0.049 A 
ATOM     47  H   UNL A   1      41.991  28.471  28.583  1.00  0.00     0.167 HD
ATOM     48  C   UNL A   1      45.798  27.738  26.878  1.00  0.00     0.034 A 
ATOM     49  C   UNL A   1      40.056  29.963  29.991  1.00  0.00     0.034 A 
ATOM     50  C   UNL A   1      45.795  28.991  27.467  1.00  0.00     0.049 A 
ATOM     51  C   UNL A   1      41.175  30.797  30.042  1.00  0.00     0.074 A 
ATOM     52  C   UNL A   1      46.894  29.872  27.470  1.00  0.00     0.029 A 
ATOM     53  N   UNL A   1      44.764  29.602  28.146  1.00  0.00    -0.354 N 
ATOM     54  N   UNL A   1      42.373  30.582  29.493  1.00  0.00    -0.248 NA
ATOM     55  C   UNL A   1      41.208  32.093  30.732  1.00  0.00     0.031 C 
ATOM     56  C   UNL A   1      46.534  30.994  28.148  1.00  0.00     0.029 A 
ATOM     57  C   UNL A   1      45.204  30.833  28.581  1.00  0.00     0.049 A 
ATOM     58  H   UNL A   1      43.867  29.224  28.294  1.00  0.00     0.167 HD
ATOM     59  C   UNL A   1      43.182  31.613  29.738  1.00  0.00     0.074 A 
ATOM     60  C   UNL A   1      42.447  32.597  30.545  1.00  0.00     0.031 C 
ATOM     61  C   UNL A   1      44.503  31.776  29.317  1.00  0.00     0.034 A 
BRANCH  48  62
ATOM     62  C   UNL A   1      47.071  27.271  26.190  1.00  0.00     0.023 A 
ATOM     63  C   UNL A   1      47.339  27.823  24.949  1.00  0.00     0.031 A 
ATOM     64  C   UNL A   1      47.917  26.423  26.765  1.00  0.00     0.131 A 
ATOM     65  C   UNL A   1      48.401  27.193  24.258  1.00  0.00     0.055 A 
ATOM     66  C   UNL A   1      49.008  25.952  26.078  1.00  0.00     0.041 A 
ATOM     67  F   UNL A   1      47.704  26.028  28.017  1.00  0.00    -0.206 F 
ATOM     68  C   UNL A   1      49.302  26.411  24.824  1.00  0.00     0.022 A 
BRANCH  65  69
ATOM     69  S   UNL A   1      48.532  27.477  22.476  1.00  0.00     0.124 S 
ATOM     70  O   UNL A   1      49.773  28.323  22.184  1.00  0.00    -0.237 OA
ATOM     71  O   UNL A   1      48.650  26.133  21.752  1.00  0.00    -0.237 OA
ATOM     72  O   UNL A   1      47.137  28.300  21.925  1.00  0.00    -0.744 OA
ENDBRANCH  65  69
ENDBRANCH  48  62
BRANCH  49  73
ATOM     73  C   UNL A   1      38.778  30.436  30.663  1.00  0.00     0.023 A 
ATOM     74  C   UNL A   1      37.827  31.172  29.975  1.00  0.00     0.031 A 
ATOM     75  C   UNL A   1      38.640  30.170  31.956  1.00  0.00     0.131 A 
ATOM     76  C   UNL A   1      36.899  31.834  30.812  1.00  0.00     0.055 A 
ATOM     77  C   UNL A   1      37.627  30.747  32.685  1.00  0.00     0.041 A 
ATOM     78  F   UNL A   1      39.489  29.338  32.553  1.00  0.00    -0.206 F 
ATOM     79  C   UNL A   1      36.685  31.533  32.080  1.00  0.00     0.022 A 
BRANCH  76  80
ATOM     80  S   UNL A   1      35.935  33.188  30.096  1.00  0.00     0.124 S 
ATOM     81  O   UNL A   1      35.631  34.227  31.178  1.00  0.00    -0.237 OA
ATOM     82  O   UNL A   1      36.736  33.844  28.969  1.00  0.00    -0.237 OA
ATOM     83  O   UNL A   1      34.467  32.574  29.469  1.00  0.00    -0.744 OA
ENDBRANCH  76  80
ENDBRANCH  49  73
BRANCH  61  84
ATOM     84  C   UNL A   1      45.217  33.066  29.688  1.00  0.00     0.023 A 
ATOM     85  C   UNL A   1      45.090  34.126  28.806  1.00  0.00     0.031 A 
ATOM     86  C   UNL A   1      46.024  33.138  30.740  1.00  0.00     0.131 A 
ATOM     87  C   UNL A   1      46.083  35.123  28.961  1.00  0.00     0.055 A 
ATOM     88  C   UNL A   1      46.873  34.208  30.899  1.00  0.00     0.041 A 
ATOM     89  F   UNL A   1      46.012  32.166  31.648  1.00  0.00    -0.206 F 
ATOM     90  C   UNL A   1      46.842  35.264  30.032  1.00  0.00     0.022 A 
BRANCH  87  91
ATOM     91  S   UNL A   1      46.329  36.285  27.595  1.00  0.00     0.124 S 
ATOM     92  O   UNL A   1      45.343  37.447  27.730  1.00  0.00    -0.237 OA
ATOM     93  O   UNL A   1      47.762  36.823  27.635  1.00  0.00    -0.237 OA
ATOM     94  O   UNL A   1      46.064  35.482  26.108  1.00  0.00    -0.744 OA
ENDBRANCH  87  91
ENDBRANCH  61  84
ENDBRANCH  35  36
ENDBRANCH  28  30
ENDBRANCH  27  28
ENDBRANCH   1  27
TORSDOF 16
ENDMDL
