MODEL 1
REMARK VINA RESULT:     -11.7      0.000      0.000
REMARK SMILES O=C(CCC(=O)OCCOC(=O)c1ccc(-c2c3nc(c(-c4cc(S(=O)(=O)[O-])ccc4F)c4ccc([nH]4)c(-c4cc(S(=O)(=O)[O-])ccc4F)c4nc(c(-c5cc(S(=O)(=O)[O-])ccc5F)c5ccc2[nH]5)C=C4)C=C3)cc1)Nc1ccc(N2CCN(c3ccc(F)cc3)CC2)cc1
REMARK SMILES IDX 8 1 7 2 5 3 6 4 4 5 3 6 2 7 1 8 76 9 77 11 78 12 95 13 79 14
REMARK SMILES IDX 94 15 80 16 81 17 82 18 93 19 83 20 92 21 84 22 85 23 86 24
REMARK SMILES IDX 91 25 87 26 90 27 88 28 89 29 9 30 10 31 11 32 12 33 13 34
REMARK SMILES IDX 14 35 75 36 15 37 74 38 16 39 17 40 18 41 68 42 19 43 73 44
REMARK SMILES IDX 67 45 69 46 20 47 72 48 66 49 65 50 21 52 53 53 33 54 52 55
REMARK SMILES IDX 34 56 37 57 51 58 70 59 35 60 36 61 50 63 71 64 38 65 22 66
REMARK SMILES IDX 23 67 31 68 24 69 30 70 32 71 29 72 25 73 26 74 27 75 28 76
REMARK SMILES IDX 54 77 55 78 63 79 56 80 62 81 64 82 61 83 57 84 58 85 59 86
REMARK SMILES IDX 60 87 39 88 40 89 48 90 41 91 47 92 49 93 46 94 42 95 43 96
REMARK SMILES IDX 44 97 45 98
REMARK H PARENT 76 10 69 51 37 62
REMARK Flexibility Score: inf
ROOT
ATOM      1  C   UNL A   1      34.652  34.378  32.160  1.00  0.00     0.274 C 
ENDROOT
BRANCH   1   2
ATOM      2  O   UNL A   1      33.507  34.375  31.275  1.00  0.00    -0.462 OA
BRANCH   2   3
ATOM      3  C   UNL A   1      33.622  35.009  30.078  1.00  0.00     0.306 C 
ATOM      4  O   UNL A   1      33.071  36.069  29.809  1.00  0.00    -0.252 OA
BRANCH   3   5
ATOM      5  C   UNL A   1      34.430  34.211  29.066  1.00  0.00     0.132 C 
BRANCH   5   6
ATOM      6  C   UNL A   1      33.658  33.446  27.990  1.00  0.00     0.112 C 
BRANCH   6   7
ATOM      7  C   UNL A   1      33.909  31.943  27.990  1.00  0.00     0.224 C 
ATOM      8  O   UNL A   1      34.898  31.456  28.530  1.00  0.00    -0.275 OA
ATOM      9  N   UNL A   1      32.951  31.245  27.293  1.00  0.00    -0.326 N 
ATOM     10  H   UNL A   1      32.212  31.780  26.925  1.00  0.00     0.169 HD
BRANCH   9  11
ATOM     11  C   UNL A   1      32.896  29.870  27.040  1.00  0.00     0.041 A 
ATOM     12  C   UNL A   1      34.043  29.290  26.499  1.00  0.00     0.028 A 
ATOM     13  C   UNL A   1      31.776  29.083  27.276  1.00  0.00     0.028 A 
ATOM     14  C   UNL A   1      34.084  27.926  26.231  1.00  0.00     0.028 A 
ATOM     15  C   UNL A   1      31.804  27.720  26.943  1.00  0.00     0.028 A 
ATOM     16  C   UNL A   1      32.962  27.118  26.433  1.00  0.00     0.037 A 
BRANCH  16  17
ATOM     17  N   UNL A   1      33.042  25.778  26.130  1.00  0.00    -0.368 N 
ATOM     18  C   UNL A   1      31.871  24.921  26.380  1.00  0.00     0.138 C 
ATOM     19  C   UNL A   1      34.048  25.251  25.201  1.00  0.00     0.138 C 
ATOM     20  C   UNL A   1      31.222  24.479  25.046  1.00  0.00     0.138 C 
ATOM     21  C   UNL A   1      33.412  24.742  23.892  1.00  0.00     0.138 C 
ATOM     22  N   UNL A   1      32.232  23.894  24.142  1.00  0.00    -0.368 N 
BRANCH  22  23
ATOM     23  C   UNL A   1      32.240  22.533  23.931  1.00  0.00     0.037 A 
ATOM     24  C   UNL A   1      32.129  22.031  22.624  1.00  0.00     0.029 A 
ATOM     25  C   UNL A   1      32.361  21.607  24.977  1.00  0.00     0.029 A 
ATOM     26  C   UNL A   1      32.152  20.659  22.364  1.00  0.00     0.041 A 
ATOM     27  C   UNL A   1      32.365  20.231  24.728  1.00  0.00     0.041 A 
ATOM     28  C   UNL A   1      32.267  19.770  23.422  1.00  0.00     0.123 A 
ATOM     29  F   UNL A   1      32.283  18.453  23.181  1.00  0.00    -0.207 F 
ENDBRANCH  22  23
ENDBRANCH  16  17
ENDBRANCH   9  11
ENDBRANCH   6   7
ENDBRANCH   5   6
ENDBRANCH   3   5
ENDBRANCH   2   3
ENDBRANCH   1   2
BRANCH   1  30
ATOM     30  C   UNL A   1      34.656  33.130  33.046  1.00  0.00     0.275 C 
BRANCH  30  31
ATOM     31  O   UNL A   1      35.512  32.124  32.482  1.00  0.00    -0.458 OA
BRANCH  31  32
ATOM     32  C   UNL A   1      36.625  31.856  33.204  1.00  0.00     0.338 C 
ATOM     33  O   UNL A   1      36.731  31.881  34.413  1.00  0.00    -0.246 OA
BRANCH  32  34
ATOM     34  C   UNL A   1      37.670  31.379  32.290  1.00  0.00     0.060 A 
ATOM     35  C   UNL A   1      38.777  30.700  32.811  1.00  0.00     0.016 A 
ATOM     36  C   UNL A   1      37.559  31.628  30.924  1.00  0.00     0.016 A 
ATOM     37  C   UNL A   1      39.787  30.261  31.957  1.00  0.00     0.010 A 
ATOM     38  C   UNL A   1      38.568  31.182  30.071  1.00  0.00     0.010 A 
ATOM     39  C   UNL A   1      39.689  30.503  30.582  1.00  0.00    -0.014 A 
BRANCH  39  40
ATOM     40  C   UNL A   1      40.778  30.111  29.655  1.00  0.00     0.031 A 
ATOM     41  C   UNL A   1      40.748  28.740  29.044  1.00  0.00     0.074 A 
ATOM     42  C   UNL A   1      41.804  30.951  29.420  1.00  0.00     0.049 A 
ATOM     43  N   UNL A   1      41.682  28.108  28.384  1.00  0.00    -0.248 NA
ATOM     44  C   UNL A   1      39.504  27.971  29.217  1.00  0.00     0.031 C 
ATOM     45  C   UNL A   1      41.906  32.322  29.922  1.00  0.00     0.029 A 
ATOM     46  N   UNL A   1      42.970  30.763  28.721  1.00  0.00    -0.354 N 
ATOM     47  C   UNL A   1      41.154  26.856  28.091  1.00  0.00     0.074 A 
ATOM     48  C   UNL A   1      39.823  26.813  28.658  1.00  0.00     0.031 C 
ATOM     49  C   UNL A   1      43.080  32.844  29.531  1.00  0.00     0.029 A 
ATOM     50  C   UNL A   1      43.842  31.827  28.811  1.00  0.00     0.049 A 
ATOM     51  H   UNL A   1      43.166  29.948  28.206  1.00  0.00     0.167 HD
ATOM     52  C   UNL A   1      41.737  25.837  27.415  1.00  0.00     0.034 A 
ATOM     53  C   UNL A   1      45.122  31.943  28.405  1.00  0.00     0.034 A 
ATOM     54  C   UNL A   1      43.062  25.913  26.850  1.00  0.00     0.049 A 
ATOM     55  C   UNL A   1      45.774  30.763  27.717  1.00  0.00     0.074 A 
ATOM     56  C   UNL A   1      43.737  24.954  26.115  1.00  0.00     0.029 A 
ATOM     57  N   UNL A   1      43.916  27.002  26.965  1.00  0.00    -0.354 N 
ATOM     58  N   UNL A   1      45.264  29.584  27.441  1.00  0.00    -0.248 NA
ATOM     59  C   UNL A   1      47.168  30.928  27.283  1.00  0.00     0.031 C 
ATOM     60  C   UNL A   1      45.027  25.429  25.860  1.00  0.00     0.029 A 
ATOM     61  C   UNL A   1      45.123  26.724  26.347  1.00  0.00     0.049 A 
ATOM     62  H   UNL A   1      43.696  27.847  27.420  1.00  0.00     0.167 HD
ATOM     63  C   UNL A   1      46.260  28.891  26.755  1.00  0.00     0.074 A 
ATOM     64  C   UNL A   1      47.396  29.782  26.660  1.00  0.00     0.031 C 
ATOM     65  C   UNL A   1      46.237  27.635  26.242  1.00  0.00     0.034 A 
BRANCH  52  66
ATOM     66  C   UNL A   1      40.981  24.540  27.294  1.00  0.00     0.023 A 
ATOM     67  C   UNL A   1      39.787  24.433  26.562  1.00  0.00     0.031 A 
ATOM     68  C   UNL A   1      41.484  23.377  27.907  1.00  0.00     0.131 A 
ATOM     69  C   UNL A   1      39.115  23.203  26.496  1.00  0.00     0.055 A 
ATOM     70  C   UNL A   1      40.851  22.141  27.776  1.00  0.00     0.041 A 
ATOM     71  F   UNL A   1      42.607  23.425  28.643  1.00  0.00    -0.206 F 
ATOM     72  C   UNL A   1      39.654  22.050  27.074  1.00  0.00     0.022 A 
BRANCH  69  73
ATOM     73  S   UNL A   1      37.472  23.149  25.732  1.00  0.00     0.124 S 
ATOM     74  O   UNL A   1      37.773  23.546  24.358  1.00  0.00    -0.237 OA
ATOM     75  O   UNL A   1      37.078  21.757  25.923  1.00  0.00    -0.237 OA
ATOM     76  O   UNL A   1      36.704  24.126  26.501  1.00  0.00    -0.744 OA
ENDBRANCH  69  73
ENDBRANCH  52  66
BRANCH  53  77
ATOM     77  C   UNL A   1      45.906  33.185  28.678  1.00  0.00     0.023 A 
ATOM     78  C   UNL A   1      45.930  34.239  27.751  1.00  0.00     0.031 A 
ATOM     79  C   UNL A   1      46.720  33.298  29.819  1.00  0.00     0.131 A 
ATOM     80  C   UNL A   1      46.808  35.318  27.940  1.00  0.00     0.055 A 
ATOM     81  C   UNL A   1      47.534  34.411  30.042  1.00  0.00     0.041 A 
ATOM     82  F   UNL A   1      46.745  32.319  30.739  1.00  0.00    -0.206 F 
ATOM     83  C   UNL A   1      47.598  35.420  29.087  1.00  0.00     0.022 A 
BRANCH  80  84
ATOM     84  S   UNL A   1      47.014  36.510  26.588  1.00  0.00     0.124 S 
ATOM     85  O   UNL A   1      46.116  37.582  27.001  1.00  0.00    -0.237 OA
ATOM     86  O   UNL A   1      48.441  36.805  26.661  1.00  0.00    -0.237 OA
ATOM     87  O   UNL A   1      46.592  35.760  25.407  1.00  0.00    -0.744 OA
ENDBRANCH  80  84
ENDBRANCH  53  77
BRANCH  65  88
ATOM     88  C   UNL A   1      47.439  27.183  25.450  1.00  0.00     0.023 A 
ATOM     89  C   UNL A   1      47.646  27.565  24.115  1.00  0.00     0.031 A 
ATOM     90  C   UNL A   1      48.411  26.372  26.066  1.00  0.00     0.131 A 
ATOM     91  C   UNL A   1      48.777  27.102  23.425  1.00  0.00     0.055 A 
ATOM     92  C   UNL A   1      49.565  25.968  25.396  1.00  0.00     0.041 A 
ATOM     93  F   UNL A   1      48.261  25.975  27.340  1.00  0.00    -0.206 F 
ATOM     94  C   UNL A   1      49.748  26.324  24.064  1.00  0.00     0.022 A 
BRANCH  91  95
ATOM     95  S   UNL A   1      48.933  27.467  21.655  1.00  0.00     0.124 S 
ATOM     96  O   UNL A   1      50.375  27.629  21.504  1.00  0.00    -0.237 OA
ATOM     97  O   UNL A   1      48.358  26.276  21.038  1.00  0.00    -0.237 OA
ATOM     98  O   UNL A   1      48.150  28.690  21.487  1.00  0.00    -0.744 OA
ENDBRANCH  91  95
ENDBRANCH  65  88
ENDBRANCH  39  40
ENDBRANCH  32  34
ENDBRANCH  31  32
ENDBRANCH  30  31
ENDBRANCH   1  30
TORSDOF 19
ENDMDL
MODEL 2
REMARK VINA RESULT:     -11.6      1.646      7.526
REMARK SMILES O=C(CCC(=O)OCCOC(=O)c1ccc(-c2c3nc(c(-c4cc(S(=O)(=O)[O-])ccc4F)c4ccc([nH]4)c(-c4cc(S(=O)(=O)[O-])ccc4F)c4nc(c(-c5cc(S(=O)(=O)[O-])ccc5F)c5ccc2[nH]5)C=C4)C=C3)cc1)Nc1ccc(N2CCN(c3ccc(F)cc3)CC2)cc1
REMARK SMILES IDX 8 1 7 2 5 3 6 4 4 5 3 6 2 7 1 8 76 9 77 11 78 12 95 13 79 14
REMARK SMILES IDX 94 15 80 16 81 17 82 18 93 19 83 20 92 21 84 22 85 23 86 24
REMARK SMILES IDX 91 25 87 26 90 27 88 28 89 29 9 30 10 31 11 32 12 33 13 34
REMARK SMILES IDX 14 35 75 36 15 37 74 38 16 39 17 40 18 41 68 42 19 43 73 44
REMARK SMILES IDX 67 45 69 46 20 47 72 48 66 49 65 50 21 52 53 53 33 54 52 55
REMARK SMILES IDX 34 56 37 57 51 58 70 59 35 60 36 61 50 63 71 64 38 65 22 66
REMARK SMILES IDX 23 67 31 68 24 69 30 70 32 71 29 72 25 73 26 74 27 75 28 76
REMARK SMILES IDX 54 77 55 78 63 79 56 80 62 81 64 82 61 83 57 84 58 85 59 86
REMARK SMILES IDX 60 87 39 88 40 89 48 90 41 91 47 92 49 93 46 94 42 95 43 96
REMARK SMILES IDX 44 97 45 98
REMARK H PARENT 76 10 69 51 37 62
REMARK Flexibility Score: inf
ROOT
ATOM      1  C   UNL A   1      34.860  33.585  30.916  1.00  0.00     0.274 C 
ENDROOT
BRANCH   1   2
ATOM      2  O   UNL A   1      33.739  33.745  30.014  1.00  0.00    -0.462 OA
BRANCH   2   3
ATOM      3  C   UNL A   1      33.950  33.532  28.688  1.00  0.00     0.306 C 
ATOM      4  O   UNL A   1      33.765  34.375  27.820  1.00  0.00    -0.252 OA
BRANCH   3   5
ATOM      5  C   UNL A   1      34.347  32.096  28.381  1.00  0.00     0.132 C 
BRANCH   5   6
ATOM      6  C   UNL A   1      33.482  31.321  27.384  1.00  0.00     0.112 C 
BRANCH   6   7
ATOM      7  C   UNL A   1      33.871  29.856  27.226  1.00  0.00     0.224 C 
ATOM      8  O   UNL A   1      34.866  29.392  27.776  1.00  0.00    -0.275 OA
ATOM      9  N   UNL A   1      33.027  29.171  26.385  1.00  0.00    -0.326 N 
ATOM     10  H   UNL A   1      32.265  29.683  26.029  1.00  0.00     0.169 HD
BRANCH   9  11
ATOM     11  C   UNL A   1      33.115  27.838  25.969  1.00  0.00     0.041 A 
ATOM     12  C   UNL A   1      33.875  27.591  24.826  1.00  0.00     0.028 A 
ATOM     13  C   UNL A   1      32.480  26.783  26.611  1.00  0.00     0.028 A 
ATOM     14  C   UNL A   1      34.032  26.293  24.351  1.00  0.00     0.028 A 
ATOM     15  C   UNL A   1      32.592  25.485  26.088  1.00  0.00     0.028 A 
ATOM     16  C   UNL A   1      33.381  25.219  24.962  1.00  0.00     0.037 A 
BRANCH  16  17
ATOM     17  N   UNL A   1      33.547  23.955  24.440  1.00  0.00    -0.368 N 
ATOM     18  C   UNL A   1      34.623  23.102  24.970  1.00  0.00     0.138 C 
ATOM     19  C   UNL A   1      32.475  23.272  23.708  1.00  0.00     0.138 C 
ATOM     20  C   UNL A   1      34.038  21.935  25.801  1.00  0.00     0.138 C 
ATOM     21  C   UNL A   1      31.925  22.063  24.491  1.00  0.00     0.138 C 
ATOM     22  N   UNL A   1      33.002  21.215  25.032  1.00  0.00    -0.368 N 
BRANCH  22  23
ATOM     23  C   UNL A   1      33.285  19.965  24.529  1.00  0.00     0.037 A 
ATOM     24  C   UNL A   1      32.337  19.308  23.727  1.00  0.00     0.029 A 
ATOM     25  C   UNL A   1      34.496  19.305  24.779  1.00  0.00     0.029 A 
ATOM     26  C   UNL A   1      32.589  18.048  23.182  1.00  0.00     0.041 A 
ATOM     27  C   UNL A   1      34.751  18.034  24.252  1.00  0.00     0.041 A 
ATOM     28  C   UNL A   1      33.796  17.421  23.453  1.00  0.00     0.123 A 
ATOM     29  F   UNL A   1      34.042  16.209  22.938  1.00  0.00    -0.207 F 
ENDBRANCH  22  23
ENDBRANCH  16  17
ENDBRANCH   9  11
ENDBRANCH   6   7
ENDBRANCH   5   6
ENDBRANCH   3   5
ENDBRANCH   2   3
ENDBRANCH   1   2
BRANCH   1  30
ATOM     30  C   UNL A   1      34.403  32.978  32.246  1.00  0.00     0.275 C 
BRANCH  30  31
ATOM     31  O   UNL A   1      35.435  32.141  32.789  1.00  0.00    -0.458 OA
BRANCH  31  32
ATOM     32  C   UNL A   1      36.599  32.779  33.059  1.00  0.00     0.338 C 
ATOM     33  O   UNL A   1      36.764  33.685  33.850  1.00  0.00    -0.246 OA
BRANCH  32  34
ATOM     34  C   UNL A   1      37.682  32.098  32.340  1.00  0.00     0.060 A 
ATOM     35  C   UNL A   1      38.536  31.240  33.042  1.00  0.00     0.016 A 
ATOM     36  C   UNL A   1      37.862  32.333  30.979  1.00  0.00     0.016 A 
ATOM     37  C   UNL A   1      39.582  30.604  32.375  1.00  0.00     0.010 A 
ATOM     38  C   UNL A   1      38.905  31.691  30.314  1.00  0.00     0.010 A 
ATOM     39  C   UNL A   1      39.775  30.830  31.008  1.00  0.00    -0.014 A 
BRANCH  39  40
ATOM     40  C   UNL A   1      40.918  30.225  30.284  1.00  0.00     0.031 A 
ATOM     41  C   UNL A   1      42.136  31.063  30.025  1.00  0.00     0.074 A 
ATOM     42  C   UNL A   1      40.833  28.965  29.816  1.00  0.00     0.049 A 
ATOM     43  N   UNL A   1      43.155  30.824  29.243  1.00  0.00    -0.248 NA
ATOM     44  C   UNL A   1      42.205  32.355  30.729  1.00  0.00     0.031 C 
ATOM     45  C   UNL A   1      39.717  28.048  30.054  1.00  0.00     0.029 A 
ATOM     46  N   UNL A   1      41.689  28.249  29.017  1.00  0.00    -0.354 N 
ATOM     47  C   UNL A   1      43.971  31.945  29.333  1.00  0.00     0.074 A 
ATOM     48  C   UNL A   1      43.320  32.872  30.234  1.00  0.00     0.031 C 
ATOM     49  C   UNL A   1      39.949  26.898  29.399  1.00  0.00     0.029 A 
ATOM     50  C   UNL A   1      41.192  27.020  28.641  1.00  0.00     0.049 A 
ATOM     51  H   UNL A   1      42.573  28.581  28.738  1.00  0.00     0.167 HD
ATOM     52  C   UNL A   1      45.151  32.175  28.710  1.00  0.00     0.034 A 
ATOM     53  C   UNL A   1      41.662  26.123  27.750  1.00  0.00     0.034 A 
ATOM     54  C   UNL A   1      45.782  31.227  27.825  1.00  0.00     0.049 A 
ATOM     55  C   UNL A   1      42.945  26.439  27.014  1.00  0.00     0.074 A 
ATOM     56  C   UNL A   1      46.995  31.342  27.169  1.00  0.00     0.029 A 
ATOM     57  N   UNL A   1      45.248  29.997  27.464  1.00  0.00    -0.354 N 
ATOM     58  N   UNL A   1      43.712  27.502  27.108  1.00  0.00    -0.248 NA
ATOM     59  C   UNL A   1      43.430  25.437  26.054  1.00  0.00     0.031 C 
ATOM     60  C   UNL A   1      47.153  30.222  26.347  1.00  0.00     0.029 A 
ATOM     61  C   UNL A   1      46.089  29.361  26.568  1.00  0.00     0.049 A 
ATOM     62  H   UNL A   1      44.397  29.631  27.798  1.00  0.00     0.167 HD
ATOM     63  C   UNL A   1      44.794  27.267  26.260  1.00  0.00     0.074 A 
ATOM     64  C   UNL A   1      44.580  25.966  25.666  1.00  0.00     0.031 C 
ATOM     65  C   UNL A   1      45.870  28.052  26.002  1.00  0.00     0.034 A 
BRANCH  52  66
ATOM     66  C   UNL A   1      45.811  33.515  28.912  1.00  0.00     0.023 A 
ATOM     67  C   UNL A   1      45.579  34.602  28.054  1.00  0.00     0.031 A 
ATOM     68  C   UNL A   1      46.674  33.712  30.006  1.00  0.00     0.131 A 
ATOM     69  C   UNL A   1      46.232  35.823  28.280  1.00  0.00     0.055 A 
ATOM     70  C   UNL A   1      47.263  34.949  30.268  1.00  0.00     0.041 A 
ATOM     71  F   UNL A   1      46.955  32.701  30.845  1.00  0.00    -0.206 F 
ATOM     72  C   UNL A   1      47.049  36.012  29.398  1.00  0.00     0.022 A 
BRANCH  69  73
ATOM     73  S   UNL A   1      46.082  37.133  27.036  1.00  0.00     0.124 S 
ATOM     74  O   UNL A   1      46.803  38.231  27.675  1.00  0.00    -0.237 OA
ATOM     75  O   UNL A   1      46.726  36.539  25.870  1.00  0.00    -0.237 OA
ATOM     76  O   UNL A   1      44.638  37.330  26.918  1.00  0.00    -0.744 OA
ENDBRANCH  69  73
ENDBRANCH  52  66
BRANCH  53  77
ATOM     77  C   UNL A   1      40.906  24.872  27.447  1.00  0.00     0.023 A 
ATOM     78  C   UNL A   1      41.498  23.611  27.628  1.00  0.00     0.031 A 
ATOM     79  C   UNL A   1      39.620  24.915  26.880  1.00  0.00     0.131 A 
ATOM     80  C   UNL A   1      40.841  22.457  27.173  1.00  0.00     0.055 A 
ATOM     81  C   UNL A   1      38.937  23.757  26.501  1.00  0.00     0.041 A 
ATOM     82  F   UNL A   1      39.004  26.091  26.677  1.00  0.00    -0.206 F 
ATOM     83  C   UNL A   1      39.558  22.519  26.626  1.00  0.00     0.022 A 
BRANCH  80  84
ATOM     84  S   UNL A   1      41.755  20.890  27.166  1.00  0.00     0.124 S 
ATOM     85  O   UNL A   1      42.104  20.759  25.756  1.00  0.00    -0.237 OA
ATOM     86  O   UNL A   1      42.858  21.180  28.076  1.00  0.00    -0.237 OA
ATOM     87  O   UNL A   1      40.777  19.924  27.661  1.00  0.00    -0.744 OA
ENDBRANCH  80  84
ENDBRANCH  53  77
BRANCH  65  88
ATOM     88  C   UNL A   1      46.947  27.486  25.109  1.00  0.00     0.023 A 
ATOM     89  C   UNL A   1      47.136  27.926  23.789  1.00  0.00     0.031 A 
ATOM     90  C   UNL A   1      47.819  26.501  25.612  1.00  0.00     0.131 A 
ATOM     91  C   UNL A   1      48.146  27.352  23.002  1.00  0.00     0.055 A 
ATOM     92  C   UNL A   1      48.861  25.981  24.846  1.00  0.00     0.041 A 
ATOM     93  F   UNL A   1      47.680  26.043  26.866  1.00  0.00    -0.206 F 
ATOM     94  C   UNL A   1      49.023  26.399  23.529  1.00  0.00     0.022 A 
BRANCH  91  95
ATOM     95  S   UNL A   1      48.259  27.813  21.251  1.00  0.00     0.124 S 
ATOM     96  O   UNL A   1      46.886  28.203  20.951  1.00  0.00    -0.237 OA
ATOM     97  O   UNL A   1      49.238  28.895  21.275  1.00  0.00    -0.237 OA
ATOM     98  O   UNL A   1      48.712  26.585  20.601  1.00  0.00    -0.744 OA
ENDBRANCH  91  95
ENDBRANCH  65  88
ENDBRANCH  39  40
ENDBRANCH  32  34
ENDBRANCH  31  32
ENDBRANCH  30  31
ENDBRANCH   1  30
TORSDOF 19
ENDMDL
MODEL 3
REMARK VINA RESULT:     -11.4      3.105      9.429
REMARK SMILES O=C(CCC(=O)OCCOC(=O)c1ccc(-c2c3nc(c(-c4cc(S(=O)(=O)[O-])ccc4F)c4ccc([nH]4)c(-c4cc(S(=O)(=O)[O-])ccc4F)c4nc(c(-c5cc(S(=O)(=O)[O-])ccc5F)c5ccc2[nH]5)C=C4)C=C3)cc1)Nc1ccc(N2CCN(c3ccc(F)cc3)CC2)cc1
REMARK SMILES IDX 8 1 7 2 5 3 6 4 4 5 3 6 2 7 1 8 76 9 77 11 78 12 95 13 79 14
REMARK SMILES IDX 94 15 80 16 81 17 82 18 93 19 83 20 92 21 84 22 85 23 86 24
REMARK SMILES IDX 91 25 87 26 90 27 88 28 89 29 9 30 10 31 11 32 12 33 13 34
REMARK SMILES IDX 14 35 75 36 15 37 74 38 16 39 17 40 18 41 68 42 19 43 73 44
REMARK SMILES IDX 67 45 69 46 20 47 72 48 66 49 65 50 21 52 53 53 33 54 52 55
REMARK SMILES IDX 34 56 37 57 51 58 70 59 35 60 36 61 50 63 71 64 38 65 22 66
REMARK SMILES IDX 23 67 31 68 24 69 30 70 32 71 29 72 25 73 26 74 27 75 28 76
REMARK SMILES IDX 54 77 55 78 63 79 56 80 62 81 64 82 61 83 57 84 58 85 59 86
REMARK SMILES IDX 60 87 39 88 40 89 48 90 41 91 47 92 49 93 46 94 42 95 43 96
REMARK SMILES IDX 44 97 45 98
REMARK H PARENT 76 10 69 51 37 62
REMARK Flexibility Score: inf
ROOT
ATOM      1  C   UNL A   1      35.534  20.377  25.240  1.00  0.00     0.274 C 
ENDROOT
BRANCH   1   2
ATOM      2  O   UNL A   1      35.553  19.248  24.334  1.00  0.00    -0.462 OA
BRANCH   2   3
ATOM      3  C   UNL A   1      34.978  18.088  24.746  1.00  0.00     0.306 C 
ATOM      4  O   UNL A   1      35.607  17.086  25.063  1.00  0.00    -0.252 OA
BRANCH   3   5
ATOM      5  C   UNL A   1      33.459  18.129  24.677  1.00  0.00     0.132 C 
BRANCH   5   6
ATOM      6  C   UNL A   1      32.815  18.217  23.292  1.00  0.00     0.112 C 
BRANCH   6   7
ATOM      7  C   UNL A   1      32.312  19.608  22.923  1.00  0.00     0.224 C 
ATOM      8  O   UNL A   1      31.883  19.859  21.801  1.00  0.00    -0.275 OA
ATOM      9  N   UNL A   1      32.445  20.510  23.952  1.00  0.00    -0.326 N 
ATOM     10  H   UNL A   1      32.798  20.150  24.797  1.00  0.00     0.169 HD
BRANCH   9  11
ATOM     11  C   UNL A   1      32.142  21.876  23.948  1.00  0.00     0.041 A 
ATOM     12  C   UNL A   1      31.292  22.328  24.956  1.00  0.00     0.028 A 
ATOM     13  C   UNL A   1      32.619  22.772  22.999  1.00  0.00     0.028 A 
ATOM     14  C   UNL A   1      30.951  23.675  25.039  1.00  0.00     0.028 A 
ATOM     15  C   UNL A   1      32.219  24.116  23.053  1.00  0.00     0.028 A 
ATOM     16  C   UNL A   1      31.395  24.590  24.081  1.00  0.00     0.037 A 
BRANCH  16  17
ATOM     17  N   UNL A   1      31.010  25.908  24.191  1.00  0.00    -0.368 N 
ATOM     18  C   UNL A   1      31.696  26.919  23.368  1.00  0.00     0.138 C 
ATOM     19  C   UNL A   1      29.708  26.293  24.745  1.00  0.00     0.138 C 
ATOM     20  C   UNL A   1      30.755  27.454  22.262  1.00  0.00     0.138 C 
ATOM     21  C   UNL A   1      28.780  26.892  23.670  1.00  0.00     0.138 C 
ATOM     22  N   UNL A   1      29.469  27.895  22.839  1.00  0.00    -0.368 N 
BRANCH  22  23
ATOM     23  C   UNL A   1      29.198  29.243  22.928  1.00  0.00     0.037 A 
ATOM     24  C   UNL A   1      29.843  30.018  23.906  1.00  0.00     0.029 A 
ATOM     25  C   UNL A   1      28.298  29.891  22.071  1.00  0.00     0.029 A 
ATOM     26  C   UNL A   1      29.612  31.391  24.019  1.00  0.00     0.041 A 
ATOM     27  C   UNL A   1      28.046  31.263  22.189  1.00  0.00     0.041 A 
ATOM     28  C   UNL A   1      28.711  32.000  23.159  1.00  0.00     0.123 A 
ATOM     29  F   UNL A   1      28.480  33.315  23.266  1.00  0.00    -0.207 F 
ENDBRANCH  22  23
ENDBRANCH  16  17
ENDBRANCH   9  11
ENDBRANCH   6   7
ENDBRANCH   5   6
ENDBRANCH   3   5
ENDBRANCH   2   3
ENDBRANCH   1   2
BRANCH   1  30
ATOM     30  C   UNL A   1      36.536  21.446  24.795  1.00  0.00     0.275 C 
BRANCH  30  31
ATOM     31  O   UNL A   1      37.224  21.985  25.934  1.00  0.00    -0.458 OA
BRANCH  31  32
ATOM     32  C   UNL A   1      38.516  21.600  26.051  1.00  0.00     0.338 C 
ATOM     33  O   UNL A   1      38.988  20.529  25.726  1.00  0.00    -0.246 OA
BRANCH  32  34
ATOM     34  C   UNL A   1      39.306  22.749  26.508  1.00  0.00     0.060 A 
ATOM     35  C   UNL A   1      40.380  22.538  27.380  1.00  0.00     0.016 A 
ATOM     36  C   UNL A   1      38.964  24.033  26.089  1.00  0.00     0.016 A 
ATOM     37  C   UNL A   1      41.125  23.623  27.838  1.00  0.00     0.010 A 
ATOM     38  C   UNL A   1      39.715  25.115  26.545  1.00  0.00     0.010 A 
ATOM     39  C   UNL A   1      40.793  24.919  27.426  1.00  0.00    -0.014 A 
BRANCH  39  40
ATOM     40  C   UNL A   1      41.521  26.100  27.949  1.00  0.00     0.031 A 
ATOM     41  C   UNL A   1      40.758  27.134  28.725  1.00  0.00     0.074 A 
ATOM     42  C   UNL A   1      42.829  26.266  27.674  1.00  0.00     0.049 A 
ATOM     43  N   UNL A   1      41.128  28.332  29.092  1.00  0.00    -0.248 NA
ATOM     44  C   UNL A   1      39.387  26.775  29.125  1.00  0.00     0.031 C 
ATOM     45  C   UNL A   1      43.674  25.300  26.971  1.00  0.00     0.029 A 
ATOM     46  N   UNL A   1      43.668  27.323  27.928  1.00  0.00    -0.354 N 
ATOM     47  C   UNL A   1      40.028  28.885  29.737  1.00  0.00     0.074 A 
ATOM     48  C   UNL A   1      38.971  27.896  29.697  1.00  0.00     0.031 C 
ATOM     49  C   UNL A   1      44.907  25.817  26.834  1.00  0.00     0.029 A 
ATOM     50  C   UNL A   1      44.921  27.174  27.375  1.00  0.00     0.049 A 
ATOM     51  H   UNL A   1      43.400  28.111  28.453  1.00  0.00     0.167 HD
ATOM     52  C   UNL A   1      39.915  30.110  30.302  1.00  0.00     0.034 A 
ATOM     53  C   UNL A   1      45.941  28.051  27.275  1.00  0.00     0.034 A 
ATOM     54  C   UNL A   1      40.989  31.072  30.337  1.00  0.00     0.049 A 
ATOM     55  C   UNL A   1      45.761  29.439  27.850  1.00  0.00     0.074 A 
ATOM     56  C   UNL A   1      40.996  32.330  30.914  1.00  0.00     0.029 A 
ATOM     57  N   UNL A   1      42.241  30.889  29.764  1.00  0.00    -0.354 N 
ATOM     58  N   UNL A   1      44.717  29.951  28.461  1.00  0.00    -0.248 NA
ATOM     59  C   UNL A   1      46.895  30.365  27.726  1.00  0.00     0.031 C 
ATOM     60  C   UNL A   1      42.219  32.938  30.617  1.00  0.00     0.029 A 
ATOM     61  C   UNL A   1      43.013  32.024  29.943  1.00  0.00     0.049 A 
ATOM     62  H   UNL A   1      42.535  30.073  29.299  1.00  0.00     0.167 HD
ATOM     63  C   UNL A   1      45.092  31.239  28.839  1.00  0.00     0.074 A 
ATOM     64  C   UNL A   1      46.454  31.424  28.389  1.00  0.00     0.031 C 
ATOM     65  C   UNL A   1      44.379  32.182  29.505  1.00  0.00     0.034 A 
BRANCH  52  66
ATOM     66  C   UNL A   1      38.579  30.508  30.876  1.00  0.00     0.023 A 
ATOM     67  C   UNL A   1      37.602  31.166  30.112  1.00  0.00     0.031 A 
ATOM     68  C   UNL A   1      38.271  30.195  32.213  1.00  0.00     0.131 A 
ATOM     69  C   UNL A   1      36.380  31.527  30.701  1.00  0.00     0.055 A 
ATOM     70  C   UNL A   1      37.028  30.490  32.772  1.00  0.00     0.041 A 
ATOM     71  F   UNL A   1      39.178  29.591  32.999  1.00  0.00    -0.206 F 
ATOM     72  C   UNL A   1      36.076  31.168  32.017  1.00  0.00     0.022 A 
BRANCH  69  73
ATOM     73  S   UNL A   1      35.231  32.564  29.758  1.00  0.00     0.124 S 
ATOM     74  O   UNL A   1      36.116  33.625  29.281  1.00  0.00    -0.237 OA
ATOM     75  O   UNL A   1      34.733  31.643  28.742  1.00  0.00    -0.237 OA
ATOM     76  O   UNL A   1      34.248  32.983  30.756  1.00  0.00    -0.744 OA
ENDBRANCH  69  73
ENDBRANCH  52  66
BRANCH  53  77
ATOM     77  C   UNL A   1      47.200  27.687  26.558  1.00  0.00     0.023 A 
ATOM     78  C   UNL A   1      47.344  27.937  25.184  1.00  0.00     0.031 A 
ATOM     79  C   UNL A   1      48.237  26.997  27.210  1.00  0.00     0.131 A 
ATOM     80  C   UNL A   1      48.456  27.431  24.493  1.00  0.00     0.055 A 
ATOM     81  C   UNL A   1      49.380  26.563  26.533  1.00  0.00     0.041 A 
ATOM     82  F   UNL A   1      48.155  26.723  28.522  1.00  0.00    -0.206 F 
ATOM     83  C   UNL A   1      49.483  26.761  25.160  1.00  0.00     0.022 A 
BRANCH  80  84
ATOM     84  S   UNL A   1      48.464  27.529  22.681  1.00  0.00     0.124 S 
ATOM     85  O   UNL A   1      48.483  26.119  22.311  1.00  0.00    -0.237 OA
ATOM     86  O   UNL A   1      47.222  28.247  22.412  1.00  0.00    -0.237 OA
ATOM     87  O   UNL A   1      49.688  28.270  22.386  1.00  0.00    -0.744 OA
ENDBRANCH  80  84
ENDBRANCH  53  77
BRANCH  65  88
ATOM     88  C   UNL A   1      45.088  33.463  29.872  1.00  0.00     0.023 A 
ATOM     89  C   UNL A   1      45.287  34.502  28.948  1.00  0.00     0.031 A 
ATOM     90  C   UNL A   1      45.548  33.648  31.189  1.00  0.00     0.131 A 
ATOM     91  C   UNL A   1      45.965  35.665  29.345  1.00  0.00     0.055 A 
ATOM     92  C   UNL A   1      46.164  34.831  31.593  1.00  0.00     0.041 A 
ATOM     93  F   UNL A   1      45.388  32.685  32.111  1.00  0.00    -0.206 F 
ATOM     94  C   UNL A   1      46.385  35.845  30.666  1.00  0.00     0.022 A 
BRANCH  91  95
ATOM     95  S   UNL A   1      46.359  36.917  28.093  1.00  0.00     0.124 S 
ATOM     96  O   UNL A   1      47.617  37.461  28.593  1.00  0.00    -0.237 OA
ATOM     97  O   UNL A   1      46.449  36.121  26.873  1.00  0.00    -0.237 OA
ATOM     98  O   UNL A   1      45.221  37.831  28.151  1.00  0.00    -0.744 OA
ENDBRANCH  91  95
ENDBRANCH  65  88
ENDBRANCH  39  40
ENDBRANCH  32  34
ENDBRANCH  31  32
ENDBRANCH  30  31
ENDBRANCH   1  30
TORSDOF 19
ENDMDL
