MODEL 1
REMARK VINA RESULT:     -13.1      0.000      0.000
REMARK SMILES C[C@@H](C(=O)OCCOC(=O)c1ccc(-c2c3nc(c(-c4cc(S(=O)(=O)[O-])ccc4F)c4ccc([nH]4)c(-c4cc(S(=O)(=O)[O-])ccc4F)c4nc(c(-c5cc(S(=O)(=O)[O-])ccc5F)c5ccc2[nH]5)C=C4)C=C3)cc1)c1ccc(-c2cccc(OC(=O)Nc3ccccc3)c2)c(F)c1
REMARK SMILES IDX 6 1 5 2 3 3 4 4 2 5 1 6 74 7 75 8 96 9 76 10 94 11 77 12
REMARK SMILES IDX 95 13 78 14 79 15 93 16 80 17 82 18 81 19 83 20 84 21 85 22
REMARK SMILES IDX 86 23 87 25 88 26 92 27 89 28 91 29 90 30 7 31 8 32 9 33
REMARK SMILES IDX 10 34 11 35 12 36 73 37 13 38 72 39 14 40 15 41 16 42 66 43
REMARK SMILES IDX 17 44 71 45 65 46 67 47 18 48 70 49 64 50 63 51 19 53 51 54
REMARK SMILES IDX 31 55 50 56 32 57 35 58 49 59 68 60 33 61 34 62 48 64 69 65
REMARK SMILES IDX 36 66 20 67 21 68 29 69 22 70 28 71 30 72 27 73 23 74 24 75
REMARK SMILES IDX 25 76 26 77 52 78 53 79 61 80 54 81 60 82 62 83 59 84 55 85
REMARK SMILES IDX 56 86 57 87 58 88 37 89 38 90 46 91 39 92 45 93 47 94 44 95
REMARK SMILES IDX 40 96 41 97 42 98 43 99
REMARK H PARENT 86 24 67 52 35 63
REMARK Flexibility Score: inf
ROOT
ATOM      1  C   UNL A   1      34.351  34.534  31.638  1.00  0.00     0.274 C 
ENDROOT
BRANCH   1   2
ATOM      2  O   UNL A   1      33.464  34.200  30.551  1.00  0.00    -0.462 OA
BRANCH   2   3
ATOM      3  C   UNL A   1      33.962  34.326  29.288  1.00  0.00     0.313 C 
ATOM      4  O   UNL A   1      33.556  35.147  28.474  1.00  0.00    -0.252 OA
BRANCH   3   5
ATOM      5  C   UNL A   1      35.035  33.276  28.970  1.00  0.00     0.126 C 
ATOM      6  C   UNL A   1      36.250  33.838  28.229  1.00  0.00     0.025 C 
BRANCH   5   7
ATOM      7  C   UNL A   1      34.440  32.058  28.275  1.00  0.00    -0.031 A 
ATOM      8  C   UNL A   1      35.150  30.864  28.101  1.00  0.00     0.005 A 
ATOM      9  C   UNL A   1      33.154  32.133  27.726  1.00  0.00     0.044 A 
ATOM     10  C   UNL A   1      34.612  29.808  27.348  1.00  0.00     0.012 A 
ATOM     11  C   UNL A   1      32.622  31.070  26.988  1.00  0.00     0.131 A 
ATOM     12  C   UNL A   1      33.349  29.897  26.730  1.00  0.00     0.018 A 
ATOM     13  F   UNL A   1      31.377  31.229  26.513  1.00  0.00    -0.206 F 
BRANCH  12  14
ATOM     14  C   UNL A   1      32.880  28.854  25.779  1.00  0.00    -0.012 A 
ATOM     15  C   UNL A   1      33.556  27.626  25.624  1.00  0.00     0.009 A 
ATOM     16  C   UNL A   1      31.776  29.086  24.932  1.00  0.00     0.056 A 
ATOM     17  C   UNL A   1      33.172  26.690  24.657  1.00  0.00     0.004 A 
ATOM     18  C   UNL A   1      31.383  28.140  23.988  1.00  0.00     0.133 A 
ATOM     19  C   UNL A   1      32.083  26.948  23.835  1.00  0.00     0.047 A 
BRANCH  18  20
ATOM     20  O   UNL A   1      30.241  28.269  23.161  1.00  0.00    -0.410 OA
BRANCH  20  21
ATOM     21  C   UNL A   1      28.948  27.797  23.361  1.00  0.00     0.417 C 
ATOM     22  O   UNL A   1      28.661  26.672  23.761  1.00  0.00    -0.224 OA
ATOM     23  N   UNL A   1      27.961  28.716  23.099  1.00  0.00    -0.291 N 
ATOM     24  H   UNL A   1      27.050  28.405  23.300  1.00  0.00     0.173 HD
BRANCH  23  25
ATOM     25  C   UNL A   1      28.033  30.028  22.591  1.00  0.00     0.044 A 
ATOM     26  C   UNL A   1      28.151  31.053  23.534  1.00  0.00     0.026 A 
ATOM     27  C   UNL A   1      28.026  30.373  21.239  1.00  0.00     0.026 A 
ATOM     28  C   UNL A   1      28.374  32.373  23.137  1.00  0.00     0.002 A 
ATOM     29  C   UNL A   1      28.229  31.698  20.838  1.00  0.00     0.002 A 
ATOM     30  C   UNL A   1      28.428  32.695  21.786  1.00  0.00     0.000 A 
ENDBRANCH  23  25
ENDBRANCH  20  21
ENDBRANCH  18  20
ENDBRANCH  12  14
ENDBRANCH   5   7
ENDBRANCH   3   5
ENDBRANCH   2   3
ENDBRANCH   1   2
BRANCH   1  31
ATOM     31  C   UNL A   1      34.140  33.580  32.809  1.00  0.00     0.275 C 
BRANCH  31  32
ATOM     32  O   UNL A   1      34.826  32.344  32.552  1.00  0.00    -0.458 OA
BRANCH  32  33
ATOM     33  C   UNL A   1      35.994  32.172  33.213  1.00  0.00     0.338 C 
ATOM     34  O   UNL A   1      36.279  32.572  34.327  1.00  0.00    -0.246 OA
BRANCH  33  35
ATOM     35  C   UNL A   1      36.915  31.384  32.380  1.00  0.00     0.060 A 
ATOM     36  C   UNL A   1      37.765  30.463  32.984  1.00  0.00     0.016 A 
ATOM     37  C   UNL A   1      37.040  31.670  31.020  1.00  0.00     0.016 A 
ATOM     38  C   UNL A   1      38.820  29.921  32.253  1.00  0.00     0.010 A 
ATOM     39  C   UNL A   1      38.042  31.042  30.270  1.00  0.00     0.010 A 
ATOM     40  C   UNL A   1      38.988  30.205  30.889  1.00  0.00    -0.014 A 
BRANCH  40  41
ATOM     41  C   UNL A   1      40.186  29.701  30.144  1.00  0.00     0.031 A 
ATOM     42  C   UNL A   1      41.390  30.600  29.965  1.00  0.00     0.074 A 
ATOM     43  C   UNL A   1      40.216  28.443  29.656  1.00  0.00     0.049 A 
ATOM     44  N   UNL A   1      42.436  30.452  29.193  1.00  0.00    -0.248 NA
ATOM     45  C   UNL A   1      41.410  31.847  30.749  1.00  0.00     0.031 C 
ATOM     46  C   UNL A   1      39.145  27.458  29.819  1.00  0.00     0.029 A 
ATOM     47  N   UNL A   1      41.171  27.765  28.932  1.00  0.00    -0.354 N 
ATOM     48  C   UNL A   1      43.197  31.608  29.344  1.00  0.00     0.074 A 
ATOM     49  C   UNL A   1      42.490  32.455  30.279  1.00  0.00     0.031 C 
ATOM     50  C   UNL A   1      39.513  26.304  29.249  1.00  0.00     0.029 A 
ATOM     51  C   UNL A   1      40.782  26.495  28.557  1.00  0.00     0.049 A 
ATOM     52  H   UNL A   1      42.049  28.149  28.703  1.00  0.00     0.167 HD
ATOM     53  C   UNL A   1      44.377  31.925  28.755  1.00  0.00     0.034 A 
ATOM     54  C   UNL A   1      41.333  25.605  27.700  1.00  0.00     0.034 A 
ATOM     55  C   UNL A   1      45.098  31.018  27.893  1.00  0.00     0.049 A 
ATOM     56  C   UNL A   1      42.674  25.957  27.103  1.00  0.00     0.074 A 
ATOM     57  C   UNL A   1      46.302  31.220  27.241  1.00  0.00     0.029 A 
ATOM     58  N   UNL A   1      44.689  29.725  27.580  1.00  0.00    -0.354 N 
ATOM     59  N   UNL A   1      43.362  27.072  27.233  1.00  0.00    -0.248 NA
ATOM     60  C   UNL A   1      43.330  24.944  26.271  1.00  0.00     0.031 C 
ATOM     61  C   UNL A   1      46.595  30.072  26.497  1.00  0.00     0.029 A 
ATOM     62  C   UNL A   1      45.611  29.124  26.736  1.00  0.00     0.049 A 
ATOM     63  H   UNL A   1      43.865  29.300  27.909  1.00  0.00     0.167 HD
ATOM     64  C   UNL A   1      44.524  26.895  26.489  1.00  0.00     0.074 A 
ATOM     65  C   UNL A   1      44.473  25.543  25.967  1.00  0.00     0.031 C 
ATOM     66  C   UNL A   1      45.531  27.772  26.234  1.00  0.00     0.034 A 
BRANCH  53  67
ATOM     67  C   UNL A   1      44.928  33.319  28.968  1.00  0.00     0.023 A 
ATOM     68  C   UNL A   1      44.418  34.446  28.303  1.00  0.00     0.031 A 
ATOM     69  C   UNL A   1      46.003  33.515  29.858  1.00  0.00     0.131 A 
ATOM     70  C   UNL A   1      45.016  35.705  28.495  1.00  0.00     0.055 A 
ATOM     71  C   UNL A   1      46.546  34.779  30.098  1.00  0.00     0.041 A 
ATOM     72  F   UNL A   1      46.548  32.475  30.509  1.00  0.00    -0.206 F 
ATOM     73  C   UNL A   1      46.062  35.882  29.404  1.00  0.00     0.022 A 
BRANCH  70  74
ATOM     74  S   UNL A   1      44.492  37.089  27.444  1.00  0.00     0.124 S 
ATOM     75  O   UNL A   1      43.891  37.993  28.421  1.00  0.00    -0.237 OA
ATOM     76  O   UNL A   1      45.752  37.530  26.857  1.00  0.00    -0.237 OA
ATOM     77  O   UNL A   1      43.550  36.474  26.512  1.00  0.00    -0.744 OA
ENDBRANCH  70  74
ENDBRANCH  53  67
BRANCH  54  78
ATOM     78  C   UNL A   1      40.548  24.380  27.302  1.00  0.00     0.023 A 
ATOM     79  C   UNL A   1      39.348  24.422  26.568  1.00  0.00     0.031 A 
ATOM     80  C   UNL A   1      41.036  23.098  27.645  1.00  0.00     0.131 A 
ATOM     81  C   UNL A   1      38.711  23.225  26.179  1.00  0.00     0.055 A 
ATOM     82  C   UNL A   1      40.446  21.918  27.190  1.00  0.00     0.041 A 
ATOM     83  F   UNL A   1      42.140  22.969  28.400  1.00  0.00    -0.206 F 
ATOM     84  C   UNL A   1      39.276  21.978  26.453  1.00  0.00     0.022 A 
BRANCH  81  85
ATOM     85  S   UNL A   1      37.070  23.255  25.398  1.00  0.00     0.124 S 
ATOM     86  O   UNL A   1      36.462  24.452  25.964  1.00  0.00    -0.237 OA
ATOM     87  O   UNL A   1      37.415  23.318  23.981  1.00  0.00    -0.237 OA
ATOM     88  O   UNL A   1      36.469  21.996  25.834  1.00  0.00    -0.744 OA
ENDBRANCH  81  85
ENDBRANCH  54  78
BRANCH  66  89
ATOM     89  C   UNL A   1      46.657  27.281  25.359  1.00  0.00     0.023 A 
ATOM     90  C   UNL A   1      46.881  27.827  24.082  1.00  0.00     0.031 A 
ATOM     91  C   UNL A   1      47.521  26.266  25.806  1.00  0.00     0.131 A 
ATOM     92  C   UNL A   1      47.907  27.318  23.274  1.00  0.00     0.055 A 
ATOM     93  C   UNL A   1      48.579  25.805  25.020  1.00  0.00     0.041 A 
ATOM     94  F   UNL A   1      47.355  25.711  27.017  1.00  0.00    -0.206 F 
ATOM     95  C   UNL A   1      48.768  26.322  23.741  1.00  0.00     0.022 A 
BRANCH  92  96
ATOM     96  S   UNL A   1      48.043  27.912  21.567  1.00  0.00     0.124 S 
ATOM     97  O   UNL A   1      46.758  28.577  21.375  1.00  0.00    -0.237 OA
ATOM     98  O   UNL A   1      49.212  28.784  21.632  1.00  0.00    -0.237 OA
ATOM     99  O   UNL A   1      48.226  26.686  20.792  1.00  0.00    -0.744 OA
ENDBRANCH  92  96
ENDBRANCH  66  89
ENDBRANCH  40  41
ENDBRANCH  33  35
ENDBRANCH  32  33
ENDBRANCH  31  32
ENDBRANCH   1  31
TORSDOF 19
ENDMDL
MODEL 2
REMARK VINA RESULT:     -12.5      3.808      9.723
REMARK SMILES C[C@@H](C(=O)OCCOC(=O)c1ccc(-c2c3nc(c(-c4cc(S(=O)(=O)[O-])ccc4F)c4ccc([nH]4)c(-c4cc(S(=O)(=O)[O-])ccc4F)c4nc(c(-c5cc(S(=O)(=O)[O-])ccc5F)c5ccc2[nH]5)C=C4)C=C3)cc1)c1ccc(-c2cccc(OC(=O)Nc3ccccc3)c2)c(F)c1
REMARK SMILES IDX 6 1 5 2 3 3 4 4 2 5 1 6 74 7 75 8 96 9 76 10 94 11 77 12
REMARK SMILES IDX 95 13 78 14 79 15 93 16 80 17 82 18 81 19 83 20 84 21 85 22
REMARK SMILES IDX 86 23 87 25 88 26 92 27 89 28 91 29 90 30 7 31 8 32 9 33
REMARK SMILES IDX 10 34 11 35 12 36 73 37 13 38 72 39 14 40 15 41 16 42 66 43
REMARK SMILES IDX 17 44 71 45 65 46 67 47 18 48 70 49 64 50 63 51 19 53 51 54
REMARK SMILES IDX 31 55 50 56 32 57 35 58 49 59 68 60 33 61 34 62 48 64 69 65
REMARK SMILES IDX 36 66 20 67 21 68 29 69 22 70 28 71 30 72 27 73 23 74 24 75
REMARK SMILES IDX 25 76 26 77 52 78 53 79 61 80 54 81 60 82 62 83 59 84 55 85
REMARK SMILES IDX 56 86 57 87 58 88 37 89 38 90 46 91 39 92 45 93 47 94 44 95
REMARK SMILES IDX 40 96 41 97 42 98 43 99
REMARK H PARENT 86 24 67 52 35 63
REMARK Flexibility Score: inf
ROOT
ATOM      1  C   UNL A   1      42.984  18.685  26.614  1.00  0.00     0.274 C 
ENDROOT
BRANCH   1   2
ATOM      2  O   UNL A   1      41.950  19.647  26.317  1.00  0.00    -0.462 OA
BRANCH   2   3
ATOM      3  C   UNL A   1      41.398  20.303  27.377  1.00  0.00     0.313 C 
ATOM      4  O   UNL A   1      40.882  19.738  28.335  1.00  0.00    -0.252 OA
BRANCH   3   5
ATOM      5  C   UNL A   1      41.422  21.828  27.204  1.00  0.00     0.126 C 
ATOM      6  C   UNL A   1      41.918  22.583  28.439  1.00  0.00     0.025 C 
BRANCH   5   7
ATOM      7  C   UNL A   1      40.086  22.356  26.695  1.00  0.00    -0.031 A 
ATOM      8  C   UNL A   1      39.609  23.634  27.010  1.00  0.00     0.005 A 
ATOM      9  C   UNL A   1      39.257  21.525  25.932  1.00  0.00     0.044 A 
ATOM     10  C   UNL A   1      38.320  24.038  26.625  1.00  0.00     0.012 A 
ATOM     11  C   UNL A   1      37.980  21.942  25.543  1.00  0.00     0.131 A 
ATOM     12  C   UNL A   1      37.450  23.186  25.918  1.00  0.00     0.018 A 
ATOM     13  F   UNL A   1      37.265  21.082  24.800  1.00  0.00    -0.206 F 
BRANCH  12  14
ATOM     14  C   UNL A   1      36.026  23.554  25.690  1.00  0.00    -0.012 A 
ATOM     15  C   UNL A   1      35.031  23.331  26.665  1.00  0.00     0.009 A 
ATOM     16  C   UNL A   1      35.599  24.075  24.451  1.00  0.00     0.056 A 
ATOM     17  C   UNL A   1      33.679  23.585  26.410  1.00  0.00     0.004 A 
ATOM     18  C   UNL A   1      34.255  24.350  24.211  1.00  0.00     0.133 A 
ATOM     19  C   UNL A   1      33.289  24.095  25.179  1.00  0.00     0.047 A 
BRANCH  18  20
ATOM     20  O   UNL A   1      33.764  24.945  23.024  1.00  0.00    -0.410 OA
BRANCH  20  21
ATOM     21  C   UNL A   1      33.067  24.366  21.969  1.00  0.00     0.417 C 
ATOM     22  O   UNL A   1      33.529  23.541  21.186  1.00  0.00    -0.224 OA
ATOM     23  N   UNL A   1      31.758  24.770  21.864  1.00  0.00    -0.291 N 
ATOM     24  H   UNL A   1      31.246  24.315  21.157  1.00  0.00     0.173 HD
BRANCH  23  25
ATOM     25  C   UNL A   1      31.024  25.725  22.595  1.00  0.00     0.044 A 
ATOM     26  C   UNL A   1      31.118  27.048  22.157  1.00  0.00     0.026 A 
ATOM     27  C   UNL A   1      30.199  25.448  23.686  1.00  0.00     0.026 A 
ATOM     28  C   UNL A   1      30.322  28.049  22.717  1.00  0.00     0.002 A 
ATOM     29  C   UNL A   1      29.414  26.453  24.263  1.00  0.00     0.002 A 
ATOM     30  C   UNL A   1      29.457  27.749  23.762  1.00  0.00     0.000 A 
ENDBRANCH  23  25
ENDBRANCH  20  21
ENDBRANCH  18  20
ENDBRANCH  12  14
ENDBRANCH   5   7
ENDBRANCH   3   5
ENDBRANCH   2   3
ENDBRANCH   1   2
BRANCH   1  31
ATOM     31  C   UNL A   1      43.881  18.477  25.398  1.00  0.00     0.275 C 
BRANCH  31  32
ATOM     32  O   UNL A   1      44.865  19.522  25.343  1.00  0.00    -0.458 OA
BRANCH  32  33
ATOM     33  C   UNL A   1      44.648  20.484  24.417  1.00  0.00     0.338 C 
ATOM     34  O   UNL A   1      44.587  20.347  23.208  1.00  0.00    -0.246 OA
BRANCH  33  35
ATOM     35  C   UNL A   1      44.464  21.779  25.090  1.00  0.00     0.060 A 
ATOM     36  C   UNL A   1      43.785  22.801  24.434  1.00  0.00     0.016 A 
ATOM     37  C   UNL A   1      45.098  22.024  26.309  1.00  0.00     0.016 A 
ATOM     38  C   UNL A   1      43.847  24.098  24.938  1.00  0.00     0.010 A 
ATOM     39  C   UNL A   1      45.067  23.311  26.858  1.00  0.00     0.010 A 
ATOM     40  C   UNL A   1      44.495  24.383  26.150  1.00  0.00    -0.014 A 
BRANCH  40  41
ATOM     41  C   UNL A   1      44.646  25.797  26.623  1.00  0.00     0.031 A 
ATOM     42  C   UNL A   1      46.001  26.466  26.569  1.00  0.00     0.074 A 
ATOM     43  C   UNL A   1      43.577  26.492  27.070  1.00  0.00     0.049 A 
ATOM     44  N   UNL A   1      46.401  27.589  27.108  1.00  0.00    -0.248 NA
ATOM     45  C   UNL A   1      47.059  25.763  25.823  1.00  0.00     0.031 C 
ATOM     46  C   UNL A   1      42.206  25.982  27.109  1.00  0.00     0.029 A 
ATOM     47  N   UNL A   1      43.461  27.770  27.569  1.00  0.00    -0.354 N 
ATOM     48  C   UNL A   1      47.761  27.692  26.827  1.00  0.00     0.074 A 
ATOM     49  C   UNL A   1      48.123  26.512  26.074  1.00  0.00     0.031 C 
ATOM     50  C   UNL A   1      41.389  26.937  27.569  1.00  0.00     0.029 A 
ATOM     51  C   UNL A   1      42.185  28.085  27.990  1.00  0.00     0.049 A 
ATOM     52  H   UNL A   1      44.216  28.400  27.621  1.00  0.00     0.167 HD
ATOM     53  C   UNL A   1      48.620  28.685  27.167  1.00  0.00     0.034 A 
ATOM     54  C   UNL A   1      41.708  29.134  28.699  1.00  0.00     0.034 A 
ATOM     55  C   UNL A   1      48.205  29.890  27.846  1.00  0.00     0.049 A 
ATOM     56  C   UNL A   1      42.672  30.251  29.015  1.00  0.00     0.074 A 
ATOM     57  C   UNL A   1      48.978  30.968  28.241  1.00  0.00     0.029 A 
ATOM     58  N   UNL A   1      46.895  30.187  28.210  1.00  0.00    -0.354 N 
ATOM     59  N   UNL A   1      43.964  30.314  28.769  1.00  0.00    -0.248 NA
ATOM     60  C   UNL A   1      42.131  31.444  29.674  1.00  0.00     0.031 C 
ATOM     61  C   UNL A   1      48.147  31.890  28.886  1.00  0.00     0.029 A 
ATOM     62  C   UNL A   1      46.842  31.423  28.835  1.00  0.00     0.049 A 
ATOM     63  H   UNL A   1      46.120  29.603  28.048  1.00  0.00     0.167 HD
ATOM     64  C   UNL A   1      44.388  31.546  29.255  1.00  0.00     0.074 A 
ATOM     65  C   UNL A   1      43.203  32.220  29.749  1.00  0.00     0.031 C 
ATOM     66  C   UNL A   1      45.642  32.068  29.316  1.00  0.00     0.034 A 
BRANCH  53  67
ATOM     67  C   UNL A   1      50.092  28.485  26.874  1.00  0.00     0.023 A 
ATOM     68  C   UNL A   1      50.683  28.873  25.659  1.00  0.00     0.031 A 
ATOM     69  C   UNL A   1      50.919  27.879  27.839  1.00  0.00     0.131 A 
ATOM     70  C   UNL A   1      52.043  28.602  25.422  1.00  0.00     0.055 A 
ATOM     71  C   UNL A   1      52.284  27.676  27.625  1.00  0.00     0.041 A 
ATOM     72  F   UNL A   1      50.411  27.467  29.012  1.00  0.00    -0.206 F 
ATOM     73  C   UNL A   1      52.851  28.026  26.405  1.00  0.00     0.022 A 
BRANCH  70  74
ATOM     74  S   UNL A   1      52.713  28.895  23.761  1.00  0.00     0.124 S 
ATOM     75  O   UNL A   1      51.692  29.761  23.178  1.00  0.00    -0.237 OA
ATOM     76  O   UNL A   1      53.996  29.526  24.049  1.00  0.00    -0.237 OA
ATOM     77  O   UNL A   1      52.792  27.557  23.181  1.00  0.00    -0.744 OA
ENDBRANCH  70  74
ENDBRANCH  53  67
BRANCH  54  78
ATOM     78  C   UNL A   1      40.295  29.089  29.224  1.00  0.00     0.023 A 
ATOM     79  C   UNL A   1      39.969  28.902  30.580  1.00  0.00     0.031 A 
ATOM     80  C   UNL A   1      39.214  29.271  28.332  1.00  0.00     0.131 A 
ATOM     81  C   UNL A   1      38.623  28.939  30.999  1.00  0.00     0.055 A 
ATOM     82  C   UNL A   1      37.891  29.387  28.762  1.00  0.00     0.041 A 
ATOM     83  F   UNL A   1      39.432  29.391  27.012  1.00  0.00    -0.206 F 
ATOM     84  C   UNL A   1      37.590  29.220  30.103  1.00  0.00     0.022 A 
BRANCH  81  85
ATOM     85  S   UNL A   1      38.166  28.515  32.706  1.00  0.00     0.124 S 
ATOM     86  O   UNL A   1      38.265  27.061  32.718  1.00  0.00    -0.237 OA
ATOM     87  O   UNL A   1      39.179  29.234  33.474  1.00  0.00    -0.237 OA
ATOM     88  O   UNL A   1      36.807  29.039  32.830  1.00  0.00    -0.744 OA
ENDBRANCH  81  85
ENDBRANCH  54  78
BRANCH  66  89
ATOM     89  C   UNL A   1      45.780  33.438  29.932  1.00  0.00     0.023 A 
ATOM     90  C   UNL A   1      46.053  33.599  31.302  1.00  0.00     0.031 A 
ATOM     91  C   UNL A   1      45.651  34.595  29.143  1.00  0.00     0.131 A 
ATOM     92  C   UNL A   1      46.130  34.885  31.854  1.00  0.00     0.055 A 
ATOM     93  C   UNL A   1      45.789  35.873  29.687  1.00  0.00     0.041 A 
ATOM     94  F   UNL A   1      45.394  34.501  27.829  1.00  0.00    -0.206 F 
ATOM     95  C   UNL A   1      46.017  36.023  31.053  1.00  0.00     0.022 A 
BRANCH  92  96
ATOM     96  S   UNL A   1      46.291  35.050  33.652  1.00  0.00     0.124 S 
ATOM     97  O   UNL A   1      47.144  36.227  33.773  1.00  0.00    -0.237 OA
ATOM     98  O   UNL A   1      44.904  35.218  34.076  1.00  0.00    -0.237 OA
ATOM     99  O   UNL A   1      46.914  33.791  34.056  1.00  0.00    -0.744 OA
ENDBRANCH  92  96
ENDBRANCH  66  89
ENDBRANCH  40  41
ENDBRANCH  33  35
ENDBRANCH  32  33
ENDBRANCH  31  32
ENDBRANCH   1  31
TORSDOF 19
ENDMDL
MODEL 3
REMARK VINA RESULT:     -12.4      3.482      9.648
REMARK SMILES C[C@@H](C(=O)OCCOC(=O)c1ccc(-c2c3nc(c(-c4cc(S(=O)(=O)[O-])ccc4F)c4ccc([nH]4)c(-c4cc(S(=O)(=O)[O-])ccc4F)c4nc(c(-c5cc(S(=O)(=O)[O-])ccc5F)c5ccc2[nH]5)C=C4)C=C3)cc1)c1ccc(-c2cccc(OC(=O)Nc3ccccc3)c2)c(F)c1
REMARK SMILES IDX 6 1 5 2 3 3 4 4 2 5 1 6 74 7 75 8 96 9 76 10 94 11 77 12
REMARK SMILES IDX 95 13 78 14 79 15 93 16 80 17 82 18 81 19 83 20 84 21 85 22
REMARK SMILES IDX 86 23 87 25 88 26 92 27 89 28 91 29 90 30 7 31 8 32 9 33
REMARK SMILES IDX 10 34 11 35 12 36 73 37 13 38 72 39 14 40 15 41 16 42 66 43
REMARK SMILES IDX 17 44 71 45 65 46 67 47 18 48 70 49 64 50 63 51 19 53 51 54
REMARK SMILES IDX 31 55 50 56 32 57 35 58 49 59 68 60 33 61 34 62 48 64 69 65
REMARK SMILES IDX 36 66 20 67 21 68 29 69 22 70 28 71 30 72 27 73 23 74 24 75
REMARK SMILES IDX 25 76 26 77 52 78 53 79 61 80 54 81 60 82 62 83 59 84 55 85
REMARK SMILES IDX 56 86 57 87 58 88 37 89 38 90 46 91 39 92 45 93 47 94 44 95
REMARK SMILES IDX 40 96 41 97 42 98 43 99
REMARK H PARENT 86 24 67 52 35 63
REMARK Flexibility Score: inf
ROOT
ATOM      1  C   UNL A   1      42.833  18.716  26.632  1.00  0.00     0.274 C 
ENDROOT
BRANCH   1   2
ATOM      2  O   UNL A   1      41.926  19.788  26.304  1.00  0.00    -0.462 OA
BRANCH   2   3
ATOM      3  C   UNL A   1      41.304  20.410  27.345  1.00  0.00     0.313 C 
ATOM      4  O   UNL A   1      40.775  19.815  28.277  1.00  0.00    -0.252 OA
BRANCH   3   5
ATOM      5  C   UNL A   1      41.271  21.936  27.186  1.00  0.00     0.126 C 
ATOM      6  C   UNL A   1      41.577  22.700  28.476  1.00  0.00     0.025 C 
BRANCH   5   7
ATOM      7  C   UNL A   1      39.980  22.402  26.524  1.00  0.00    -0.031 A 
ATOM      8  C   UNL A   1      39.458  23.688  26.708  1.00  0.00     0.005 A 
ATOM      9  C   UNL A   1      39.237  21.507  25.746  1.00  0.00     0.044 A 
ATOM     10  C   UNL A   1      38.205  24.041  26.181  1.00  0.00     0.012 A 
ATOM     11  C   UNL A   1      37.995  21.872  25.215  1.00  0.00     0.131 A 
ATOM     12  C   UNL A   1      37.415  23.127  25.457  1.00  0.00     0.018 A 
ATOM     13  F   UNL A   1      37.363  20.951  24.470  1.00  0.00    -0.206 F 
BRANCH  12  14
ATOM     14  C   UNL A   1      36.013  23.451  25.077  1.00  0.00    -0.012 A 
ATOM     15  C   UNL A   1      35.535  23.275  23.762  1.00  0.00     0.009 A 
ATOM     16  C   UNL A   1      35.121  24.024  26.008  1.00  0.00     0.056 A 
ATOM     17  C   UNL A   1      34.248  23.674  23.385  1.00  0.00     0.004 A 
ATOM     18  C   UNL A   1      33.833  24.397  25.634  1.00  0.00     0.133 A 
ATOM     19  C   UNL A   1      33.394  24.239  24.324  1.00  0.00     0.047 A 
BRANCH  18  20
ATOM     20  O   UNL A   1      32.860  24.903  26.529  1.00  0.00    -0.410 OA
BRANCH  20  21
ATOM     21  C   UNL A   1      31.476  24.763  26.501  1.00  0.00     0.417 C 
ATOM     22  O   UNL A   1      30.873  23.694  26.556  1.00  0.00    -0.224 OA
ATOM     23  N   UNL A   1      30.787  25.949  26.434  1.00  0.00    -0.291 N 
ATOM     24  H   UNL A   1      29.808  25.856  26.478  1.00  0.00     0.173 HD
BRANCH  23  25
ATOM     25  C   UNL A   1      31.242  27.277  26.313  1.00  0.00     0.044 A 
ATOM     26  C   UNL A   1      31.304  27.796  25.018  1.00  0.00     0.026 A 
ATOM     27  C   UNL A   1      31.600  28.108  27.375  1.00  0.00     0.026 A 
ATOM     28  C   UNL A   1      31.602  29.142  24.796  1.00  0.00     0.002 A 
ATOM     29  C   UNL A   1      31.919  29.453  27.155  1.00  0.00     0.002 A 
ATOM     30  C   UNL A   1      31.895  29.976  25.867  1.00  0.00     0.000 A 
ENDBRANCH  23  25
ENDBRANCH  20  21
ENDBRANCH  18  20
ENDBRANCH  12  14
ENDBRANCH   5   7
ENDBRANCH   3   5
ENDBRANCH   2   3
ENDBRANCH   1   2
BRANCH   1  31
ATOM     31  C   UNL A   1      43.717  18.380  25.436  1.00  0.00     0.275 C 
BRANCH  31  32
ATOM     32  O   UNL A   1      44.798  19.322  25.358  1.00  0.00    -0.458 OA
BRANCH  32  33
ATOM     33  C   UNL A   1      44.697  20.252  24.380  1.00  0.00     0.338 C 
ATOM     34  O   UNL A   1      44.706  20.064  23.177  1.00  0.00    -0.246 OA
BRANCH  33  35
ATOM     35  C   UNL A   1      44.546  21.584  24.985  1.00  0.00     0.060 A 
ATOM     36  C   UNL A   1      43.956  22.607  24.249  1.00  0.00     0.016 A 
ATOM     37  C   UNL A   1      45.128  21.854  26.224  1.00  0.00     0.016 A 
ATOM     38  C   UNL A   1      44.059  23.922  24.698  1.00  0.00     0.010 A 
ATOM     39  C   UNL A   1      45.135  23.166  26.714  1.00  0.00     0.010 A 
ATOM     40  C   UNL A   1      44.657  24.231  25.929  1.00  0.00    -0.014 A 
BRANCH  40  41
ATOM     41  C   UNL A   1      44.856  25.656  26.348  1.00  0.00     0.031 A 
ATOM     42  C   UNL A   1      46.211  26.306  26.177  1.00  0.00     0.074 A 
ATOM     43  C   UNL A   1      43.830  26.377  26.849  1.00  0.00     0.049 A 
ATOM     44  N   UNL A   1      46.660  27.439  26.652  1.00  0.00    -0.248 NA
ATOM     45  C   UNL A   1      47.205  25.568  25.378  1.00  0.00     0.031 C 
ATOM     46  C   UNL A   1      42.459  25.885  27.002  1.00  0.00     0.029 A 
ATOM     47  N   UNL A   1      43.763  27.671  27.316  1.00  0.00    -0.354 N 
ATOM     48  C   UNL A   1      47.997  27.517  26.270  1.00  0.00     0.074 A 
ATOM     49  C   UNL A   1      48.292  26.310  25.530  1.00  0.00     0.031 C 
ATOM     50  C   UNL A   1      41.688  26.864  27.490  1.00  0.00     0.029 A 
ATOM     51  C   UNL A   1      42.524  28.014  27.817  1.00  0.00     0.049 A 
ATOM     52  H   UNL A   1      44.526  28.293  27.295  1.00  0.00     0.167 HD
ATOM     53  C   UNL A   1      48.889  28.508  26.519  1.00  0.00     0.034 A 
ATOM     54  C   UNL A   1      42.110  29.089  28.526  1.00  0.00     0.034 A 
ATOM     55  C   UNL A   1      48.536  29.738  27.188  1.00  0.00     0.049 A 
ATOM     56  C   UNL A   1      43.106  30.203  28.739  1.00  0.00     0.074 A 
ATOM     57  C   UNL A   1      49.347  30.818  27.494  1.00  0.00     0.029 A 
ATOM     58  N   UNL A   1      47.259  30.062  27.636  1.00  0.00    -0.354 N 
ATOM     59  N   UNL A   1      44.378  30.243  28.399  1.00  0.00    -0.248 NA
ATOM     60  C   UNL A   1      42.626  31.421  29.398  1.00  0.00     0.031 C 
ATOM     61  C   UNL A   1      48.574  31.769  28.169  1.00  0.00     0.029 A 
ATOM     62  C   UNL A   1      47.264  31.316  28.225  1.00  0.00     0.049 A 
ATOM     63  H   UNL A   1      46.468  29.483  27.548  1.00  0.00     0.167 HD
ATOM     64  C   UNL A   1      44.848  31.483  28.816  1.00  0.00     0.074 A 
ATOM     65  C   UNL A   1      43.709  32.186  29.373  1.00  0.00     0.031 C 
ATOM     66  C   UNL A   1      46.108  31.991  28.771  1.00  0.00     0.034 A 
BRANCH  53  67
ATOM     67  C   UNL A   1      50.334  28.282  26.127  1.00  0.00     0.023 A 
ATOM     68  C   UNL A   1      50.820  28.547  24.836  1.00  0.00     0.031 A 
ATOM     69  C   UNL A   1      51.243  27.775  27.077  1.00  0.00     0.131 A 
ATOM     70  C   UNL A   1      52.159  28.255  24.515  1.00  0.00     0.055 A 
ATOM     71  C   UNL A   1      52.587  27.553  26.772  1.00  0.00     0.041 A 
ATOM     72  F   UNL A   1      50.835  27.481  28.322  1.00  0.00    -0.206 F 
ATOM     73  C   UNL A   1      53.050  27.780  25.481  1.00  0.00     0.022 A 
BRANCH  70  74
ATOM     74  S   UNL A   1      52.689  28.383  22.785  1.00  0.00     0.124 S 
ATOM     75  O   UNL A   1      53.060  29.792  22.691  1.00  0.00    -0.237 OA
ATOM     76  O   UNL A   1      53.789  27.427  22.723  1.00  0.00    -0.237 OA
ATOM     77  O   UNL A   1      51.495  28.008  22.031  1.00  0.00    -0.744 OA
ENDBRANCH  70  74
ENDBRANCH  53  67
BRANCH  54  78
ATOM     78  C   UNL A   1      40.738  29.077  29.153  1.00  0.00     0.023 A 
ATOM     79  C   UNL A   1      40.509  28.941  30.534  1.00  0.00     0.031 A 
ATOM     80  C   UNL A   1      39.597  29.240  28.334  1.00  0.00     0.131 A 
ATOM     81  C   UNL A   1      39.196  29.007  31.047  1.00  0.00     0.055 A 
ATOM     82  C   UNL A   1      38.309  29.384  28.853  1.00  0.00     0.041 A 
ATOM     83  F   UNL A   1      39.721  29.312  26.998  1.00  0.00    -0.206 F 
ATOM     84  C   UNL A   1      38.104  29.267  30.217  1.00  0.00     0.022 A 
BRANCH  81  85
ATOM     85  S   UNL A   1      38.860  28.647  32.795  1.00  0.00     0.124 S 
ATOM     86  O   UNL A   1      39.736  27.515  33.069  1.00  0.00    -0.237 OA
ATOM     87  O   UNL A   1      39.221  29.909  33.435  1.00  0.00    -0.237 OA
ATOM     88  O   UNL A   1      37.432  28.335  32.805  1.00  0.00    -0.744 OA
ENDBRANCH  81  85
ENDBRANCH  54  78
BRANCH  66  89
ATOM     89  C   UNL A   1      46.305  33.377  29.334  1.00  0.00     0.023 A 
ATOM     90  C   UNL A   1      46.187  34.518  28.522  1.00  0.00     0.031 A 
ATOM     91  C   UNL A   1      46.602  33.560  30.696  1.00  0.00     0.131 A 
ATOM     92  C   UNL A   1      46.421  35.790  29.064  1.00  0.00     0.055 A 
ATOM     93  C   UNL A   1      46.775  34.833  31.243  1.00  0.00     0.041 A 
ATOM     94  F   UNL A   1      46.723  32.506  31.518  1.00  0.00    -0.206 F 
ATOM     95  C   UNL A   1      46.698  35.956  30.423  1.00  0.00     0.022 A 
BRANCH  92  96
ATOM     96  S   UNL A   1      46.449  37.218  27.948  1.00  0.00     0.124 S 
ATOM     97  O   UNL A   1      47.745  37.065  27.295  1.00  0.00    -0.237 OA
ATOM     98  O   UNL A   1      45.278  36.983  27.110  1.00  0.00    -0.237 OA
ATOM     99  O   UNL A   1      46.344  38.361  28.854  1.00  0.00    -0.744 OA
ENDBRANCH  92  96
ENDBRANCH  66  89
ENDBRANCH  40  41
ENDBRANCH  33  35
ENDBRANCH  32  33
ENDBRANCH  31  32
ENDBRANCH   1  31
TORSDOF 19
ENDMDL
