MODEL 1
REMARK VINA RESULT:      -9.9      0.000      0.000
REMARK SMILES O=C(Cc1ccc(O)cc1)N[C@H]1C=C[C@H](C(=O)OCCOC(=O)c2ccc(-c3c4nc(c(-c5cc(S(=O)(=O)[O-])ccc5F)c5ccc([nH]5)c(-c5cc(S(=O)(=O)[O-])ccc5F)c5nc(c(-c6cc(S(=O)(=O)[O-])ccc6F)c6ccc3[nH]6)C=C5)C=C4)cc2)C1
REMARK SMILES IDX 19 1 18 2 16 3 17 4 15 5 12 6 13 7 87 8 14 9 11 10 1 11 2 12
REMARK SMILES IDX 3 14 4 15 5 16 10 17 6 18 9 19 7 20 8 21 20 23 21 24 22 25
REMARK SMILES IDX 23 26 24 27 25 28 86 29 26 30 85 31 27 32 28 33 29 34 79 35
REMARK SMILES IDX 30 36 84 37 78 38 80 39 31 40 83 41 77 42 76 43 32 45 64 46
REMARK SMILES IDX 44 47 63 48 45 49 48 50 62 51 81 52 46 53 47 54 61 56 82 57
REMARK SMILES IDX 49 58 33 59 34 60 42 61 35 62 41 63 43 64 40 65 36 66 37 67
REMARK SMILES IDX 38 68 39 69 65 70 66 71 74 72 67 73 73 74 75 75 72 76 68 77
REMARK SMILES IDX 69 78 70 79 71 80 50 81 51 82 59 83 52 84 58 85 60 86 57 87
REMARK SMILES IDX 53 88 54 89 55 90 56 91
REMARK H PARENT 11 13 8 22 80 44 48 55
REMARK Flexibility Score: inf
ROOT
ATOM      1  C   UNL A   1      33.110  35.075  28.797  1.00  0.00     0.274 C 
ENDROOT
BRANCH   1   2
ATOM      2  O   UNL A   1      33.080  34.772  30.203  1.00  0.00    -0.462 OA
BRANCH   2   3
ATOM      3  C   UNL A   1      32.915  35.834  31.041  1.00  0.00     0.312 C 
ATOM      4  O   UNL A   1      31.845  36.394  31.244  1.00  0.00    -0.252 OA
BRANCH   3   5
ATOM      5  C   UNL A   1      34.209  36.161  31.784  1.00  0.00     0.124 C 
ATOM      6  C   UNL A   1      34.749  34.512  33.484  1.00  0.00     0.106 C 
ATOM      7  C   UNL A   1      34.294  35.787  34.108  1.00  0.00    -0.006 C 
ATOM      8  C   UNL A   1      35.055  34.903  32.039  1.00  0.00     0.048 C 
ATOM      9  C   UNL A   1      33.985  36.691  33.171  1.00  0.00    -0.014 C 
BRANCH   6  10
ATOM     10  N   UNL A   1      35.854  33.913  34.189  1.00  0.00    -0.350 N 
ATOM     11  O   UNL A   1      36.068  31.953  32.994  1.00  0.00    -0.275 OA
ATOM     12  C   UNL A   1      36.416  32.683  33.918  1.00  0.00     0.224 C 
ATOM     13  H   UNL A   1      36.243  34.429  34.931  1.00  0.00     0.164 HD
BRANCH  12  14
ATOM     14  C   UNL A   1      37.480  32.243  34.917  1.00  0.00     0.135 C 
BRANCH  14  15
ATOM     15  C   UNL A   1      38.292  33.388  35.478  1.00  0.00    -0.038 A 
ATOM     16  C   UNL A   1      39.026  34.219  34.618  1.00  0.00     0.008 A 
ATOM     17  C   UNL A   1      38.269  33.675  36.851  1.00  0.00     0.008 A 
ATOM     18  C   UNL A   1      39.717  35.323  35.122  1.00  0.00     0.046 A 
ATOM     19  C   UNL A   1      38.946  34.787  37.351  1.00  0.00     0.046 A 
ATOM     20  C   UNL A   1      39.662  35.602  36.485  1.00  0.00     0.115 A 
BRANCH  20  21
ATOM     21  O   UNL A   1      40.305  36.683  37.013  1.00  0.00    -0.508 OA
ATOM     22  H   UNL A   1      40.411  36.757  37.942  1.00  0.00     0.293 HD
ENDBRANCH  20  21
ENDBRANCH  14  15
ENDBRANCH  12  14
ENDBRANCH   6  10
ENDBRANCH   3   5
ENDBRANCH   2   3
ENDBRANCH   1   2
BRANCH   1  23
ATOM     23  C   UNL A   1      33.999  34.075  28.050  1.00  0.00     0.275 C 
BRANCH  23  24
ATOM     24  O   UNL A   1      34.454  33.009  28.906  1.00  0.00    -0.458 OA
BRANCH  24  25
ATOM     25  C   UNL A   1      34.507  31.786  28.326  1.00  0.00     0.338 C 
ATOM     26  O   UNL A   1      33.707  31.315  27.536  1.00  0.00    -0.246 OA
BRANCH  25  27
ATOM     27  C   UNL A   1      35.764  31.113  28.696  1.00  0.00     0.060 A 
ATOM     28  C   UNL A   1      35.695  29.943  29.458  1.00  0.00     0.016 A 
ATOM     29  C   UNL A   1      37.000  31.669  28.360  1.00  0.00     0.016 A 
ATOM     30  C   UNL A   1      36.864  29.323  29.893  1.00  0.00     0.010 A 
ATOM     31  C   UNL A   1      38.172  31.043  28.795  1.00  0.00     0.010 A 
ATOM     32  C   UNL A   1      38.111  29.871  29.569  1.00  0.00    -0.014 A 
BRANCH  32  33
ATOM     33  C   UNL A   1      39.354  29.237  30.074  1.00  0.00     0.031 A 
ATOM     34  C   UNL A   1      40.036  29.797  31.288  1.00  0.00     0.074 A 
ATOM     35  C   UNL A   1      39.859  28.162  29.442  1.00  0.00     0.049 A 
ATOM     36  N   UNL A   1      41.183  29.464  31.822  1.00  0.00    -0.248 NA
ATOM     37  C   UNL A   1      39.334  30.881  31.992  1.00  0.00     0.031 C 
ATOM     38  C   UNL A   1      39.249  27.502  28.286  1.00  0.00     0.029 A 
ATOM     39  N   UNL A   1      41.003  27.442  29.675  1.00  0.00    -0.354 N 
ATOM     40  C   UNL A   1      41.350  30.305  32.917  1.00  0.00     0.074 A 
ATOM     41  C   UNL A   1      40.196  31.180  32.953  1.00  0.00     0.031 C 
ATOM     42  C   UNL A   1      40.030  26.477  27.907  1.00  0.00     0.029 A 
ATOM     43  C   UNL A   1      41.220  26.444  28.752  1.00  0.00     0.049 A 
ATOM     44  H   UNL A   1      41.609  27.621  30.429  1.00  0.00     0.167 HD
ATOM     45  C   UNL A   1      42.372  30.337  33.809  1.00  0.00     0.034 A 
ATOM     46  C   UNL A   1      42.278  25.626  28.584  1.00  0.00     0.034 A 
ATOM     47  C   UNL A   1      43.514  29.455  33.751  1.00  0.00     0.049 A 
ATOM     48  C   UNL A   1      43.448  25.748  29.527  1.00  0.00     0.074 A 
ATOM     49  C   UNL A   1      44.597  29.388  34.610  1.00  0.00     0.029 A 
ATOM     50  N   UNL A   1      43.728  28.496  32.769  1.00  0.00    -0.354 N 
ATOM     51  N   UNL A   1      43.602  26.555  30.552  1.00  0.00    -0.248 NA
ATOM     52  C   UNL A   1      44.588  24.853  29.288  1.00  0.00     0.031 C 
ATOM     53  C   UNL A   1      45.495  28.439  34.111  1.00  0.00     0.029 A 
ATOM     54  C   UNL A   1      44.942  27.860  32.979  1.00  0.00     0.049 A 
ATOM     55  H   UNL A   1      43.109  28.295  32.031  1.00  0.00     0.167 HD
ATOM     56  C   UNL A   1      44.849  26.250  31.090  1.00  0.00     0.074 A 
ATOM     57  C   UNL A   1      45.396  25.176  30.287  1.00  0.00     0.031 C 
ATOM     58  C   UNL A   1      45.483  26.804  32.155  1.00  0.00     0.034 A 
BRANCH  45  59
ATOM     59  C   UNL A   1      42.322  31.398  34.880  1.00  0.00     0.023 A 
ATOM     60  C   UNL A   1      42.831  32.691  34.671  1.00  0.00     0.031 A 
ATOM     61  C   UNL A   1      41.779  31.100  36.143  1.00  0.00     0.131 A 
ATOM     62  C   UNL A   1      42.849  33.616  35.728  1.00  0.00     0.055 A 
ATOM     63  C   UNL A   1      41.733  32.047  37.168  1.00  0.00     0.041 A 
ATOM     64  F   UNL A   1      41.298  29.875  36.408  1.00  0.00    -0.206 F 
ATOM     65  C   UNL A   1      42.283  33.309  36.968  1.00  0.00     0.022 A 
BRANCH  62  66
ATOM     66  S   UNL A   1      43.744  35.177  35.503  1.00  0.00     0.124 S 
ATOM     67  O   UNL A   1      43.185  35.996  36.576  1.00  0.00    -0.237 OA
ATOM     68  O   UNL A   1      45.135  34.770  35.668  1.00  0.00    -0.237 OA
ATOM     69  O   UNL A   1      43.372  35.595  34.152  1.00  0.00    -0.744 OA
ENDBRANCH  62  66
ENDBRANCH  45  59
BRANCH  46  70
ATOM     70  C   UNL A   1      42.313  24.667  27.444  1.00  0.00     0.023 A 
ATOM     71  C   UNL A   1      41.561  23.484  27.465  1.00  0.00     0.031 A 
ATOM     72  C   UNL A   1      43.139  24.905  26.328  1.00  0.00     0.131 A 
ATOM     73  C   UNL A   1      41.676  22.564  26.410  1.00  0.00     0.055 A 
ATOM     74  C   UNL A   1      43.210  24.013  25.259  1.00  0.00     0.041 A 
ATOM     75  F   UNL A   1      43.882  26.021  26.260  1.00  0.00    -0.206 F 
ATOM     76  C   UNL A   1      42.485  22.827  25.302  1.00  0.00     0.022 A 
BRANCH  73  77
ATOM     77  S   UNL A   1      40.808  20.977  26.542  1.00  0.00     0.124 S 
ATOM     78  O   UNL A   1      39.497  21.308  25.995  1.00  0.00    -0.237 OA
ATOM     79  O   UNL A   1      41.644  20.106  25.722  1.00  0.00    -0.237 OA
ATOM     80  O   UNL A   1      40.833  20.692  27.974  1.00  0.00    -0.744 OA
ENDBRANCH  73  77
ENDBRANCH  46  70
BRANCH  58  81
ATOM     81  C   UNL A   1      46.826  26.228  32.523  1.00  0.00     0.023 A 
ATOM     82  C   UNL A   1      46.947  25.145  33.412  1.00  0.00     0.031 A 
ATOM     83  C   UNL A   1      48.004  26.776  31.983  1.00  0.00     0.131 A 
ATOM     84  C   UNL A   1      48.219  24.673  33.770  1.00  0.00     0.055 A 
ATOM     85  C   UNL A   1      49.263  26.267  32.301  1.00  0.00     0.041 A 
ATOM     86  F   UNL A   1      47.946  27.812  31.132  1.00  0.00    -0.206 F 
ATOM     87  C   UNL A   1      49.377  25.217  33.207  1.00  0.00     0.022 A 
BRANCH  84  88
ATOM     88  S   UNL A   1      48.346  23.382  35.037  1.00  0.00     0.124 S 
ATOM     89  O   UNL A   1      49.476  22.594  34.556  1.00  0.00    -0.237 OA
ATOM     90  O   UNL A   1      48.579  24.156  36.251  1.00  0.00    -0.237 OA
ATOM     91  O   UNL A   1      47.050  22.709  34.972  1.00  0.00    -0.744 OA
ENDBRANCH  84  88
ENDBRANCH  58  81
ENDBRANCH  32  33
ENDBRANCH  25  27
ENDBRANCH  24  25
ENDBRANCH  23  24
ENDBRANCH   1  23
TORSDOF 18
ENDMDL
MODEL 2
REMARK VINA RESULT:      -9.7      3.962     10.341
REMARK SMILES O=C(Cc1ccc(O)cc1)N[C@H]1C=C[C@H](C(=O)OCCOC(=O)c2ccc(-c3c4nc(c(-c5cc(S(=O)(=O)[O-])ccc5F)c5ccc([nH]5)c(-c5cc(S(=O)(=O)[O-])ccc5F)c5nc(c(-c6cc(S(=O)(=O)[O-])ccc6F)c6ccc3[nH]6)C=C5)C=C4)cc2)C1
REMARK SMILES IDX 19 1 18 2 16 3 17 4 15 5 12 6 13 7 87 8 14 9 11 10 1 11 2 12
REMARK SMILES IDX 3 14 4 15 5 16 10 17 6 18 9 19 7 20 8 21 20 23 21 24 22 25
REMARK SMILES IDX 23 26 24 27 25 28 86 29 26 30 85 31 27 32 28 33 29 34 79 35
REMARK SMILES IDX 30 36 84 37 78 38 80 39 31 40 83 41 77 42 76 43 32 45 64 46
REMARK SMILES IDX 44 47 63 48 45 49 48 50 62 51 81 52 46 53 47 54 61 56 82 57
REMARK SMILES IDX 49 58 33 59 34 60 42 61 35 62 41 63 43 64 40 65 36 66 37 67
REMARK SMILES IDX 38 68 39 69 65 70 66 71 74 72 67 73 73 74 75 75 72 76 68 77
REMARK SMILES IDX 69 78 70 79 71 80 50 81 51 82 59 83 52 84 58 85 60 86 57 87
REMARK SMILES IDX 53 88 54 89 55 90 56 91
REMARK H PARENT 11 13 8 22 80 44 48 55
REMARK Flexibility Score: inf
ROOT
ATOM      1  C   UNL A   1      31.818  29.614  24.652  1.00  0.00     0.274 C 
ENDROOT
BRANCH   1   2
ATOM      2  O   UNL A   1      30.680  28.821  24.271  1.00  0.00    -0.462 OA
BRANCH   2   3
ATOM      3  C   UNL A   1      30.540  28.576  22.938  1.00  0.00     0.312 C 
ATOM      4  O   UNL A   1      30.465  29.446  22.080  1.00  0.00    -0.252 OA
BRANCH   3   5
ATOM      5  C   UNL A   1      30.605  27.079  22.639  1.00  0.00     0.124 C 
ATOM      6  C   UNL A   1      32.127  25.899  24.120  1.00  0.00     0.106 C 
ATOM      7  C   UNL A   1      32.697  26.004  22.747  1.00  0.00    -0.006 C 
ATOM      8  C   UNL A   1      30.650  26.240  23.927  1.00  0.00     0.048 C 
ATOM      9  C   UNL A   1      31.863  26.664  21.934  1.00  0.00    -0.014 C 
BRANCH   6  10
ATOM     10  N   UNL A   1      32.370  24.615  24.726  1.00  0.00    -0.350 N 
ATOM     11  O   UNL A   1      31.808  25.096  26.909  1.00  0.00    -0.275 OA
ATOM     12  C   UNL A   1      32.221  24.308  26.062  1.00  0.00     0.224 C 
ATOM     13  H   UNL A   1      32.669  23.890  24.131  1.00  0.00     0.164 HD
BRANCH  12  14
ATOM     14  C   UNL A   1      32.686  22.907  26.442  1.00  0.00     0.135 C 
BRANCH  14  15
ATOM     15  C   UNL A   1      34.128  22.631  26.081  1.00  0.00    -0.038 A 
ATOM     16  C   UNL A   1      34.463  21.483  25.347  1.00  0.00     0.008 A 
ATOM     17  C   UNL A   1      35.136  23.547  26.416  1.00  0.00     0.008 A 
ATOM     18  C   UNL A   1      35.782  21.261  24.946  1.00  0.00     0.046 A 
ATOM     19  C   UNL A   1      36.450  23.332  26.001  1.00  0.00     0.046 A 
ATOM     20  C   UNL A   1      36.763  22.194  25.269  1.00  0.00     0.115 A 
BRANCH  20  21
ATOM     21  O   UNL A   1      38.058  22.026  24.877  1.00  0.00    -0.508 OA
ATOM     22  H   UNL A   1      38.468  22.664  24.327  1.00  0.00     0.293 HD
ENDBRANCH  20  21
ENDBRANCH  14  15
ENDBRANCH  12  14
ENDBRANCH   6  10
ENDBRANCH   3   5
ENDBRANCH   2   3
ENDBRANCH   1   2
BRANCH   1  23
ATOM     23  C   UNL A   1      31.529  30.388  25.941  1.00  0.00     0.275 C 
BRANCH  23  24
ATOM     24  O   UNL A   1      32.606  30.280  26.892  1.00  0.00    -0.458 OA
BRANCH  24  25
ATOM     25  C   UNL A   1      33.228  31.445  27.195  1.00  0.00     0.338 C 
ATOM     26  O   UNL A   1      32.762  32.567  27.111  1.00  0.00    -0.246 OA
BRANCH  25  27
ATOM     27  C   UNL A   1      34.554  31.165  27.774  1.00  0.00     0.060 A 
ATOM     28  C   UNL A   1      34.839  29.861  28.191  1.00  0.00     0.016 A 
ATOM     29  C   UNL A   1      35.479  32.191  27.974  1.00  0.00     0.016 A 
ATOM     30  C   UNL A   1      36.051  29.576  28.813  1.00  0.00     0.010 A 
ATOM     31  C   UNL A   1      36.698  31.902  28.596  1.00  0.00     0.010 A 
ATOM     32  C   UNL A   1      36.988  30.595  29.026  1.00  0.00    -0.014 A 
BRANCH  32  33
ATOM     33  C   UNL A   1      38.258  30.300  29.733  1.00  0.00     0.031 A 
ATOM     34  C   UNL A   1      39.252  29.358  29.118  1.00  0.00     0.074 A 
ATOM     35  C   UNL A   1      38.513  30.883  30.919  1.00  0.00     0.049 A 
ATOM     36  N   UNL A   1      40.363  28.883  29.619  1.00  0.00    -0.248 NA
ATOM     37  C   UNL A   1      38.950  28.885  27.758  1.00  0.00     0.031 C 
ATOM     38  C   UNL A   1      37.643  31.855  31.583  1.00  0.00     0.029 A 
ATOM     39  N   UNL A   1      39.570  30.734  31.780  1.00  0.00    -0.354 N 
ATOM     40  C   UNL A   1      40.889  28.042  28.643  1.00  0.00     0.074 A 
ATOM     41  C   UNL A   1      39.959  28.056  27.532  1.00  0.00     0.031 C 
ATOM     42  C   UNL A   1      38.200  32.211  32.752  1.00  0.00     0.029 A 
ATOM     43  C   UNL A   1      39.431  31.452  32.947  1.00  0.00     0.049 A 
ATOM     44  H   UNL A   1      40.352  30.170  31.583  1.00  0.00     0.167 HD
ATOM     45  C   UNL A   1      42.044  27.331  28.675  1.00  0.00     0.034 A 
ATOM     46  C   UNL A   1      40.190  31.461  34.061  1.00  0.00     0.034 A 
ATOM     47  C   UNL A   1      42.954  27.331  29.796  1.00  0.00     0.049 A 
ATOM     48  C   UNL A   1      41.415  30.584  34.113  1.00  0.00     0.074 A 
ATOM     49  C   UNL A   1      44.159  26.662  29.930  1.00  0.00     0.029 A 
ATOM     50  N   UNL A   1      42.753  28.024  30.983  1.00  0.00    -0.354 N 
ATOM     51  N   UNL A   1      41.898  29.783  33.191  1.00  0.00    -0.248 NA
ATOM     52  C   UNL A   1      42.195  30.609  35.358  1.00  0.00     0.031 C 
ATOM     53  C   UNL A   1      44.650  26.896  31.219  1.00  0.00     0.029 A 
ATOM     54  C   UNL A   1      43.790  27.768  31.868  1.00  0.00     0.049 A 
ATOM     55  H   UNL A   1      41.986  28.611  31.171  1.00  0.00     0.167 HD
ATOM     56  C   UNL A   1      43.048  29.224  33.739  1.00  0.00     0.074 A 
ATOM     57  C   UNL A   1      43.196  29.791  35.063  1.00  0.00     0.031 C 
ATOM     58  C   UNL A   1      43.910  28.326  33.195  1.00  0.00     0.034 A 
BRANCH  45  59
ATOM     59  C   UNL A   1      42.348  26.451  27.488  1.00  0.00     0.023 A 
ATOM     60  C   UNL A   1      41.905  25.119  27.415  1.00  0.00     0.031 A 
ATOM     61  C   UNL A   1      43.119  26.947  26.421  1.00  0.00     0.131 A 
ATOM     62  C   UNL A   1      42.292  24.310  26.335  1.00  0.00     0.055 A 
ATOM     63  C   UNL A   1      43.439  26.160  25.314  1.00  0.00     0.041 A 
ATOM     64  F   UNL A   1      43.588  28.205  26.445  1.00  0.00    -0.206 F 
ATOM     65  C   UNL A   1      43.037  24.829  25.273  1.00  0.00     0.022 A 
BRANCH  62  66
ATOM     66  S   UNL A   1      41.923  22.535  26.401  1.00  0.00     0.124 S 
ATOM     67  O   UNL A   1      40.464  22.533  26.333  1.00  0.00    -0.237 OA
ATOM     68  O   UNL A   1      42.619  22.025  25.224  1.00  0.00    -0.237 OA
ATOM     69  O   UNL A   1      42.481  22.116  27.685  1.00  0.00    -0.744 OA
ENDBRANCH  62  66
ENDBRANCH  45  59
BRANCH  46  70
ATOM     70  C   UNL A   1      39.782  32.273  35.241  1.00  0.00     0.023 A 
ATOM     71  C   UNL A   1      38.994  31.725  36.264  1.00  0.00     0.031 A 
ATOM     72  C   UNL A   1      40.144  33.630  35.342  1.00  0.00     0.131 A 
ATOM     73  C   UNL A   1      38.561  32.538  37.324  1.00  0.00     0.055 A 
ATOM     74  C   UNL A   1      39.754  34.420  36.423  1.00  0.00     0.041 A 
ATOM     75  F   UNL A   1      40.894  34.204  34.389  1.00  0.00    -0.206 F 
ATOM     76  C   UNL A   1      38.947  33.877  37.417  1.00  0.00     0.022 A 
BRANCH  73  77
ATOM     77  S   UNL A   1      37.419  31.837  38.547  1.00  0.00     0.124 S 
ATOM     78  O   UNL A   1      38.202  31.930  39.774  1.00  0.00    -0.237 OA
ATOM     79  O   UNL A   1      36.276  32.739  38.445  1.00  0.00    -0.237 OA
ATOM     80  O   UNL A   1      37.185  30.481  38.057  1.00  0.00    -0.744 OA
ENDBRANCH  73  77
ENDBRANCH  46  70
BRANCH  58  81
ATOM     81  C   UNL A   1      45.102  27.934  34.029  1.00  0.00     0.023 A 
ATOM     82  C   UNL A   1      45.065  26.826  34.894  1.00  0.00     0.031 A 
ATOM     83  C   UNL A   1      46.290  28.684  33.962  1.00  0.00     0.131 A 
ATOM     84  C   UNL A   1      46.179  26.527  35.693  1.00  0.00     0.055 A 
ATOM     85  C   UNL A   1      47.413  28.349  34.719  1.00  0.00     0.041 A 
ATOM     86  F   UNL A   1      46.378  29.752  33.155  1.00  0.00    -0.206 F 
ATOM     87  C   UNL A   1      47.358  27.272  35.599  1.00  0.00     0.022 A 
BRANCH  84  88
ATOM     88  S   UNL A   1      46.045  25.191  36.913  1.00  0.00     0.124 S 
ATOM     89  O   UNL A   1      44.604  25.122  37.130  1.00  0.00    -0.237 OA
ATOM     90  O   UNL A   1      46.638  24.060  36.206  1.00  0.00    -0.237 OA
ATOM     91  O   UNL A   1      46.820  25.685  38.049  1.00  0.00    -0.744 OA
ENDBRANCH  84  88
ENDBRANCH  58  81
ENDBRANCH  32  33
ENDBRANCH  25  27
ENDBRANCH  24  25
ENDBRANCH  23  24
ENDBRANCH   1  23
TORSDOF 18
ENDMDL
MODEL 3
REMARK VINA RESULT:      -9.7      5.517     11.447
REMARK SMILES O=C(Cc1ccc(O)cc1)N[C@H]1C=C[C@H](C(=O)OCCOC(=O)c2ccc(-c3c4nc(c(-c5cc(S(=O)(=O)[O-])ccc5F)c5ccc([nH]5)c(-c5cc(S(=O)(=O)[O-])ccc5F)c5nc(c(-c6cc(S(=O)(=O)[O-])ccc6F)c6ccc3[nH]6)C=C5)C=C4)cc2)C1
REMARK SMILES IDX 19 1 18 2 16 3 17 4 15 5 12 6 13 7 87 8 14 9 11 10 1 11 2 12
REMARK SMILES IDX 3 14 4 15 5 16 10 17 6 18 9 19 7 20 8 21 20 23 21 24 22 25
REMARK SMILES IDX 23 26 24 27 25 28 86 29 26 30 85 31 27 32 28 33 29 34 79 35
REMARK SMILES IDX 30 36 84 37 78 38 80 39 31 40 83 41 77 42 76 43 32 45 64 46
REMARK SMILES IDX 44 47 63 48 45 49 48 50 62 51 81 52 46 53 47 54 61 56 82 57
REMARK SMILES IDX 49 58 33 59 34 60 42 61 35 62 41 63 43 64 40 65 36 66 37 67
REMARK SMILES IDX 38 68 39 69 65 70 66 71 74 72 67 73 73 74 75 75 72 76 68 77
REMARK SMILES IDX 69 78 70 79 71 80 50 81 51 82 59 83 52 84 58 85 60 86 57 87
REMARK SMILES IDX 53 88 54 89 55 90 56 91
REMARK H PARENT 11 13 8 22 80 44 48 55
REMARK Flexibility Score: inf
ROOT
ATOM      1  C   UNL A   1      35.690  20.750  25.155  1.00  0.00     0.274 C 
ENDROOT
BRANCH   1   2
ATOM      2  O   UNL A   1      34.677  19.751  24.948  1.00  0.00    -0.462 OA
BRANCH   2   3
ATOM      3  C   UNL A   1      33.417  20.215  24.711  1.00  0.00     0.312 C 
ATOM      4  O   UNL A   1      32.393  19.645  25.069  1.00  0.00    -0.252 OA
BRANCH   3   5
ATOM      5  C   UNL A   1      33.447  21.590  24.047  1.00  0.00     0.124 C 
ATOM      6  C   UNL A   1      31.585  22.994  24.727  1.00  0.00     0.106 C 
ATOM      7  C   UNL A   1      31.414  22.530  23.321  1.00  0.00    -0.006 C 
ATOM      8  C   UNL A   1      33.055  22.707  25.028  1.00  0.00     0.048 C 
ATOM      9  C   UNL A   1      32.434  21.747  22.951  1.00  0.00    -0.014 C 
BRANCH   6  10
ATOM     10  N   UNL A   1      31.193  24.368  24.911  1.00  0.00    -0.350 N 
ATOM     11  O   UNL A   1      30.843  24.378  27.189  1.00  0.00    -0.275 OA
ATOM     12  C   UNL A   1      30.830  24.955  26.105  1.00  0.00     0.224 C 
ATOM     13  H   UNL A   1      31.185  24.940  24.110  1.00  0.00     0.164 HD
BRANCH  12  14
ATOM     14  C   UNL A   1      30.327  26.387  25.975  1.00  0.00     0.135 C 
BRANCH  14  15
ATOM     15  C   UNL A   1      31.417  27.426  26.113  1.00  0.00    -0.038 A 
ATOM     16  C   UNL A   1      31.761  27.922  27.380  1.00  0.00     0.008 A 
ATOM     17  C   UNL A   1      32.142  27.854  24.991  1.00  0.00     0.008 A 
ATOM     18  C   UNL A   1      32.817  28.825  27.522  1.00  0.00     0.046 A 
ATOM     19  C   UNL A   1      33.207  28.743  25.137  1.00  0.00     0.046 A 
ATOM     20  C   UNL A   1      33.538  29.219  26.398  1.00  0.00     0.115 A 
BRANCH  20  21
ATOM     21  O   UNL A   1      34.590  30.081  26.497  1.00  0.00    -0.508 OA
ATOM     22  H   UNL A   1      34.748  30.708  25.818  1.00  0.00     0.293 HD
ENDBRANCH  20  21
ENDBRANCH  14  15
ENDBRANCH  12  14
ENDBRANCH   6  10
ENDBRANCH   3   5
ENDBRANCH   2   3
ENDBRANCH   1   2
BRANCH   1  23
ATOM     23  C   UNL A   1      37.087  20.132  25.044  1.00  0.00     0.275 C 
BRANCH  23  24
ATOM     24  O   UNL A   1      38.124  21.133  25.035  1.00  0.00    -0.458 OA
BRANCH  24  25
ATOM     25  C   UNL A   1      39.105  20.957  25.953  1.00  0.00     0.338 C 
ATOM     26  O   UNL A   1      39.571  19.897  26.331  1.00  0.00    -0.246 OA
BRANCH  25  27
ATOM     27  C   UNL A   1      39.640  22.265  26.367  1.00  0.00     0.060 A 
ATOM     28  C   UNL A   1      38.986  23.422  25.931  1.00  0.00     0.016 A 
ATOM     29  C   UNL A   1      40.816  22.354  27.114  1.00  0.00     0.016 A 
ATOM     30  C   UNL A   1      39.507  24.676  26.238  1.00  0.00     0.010 A 
ATOM     31  C   UNL A   1      41.335  23.615  27.424  1.00  0.00     0.010 A 
ATOM     32  C   UNL A   1      40.689  24.783  26.982  1.00  0.00    -0.014 A 
BRANCH  32  33
ATOM     33  C   UNL A   1      41.269  26.118  27.266  1.00  0.00     0.031 A 
ATOM     34  C   UNL A   1      42.646  26.452  26.773  1.00  0.00     0.074 A 
ATOM     35  C   UNL A   1      40.553  27.022  27.960  1.00  0.00     0.049 A 
ATOM     36  N   UNL A   1      43.376  27.513  27.007  1.00  0.00    -0.248 NA
ATOM     37  C   UNL A   1      43.290  25.456  25.904  1.00  0.00     0.031 C 
ATOM     38  C   UNL A   1      39.185  26.824  28.441  1.00  0.00     0.029 A 
ATOM     39  N   UNL A   1      40.881  28.282  28.391  1.00  0.00    -0.354 N 
ATOM     40  C   UNL A   1      44.571  27.308  26.327  1.00  0.00     0.074 A 
ATOM     41  C   UNL A   1      44.475  26.009  25.692  1.00  0.00     0.031 C 
ATOM     42  C   UNL A   1      38.793  27.923  29.106  1.00  0.00     0.029 A 
ATOM     43  C   UNL A   1      39.898  28.875  29.150  1.00  0.00     0.049 A 
ATOM     44  H   UNL A   1      41.737  28.721  28.177  1.00  0.00     0.167 HD
ATOM     45  C   UNL A   1      45.645  28.133  26.239  1.00  0.00     0.034 A 
ATOM     46  C   UNL A   1      39.906  30.036  29.837  1.00  0.00     0.034 A 
ATOM     47  C   UNL A   1      45.719  29.423  26.883  1.00  0.00     0.049 A 
ATOM     48  C   UNL A   1      41.149  30.889  29.807  1.00  0.00     0.074 A 
ATOM     49  C   UNL A   1      46.748  30.347  26.848  1.00  0.00     0.029 A 
ATOM     50  N   UNL A   1      44.727  29.966  27.691  1.00  0.00    -0.354 N 
ATOM     51  N   UNL A   1      42.279  30.681  29.172  1.00  0.00    -0.248 NA
ATOM     52  C   UNL A   1      41.118  32.131  30.592  1.00  0.00     0.031 C 
ATOM     53  C   UNL A   1      46.409  31.415  27.687  1.00  0.00     0.029 A 
ATOM     54  C   UNL A   1      45.137  31.193  28.190  1.00  0.00     0.049 A 
ATOM     55  H   UNL A   1      43.860  29.542  27.881  1.00  0.00     0.167 HD
ATOM     56  C   UNL A   1      43.086  31.776  29.465  1.00  0.00     0.074 A 
ATOM     57  C   UNL A   1      42.307  32.648  30.321  1.00  0.00     0.031 C 
ATOM     58  C   UNL A   1      44.355  32.040  29.061  1.00  0.00     0.034 A 
BRANCH  45  59
ATOM     59  C   UNL A   1      46.842  27.631  25.470  1.00  0.00     0.023 A 
ATOM     60  C   UNL A   1      47.089  28.019  24.142  1.00  0.00     0.031 A 
ATOM     61  C   UNL A   1      47.738  26.727  26.069  1.00  0.00     0.131 A 
ATOM     62  C   UNL A   1      48.163  27.453  23.435  1.00  0.00     0.055 A 
ATOM     63  C   UNL A   1      48.846  26.224  25.386  1.00  0.00     0.041 A 
ATOM     64  F   UNL A   1      47.541  26.304  27.328  1.00  0.00    -0.206 F 
ATOM     65  C   UNL A   1      49.055  26.576  24.056  1.00  0.00     0.022 A 
BRANCH  62  66
ATOM     66  S   UNL A   1      48.298  27.774  21.655  1.00  0.00     0.124 S 
ATOM     67  O   UNL A   1      46.949  28.231  21.333  1.00  0.00    -0.237 OA
ATOM     68  O   UNL A   1      49.348  28.785  21.596  1.00  0.00    -0.237 OA
ATOM     69  O   UNL A   1      48.655  26.470  21.098  1.00  0.00    -0.744 OA
ENDBRANCH  62  66
ENDBRANCH  45  59
BRANCH  46  70
ATOM     70  C   UNL A   1      38.730  30.428  30.663  1.00  0.00     0.023 A 
ATOM     71  C   UNL A   1      37.646  31.120  30.102  1.00  0.00     0.031 A 
ATOM     72  C   UNL A   1      38.693  30.150  32.042  1.00  0.00     0.131 A 
ATOM     73  C   UNL A   1      36.588  31.545  30.923  1.00  0.00     0.055 A 
ATOM     74  C   UNL A   1      37.617  30.528  32.843  1.00  0.00     0.041 A 
ATOM     75  F   UNL A   1      39.706  29.493  32.628  1.00  0.00    -0.206 F 
ATOM     76  C   UNL A   1      36.560  31.241  32.287  1.00  0.00     0.022 A 
BRANCH  73  77
ATOM     77  S   UNL A   1      35.280  32.569  30.196  1.00  0.00     0.124 S 
ATOM     78  O   UNL A   1      34.863  31.755  29.059  1.00  0.00    -0.237 OA
ATOM     79  O   UNL A   1      34.327  32.670  31.296  1.00  0.00    -0.237 OA
ATOM     80  O   UNL A   1      35.969  33.811  29.855  1.00  0.00    -0.744 OA
ENDBRANCH  73  77
ENDBRANCH  46  70
BRANCH  58  81
ATOM     81  C   UNL A   1      44.958  33.343  29.519  1.00  0.00     0.023 A 
ATOM     82  C   UNL A   1      45.864  33.401  30.593  1.00  0.00     0.031 A 
ATOM     83  C   UNL A   1      44.617  34.546  28.875  1.00  0.00     0.131 A 
ATOM     84  C   UNL A   1      46.361  34.640  31.022  1.00  0.00     0.055 A 
ATOM     85  C   UNL A   1      45.156  35.770  29.271  1.00  0.00     0.041 A 
ATOM     86  F   UNL A   1      43.755  34.548  27.846  1.00  0.00    -0.206 F 
ATOM     87  C   UNL A   1      46.026  35.824  30.357  1.00  0.00     0.022 A 
BRANCH  84  88
ATOM     88  S   UNL A   1      47.401  34.697  32.508  1.00  0.00     0.124 S 
ATOM     89  O   UNL A   1      48.721  34.392  31.966  1.00  0.00    -0.237 OA
ATOM     90  O   UNL A   1      47.204  36.065  32.975  1.00  0.00    -0.237 OA
ATOM     91  O   UNL A   1      46.828  33.662  33.366  1.00  0.00    -0.744 OA
ENDBRANCH  84  88
ENDBRANCH  58  81
ENDBRANCH  32  33
ENDBRANCH  25  27
ENDBRANCH  24  25
ENDBRANCH  23  24
ENDBRANCH   1  23
TORSDOF 18
ENDMDL
