MODEL 1
REMARK VINA RESULT:     -12.0      0.000      0.000
REMARK SMILES Cc1nn(C)c(C)c1C[C@@H](C)C(=O)N[C@@H](C(=O)OCCOC(=O)c1ccc(-c2c3nc(c(-c4cc(S(=O)(=O)[O-])ccc4F)c4ccc([nH]4)c(-c4cc(S(=O)(=O)[O-])ccc4F)c4nc(c(-c5cc(S(=O)(=O)[O-])ccc5F)c5ccc2[nH]5)C=C4)C=C3)cc1)c1ccccc1Cl
REMARK SMILES IDX 19 1 18 2 16 3 17 4 15 5 14 6 12 7 13 8 10 10 11 11 9 12
REMARK SMILES IDX 8 13 1 14 2 15 3 16 4 17 6 18 5 19 7 20 87 21 88 22 92 23
REMARK SMILES IDX 89 24 91 25 93 26 90 27 20 28 21 29 22 30 23 31 24 32 25 33
REMARK SMILES IDX 86 34 26 35 85 36 27 37 28 38 29 39 79 40 30 41 84 42 78 43
REMARK SMILES IDX 80 44 31 45 83 46 77 47 76 48 32 50 64 51 44 52 63 53 45 54
REMARK SMILES IDX 48 55 62 56 81 57 46 58 47 59 61 61 82 62 49 63 33 64 34 65
REMARK SMILES IDX 42 66 35 67 41 68 43 69 40 70 36 71 37 72 38 73 39 74 65 75
REMARK SMILES IDX 66 76 74 77 67 78 73 79 75 80 72 81 68 82 69 83 70 84 71 85
REMARK SMILES IDX 50 86 51 87 59 88 52 89 58 90 60 91 57 92 53 93 54 94 55 95
REMARK SMILES IDX 56 96
REMARK H PARENT 14 9 80 49 48 60
REMARK Flexibility Score: inf
ROOT
ATOM      1  C   UNL A   1      34.591  21.280  26.816  1.00  0.00     0.274 C 
ENDROOT
BRANCH   1   2
ATOM      2  O   UNL A   1      34.596  22.715  26.976  1.00  0.00    -0.460 OA
BRANCH   2   3
ATOM      3  C   UNL A   1      33.389  23.342  26.865  1.00  0.00     0.333 C 
ATOM      4  O   UNL A   1      32.413  23.083  27.562  1.00  0.00    -0.249 OA
BRANCH   3   5
ATOM      5  C   UNL A   1      33.341  24.332  25.681  1.00  0.00     0.224 C 
BRANCH   5   6
ATOM      6  N   UNL A   1      34.471  24.224  24.762  1.00  0.00    -0.339 N 
ATOM      7  C   UNL A   1      34.494  24.058  23.412  1.00  0.00     0.224 C 
ATOM      8  O   UNL A   1      35.571  23.792  22.874  1.00  0.00    -0.275 OA
ATOM      9  H   UNL A   1      35.358  24.280  25.187  1.00  0.00     0.164 HD
BRANCH   7  10
ATOM     10  C   UNL A   1      33.233  24.210  22.563  1.00  0.00     0.080 C 
ATOM     11  C   UNL A   1      33.097  23.029  21.598  1.00  0.00     0.018 C 
BRANCH  10  12
ATOM     12  C   UNL A   1      33.135  25.633  21.986  1.00  0.00     0.052 C 
BRANCH  12  13
ATOM     13  C   UNL A   1      32.074  26.506  22.568  1.00  0.00    -0.003 A 
ATOM     14  C   UNL A   1      30.182  24.762  23.080  1.00  0.00     0.069 C 
ATOM     15  C   UNL A   1      30.786  26.118  23.028  1.00  0.00     0.063 A 
ATOM     16  N   UNL A   1      30.096  27.156  23.510  1.00  0.00    -0.178 NA
ATOM     17  N   UNL A   1      30.936  28.198  23.391  1.00  0.00    -0.272 N 
ATOM     18  C   UNL A   1      32.167  27.852  22.900  1.00  0.00     0.038 A 
ATOM     19  C   UNL A   1      30.481  29.501  23.815  1.00  0.00     0.174 C 
ATOM     20  C   UNL A   1      33.296  28.816  22.805  1.00  0.00     0.066 C 
ENDBRANCH  12  13
ENDBRANCH  10  12
ENDBRANCH   7  10
ENDBRANCH   5   6
BRANCH   5  21
ATOM     21  C   UNL A   1      32.978  25.758  26.067  1.00  0.00     0.004 A 
ATOM     22  C   UNL A   1      34.012  26.722  26.019  1.00  0.00     0.008 A 
ATOM     23  C   UNL A   1      31.705  26.191  26.473  1.00  0.00     0.046 A 
ATOM     24  C   UNL A   1      33.801  28.044  26.414  1.00  0.00     0.000 A 
ATOM     25  C   UNL A   1      31.502  27.514  26.892  1.00  0.00     0.021 A 
ATOM     26  Cl  UNL A   1      30.320  25.160  26.435  1.00  0.00    -0.084 Cl
ATOM     27  C   UNL A   1      32.548  28.435  26.868  1.00  0.00     0.002 A 
ENDBRANCH   5  21
ENDBRANCH   3   5
ENDBRANCH   2   3
ENDBRANCH   1   2
BRANCH   1  28
ATOM     28  C   UNL A   1      35.457  20.870  25.630  1.00  0.00     0.275 C 
BRANCH  28  29
ATOM     29  O   UNL A   1      36.435  21.894  25.399  1.00  0.00    -0.458 OA
BRANCH  29  30
ATOM     30  C   UNL A   1      37.728  21.538  25.575  1.00  0.00     0.338 C 
ATOM     31  O   UNL A   1      38.247  20.480  25.243  1.00  0.00    -0.246 OA
BRANCH  30  32
ATOM     32  C   UNL A   1      38.459  22.638  26.231  1.00  0.00     0.060 A 
ATOM     33  C   UNL A   1      37.973  23.943  26.167  1.00  0.00     0.016 A 
ATOM     34  C   UNL A   1      39.692  22.393  26.831  1.00  0.00     0.016 A 
ATOM     35  C   UNL A   1      38.755  25.007  26.605  1.00  0.00     0.010 A 
ATOM     36  C   UNL A   1      40.426  23.457  27.369  1.00  0.00     0.010 A 
ATOM     37  C   UNL A   1      39.989  24.787  27.224  1.00  0.00    -0.014 A 
BRANCH  37  38
ATOM     38  C   UNL A   1      40.846  25.936  27.644  1.00  0.00     0.031 A 
ATOM     39  C   UNL A   1      40.294  26.976  28.587  1.00  0.00     0.074 A 
ATOM     40  C   UNL A   1      42.123  26.051  27.226  1.00  0.00     0.049 A 
ATOM     41  N   UNL A   1      40.756  28.165  28.877  1.00  0.00    -0.248 NA
ATOM     42  C   UNL A   1      39.040  26.637  29.275  1.00  0.00     0.031 C 
ATOM     43  C   UNL A   1      42.836  25.090  26.382  1.00  0.00     0.029 A 
ATOM     44  N   UNL A   1      43.062  27.023  27.474  1.00  0.00    -0.354 N 
ATOM     45  C   UNL A   1      39.803  28.753  29.706  1.00  0.00     0.074 A 
ATOM     46  C   UNL A   1      38.742  27.780  29.873  1.00  0.00     0.031 C 
ATOM     47  C   UNL A   1      44.111  25.479  26.248  1.00  0.00     0.029 A 
ATOM     48  C   UNL A   1      44.280  26.780  26.882  1.00  0.00     0.049 A 
ATOM     49  H   UNL A   1      42.880  27.819  28.023  1.00  0.00     0.167 HD
ATOM     50  C   UNL A   1      39.812  29.991  30.263  1.00  0.00     0.034 A 
ATOM     51  C   UNL A   1      45.391  27.538  26.805  1.00  0.00     0.034 A 
ATOM     52  C   UNL A   1      40.913  30.917  30.145  1.00  0.00     0.049 A 
ATOM     53  C   UNL A   1      45.367  28.924  27.387  1.00  0.00     0.074 A 
ATOM     54  C   UNL A   1      41.037  32.189  30.678  1.00  0.00     0.029 A 
ATOM     55  N   UNL A   1      42.096  30.663  29.460  1.00  0.00    -0.354 N 
ATOM     56  N   UNL A   1      44.406  29.527  28.046  1.00  0.00    -0.248 NA
ATOM     57  C   UNL A   1      46.565  29.746  27.173  1.00  0.00     0.031 C 
ATOM     58  C   UNL A   1      42.268  32.721  30.275  1.00  0.00     0.029 A 
ATOM     59  C   UNL A   1      42.944  31.758  29.542  1.00  0.00     0.049 A 
ATOM     60  H   UNL A   1      42.302  29.826  28.984  1.00  0.00     0.167 HD
ATOM     61  C   UNL A   1      44.883  30.803  28.325  1.00  0.00     0.074 A 
ATOM     62  C   UNL A   1      46.227  30.872  27.785  1.00  0.00     0.031 C 
ATOM     63  C   UNL A   1      44.266  31.827  28.967  1.00  0.00     0.034 A 
BRANCH  50  64
ATOM     64  C   UNL A   1      38.558  30.434  30.980  1.00  0.00     0.023 A 
ATOM     65  C   UNL A   1      37.487  31.053  30.313  1.00  0.00     0.031 A 
ATOM     66  C   UNL A   1      38.462  30.287  32.378  1.00  0.00     0.131 A 
ATOM     67  C   UNL A   1      36.417  31.585  31.049  1.00  0.00     0.055 A 
ATOM     68  C   UNL A   1      37.353  30.740  33.094  1.00  0.00     0.041 A 
ATOM     69  F   UNL A   1      39.459  29.720  33.075  1.00  0.00    -0.206 F 
ATOM     70  C   UNL A   1      36.331  31.414  32.433  1.00  0.00     0.022 A 
BRANCH  67  71
ATOM     71  S   UNL A   1      35.234  32.664  30.195  1.00  0.00     0.124 S 
ATOM     72  O   UNL A   1      34.693  31.763  29.179  1.00  0.00    -0.237 OA
ATOM     73  O   UNL A   1      34.322  33.038  31.269  1.00  0.00    -0.237 OA
ATOM     74  O   UNL A   1      36.070  33.746  29.677  1.00  0.00    -0.744 OA
ENDBRANCH  67  71
ENDBRANCH  50  64
BRANCH  51  75
ATOM     75  C   UNL A   1      46.592  27.037  26.080  1.00  0.00     0.023 A 
ATOM     76  C   UNL A   1      46.900  27.506  24.793  1.00  0.00     0.031 A 
ATOM     77  C   UNL A   1      47.442  26.077  26.657  1.00  0.00     0.131 A 
ATOM     78  C   UNL A   1      48.024  27.003  24.120  1.00  0.00     0.055 A 
ATOM     79  C   UNL A   1      48.584  25.614  26.002  1.00  0.00     0.041 A 
ATOM     80  F   UNL A   1      47.188  25.595  27.884  1.00  0.00    -0.206 F 
ATOM     81  C   UNL A   1      48.877  26.074  24.721  1.00  0.00     0.022 A 
BRANCH  78  82
ATOM     82  S   UNL A   1      48.343  27.559  22.423  1.00  0.00     0.124 S 
ATOM     83  O   UNL A   1      47.163  28.371  22.151  1.00  0.00    -0.237 OA
ATOM     84  O   UNL A   1      49.602  28.282  22.570  1.00  0.00    -0.237 OA
ATOM     85  O   UNL A   1      48.431  26.311  21.667  1.00  0.00    -0.744 OA
ENDBRANCH  78  82
ENDBRANCH  51  75
BRANCH  63  86
ATOM     86  C   UNL A   1      45.061  33.096  29.130  1.00  0.00     0.023 A 
ATOM     87  C   UNL A   1      45.036  34.109  28.155  1.00  0.00     0.031 A 
ATOM     88  C   UNL A   1      45.884  33.277  30.255  1.00  0.00     0.131 A 
ATOM     89  C   UNL A   1      45.862  35.234  28.297  1.00  0.00     0.055 A 
ATOM     90  C   UNL A   1      46.665  34.421  30.415  1.00  0.00     0.041 A 
ATOM     91  F   UNL A   1      45.948  32.337  31.212  1.00  0.00    -0.206 F 
ATOM     92  C   UNL A   1      46.668  35.402  29.427  1.00  0.00     0.022 A 
BRANCH  89  93
ATOM     93  S   UNL A   1      45.943  36.434  26.938  1.00  0.00     0.124 S 
ATOM     94  O   UNL A   1      46.148  35.569  25.781  1.00  0.00    -0.237 OA
ATOM     95  O   UNL A   1      44.642  37.089  27.023  1.00  0.00    -0.237 OA
ATOM     96  O   UNL A   1      47.084  37.276  27.292  1.00  0.00    -0.744 OA
ENDBRANCH  89  93
ENDBRANCH  63  86
ENDBRANCH  37  38
ENDBRANCH  30  32
ENDBRANCH  29  30
ENDBRANCH  28  29
ENDBRANCH   1  28
TORSDOF 19
ENDMDL
MODEL 2
REMARK VINA RESULT:     -11.9      5.032      9.879
REMARK SMILES Cc1nn(C)c(C)c1C[C@@H](C)C(=O)N[C@@H](C(=O)OCCOC(=O)c1ccc(-c2c3nc(c(-c4cc(S(=O)(=O)[O-])ccc4F)c4ccc([nH]4)c(-c4cc(S(=O)(=O)[O-])ccc4F)c4nc(c(-c5cc(S(=O)(=O)[O-])ccc5F)c5ccc2[nH]5)C=C4)C=C3)cc1)c1ccccc1Cl
REMARK SMILES IDX 19 1 18 2 16 3 17 4 15 5 14 6 12 7 13 8 10 10 11 11 9 12
REMARK SMILES IDX 8 13 1 14 2 15 3 16 4 17 6 18 5 19 7 20 87 21 88 22 92 23
REMARK SMILES IDX 89 24 91 25 93 26 90 27 20 28 21 29 22 30 23 31 24 32 25 33
REMARK SMILES IDX 86 34 26 35 85 36 27 37 28 38 29 39 79 40 30 41 84 42 78 43
REMARK SMILES IDX 80 44 31 45 83 46 77 47 76 48 32 50 64 51 44 52 63 53 45 54
REMARK SMILES IDX 48 55 62 56 81 57 46 58 47 59 61 61 82 62 49 63 33 64 34 65
REMARK SMILES IDX 42 66 35 67 41 68 43 69 40 70 36 71 37 72 38 73 39 74 65 75
REMARK SMILES IDX 66 76 74 77 67 78 73 79 75 80 72 81 68 82 69 83 70 84 71 85
REMARK SMILES IDX 50 86 51 87 59 88 52 89 58 90 60 91 57 92 53 93 54 94 55 95
REMARK SMILES IDX 56 96
REMARK H PARENT 14 9 80 49 48 60
REMARK Flexibility Score: inf
ROOT
ATOM      1  C   UNL A   1      31.609  28.899  25.560  1.00  0.00     0.274 C 
ENDROOT
BRANCH   1   2
ATOM      2  O   UNL A   1      32.748  28.419  24.814  1.00  0.00    -0.460 OA
BRANCH   2   3
ATOM      3  C   UNL A   1      32.680  28.547  23.456  1.00  0.00     0.333 C 
ATOM      4  O   UNL A   1      33.371  29.322  22.802  1.00  0.00    -0.249 OA
BRANCH   3   5
ATOM      5  C   UNL A   1      31.549  27.697  22.837  1.00  0.00     0.224 C 
BRANCH   5   6
ATOM      6  N   UNL A   1      31.964  26.886  21.694  1.00  0.00    -0.339 N 
ATOM      7  C   UNL A   1      32.634  25.704  21.653  1.00  0.00     0.224 C 
ATOM      8  O   UNL A   1      33.051  25.307  20.562  1.00  0.00    -0.275 OA
ATOM      9  H   UNL A   1      31.718  27.254  20.815  1.00  0.00     0.164 HD
BRANCH   7  10
ATOM     10  C   UNL A   1      32.864  24.866  22.908  1.00  0.00     0.080 C 
ATOM     11  C   UNL A   1      34.228  24.173  22.844  1.00  0.00     0.018 C 
BRANCH  10  12
ATOM     12  C   UNL A   1      31.628  24.005  23.220  1.00  0.00     0.052 C 
BRANCH  12  13
ATOM     13  C   UNL A   1      31.888  22.705  23.906  1.00  0.00    -0.003 A 
ATOM     14  C   UNL A   1      31.666  23.389  26.429  1.00  0.00     0.069 C 
ATOM     15  C   UNL A   1      31.916  22.452  25.305  1.00  0.00     0.063 A 
ATOM     16  N   UNL A   1      32.159  21.165  25.572  1.00  0.00    -0.178 NA
ATOM     17  N   UNL A   1      32.258  20.586  24.363  1.00  0.00    -0.272 N 
ATOM     18  C   UNL A   1      32.030  21.451  23.326  1.00  0.00     0.038 A 
ATOM     19  C   UNL A   1      32.541  19.172  24.298  1.00  0.00     0.174 C 
ATOM     20  C   UNL A   1      31.960  21.006  21.908  1.00  0.00     0.066 C 
ENDBRANCH  12  13
ENDBRANCH  10  12
ENDBRANCH   7  10
ENDBRANCH   5   6
BRANCH   5  21
ATOM     21  C   UNL A   1      30.238  28.442  22.637  1.00  0.00     0.004 A 
ATOM     22  C   UNL A   1      30.293  29.662  21.923  1.00  0.00     0.008 A 
ATOM     23  C   UNL A   1      28.984  28.023  23.109  1.00  0.00     0.046 A 
ATOM     24  C   UNL A   1      29.160  30.456  21.739  1.00  0.00     0.000 A 
ATOM     25  C   UNL A   1      27.852  28.833  22.944  1.00  0.00     0.021 A 
ATOM     26  Cl  UNL A   1      28.744  26.487  23.863  1.00  0.00    -0.084 Cl
ATOM     27  C   UNL A   1      27.941  30.049  22.266  1.00  0.00     0.002 A 
ENDBRANCH   5  21
ENDBRANCH   3   5
ENDBRANCH   2   3
ENDBRANCH   1   2
BRANCH   1  28
ATOM     28  C   UNL A   1      31.748  30.389  25.852  1.00  0.00     0.275 C 
BRANCH  28  29
ATOM     29  O   UNL A   1      32.344  30.551  27.147  1.00  0.00    -0.458 OA
BRANCH  29  30
ATOM     30  C   UNL A   1      33.066  31.679  27.337  1.00  0.00     0.338 C 
ATOM     31  O   UNL A   1      32.688  32.829  27.153  1.00  0.00    -0.246 OA
BRANCH  30  32
ATOM     32  C   UNL A   1      34.412  31.328  27.826  1.00  0.00     0.060 A 
ATOM     33  C   UNL A   1      34.726  30.006  28.137  1.00  0.00     0.016 A 
ATOM     34  C   UNL A   1      35.344  32.332  28.077  1.00  0.00     0.016 A 
ATOM     35  C   UNL A   1      35.917  29.699  28.787  1.00  0.00     0.010 A 
ATOM     36  C   UNL A   1      36.588  32.003  28.631  1.00  0.00     0.010 A 
ATOM     37  C   UNL A   1      36.876  30.687  29.036  1.00  0.00    -0.014 A 
BRANCH  37  38
ATOM     38  C   UNL A   1      38.129  30.359  29.781  1.00  0.00     0.031 A 
ATOM     39  C   UNL A   1      39.189  29.510  29.125  1.00  0.00     0.074 A 
ATOM     40  C   UNL A   1      38.356  30.837  31.021  1.00  0.00     0.049 A 
ATOM     41  N   UNL A   1      40.216  28.901  29.660  1.00  0.00    -0.248 NA
ATOM     42  C   UNL A   1      39.056  29.299  27.676  1.00  0.00     0.031 C 
ATOM     43  C   UNL A   1      37.473  31.741  31.763  1.00  0.00     0.029 A 
ATOM     44  N   UNL A   1      39.415  30.646  31.875  1.00  0.00    -0.354 N 
ATOM     45  C   UNL A   1      40.797  28.160  28.634  1.00  0.00     0.074 A 
ATOM     46  C   UNL A   1      40.006  28.406  27.446  1.00  0.00     0.031 C 
ATOM     47  C   UNL A   1      38.060  32.082  32.919  1.00  0.00     0.029 A 
ATOM     48  C   UNL A   1      39.297  31.325  33.065  1.00  0.00     0.049 A 
ATOM     49  H   UNL A   1      40.187  30.076  31.655  1.00  0.00     0.167 HD
ATOM     50  C   UNL A   1      41.882  27.345  28.686  1.00  0.00     0.034 A 
ATOM     51  C   UNL A   1      40.061  31.303  34.174  1.00  0.00     0.034 A 
ATOM     52  C   UNL A   1      42.701  27.172  29.863  1.00  0.00     0.049 A 
ATOM     53  C   UNL A   1      41.230  30.360  34.232  1.00  0.00     0.074 A 
ATOM     54  C   UNL A   1      43.829  26.385  30.026  1.00  0.00     0.029 A 
ATOM     55  N   UNL A   1      42.493  27.814  31.078  1.00  0.00    -0.354 N 
ATOM     56  N   UNL A   1      41.689  29.554  33.303  1.00  0.00    -0.248 NA
ATOM     57  C   UNL A   1      41.958  30.294  35.506  1.00  0.00     0.031 C 
ATOM     58  C   UNL A   1      44.270  26.512  31.349  1.00  0.00     0.029 A 
ATOM     59  C   UNL A   1      43.458  27.428  31.997  1.00  0.00     0.049 A 
ATOM     60  H   UNL A   1      41.765  28.452  31.261  1.00  0.00     0.167 HD
ATOM     61  C   UNL A   1      42.759  28.881  33.883  1.00  0.00     0.074 A 
ATOM     62  C   UNL A   1      42.894  29.397  35.231  1.00  0.00     0.031 C 
ATOM     63  C   UNL A   1      43.557  27.922  33.350  1.00  0.00     0.034 A 
BRANCH  50  64
ATOM     64  C   UNL A   1      42.188  26.523  27.455  1.00  0.00     0.023 A 
ATOM     65  C   UNL A   1      41.790  25.182  27.327  1.00  0.00     0.031 A 
ATOM     66  C   UNL A   1      42.951  27.083  26.412  1.00  0.00     0.131 A 
ATOM     67  C   UNL A   1      42.236  24.421  26.235  1.00  0.00     0.055 A 
ATOM     68  C   UNL A   1      43.316  26.346  25.285  1.00  0.00     0.041 A 
ATOM     69  F   UNL A   1      43.375  28.355  26.484  1.00  0.00    -0.206 F 
ATOM     70  C   UNL A   1      42.977  24.999  25.201  1.00  0.00     0.022 A 
BRANCH  67  71
ATOM     71  S   UNL A   1      41.989  22.624  26.277  1.00  0.00     0.124 S 
ATOM     72  O   UNL A   1      42.650  22.206  25.042  1.00  0.00    -0.237 OA
ATOM     73  O   UNL A   1      42.654  22.247  27.518  1.00  0.00    -0.237 OA
ATOM     74  O   UNL A   1      40.534  22.478  26.277  1.00  0.00    -0.744 OA
ENDBRANCH  67  71
ENDBRANCH  50  64
BRANCH  51  75
ATOM     75  C   UNL A   1      39.698  32.139  35.353  1.00  0.00     0.023 A 
ATOM     76  C   UNL A   1      38.855  31.637  36.356  1.00  0.00     0.031 A 
ATOM     77  C   UNL A   1      40.180  33.453  35.488  1.00  0.00     0.131 A 
ATOM     78  C   UNL A   1      38.508  32.451  37.446  1.00  0.00     0.055 A 
ATOM     79  C   UNL A   1      39.869  34.242  36.596  1.00  0.00     0.041 A 
ATOM     80  F   UNL A   1      40.987  33.980  34.554  1.00  0.00    -0.206 F 
ATOM     81  C   UNL A   1      39.022  33.743  37.581  1.00  0.00     0.022 A 
BRANCH  78  82
ATOM     82  S   UNL A   1      37.342  31.806  38.676  1.00  0.00     0.124 S 
ATOM     83  O   UNL A   1      38.120  31.910  39.905  1.00  0.00    -0.237 OA
ATOM     84  O   UNL A   1      36.219  32.730  38.546  1.00  0.00    -0.237 OA
ATOM     85  O   UNL A   1      37.079  30.445  38.215  1.00  0.00    -0.744 OA
ENDBRANCH  78  82
ENDBRANCH  51  75
BRANCH  63  86
ATOM     86  C   UNL A   1      44.657  27.394  34.234  1.00  0.00     0.023 A 
ATOM     87  C   UNL A   1      44.452  26.288  35.080  1.00  0.00     0.031 A 
ATOM     88  C   UNL A   1      45.911  28.027  34.261  1.00  0.00     0.131 A 
ATOM     89  C   UNL A   1      45.469  25.884  35.957  1.00  0.00     0.055 A 
ATOM     90  C   UNL A   1      46.936  27.589  35.099  1.00  0.00     0.041 A 
ATOM     91  F   UNL A   1      46.156  29.089  33.477  1.00  0.00    -0.206 F 
ATOM     92  C   UNL A   1      46.714  26.520  35.964  1.00  0.00     0.022 A 
BRANCH  89  93
ATOM     93  S   UNL A   1      45.113  24.573  37.160  1.00  0.00     0.124 S 
ATOM     94  O   UNL A   1      46.188  24.752  38.130  1.00  0.00    -0.237 OA
ATOM     95  O   UNL A   1      43.773  24.927  37.620  1.00  0.00    -0.237 OA
ATOM     96  O   UNL A   1      45.191  23.348  36.367  1.00  0.00    -0.744 OA
ENDBRANCH  89  93
ENDBRANCH  63  86
ENDBRANCH  37  38
ENDBRANCH  30  32
ENDBRANCH  29  30
ENDBRANCH  28  29
ENDBRANCH   1  28
TORSDOF 19
ENDMDL
MODEL 3
REMARK VINA RESULT:     -11.5      4.929      9.659
REMARK SMILES Cc1nn(C)c(C)c1C[C@@H](C)C(=O)N[C@@H](C(=O)OCCOC(=O)c1ccc(-c2c3nc(c(-c4cc(S(=O)(=O)[O-])ccc4F)c4ccc([nH]4)c(-c4cc(S(=O)(=O)[O-])ccc4F)c4nc(c(-c5cc(S(=O)(=O)[O-])ccc5F)c5ccc2[nH]5)C=C4)C=C3)cc1)c1ccccc1Cl
REMARK SMILES IDX 19 1 18 2 16 3 17 4 15 5 14 6 12 7 13 8 10 10 11 11 9 12
REMARK SMILES IDX 8 13 1 14 2 15 3 16 4 17 6 18 5 19 7 20 87 21 88 22 92 23
REMARK SMILES IDX 89 24 91 25 93 26 90 27 20 28 21 29 22 30 23 31 24 32 25 33
REMARK SMILES IDX 86 34 26 35 85 36 27 37 28 38 29 39 79 40 30 41 84 42 78 43
REMARK SMILES IDX 80 44 31 45 83 46 77 47 76 48 32 50 64 51 44 52 63 53 45 54
REMARK SMILES IDX 48 55 62 56 81 57 46 58 47 59 61 61 82 62 49 63 33 64 34 65
REMARK SMILES IDX 42 66 35 67 41 68 43 69 40 70 36 71 37 72 38 73 39 74 65 75
REMARK SMILES IDX 66 76 74 77 67 78 73 79 75 80 72 81 68 82 69 83 70 84 71 85
REMARK SMILES IDX 50 86 51 87 59 88 52 89 58 90 60 91 57 92 53 93 54 94 55 95
REMARK SMILES IDX 56 96
REMARK H PARENT 14 9 80 49 48 60
REMARK Flexibility Score: inf
ROOT
ATOM      1  C   UNL A   1      32.413  28.443  25.524  1.00  0.00     0.274 C 
ENDROOT
BRANCH   1   2
ATOM      2  O   UNL A   1      33.328  27.884  24.556  1.00  0.00    -0.460 OA
BRANCH   2   3
ATOM      3  C   UNL A   1      33.094  28.199  23.249  1.00  0.00     0.333 C 
ATOM      4  O   UNL A   1      33.683  29.086  22.639  1.00  0.00    -0.249 OA
BRANCH   3   5
ATOM      5  C   UNL A   1      31.918  27.399  22.647  1.00  0.00     0.224 C 
BRANCH   5   6
ATOM      6  N   UNL A   1      32.225  26.742  21.378  1.00  0.00    -0.339 N 
ATOM      7  C   UNL A   1      32.797  25.534  21.129  1.00  0.00     0.224 C 
ATOM      8  O   UNL A   1      33.141  25.278  19.973  1.00  0.00    -0.275 OA
ATOM      9  H   UNL A   1      31.978  27.256  20.576  1.00  0.00     0.164 HD
BRANCH   7  10
ATOM     10  C   UNL A   1      33.005  24.501  22.235  1.00  0.00     0.080 C 
ATOM     11  C   UNL A   1      31.655  24.036  22.788  1.00  0.00     0.018 C 
BRANCH  10  12
ATOM     12  C   UNL A   1      34.072  24.981  23.233  1.00  0.00     0.052 C 
BRANCH  12  13
ATOM     13  C   UNL A   1      34.455  24.013  24.303  1.00  0.00    -0.003 A 
ATOM     14  C   UNL A   1      36.626  22.943  23.290  1.00  0.00     0.069 C 
ATOM     15  C   UNL A   1      35.562  23.120  24.310  1.00  0.00     0.063 A 
ATOM     16  N   UNL A   1      35.617  22.407  25.439  1.00  0.00    -0.178 NA
ATOM     17  N   UNL A   1      34.578  22.852  26.166  1.00  0.00    -0.272 N 
ATOM     18  C   UNL A   1      33.888  23.870  25.563  1.00  0.00     0.038 A 
ATOM     19  C   UNL A   1      34.341  22.261  27.462  1.00  0.00     0.174 C 
ATOM     20  C   UNL A   1      32.783  24.602  26.237  1.00  0.00     0.066 C 
ENDBRANCH  12  13
ENDBRANCH  10  12
ENDBRANCH   7  10
ENDBRANCH   5   6
BRANCH   5  21
ATOM     21  C   UNL A   1      30.583  28.127  22.672  1.00  0.00     0.004 A 
ATOM     22  C   UNL A   1      30.509  29.361  21.985  1.00  0.00     0.008 A 
ATOM     23  C   UNL A   1      29.424  27.678  23.326  1.00  0.00     0.046 A 
ATOM     24  C   UNL A   1      29.351  30.140  22.000  1.00  0.00     0.000 A 
ATOM     25  C   UNL A   1      28.270  28.473  23.360  1.00  0.00     0.021 A 
ATOM     26  Cl  UNL A   1      29.326  26.124  24.075  1.00  0.00    -0.084 Cl
ATOM     27  C   UNL A   1      28.236  29.703  22.703  1.00  0.00     0.002 A 
ENDBRANCH   5  21
ENDBRANCH   3   5
ENDBRANCH   2   3
ENDBRANCH   1   2
BRANCH   1  28
ATOM     28  C   UNL A   1      32.520  29.964  25.544  1.00  0.00     0.275 C 
BRANCH  28  29
ATOM     29  O   UNL A   1      32.324  30.421  26.889  1.00  0.00    -0.458 OA
BRANCH  29  30
ATOM     30  C   UNL A   1      32.965  31.561  27.234  1.00  0.00     0.338 C 
ATOM     31  O   UNL A   1      32.521  32.700  27.164  1.00  0.00    -0.246 OA
BRANCH  30  32
ATOM     32  C   UNL A   1      34.313  31.237  27.737  1.00  0.00     0.060 A 
ATOM     33  C   UNL A   1      34.634  29.930  28.100  1.00  0.00     0.016 A 
ATOM     34  C   UNL A   1      35.239  32.256  27.949  1.00  0.00     0.016 A 
ATOM     35  C   UNL A   1      35.827  29.656  28.761  1.00  0.00     0.010 A 
ATOM     36  C   UNL A   1      36.484  31.956  28.515  1.00  0.00     0.010 A 
ATOM     37  C   UNL A   1      36.780  30.658  28.972  1.00  0.00    -0.014 A 
BRANCH  37  38
ATOM     38  C   UNL A   1      38.034  30.367  29.728  1.00  0.00     0.031 A 
ATOM     39  C   UNL A   1      39.128  29.554  29.081  1.00  0.00     0.074 A 
ATOM     40  C   UNL A   1      38.233  30.848  30.973  1.00  0.00     0.049 A 
ATOM     41  N   UNL A   1      40.167  28.975  29.625  1.00  0.00    -0.248 NA
ATOM     42  C   UNL A   1      39.017  29.344  27.630  1.00  0.00     0.031 C 
ATOM     43  C   UNL A   1      37.315  31.721  31.708  1.00  0.00     0.029 A 
ATOM     44  N   UNL A   1      39.289  30.686  31.837  1.00  0.00    -0.354 N 
ATOM     45  C   UNL A   1      40.782  28.256  28.603  1.00  0.00     0.074 A 
ATOM     46  C   UNL A   1      39.996  28.481  27.407  1.00  0.00     0.031 C 
ATOM     47  C   UNL A   1      37.878  32.076  32.871  1.00  0.00     0.029 A 
ATOM     48  C   UNL A   1      39.137  31.358  33.028  1.00  0.00     0.049 A 
ATOM     49  H   UNL A   1      40.080  30.141  31.624  1.00  0.00     0.167 HD
ATOM     50  C   UNL A   1      41.891  27.475  28.665  1.00  0.00     0.034 A 
ATOM     51  C   UNL A   1      39.889  31.355  34.145  1.00  0.00     0.034 A 
ATOM     52  C   UNL A   1      42.702  27.323  29.850  1.00  0.00     0.049 A 
ATOM     53  C   UNL A   1      41.087  30.449  34.213  1.00  0.00     0.074 A 
ATOM     54  C   UNL A   1      43.852  26.571  30.023  1.00  0.00     0.029 A 
ATOM     55  N   UNL A   1      42.462  27.954  31.064  1.00  0.00    -0.354 N 
ATOM     56  N   UNL A   1      41.580  29.661  33.286  1.00  0.00    -0.248 NA
ATOM     57  C   UNL A   1      41.803  30.401  35.494  1.00  0.00     0.031 C 
ATOM     58  C   UNL A   1      44.276  26.708  31.350  1.00  0.00     0.029 A 
ATOM     59  C   UNL A   1      43.429  27.596  31.992  1.00  0.00     0.049 A 
ATOM     60  H   UNL A   1      41.712  28.568  31.241  1.00  0.00     0.167 HD
ATOM     61  C   UNL A   1      42.665  29.020  33.875  1.00  0.00     0.074 A 
ATOM     62  C   UNL A   1      42.768  29.534  35.227  1.00  0.00     0.031 C 
ATOM     63  C   UNL A   1      43.498  28.088  33.348  1.00  0.00     0.034 A 
BRANCH  50  64
ATOM     64  C   UNL A   1      42.235  26.668  27.435  1.00  0.00     0.023 A 
ATOM     65  C   UNL A   1      41.866  25.320  27.291  1.00  0.00     0.031 A 
ATOM     66  C   UNL A   1      43.007  27.249  26.410  1.00  0.00     0.131 A 
ATOM     67  C   UNL A   1      42.346  24.575  26.202  1.00  0.00     0.055 A 
ATOM     68  C   UNL A   1      43.408  26.526  25.285  1.00  0.00     0.041 A 
ATOM     69  F   UNL A   1      43.406  28.528  26.498  1.00  0.00    -0.206 F 
ATOM     70  C   UNL A   1      43.096  25.174  25.186  1.00  0.00     0.022 A 
BRANCH  67  71
ATOM     71  S   UNL A   1      42.133  22.773  26.227  1.00  0.00     0.124 S 
ATOM     72  O   UNL A   1      40.678  22.649  26.285  1.00  0.00    -0.237 OA
ATOM     73  O   UNL A   1      42.760  22.367  24.975  1.00  0.00    -0.237 OA
ATOM     74  O   UNL A   1      42.835  22.363  27.442  1.00  0.00    -0.744 OA
ENDBRANCH  67  71
ENDBRANCH  50  64
BRANCH  51  75
ATOM     75  C   UNL A   1      39.488  32.176  35.323  1.00  0.00     0.023 A 
ATOM     76  C   UNL A   1      39.981  33.479  35.490  1.00  0.00     0.031 A 
ATOM     77  C   UNL A   1      38.615  31.666  36.300  1.00  0.00     0.131 A 
ATOM     78  C   UNL A   1      39.607  34.225  36.619  1.00  0.00     0.055 A 
ATOM     79  C   UNL A   1      38.210  32.428  37.396  1.00  0.00     0.041 A 
ATOM     80  F   UNL A   1      38.119  30.424  36.186  1.00  0.00    -0.206 F 
ATOM     81  C   UNL A   1      38.712  33.715  37.564  1.00  0.00     0.022 A 
BRANCH  78  82
ATOM     82  S   UNL A   1      40.335  35.869  36.855  1.00  0.00     0.124 S 
ATOM     83  O   UNL A   1      39.925  36.181  38.220  1.00  0.00    -0.237 OA
ATOM     84  O   UNL A   1      41.756  35.605  36.655  1.00  0.00    -0.237 OA
ATOM     85  O   UNL A   1      39.702  36.674  35.812  1.00  0.00    -0.744 OA
ENDBRANCH  78  82
ENDBRANCH  51  75
BRANCH  63  86
ATOM     86  C   UNL A   1      44.604  27.591  34.242  1.00  0.00     0.023 A 
ATOM     87  C   UNL A   1      44.435  26.456  35.057  1.00  0.00     0.031 A 
ATOM     88  C   UNL A   1      45.825  28.282  34.311  1.00  0.00     0.131 A 
ATOM     89  C   UNL A   1      45.453  26.080  35.946  1.00  0.00     0.055 A 
ATOM     90  C   UNL A   1      46.853  27.873  35.160  1.00  0.00     0.041 A 
ATOM     91  F   UNL A   1      46.034  29.374  33.557  1.00  0.00    -0.206 F 
ATOM     92  C   UNL A   1      46.666  26.774  35.994  1.00  0.00     0.022 A 
BRANCH  89  93
ATOM     93  S   UNL A   1      45.137  24.724  37.111  1.00  0.00     0.124 S 
ATOM     94  O   UNL A   1      44.746  25.446  38.317  1.00  0.00    -0.237 OA
ATOM     95  O   UNL A   1      44.076  23.979  36.440  1.00  0.00    -0.237 OA
ATOM     96  O   UNL A   1      46.423  24.034  37.190  1.00  0.00    -0.744 OA
ENDBRANCH  89  93
ENDBRANCH  63  86
ENDBRANCH  37  38
ENDBRANCH  30  32
ENDBRANCH  29  30
ENDBRANCH  28  29
ENDBRANCH   1  28
TORSDOF 19
ENDMDL
