MODEL 1
REMARK VINA RESULT:     -12.1      0.000      0.000
REMARK SMILES COc1ccc(Cl)c2c1N[C@@H](c1ccc(C(=O)OCCOC(=O)c3ccc(-c4c5nc(c(-c6cc(S(=O)(=O)[O-])ccc6F)c6ccc([nH]6)c(-c6cc(S(=O)(=O)[O-])ccc6F)c6nc(c(-c7cc(S(=O)(=O)[O-])ccc7F)c7ccc4[nH]7)C=C6)C=C5)cc3)cc1)[C@@H]1CC=C[C@H]21
REMARK SMILES IDX 20 1 19 2 18 3 16 4 17 5 15 6 12 7 13 8 88 9 14 10 87 11
REMARK SMILES IDX 11 12 3 13 4 14 9 15 5 16 8 17 10 18 6 19 93 20 7 22 89 23
REMARK SMILES IDX 92 24 90 25 91 26 2 27 1 28 21 29 22 30 23 31 24 32 25 33
REMARK SMILES IDX 86 34 26 35 85 36 27 37 28 38 29 39 79 40 30 41 84 42 78 43
REMARK SMILES IDX 80 44 31 45 83 46 77 47 76 48 32 50 64 51 44 52 63 53 45 54
REMARK SMILES IDX 48 55 62 56 81 57 46 58 47 59 61 61 82 62 49 63 33 64 34 65
REMARK SMILES IDX 42 66 35 67 41 68 43 69 40 70 36 71 37 72 38 73 39 74 65 75
REMARK SMILES IDX 66 76 74 77 67 78 73 79 75 80 72 81 68 82 69 83 70 84 71 85
REMARK SMILES IDX 50 86 51 87 59 88 52 89 58 90 60 91 57 92 53 93 54 94 55 95
REMARK SMILES IDX 56 96
REMARK H PARENT 10 21 80 49 48 60
REMARK Flexibility Score: inf
ROOT
ATOM      1  C   UNL A   1      37.570  20.004  24.886  1.00  0.00     0.275 C 
ENDROOT
BRANCH   1   2
ATOM      2  C   UNL A   1      36.044  20.025  24.952  1.00  0.00     0.275 C 
BRANCH   2   3
ATOM      3  O   UNL A   1      35.556  21.341  24.630  1.00  0.00    -0.458 OA
BRANCH   3   4
ATOM      4  C   UNL A   1      34.233  21.551  24.849  1.00  0.00     0.338 C 
ATOM      5  O   UNL A   1      33.384  20.692  25.007  1.00  0.00    -0.246 OA
BRANCH   4   6
ATOM      6  C   UNL A   1      33.941  23.004  24.963  1.00  0.00     0.060 A 
ATOM      7  C   UNL A   1      33.396  25.768  25.046  1.00  0.00    -0.025 A 
ATOM      8  C   UNL A   1      33.972  25.188  23.905  1.00  0.00     0.007 A 
ATOM      9  C   UNL A   1      33.087  24.941  26.139  1.00  0.00     0.007 A 
ATOM     10  C   UNL A   1      34.252  23.822  23.869  1.00  0.00     0.016 A 
ATOM     11  C   UNL A   1      33.357  23.569  26.100  1.00  0.00     0.016 A 
BRANCH   7  12
ATOM     12  C   UNL A   1      33.174  27.274  25.132  1.00  0.00     0.114 C 
ATOM     13  C   UNL A   1      34.941  29.764  27.293  1.00  0.00     0.142 A 
ATOM     14  C   UNL A   1      34.786  31.034  27.843  1.00  0.00     0.050 A 
ATOM     15  C   UNL A   1      33.896  29.127  26.594  1.00  0.00     0.083 A 
ATOM     16  C   UNL A   1      33.583  31.708  27.672  1.00  0.00     0.025 A 
ATOM     17  C   UNL A   1      32.675  29.806  26.426  1.00  0.00     0.005 A 
ATOM     18  N   UNL A   1      34.066  27.833  26.125  1.00  0.00    -0.375 N 
ATOM     19  C   UNL A   1      32.536  31.102  26.971  1.00  0.00     0.047 A 
ATOM     20  C   UNL A   1      31.518  29.106  25.757  1.00  0.00     0.051 C 
ATOM     21  H   UNL A   1      34.806  27.286  26.474  1.00  0.00     0.161 HD
ATOM     22  Cl  UNL A   1      31.058  31.996  26.850  1.00  0.00    -0.084 Cl
ATOM     23  C   UNL A   1      31.709  27.594  25.501  1.00  0.00     0.031 C 
ATOM     24  C   UNL A   1      31.166  29.600  24.377  1.00  0.00    -0.023 C 
ATOM     25  C   UNL A   1      30.741  27.301  24.339  1.00  0.00     0.034 C 
ATOM     26  C   UNL A   1      30.719  28.602  23.603  1.00  0.00    -0.030 C 
BRANCH  13  27
ATOM     27  O   UNL A   1      36.126  29.111  27.533  1.00  0.00    -0.495 OA
ATOM     28  C   UNL A   1      37.222  30.026  27.566  1.00  0.00     0.278 C 
ENDBRANCH  13  27
ENDBRANCH   7  12
ENDBRANCH   4   6
ENDBRANCH   3   4
ENDBRANCH   2   3
ENDBRANCH   1   2
BRANCH   1  29
ATOM     29  O   UNL A   1      38.106  21.147  25.578  1.00  0.00    -0.458 OA
BRANCH  29  30
ATOM     30  C   UNL A   1      39.324  20.974  26.139  1.00  0.00     0.338 C 
ATOM     31  O   UNL A   1      39.992  19.956  26.171  1.00  0.00    -0.246 OA
BRANCH  30  32
ATOM     32  C   UNL A   1      39.777  22.252  26.707  1.00  0.00     0.060 A 
ATOM     33  C   UNL A   1      39.260  23.440  26.192  1.00  0.00     0.016 A 
ATOM     34  C   UNL A   1      40.793  22.277  27.660  1.00  0.00     0.016 A 
ATOM     35  C   UNL A   1      39.801  24.663  26.581  1.00  0.00     0.010 A 
ATOM     36  C   UNL A   1      41.295  23.509  28.095  1.00  0.00     0.010 A 
ATOM     37  C   UNL A   1      40.828  24.711  27.533  1.00  0.00    -0.014 A 
BRANCH  37  38
ATOM     38  C   UNL A   1      41.443  26.012  27.905  1.00  0.00     0.031 A 
ATOM     39  C   UNL A   1      42.845  26.332  27.466  1.00  0.00     0.074 A 
ATOM     40  C   UNL A   1      40.743  26.909  28.624  1.00  0.00     0.049 A 
ATOM     41  N   UNL A   1      43.587  27.367  27.766  1.00  0.00    -0.248 NA
ATOM     42  C   UNL A   1      43.503  25.364  26.573  1.00  0.00     0.031 C 
ATOM     43  C   UNL A   1      39.363  26.731  29.075  1.00  0.00     0.029 A 
ATOM     44  N   UNL A   1      41.095  28.147  29.106  1.00  0.00    -0.354 N 
ATOM     45  C   UNL A   1      44.803  27.164  27.125  1.00  0.00     0.074 A 
ATOM     46  C   UNL A   1      44.709  25.897  26.433  1.00  0.00     0.031 C 
ATOM     47  C   UNL A   1      38.982  27.821  29.759  1.00  0.00     0.029 A 
ATOM     48  C   UNL A   1      40.107  28.748  29.851  1.00  0.00     0.049 A 
ATOM     49  H   UNL A   1      41.971  28.563  28.935  1.00  0.00     0.167 HD
ATOM     50  C   UNL A   1      45.893  27.964  27.113  1.00  0.00     0.034 A 
ATOM     51  C   UNL A   1      40.113  29.899  30.557  1.00  0.00     0.034 A 
ATOM     52  C   UNL A   1      45.967  29.239  27.778  1.00  0.00     0.049 A 
ATOM     53  C   UNL A   1      41.352  30.755  30.558  1.00  0.00     0.074 A 
ATOM     54  C   UNL A   1      47.026  30.130  27.798  1.00  0.00     0.029 A 
ATOM     55  N   UNL A   1      44.950  29.808  28.528  1.00  0.00    -0.354 N 
ATOM     56  N   UNL A   1      42.489  30.557  29.933  1.00  0.00    -0.248 NA
ATOM     57  C   UNL A   1      41.316  31.989  31.356  1.00  0.00     0.031 C 
ATOM     58  C   UNL A   1      46.668  31.215  28.598  1.00  0.00     0.029 A 
ATOM     59  C   UNL A   1      45.365  31.029  29.033  1.00  0.00     0.049 A 
ATOM     60  H   UNL A   1      44.064  29.405  28.679  1.00  0.00     0.167 HD
ATOM     61  C   UNL A   1      43.295  31.647  30.248  1.00  0.00     0.074 A 
ATOM     62  C   UNL A   1      42.510  32.512  31.102  1.00  0.00     0.031 C 
ATOM     63  C   UNL A   1      44.571  31.899  29.865  1.00  0.00     0.034 A 
BRANCH  50  64
ATOM     64  C   UNL A   1      47.115  27.507  26.359  1.00  0.00     0.023 A 
ATOM     65  C   UNL A   1      47.252  27.825  24.995  1.00  0.00     0.031 A 
ATOM     66  C   UNL A   1      48.065  26.655  26.948  1.00  0.00     0.131 A 
ATOM     67  C   UNL A   1      48.300  27.265  24.254  1.00  0.00     0.055 A 
ATOM     68  C   UNL A   1      49.125  26.125  26.211  1.00  0.00     0.041 A 
ATOM     69  F   UNL A   1      47.977  26.331  28.247  1.00  0.00    -0.206 F 
ATOM     70  C   UNL A   1      49.239  26.421  24.856  1.00  0.00     0.022 A 
BRANCH  67  71
ATOM     71  S   UNL A   1      48.459  27.580  22.475  1.00  0.00     0.124 S 
ATOM     72  O   UNL A   1      49.674  28.391  22.420  1.00  0.00    -0.237 OA
ATOM     73  O   UNL A   1      48.585  26.229  21.938  1.00  0.00    -0.237 OA
ATOM     74  O   UNL A   1      47.230  28.288  22.134  1.00  0.00    -0.744 OA
ENDBRANCH  67  71
ENDBRANCH  50  64
BRANCH  51  75
ATOM     75  C   UNL A   1      38.885  30.293  31.305  1.00  0.00     0.023 A 
ATOM     76  C   UNL A   1      38.002  31.255  30.782  1.00  0.00     0.031 A 
ATOM     77  C   UNL A   1      38.632  29.789  32.591  1.00  0.00     0.131 A 
ATOM     78  C   UNL A   1      36.945  31.731  31.567  1.00  0.00     0.055 A 
ATOM     79  C   UNL A   1      37.539  30.220  33.345  1.00  0.00     0.041 A 
ATOM     80  F   UNL A   1      39.450  28.875  33.132  1.00  0.00    -0.206 F 
ATOM     81  C   UNL A   1      36.698  31.207  32.840  1.00  0.00     0.022 A 
BRANCH  78  82
ATOM     82  S   UNL A   1      35.919  33.117  31.005  1.00  0.00     0.124 S 
ATOM     83  O   UNL A   1      34.573  32.565  31.108  1.00  0.00    -0.237 OA
ATOM     84  O   UNL A   1      36.255  34.149  31.984  1.00  0.00    -0.237 OA
ATOM     85  O   UNL A   1      36.393  33.369  29.648  1.00  0.00    -0.744 OA
ENDBRANCH  78  82
ENDBRANCH  51  75
BRANCH  63  86
ATOM     86  C   UNL A   1      45.232  33.170  30.339  1.00  0.00     0.023 A 
ATOM     87  C   UNL A   1      45.189  34.324  29.535  1.00  0.00     0.031 A 
ATOM     88  C   UNL A   1      46.036  33.186  31.490  1.00  0.00     0.131 A 
ATOM     89  C   UNL A   1      45.974  35.434  29.871  1.00  0.00     0.055 A 
ATOM     90  C   UNL A   1      46.784  34.309  31.842  1.00  0.00     0.041 A 
ATOM     91  F   UNL A   1      46.116  32.104  32.281  1.00  0.00    -0.206 F 
ATOM     92  C   UNL A   1      46.766  35.435  31.024  1.00  0.00     0.022 A 
BRANCH  89  93
ATOM     93  S   UNL A   1      46.050  36.888  28.787  1.00  0.00     0.124 S 
ATOM     94  O   UNL A   1      46.596  37.906  29.683  1.00  0.00    -0.237 OA
ATOM     95  O   UNL A   1      46.954  36.436  27.733  1.00  0.00    -0.237 OA
ATOM     96  O   UNL A   1      44.665  37.100  28.383  1.00  0.00    -0.744 OA
ENDBRANCH  89  93
ENDBRANCH  63  86
ENDBRANCH  37  38
ENDBRANCH  30  32
ENDBRANCH  29  30
ENDBRANCH   1  29
TORSDOF 16
ENDMDL
MODEL 2
REMARK VINA RESULT:     -12.1      4.720      7.516
REMARK SMILES COc1ccc(Cl)c2c1N[C@@H](c1ccc(C(=O)OCCOC(=O)c3ccc(-c4c5nc(c(-c6cc(S(=O)(=O)[O-])ccc6F)c6ccc([nH]6)c(-c6cc(S(=O)(=O)[O-])ccc6F)c6nc(c(-c7cc(S(=O)(=O)[O-])ccc7F)c7ccc4[nH]7)C=C6)C=C5)cc3)cc1)[C@@H]1CC=C[C@H]21
REMARK SMILES IDX 20 1 19 2 18 3 16 4 17 5 15 6 12 7 13 8 88 9 14 10 87 11
REMARK SMILES IDX 11 12 3 13 4 14 9 15 5 16 8 17 10 18 6 19 93 20 7 22 89 23
REMARK SMILES IDX 92 24 90 25 91 26 2 27 1 28 21 29 22 30 23 31 24 32 25 33
REMARK SMILES IDX 86 34 26 35 85 36 27 37 28 38 29 39 79 40 30 41 84 42 78 43
REMARK SMILES IDX 80 44 31 45 83 46 77 47 76 48 32 50 64 51 44 52 63 53 45 54
REMARK SMILES IDX 48 55 62 56 81 57 46 58 47 59 61 61 82 62 49 63 33 64 34 65
REMARK SMILES IDX 42 66 35 67 41 68 43 69 40 70 36 71 37 72 38 73 39 74 65 75
REMARK SMILES IDX 66 76 74 77 67 78 73 79 75 80 72 81 68 82 69 83 70 84 71 85
REMARK SMILES IDX 50 86 51 87 59 88 52 89 58 90 60 91 57 92 53 93 54 94 55 95
REMARK SMILES IDX 56 96
REMARK H PARENT 10 21 80 49 48 60
REMARK Flexibility Score: inf
ROOT
ATOM      1  C   UNL A   1      31.458  30.152  26.275  1.00  0.00     0.275 C 
ENDROOT
BRANCH   1   2
ATOM      2  C   UNL A   1      31.063  30.075  24.801  1.00  0.00     0.275 C 
BRANCH   2   3
ATOM      3  O   UNL A   1      31.147  28.713  24.341  1.00  0.00    -0.458 OA
BRANCH   3   4
ATOM      4  C   UNL A   1      32.146  28.447  23.461  1.00  0.00     0.338 C 
ATOM      5  O   UNL A   1      32.454  29.123  22.496  1.00  0.00    -0.246 OA
BRANCH   4   6
ATOM      6  C   UNL A   1      32.904  27.237  23.873  1.00  0.00     0.060 A 
ATOM      7  C   UNL A   1      34.286  24.952  24.775  1.00  0.00    -0.025 A 
ATOM      8  C   UNL A   1      33.702  25.841  25.691  1.00  0.00     0.007 A 
ATOM      9  C   UNL A   1      34.156  25.219  23.401  1.00  0.00     0.007 A 
ATOM     10  C   UNL A   1      33.028  26.978  25.245  1.00  0.00     0.016 A 
ATOM     11  C   UNL A   1      33.472  26.353  22.952  1.00  0.00     0.016 A 
BRANCH   7  12
ATOM     12  C   UNL A   1      35.105  23.759  25.255  1.00  0.00     0.114 C 
ATOM     13  C   UNL A   1      38.620  23.717  26.534  1.00  0.00     0.142 A 
ATOM     14  C   UNL A   1      39.704  22.861  26.712  1.00  0.00     0.050 A 
ATOM     15  C   UNL A   1      37.455  23.304  25.855  1.00  0.00     0.083 A 
ATOM     16  C   UNL A   1      39.628  21.557  26.240  1.00  0.00     0.025 A 
ATOM     17  C   UNL A   1      37.380  21.985  25.371  1.00  0.00     0.005 A 
ATOM     18  N   UNL A   1      36.427  24.208  25.634  1.00  0.00    -0.375 N 
ATOM     19  C   UNL A   1      38.478  21.121  25.575  1.00  0.00     0.047 A 
ATOM     20  C   UNL A   1      36.178  21.554  24.567  1.00  0.00     0.051 C 
ATOM     21  H   UNL A   1      36.601  25.171  25.737  1.00  0.00     0.161 HD
ATOM     22  Cl  UNL A   1      38.490  19.494  24.979  1.00  0.00    -0.084 Cl
ATOM     23  C   UNL A   1      35.211  22.685  24.151  1.00  0.00     0.031 C 
ATOM     24  C   UNL A   1      35.239  20.598  25.258  1.00  0.00    -0.023 C 
ATOM     25  C   UNL A   1      33.875  21.950  23.926  1.00  0.00     0.034 C 
ATOM     26  C   UNL A   1      33.970  20.808  24.887  1.00  0.00    -0.030 C 
BRANCH  13  27
ATOM     27  O   UNL A   1      38.759  25.013  26.966  1.00  0.00    -0.495 OA
ATOM     28  C   UNL A   1      39.404  25.066  28.239  1.00  0.00     0.278 C 
ENDBRANCH  13  27
ENDBRANCH   7  12
ENDBRANCH   4   6
ENDBRANCH   3   4
ENDBRANCH   2   3
ENDBRANCH   1   2
BRANCH   1  29
ATOM     29  O   UNL A   1      32.883  30.319  26.392  1.00  0.00    -0.458 OA
BRANCH  29  30
ATOM     30  C   UNL A   1      33.291  31.410  27.079  1.00  0.00     0.338 C 
ATOM     31  O   UNL A   1      32.669  32.439  27.281  1.00  0.00    -0.246 OA
BRANCH  30  32
ATOM     32  C   UNL A   1      34.641  31.168  27.608  1.00  0.00     0.060 A 
ATOM     33  C   UNL A   1      35.012  29.865  27.940  1.00  0.00     0.016 A 
ATOM     34  C   UNL A   1      35.490  32.237  27.883  1.00  0.00     0.016 A 
ATOM     35  C   UNL A   1      36.209  29.630  28.609  1.00  0.00     0.010 A 
ATOM     36  C   UNL A   1      36.721  31.993  28.502  1.00  0.00     0.010 A 
ATOM     37  C   UNL A   1      37.075  30.692  28.902  1.00  0.00    -0.014 A 
BRANCH  37  38
ATOM     38  C   UNL A   1      38.327  30.447  29.667  1.00  0.00     0.031 A 
ATOM     39  C   UNL A   1      39.433  29.632  29.056  1.00  0.00     0.074 A 
ATOM     40  C   UNL A   1      38.476  30.963  30.902  1.00  0.00     0.049 A 
ATOM     41  N   UNL A   1      40.556  29.232  29.594  1.00  0.00    -0.248 NA
ATOM     42  C   UNL A   1      39.257  29.210  27.657  1.00  0.00     0.031 C 
ATOM     43  C   UNL A   1      37.492  31.802  31.585  1.00  0.00     0.029 A 
ATOM     44  N   UNL A   1      39.509  30.857  31.801  1.00  0.00    -0.354 N 
ATOM     45  C   UNL A   1      41.205  28.490  28.615  1.00  0.00     0.074 A 
ATOM     46  C   UNL A   1      40.345  28.480  27.452  1.00  0.00     0.031 C 
ATOM     47  C   UNL A   1      37.970  32.141  32.792  1.00  0.00     0.029 A 
ATOM     48  C   UNL A   1      39.265  31.495  32.995  1.00  0.00     0.049 A 
ATOM     49  H   UNL A   1      40.343  30.370  31.610  1.00  0.00     0.167 HD
ATOM     50  C   UNL A   1      42.411  27.880  28.680  1.00  0.00     0.034 A 
ATOM     51  C   UNL A   1      39.983  31.532  34.138  1.00  0.00     0.034 A 
ATOM     52  C   UNL A   1      43.276  27.923  29.830  1.00  0.00     0.049 A 
ATOM     53  C   UNL A   1      41.306  30.815  34.198  1.00  0.00     0.074 A 
ATOM     54  C   UNL A   1      44.530  27.353  29.975  1.00  0.00     0.029 A 
ATOM     55  N   UNL A   1      42.990  28.572  31.021  1.00  0.00    -0.354 N 
ATOM     56  N   UNL A   1      41.915  30.131  33.257  1.00  0.00    -0.248 NA
ATOM     57  C   UNL A   1      42.042  30.867  35.469  1.00  0.00     0.031 C 
ATOM     58  C   UNL A   1      44.981  27.617  31.269  1.00  0.00     0.029 A 
ATOM     59  C   UNL A   1      44.035  28.398  31.914  1.00  0.00     0.049 A 
ATOM     60  H   UNL A   1      42.168  29.081  31.204  1.00  0.00     0.167 HD
ATOM     61  C   UNL A   1      43.110  29.690  33.816  1.00  0.00     0.074 A 
ATOM     62  C   UNL A   1      43.150  30.199  35.170  1.00  0.00     0.031 C 
ATOM     63  C   UNL A   1      44.081  28.927  33.254  1.00  0.00     0.034 A 
BRANCH  50  64
ATOM     64  C   UNL A   1      42.893  27.105  27.482  1.00  0.00     0.023 A 
ATOM     65  C   UNL A   1      42.884  25.698  27.513  1.00  0.00     0.031 A 
ATOM     66  C   UNL A   1      43.476  27.748  26.376  1.00  0.00     0.131 A 
ATOM     67  C   UNL A   1      43.481  24.978  26.472  1.00  0.00     0.055 A 
ATOM     68  C   UNL A   1      44.041  27.024  25.326  1.00  0.00     0.041 A 
ATOM     69  F   UNL A   1      43.499  29.088  26.301  1.00  0.00    -0.206 F 
ATOM     70  C   UNL A   1      44.055  25.632  25.377  1.00  0.00     0.022 A 
BRANCH  67  71
ATOM     71  S   UNL A   1      43.570  23.167  26.518  1.00  0.00     0.124 S 
ATOM     72  O   UNL A   1      42.881  22.799  25.282  1.00  0.00    -0.237 OA
ATOM     73  O   UNL A   1      45.010  22.933  26.524  1.00  0.00    -0.237 OA
ATOM     74  O   UNL A   1      42.864  22.813  27.745  1.00  0.00    -0.744 OA
ENDBRANCH  67  71
ENDBRANCH  50  64
BRANCH  51  75
ATOM     75  C   UNL A   1      39.449  32.294  35.302  1.00  0.00     0.023 A 
ATOM     76  C   UNL A   1      39.828  33.631  35.522  1.00  0.00     0.031 A 
ATOM     77  C   UNL A   1      38.635  31.669  36.261  1.00  0.00     0.131 A 
ATOM     78  C   UNL A   1      39.448  34.278  36.705  1.00  0.00     0.055 A 
ATOM     79  C   UNL A   1      38.206  32.339  37.408  1.00  0.00     0.041 A 
ATOM     80  F   UNL A   1      38.254  30.394  36.096  1.00  0.00    -0.206 F 
ATOM     81  C   UNL A   1      38.625  33.645  37.642  1.00  0.00     0.022 A 
BRANCH  78  82
ATOM     82  S   UNL A   1      40.094  35.923  37.114  1.00  0.00     0.124 S 
ATOM     83  O   UNL A   1      39.356  36.248  38.330  1.00  0.00    -0.237 OA
ATOM     84  O   UNL A   1      41.516  35.645  37.294  1.00  0.00    -0.237 OA
ATOM     85  O   UNL A   1      39.759  36.726  35.942  1.00  0.00    -0.744 OA
ENDBRANCH  78  82
ENDBRANCH  51  75
BRANCH  63  86
ATOM     86  C   UNL A   1      45.299  28.586  34.075  1.00  0.00     0.023 A 
ATOM     87  C   UNL A   1      45.293  27.445  34.899  1.00  0.00     0.031 A 
ATOM     88  C   UNL A   1      46.385  29.473  34.168  1.00  0.00     0.131 A 
ATOM     89  C   UNL A   1      46.333  27.243  35.814  1.00  0.00     0.055 A 
ATOM     90  C   UNL A   1      47.439  29.245  35.053  1.00  0.00     0.041 A 
ATOM     91  F   UNL A   1      46.429  30.579  33.410  1.00  0.00    -0.206 F 
ATOM     92  C   UNL A   1      47.410  28.133  35.891  1.00  0.00     0.022 A 
BRANCH  89  93
ATOM     93  S   UNL A   1      46.292  25.858  36.986  1.00  0.00     0.124 S 
ATOM     94  O   UNL A   1      47.539  26.048  37.725  1.00  0.00    -0.237 OA
ATOM     95  O   UNL A   1      45.073  26.134  37.741  1.00  0.00    -0.237 OA
ATOM     96  O   UNL A   1      46.252  24.675  36.133  1.00  0.00    -0.744 OA
ENDBRANCH  89  93
ENDBRANCH  63  86
ENDBRANCH  37  38
ENDBRANCH  30  32
ENDBRANCH  29  30
ENDBRANCH   1  29
TORSDOF 16
ENDMDL
MODEL 3
REMARK VINA RESULT:     -11.9      4.430      6.830
REMARK SMILES COc1ccc(Cl)c2c1N[C@@H](c1ccc(C(=O)OCCOC(=O)c3ccc(-c4c5nc(c(-c6cc(S(=O)(=O)[O-])ccc6F)c6ccc([nH]6)c(-c6cc(S(=O)(=O)[O-])ccc6F)c6nc(c(-c7cc(S(=O)(=O)[O-])ccc7F)c7ccc4[nH]7)C=C6)C=C5)cc3)cc1)[C@@H]1CC=C[C@H]21
REMARK SMILES IDX 20 1 19 2 18 3 16 4 17 5 15 6 12 7 13 8 88 9 14 10 87 11
REMARK SMILES IDX 11 12 3 13 4 14 9 15 5 16 8 17 10 18 6 19 93 20 7 22 89 23
REMARK SMILES IDX 92 24 90 25 91 26 2 27 1 28 21 29 22 30 23 31 24 32 25 33
REMARK SMILES IDX 86 34 26 35 85 36 27 37 28 38 29 39 79 40 30 41 84 42 78 43
REMARK SMILES IDX 80 44 31 45 83 46 77 47 76 48 32 50 64 51 44 52 63 53 45 54
REMARK SMILES IDX 48 55 62 56 81 57 46 58 47 59 61 61 82 62 49 63 33 64 34 65
REMARK SMILES IDX 42 66 35 67 41 68 43 69 40 70 36 71 37 72 38 73 39 74 65 75
REMARK SMILES IDX 66 76 74 77 67 78 73 79 75 80 72 81 68 82 69 83 70 84 71 85
REMARK SMILES IDX 50 86 51 87 59 88 52 89 58 90 60 91 57 92 53 93 54 94 55 95
REMARK SMILES IDX 56 96
REMARK H PARENT 10 21 80 49 48 60
REMARK Flexibility Score: inf
ROOT
ATOM      1  C   UNL A   1      42.846  21.337  25.781  1.00  0.00     0.275 C 
ENDROOT
BRANCH   1   2
ATOM      2  C   UNL A   1      41.670  20.508  26.296  1.00  0.00     0.275 C 
BRANCH   2   3
ATOM      3  O   UNL A   1      40.433  21.043  25.788  1.00  0.00    -0.458 OA
BRANCH   3   4
ATOM      4  C   UNL A   1      39.471  20.132  25.494  1.00  0.00     0.338 C 
ATOM      5  O   UNL A   1      39.630  18.930  25.377  1.00  0.00    -0.246 OA
BRANCH   4   6
ATOM      6  C   UNL A   1      38.137  20.780  25.410  1.00  0.00     0.060 A 
ATOM      7  C   UNL A   1      35.667  22.128  25.251  1.00  0.00    -0.025 A 
ATOM      8  C   UNL A   1      36.828  22.809  25.650  1.00  0.00     0.007 A 
ATOM      9  C   UNL A   1      35.765  20.766  24.923  1.00  0.00     0.007 A 
ATOM     10  C   UNL A   1      38.048  22.139  25.739  1.00  0.00     0.016 A 
ATOM     11  C   UNL A   1      36.990  20.094  25.002  1.00  0.00     0.016 A 
BRANCH   7  12
ATOM     12  C   UNL A   1      34.313  22.828  25.242  1.00  0.00     0.114 C 
ATOM     13  C   UNL A   1      32.978  25.272  22.744  1.00  0.00     0.142 A 
ATOM     14  C   UNL A   1      32.028  26.281  22.607  1.00  0.00     0.050 A 
ATOM     15  C   UNL A   1      33.234  24.660  23.987  1.00  0.00     0.083 A 
ATOM     16  C   UNL A   1      31.287  26.674  23.714  1.00  0.00     0.025 A 
ATOM     17  C   UNL A   1      32.488  25.062  25.111  1.00  0.00     0.005 A 
ATOM     18  N   UNL A   1      34.239  23.711  24.097  1.00  0.00    -0.375 N 
ATOM     19  C   UNL A   1      31.513  26.072  24.956  1.00  0.00     0.047 A 
ATOM     20  C   UNL A   1      32.809  24.479  26.466  1.00  0.00     0.051 C 
ATOM     21  H   UNL A   1      34.913  23.637  23.384  1.00  0.00     0.161 HD
ATOM     22  Cl  UNL A   1      30.577  26.659  26.290  1.00  0.00    -0.084 Cl
ATOM     23  C   UNL A   1      34.099  23.633  26.541  1.00  0.00     0.031 C 
ATOM     24  C   UNL A   1      31.789  23.518  27.020  1.00  0.00    -0.023 C 
ATOM     25  C   UNL A   1      33.858  22.718  27.758  1.00  0.00     0.034 C 
ATOM     26  C   UNL A   1      32.372  22.558  27.749  1.00  0.00    -0.030 C 
BRANCH  13  27
ATOM     27  O   UNL A   1      33.726  24.953  21.637  1.00  0.00    -0.495 OA
ATOM     28  C   UNL A   1      32.968  25.115  20.437  1.00  0.00     0.278 C 
ENDBRANCH  13  27
ENDBRANCH   7  12
ENDBRANCH   4   6
ENDBRANCH   3   4
ENDBRANCH   2   3
ENDBRANCH   1   2
BRANCH   1  29
ATOM     29  O   UNL A   1      42.360  22.502  25.091  1.00  0.00    -0.458 OA
BRANCH  29  30
ATOM     30  C   UNL A   1      43.164  23.588  25.136  1.00  0.00     0.338 C 
ATOM     31  O   UNL A   1      44.194  23.779  24.514  1.00  0.00    -0.246 OA
BRANCH  30  32
ATOM     32  C   UNL A   1      42.585  24.577  26.057  1.00  0.00     0.060 A 
ATOM     33  C   UNL A   1      43.075  25.882  26.041  1.00  0.00     0.016 A 
ATOM     34  C   UNL A   1      41.647  24.185  27.010  1.00  0.00     0.016 A 
ATOM     35  C   UNL A   1      42.677  26.789  27.020  1.00  0.00     0.010 A 
ATOM     36  C   UNL A   1      41.202  25.114  27.957  1.00  0.00     0.010 A 
ATOM     37  C   UNL A   1      41.739  26.414  27.991  1.00  0.00    -0.014 A 
BRANCH  37  38
ATOM     38  C   UNL A   1      41.358  27.364  29.069  1.00  0.00     0.031 A 
ATOM     39  C   UNL A   1      42.194  27.461  30.316  1.00  0.00     0.074 A 
ATOM     40  C   UNL A   1      40.272  28.147  28.926  1.00  0.00     0.049 A 
ATOM     41  N   UNL A   1      41.976  28.156  31.402  1.00  0.00    -0.248 NA
ATOM     42  C   UNL A   1      43.437  26.673  30.348  1.00  0.00     0.031 C 
ATOM     43  C   UNL A   1      39.405  28.173  27.748  1.00  0.00     0.029 A 
ATOM     44  N   UNL A   1      39.709  29.068  29.777  1.00  0.00    -0.354 N 
ATOM     45  C   UNL A   1      43.035  27.871  32.255  1.00  0.00     0.074 A 
ATOM     46  C   UNL A   1      43.887  26.925  31.570  1.00  0.00     0.031 C 
ATOM     47  C   UNL A   1      38.426  29.070  27.946  1.00  0.00     0.029 A 
ATOM     48  C   UNL A   1      38.557  29.637  29.286  1.00  0.00     0.049 A 
ATOM     49  H   UNL A   1      40.094  29.298  30.653  1.00  0.00     0.167 HD
ATOM     50  C   UNL A   1      43.274  28.359  33.494  1.00  0.00     0.034 A 
ATOM     51  C   UNL A   1      37.684  30.492  29.859  1.00  0.00     0.034 A 
ATOM     52  C   UNL A   1      42.437  29.325  34.157  1.00  0.00     0.049 A 
ATOM     53  C   UNL A   1      37.952  30.994  31.253  1.00  0.00     0.074 A 
ATOM     54  C   UNL A   1      42.617  29.896  35.405  1.00  0.00     0.029 A 
ATOM     55  N   UNL A   1      41.276  29.871  33.631  1.00  0.00    -0.354 N 
ATOM     56  N   UNL A   1      38.967  30.727  32.042  1.00  0.00    -0.248 NA
ATOM     57  C   UNL A   1      36.963  31.909  31.841  1.00  0.00     0.031 C 
ATOM     58  C   UNL A   1      41.541  30.749  35.654  1.00  0.00     0.029 A 
ATOM     59  C   UNL A   1      40.718  30.755  34.540  1.00  0.00     0.049 A 
ATOM     60  H   UNL A   1      40.904  29.661  32.744  1.00  0.00     0.167 HD
ATOM     61  C   UNL A   1      38.747  31.454  33.208  1.00  0.00     0.074 A 
ATOM     62  C   UNL A   1      37.515  32.187  33.016  1.00  0.00     0.031 C 
ATOM     63  C   UNL A   1      39.501  31.501  34.335  1.00  0.00     0.034 A 
BRANCH  50  64
ATOM     64  C   UNL A   1      44.488  27.871  34.240  1.00  0.00     0.023 A 
ATOM     65  C   UNL A   1      45.742  28.462  33.993  1.00  0.00     0.031 A 
ATOM     66  C   UNL A   1      44.430  26.749  35.084  1.00  0.00     0.131 A 
ATOM     67  C   UNL A   1      46.894  27.905  34.559  1.00  0.00     0.055 A 
ATOM     68  C   UNL A   1      45.579  26.217  35.669  1.00  0.00     0.041 A 
ATOM     69  F   UNL A   1      43.255  26.158  35.352  1.00  0.00    -0.206 F 
ATOM     70  C   UNL A   1      46.820  26.789  35.399  1.00  0.00     0.022 A 
BRANCH  67  71
ATOM     71  S   UNL A   1      48.536  28.583  34.194  1.00  0.00     0.124 S 
ATOM     72  O   UNL A   1      48.377  29.984  34.580  1.00  0.00    -0.237 OA
ATOM     73  O   UNL A   1      49.394  27.789  35.067  1.00  0.00    -0.237 OA
ATOM     74  O   UNL A   1      48.700  28.353  32.762  1.00  0.00    -0.744 OA
ENDBRANCH  67  71
ENDBRANCH  50  64
BRANCH  51  75
ATOM     75  C   UNL A   1      36.485  30.925  29.086  1.00  0.00     0.023 A 
ATOM     76  C   UNL A   1      35.565  29.980  28.595  1.00  0.00     0.031 A 
ATOM     77  C   UNL A   1      36.295  32.274  28.745  1.00  0.00     0.131 A 
ATOM     78  C   UNL A   1      34.537  30.388  27.736  1.00  0.00     0.055 A 
ATOM     79  C   UNL A   1      35.230  32.685  27.940  1.00  0.00     0.041 A 
ATOM     80  F   UNL A   1      37.149  33.209  29.186  1.00  0.00    -0.206 F 
ATOM     81  C   UNL A   1      34.354  31.738  27.419  1.00  0.00     0.022 A 
BRANCH  78  82
ATOM     82  S   UNL A   1      33.468  29.171  26.920  1.00  0.00     0.124 S 
ATOM     83  O   UNL A   1      34.423  28.140  26.526  1.00  0.00    -0.237 OA
ATOM     84  O   UNL A   1      32.556  28.807  28.002  1.00  0.00    -0.237 OA
ATOM     85  O   UNL A   1      32.865  29.922  25.823  1.00  0.00    -0.744 OA
ENDBRANCH  78  82
ENDBRANCH  51  75
BRANCH  63  86
ATOM     86  C   UNL A   1      39.049  32.382  35.472  1.00  0.00     0.023 A 
ATOM     87  C   UNL A   1      39.546  33.694  35.583  1.00  0.00     0.031 A 
ATOM     88  C   UNL A   1      38.270  31.870  36.524  1.00  0.00     0.131 A 
ATOM     89  C   UNL A   1      39.295  34.436  36.744  1.00  0.00     0.055 A 
ATOM     90  C   UNL A   1      37.989  32.630  37.659  1.00  0.00     0.041 A 
ATOM     91  F   UNL A   1      37.784  30.621  36.466  1.00  0.00    -0.206 F 
ATOM     92  C   UNL A   1      38.513  33.914  37.780  1.00  0.00     0.022 A 
BRANCH  89  93
ATOM     93  S   UNL A   1      40.031  36.078  36.982  1.00  0.00     0.124 S 
ATOM     94  O   UNL A   1      39.288  36.580  38.136  1.00  0.00    -0.237 OA
ATOM     95  O   UNL A   1      41.431  35.750  37.237  1.00  0.00    -0.237 OA
ATOM     96  O   UNL A   1      39.764  36.770  35.726  1.00  0.00    -0.744 OA
ENDBRANCH  89  93
ENDBRANCH  63  86
ENDBRANCH  37  38
ENDBRANCH  30  32
ENDBRANCH  29  30
ENDBRANCH   1  29
TORSDOF 16
ENDMDL
