MODEL 1
REMARK VINA RESULT:     -10.7      0.000      0.000
REMARK SMILES CCCN(CCC)c1ccc(C(=O)OCCOC(=O)c2ccc(-c3c4nc(c(-c5cc(S(=O)(=O)[O-])ccc5F)c5ccc([nH]5)c(-c5cc(S(=O)(=O)[O-])ccc5F)c5nc(c(-c6cc(S(=O)(=O)[O-])ccc6F)c6ccc3[nH]6)C=C5)C=C4)cc2)cc1[N+](=O)[O-]
REMARK SMILES IDX 15 1 14 2 12 3 13 4 11 5 8 6 9 7 84 8 10 9 83 10 4 11 3 12
REMARK SMILES IDX 2 13 1 14 5 15 6 16 7 17 85 18 86 19 87 20 16 21 17 22 18 23
REMARK SMILES IDX 19 24 20 25 21 26 82 27 22 28 81 29 23 30 24 31 25 32 75 33
REMARK SMILES IDX 26 34 80 35 74 36 76 37 27 38 79 39 73 40 72 41 28 43 60 44
REMARK SMILES IDX 40 45 59 46 41 47 44 48 58 49 77 50 42 51 43 52 57 54 78 55
REMARK SMILES IDX 45 56 29 57 30 58 38 59 31 60 37 61 39 62 36 63 32 64 33 65
REMARK SMILES IDX 34 66 35 67 61 68 62 69 70 70 63 71 69 72 71 73 68 74 64 75
REMARK SMILES IDX 65 76 66 77 67 78 46 79 47 80 55 81 48 82 54 83 56 84 53 85
REMARK SMILES IDX 49 86 50 87 51 88 52 89
REMARK H PARENT 76 42 44 53
REMARK Flexibility Score: inf
ROOT
ATOM      1  C   UNL A   1      35.134  20.381  25.024  1.00  0.00     0.275 C 
ENDROOT
BRANCH   1   2
ATOM      2  O   UNL A   1      34.663  21.703  24.705  1.00  0.00    -0.458 OA
BRANCH   2   3
ATOM      3  C   UNL A   1      33.420  22.011  25.143  1.00  0.00     0.338 C 
ATOM      4  O   UNL A   1      32.661  21.259  25.736  1.00  0.00    -0.246 OA
BRANCH   3   5
ATOM      5  C   UNL A   1      33.088  23.436  24.872  1.00  0.00     0.067 A 
ATOM      6  C   UNL A   1      32.569  26.214  24.523  1.00  0.00     0.116 A 
ATOM      7  C   UNL A   1      32.511  25.613  25.789  1.00  0.00     0.034 A 
ATOM      8  C   UNL A   1      32.887  25.373  23.440  1.00  0.00     0.293 A 
ATOM      9  C   UNL A   1      32.767  24.249  25.965  1.00  0.00     0.018 A 
ATOM     10  C   UNL A   1      33.140  23.999  23.595  1.00  0.00     0.103 A 
BRANCH   6  11
ATOM     11  N   UNL A   1      32.282  27.564  24.394  1.00  0.00    -0.366 N 
BRANCH  11  12
ATOM     12  C   UNL A   1      30.910  28.032  24.618  1.00  0.00     0.116 C 
BRANCH  12  13
ATOM     13  C   UNL A   1      30.554  29.188  23.674  1.00  0.00     0.018 C 
ATOM     14  C   UNL A   1      29.166  29.067  23.059  1.00  0.00     0.006 C 
ENDBRANCH  12  13
ENDBRANCH  11  12
BRANCH  11  15
ATOM     15  C   UNL A   1      33.391  28.531  24.510  1.00  0.00     0.116 C 
BRANCH  15  16
ATOM     16  C   UNL A   1      33.319  29.370  25.794  1.00  0.00     0.018 C 
ATOM     17  C   UNL A   1      33.779  28.599  27.026  1.00  0.00     0.006 C 
ENDBRANCH  15  16
ENDBRANCH  11  15
ENDBRANCH   6  11
BRANCH   8  18
ATOM     18  N   UNL A   1      32.843  25.879  22.078  1.00  0.00     0.065 N 
ATOM     19  O   UNL A   1      33.901  26.353  21.631  1.00  0.00    -0.258 OA
ATOM     20  O   UNL A   1      31.762  25.860  21.477  1.00  0.00    -0.258 OA
ENDBRANCH   8  18
ENDBRANCH   3   5
ENDBRANCH   2   3
ENDBRANCH   1   2
BRANCH   1  21
ATOM     21  C   UNL A   1      36.658  20.295  24.892  1.00  0.00     0.275 C 
BRANCH  21  22
ATOM     22  O   UNL A   1      37.330  21.314  25.659  1.00  0.00    -0.458 OA
BRANCH  22  23
ATOM     23  C   UNL A   1      38.625  21.044  25.954  1.00  0.00     0.338 C 
ATOM     24  O   UNL A   1      39.226  20.006  25.727  1.00  0.00    -0.246 OA
BRANCH  23  25
ATOM     25  C   UNL A   1      39.286  22.246  26.490  1.00  0.00     0.060 A 
ATOM     26  C   UNL A   1      38.761  23.490  26.130  1.00  0.00     0.016 A 
ATOM     27  C   UNL A   1      40.459  22.168  27.242  1.00  0.00     0.016 A 
ATOM     28  C   UNL A   1      39.414  24.662  26.504  1.00  0.00     0.010 A 
ATOM     29  C   UNL A   1      41.109  23.349  27.627  1.00  0.00     0.010 A 
ATOM     30  C   UNL A   1      40.599  24.606  27.247  1.00  0.00    -0.014 A 
BRANCH  30  31
ATOM     31  C   UNL A   1      41.330  25.864  27.561  1.00  0.00     0.031 A 
ATOM     32  C   UNL A   1      40.677  26.921  28.409  1.00  0.00     0.074 A 
ATOM     33  C   UNL A   1      42.593  26.040  27.125  1.00  0.00     0.049 A 
ATOM     34  N   UNL A   1      41.104  28.118  28.723  1.00  0.00    -0.248 NA
ATOM     35  C   UNL A   1      39.361  26.586  28.975  1.00  0.00     0.031 C 
ATOM     36  C   UNL A   1      43.356  25.068  26.341  1.00  0.00     0.029 A 
ATOM     37  N   UNL A   1      43.458  27.095  27.283  1.00  0.00    -0.354 N 
ATOM     38  C   UNL A   1      40.100  28.692  29.496  1.00  0.00     0.074 A 
ATOM     39  C   UNL A   1      39.034  27.716  29.583  1.00  0.00     0.031 C 
ATOM     40  C   UNL A   1      44.581  25.565  26.101  1.00  0.00     0.029 A 
ATOM     41  C   UNL A   1      44.669  26.913  26.654  1.00  0.00     0.049 A 
ATOM     42  H   UNL A   1      43.234  27.904  27.797  1.00  0.00     0.167 HD
ATOM     43  C   UNL A   1      40.074  29.918  30.078  1.00  0.00     0.034 A 
ATOM     44  C   UNL A   1      45.717  27.749  26.510  1.00  0.00     0.034 A 
ATOM     45  C   UNL A   1      41.156  30.872  29.997  1.00  0.00     0.049 A 
ATOM     46  C   UNL A   1      45.641  29.129  27.114  1.00  0.00     0.074 A 
ATOM     47  C   UNL A   1      41.235  32.137  30.557  1.00  0.00     0.029 A 
ATOM     48  N   UNL A   1      42.347  30.670  29.312  1.00  0.00    -0.354 N 
ATOM     49  N   UNL A   1      44.669  29.673  27.809  1.00  0.00    -0.248 NA
ATOM     50  C   UNL A   1      46.801  30.006  26.910  1.00  0.00     0.031 C 
ATOM     51  C   UNL A   1      42.443  32.720  30.161  1.00  0.00     0.029 A 
ATOM     52  C   UNL A   1      43.154  31.794  29.414  1.00  0.00     0.049 A 
ATOM     53  H   UNL A   1      42.585  29.848  28.824  1.00  0.00     0.167 HD
ATOM     54  C   UNL A   1      45.111  30.951  28.143  1.00  0.00     0.074 A 
ATOM     55  C   UNL A   1      46.443  31.087  27.588  1.00  0.00     0.031 C 
ATOM     56  C   UNL A   1      44.474  31.923  28.844  1.00  0.00     0.034 A 
BRANCH  43  57
ATOM     57  C   UNL A   1      38.809  30.315  30.802  1.00  0.00     0.023 A 
ATOM     58  C   UNL A   1      37.721  30.904  30.135  1.00  0.00     0.031 A 
ATOM     59  C   UNL A   1      38.704  30.128  32.193  1.00  0.00     0.131 A 
ATOM     60  C   UNL A   1      36.609  31.349  30.866  1.00  0.00     0.055 A 
ATOM     61  C   UNL A   1      37.562  30.502  32.903  1.00  0.00     0.041 A 
ATOM     62  F   UNL A   1      39.718  29.591  32.887  1.00  0.00    -0.206 F 
ATOM     63  C   UNL A   1      36.511  31.130  32.243  1.00  0.00     0.022 A 
BRANCH  60  64
ATOM     64  S   UNL A   1      35.354  32.347  30.017  1.00  0.00     0.124 S 
ATOM     65  O   UNL A   1      36.141  33.496  29.576  1.00  0.00    -0.237 OA
ATOM     66  O   UNL A   1      34.894  31.447  28.966  1.00  0.00    -0.237 OA
ATOM     67  O   UNL A   1      34.378  32.635  31.065  1.00  0.00    -0.744 OA
ENDBRANCH  60  64
ENDBRANCH  43  57
BRANCH  44  68
ATOM     68  C   UNL A   1      46.907  27.334  25.711  1.00  0.00     0.023 A 
ATOM     69  C   UNL A   1      47.091  27.780  24.392  1.00  0.00     0.031 A 
ATOM     70  C   UNL A   1      47.858  26.447  26.244  1.00  0.00     0.131 A 
ATOM     71  C   UNL A   1      48.178  27.309  23.640  1.00  0.00     0.055 A 
ATOM     72  C   UNL A   1      48.966  26.022  25.511  1.00  0.00     0.041 A 
ATOM     73  F   UNL A   1      47.728  25.986  27.499  1.00  0.00    -0.206 F 
ATOM     74  C   UNL A   1      49.125  26.444  24.196  1.00  0.00     0.022 A 
BRANCH  71  75
ATOM     75  S   UNL A   1      48.296  27.779  21.893  1.00  0.00     0.124 S 
ATOM     76  O   UNL A   1      49.509  28.589  21.882  1.00  0.00    -0.237 OA
ATOM     77  O   UNL A   1      48.386  26.480  21.235  1.00  0.00    -0.237 OA
ATOM     78  O   UNL A   1      47.055  28.512  21.652  1.00  0.00    -0.744 OA
ENDBRANCH  71  75
ENDBRANCH  44  68
BRANCH  56  79
ATOM     79  C   UNL A   1      45.238  33.202  29.085  1.00  0.00     0.023 A 
ATOM     80  C   UNL A   1      45.156  34.292  28.201  1.00  0.00     0.031 A 
ATOM     81  C   UNL A   1      46.076  33.323  30.208  1.00  0.00     0.131 A 
ATOM     82  C   UNL A   1      45.940  35.435  28.425  1.00  0.00     0.055 A 
ATOM     83  C   UNL A   1      46.811  34.484  30.456  1.00  0.00     0.041 A 
ATOM     84  F   UNL A   1      46.195  32.312  31.083  1.00  0.00    -0.206 F 
ATOM     85  C   UNL A   1      46.755  35.543  29.554  1.00  0.00     0.022 A 
BRANCH  82  86
ATOM     86  S   UNL A   1      45.950  36.746  27.171  1.00  0.00     0.124 S 
ATOM     87  O   UNL A   1      46.505  36.054  26.013  1.00  0.00    -0.237 OA
ATOM     88  O   UNL A   1      44.538  37.105  27.083  1.00  0.00    -0.237 OA
ATOM     89  O   UNL A   1      46.813  37.772  27.753  1.00  0.00    -0.744 OA
ENDBRANCH  82  86
ENDBRANCH  56  79
ENDBRANCH  30  31
ENDBRANCH  23  25
ENDBRANCH  22  23
ENDBRANCH  21  22
ENDBRANCH   1  21
TORSDOF 20
ENDMDL
MODEL 2
REMARK VINA RESULT:     -10.5      1.073      7.674
REMARK SMILES CCCN(CCC)c1ccc(C(=O)OCCOC(=O)c2ccc(-c3c4nc(c(-c5cc(S(=O)(=O)[O-])ccc5F)c5ccc([nH]5)c(-c5cc(S(=O)(=O)[O-])ccc5F)c5nc(c(-c6cc(S(=O)(=O)[O-])ccc6F)c6ccc3[nH]6)C=C5)C=C4)cc2)cc1[N+](=O)[O-]
REMARK SMILES IDX 15 1 14 2 12 3 13 4 11 5 8 6 9 7 84 8 10 9 83 10 4 11 3 12
REMARK SMILES IDX 2 13 1 14 5 15 6 16 7 17 85 18 86 19 87 20 16 21 17 22 18 23
REMARK SMILES IDX 19 24 20 25 21 26 82 27 22 28 81 29 23 30 24 31 25 32 75 33
REMARK SMILES IDX 26 34 80 35 74 36 76 37 27 38 79 39 73 40 72 41 28 43 60 44
REMARK SMILES IDX 40 45 59 46 41 47 44 48 58 49 77 50 42 51 43 52 57 54 78 55
REMARK SMILES IDX 45 56 29 57 30 58 38 59 31 60 37 61 39 62 36 63 32 64 33 65
REMARK SMILES IDX 34 66 35 67 61 68 62 69 70 70 63 71 69 72 71 73 68 74 64 75
REMARK SMILES IDX 65 76 66 77 67 78 46 79 47 80 55 81 48 82 54 83 56 84 53 85
REMARK SMILES IDX 49 86 50 87 51 88 52 89
REMARK H PARENT 76 42 44 53
REMARK Flexibility Score: inf
ROOT
ATOM      1  C   UNL A   1      35.683  20.174  24.985  1.00  0.00     0.275 C 
ENDROOT
BRANCH   1   2
ATOM      2  O   UNL A   1      35.367  21.577  24.942  1.00  0.00    -0.458 OA
BRANCH   2   3
ATOM      3  C   UNL A   1      34.612  22.045  25.963  1.00  0.00     0.338 C 
ATOM      4  O   UNL A   1      34.421  21.484  27.032  1.00  0.00    -0.246 OA
BRANCH   3   5
ATOM      5  C   UNL A   1      34.071  23.397  25.660  1.00  0.00     0.067 A 
ATOM      6  C   UNL A   1      33.179  26.000  24.924  1.00  0.00     0.116 A 
ATOM      7  C   UNL A   1      34.544  25.696  25.023  1.00  0.00     0.034 A 
ATOM      8  C   UNL A   1      32.279  24.958  25.215  1.00  0.00     0.293 A 
ATOM      9  C   UNL A   1      34.987  24.419  25.382  1.00  0.00     0.018 A 
ATOM     10  C   UNL A   1      32.703  23.670  25.586  1.00  0.00     0.103 A 
BRANCH   6  11
ATOM     11  N   UNL A   1      32.788  27.287  24.590  1.00  0.00    -0.366 N 
BRANCH  11  12
ATOM     12  C   UNL A   1      32.300  27.562  23.234  1.00  0.00     0.116 C 
BRANCH  12  13
ATOM     13  C   UNL A   1      33.312  27.106  22.175  1.00  0.00     0.018 C 
ATOM     14  C   UNL A   1      32.829  25.928  21.339  1.00  0.00     0.006 C 
ENDBRANCH  12  13
ENDBRANCH  11  12
BRANCH  11  15
ATOM     15  C   UNL A   1      32.422  28.214  25.679  1.00  0.00     0.116 C 
BRANCH  15  16
ATOM     16  C   UNL A   1      33.254  27.999  26.951  1.00  0.00     0.018 C 
ATOM     17  C   UNL A   1      34.392  29.005  27.086  1.00  0.00     0.006 C 
ENDBRANCH  15  16
ENDBRANCH  11  15
ENDBRANCH   6  11
BRANCH   8  18
ATOM     18  N   UNL A   1      30.849  25.214  25.266  1.00  0.00     0.065 N 
ATOM     19  O   UNL A   1      30.378  25.496  26.380  1.00  0.00    -0.258 OA
ATOM     20  O   UNL A   1      30.190  25.083  24.227  1.00  0.00    -0.258 OA
ENDBRANCH   8  18
ENDBRANCH   3   5
ENDBRANCH   2   3
ENDBRANCH   1   2
BRANCH   1  21
ATOM     21  C   UNL A   1      37.199  19.952  24.972  1.00  0.00     0.275 C 
BRANCH  21  22
ATOM     22  O   UNL A   1      37.928  21.147  25.318  1.00  0.00    -0.458 OA
BRANCH  22  23
ATOM     23  C   UNL A   1      39.098  20.933  25.968  1.00  0.00     0.338 C 
ATOM     24  O   UNL A   1      39.714  19.882  26.038  1.00  0.00    -0.246 OA
BRANCH  23  25
ATOM     25  C   UNL A   1      39.625  22.202  26.496  1.00  0.00     0.060 A 
ATOM     26  C   UNL A   1      38.998  23.384  26.093  1.00  0.00     0.016 A 
ATOM     27  C   UNL A   1      40.776  22.250  27.286  1.00  0.00     0.016 A 
ATOM     28  C   UNL A   1      39.526  24.619  26.460  1.00  0.00     0.010 A 
ATOM     29  C   UNL A   1      41.299  23.495  27.663  1.00  0.00     0.010 A 
ATOM     30  C   UNL A   1      40.686  24.690  27.240  1.00  0.00    -0.014 A 
BRANCH  30  31
ATOM     31  C   UNL A   1      41.285  26.018  27.548  1.00  0.00     0.031 A 
ATOM     32  C   UNL A   1      42.646  26.370  27.013  1.00  0.00     0.074 A 
ATOM     33  C   UNL A   1      40.592  26.922  28.268  1.00  0.00     0.049 A 
ATOM     34  N   UNL A   1      43.379  27.432  27.237  1.00  0.00    -0.248 NA
ATOM     35  C   UNL A   1      43.268  25.391  26.109  1.00  0.00     0.031 C 
ATOM     36  C   UNL A   1      39.242  26.722  28.797  1.00  0.00     0.029 A 
ATOM     37  N   UNL A   1      40.925  28.192  28.673  1.00  0.00    -0.354 N 
ATOM     38  C   UNL A   1      44.560  27.237  26.529  1.00  0.00     0.074 A 
ATOM     39  C   UNL A   1      44.451  25.944  25.885  1.00  0.00     0.031 C 
ATOM     40  C   UNL A   1      38.856  27.835  29.442  1.00  0.00     0.029 A 
ATOM     41  C   UNL A   1      39.951  28.801  29.431  1.00  0.00     0.049 A 
ATOM     42  H   UNL A   1      41.779  28.624  28.444  1.00  0.00     0.167 HD
ATOM     43  C   UNL A   1      45.633  28.062  26.425  1.00  0.00     0.034 A 
ATOM     44  C   UNL A   1      39.952  29.987  30.073  1.00  0.00     0.034 A 
ATOM     45  C   UNL A   1      45.717  29.358  27.058  1.00  0.00     0.049 A 
ATOM     46  C   UNL A   1      41.179  30.860  29.993  1.00  0.00     0.074 A 
ATOM     47  C   UNL A   1      46.753  30.277  27.009  1.00  0.00     0.029 A 
ATOM     48  N   UNL A   1      44.729  29.921  27.855  1.00  0.00    -0.354 N 
ATOM     49  N   UNL A   1      42.304  30.647  29.351  1.00  0.00    -0.248 NA
ATOM     50  C   UNL A   1      41.135  32.132  30.727  1.00  0.00     0.031 C 
ATOM     51  C   UNL A   1      46.418  31.363  27.825  1.00  0.00     0.029 A 
ATOM     52  C   UNL A   1      45.142  31.160  28.325  1.00  0.00     0.049 A 
ATOM     53  H   UNL A   1      43.862  29.502  28.059  1.00  0.00     0.167 HD
ATOM     54  C   UNL A   1      43.095  31.768  29.589  1.00  0.00     0.074 A 
ATOM     55  C   UNL A   1      42.310  32.662  30.416  1.00  0.00     0.031 C 
ATOM     56  C   UNL A   1      44.356  32.035  29.161  1.00  0.00     0.034 A 
BRANCH  43  57
ATOM     57  C   UNL A   1      46.824  27.557  25.645  1.00  0.00     0.023 A 
ATOM     58  C   UNL A   1      47.090  27.978  24.331  1.00  0.00     0.031 A 
ATOM     59  C   UNL A   1      47.693  26.611  26.220  1.00  0.00     0.131 A 
ATOM     60  C   UNL A   1      48.150  27.404  23.613  1.00  0.00     0.055 A 
ATOM     61  C   UNL A   1      48.793  26.101  25.527  1.00  0.00     0.041 A 
ATOM     62  F   UNL A   1      47.479  26.155  27.464  1.00  0.00    -0.206 F 
ATOM     63  C   UNL A   1      49.018  26.486  24.210  1.00  0.00     0.022 A 
BRANCH  60  64
ATOM     64  S   UNL A   1      48.293  27.765  21.841  1.00  0.00     0.124 S 
ATOM     65  O   UNL A   1      49.327  28.797  21.833  1.00  0.00    -0.237 OA
ATOM     66  O   UNL A   1      48.676  26.472  21.286  1.00  0.00    -0.237 OA
ATOM     67  O   UNL A   1      46.957  28.229  21.475  1.00  0.00    -0.744 OA
ENDBRANCH  60  64
ENDBRANCH  43  57
BRANCH  44  68
ATOM     68  C   UNL A   1      38.780  30.397  30.900  1.00  0.00     0.023 A 
ATOM     69  C   UNL A   1      37.693  31.081  30.334  1.00  0.00     0.031 A 
ATOM     70  C   UNL A   1      38.753  30.146  32.283  1.00  0.00     0.131 A 
ATOM     71  C   UNL A   1      36.642  31.523  31.154  1.00  0.00     0.055 A 
ATOM     72  C   UNL A   1      37.682  30.540  33.085  1.00  0.00     0.041 A 
ATOM     73  F   UNL A   1      39.769  29.499  32.876  1.00  0.00    -0.206 F 
ATOM     74  C   UNL A   1      36.623  31.244  32.523  1.00  0.00     0.022 A 
BRANCH  71  75
ATOM     75  S   UNL A   1      35.334  32.541  30.419  1.00  0.00     0.124 S 
ATOM     76  O   UNL A   1      36.036  33.795  30.170  1.00  0.00    -0.237 OA
ATOM     77  O   UNL A   1      34.972  31.763  29.239  1.00  0.00    -0.237 OA
ATOM     78  O   UNL A   1      34.315  32.594  31.464  1.00  0.00    -0.744 OA
ENDBRANCH  71  75
ENDBRANCH  44  68
BRANCH  56  79
ATOM     79  C   UNL A   1      44.939  33.372  29.550  1.00  0.00     0.023 A 
ATOM     80  C   UNL A   1      44.786  34.511  28.739  1.00  0.00     0.031 A 
ATOM     81  C   UNL A   1      45.674  33.502  30.741  1.00  0.00     0.131 A 
ATOM     82  C   UNL A   1      45.407  35.716  29.103  1.00  0.00     0.055 A 
ATOM     83  C   UNL A   1      46.243  34.717  31.126  1.00  0.00     0.041 A 
ATOM     84  F   UNL A   1      45.853  32.447  31.552  1.00  0.00    -0.206 F 
ATOM     85  C   UNL A   1      46.121  35.830  30.299  1.00  0.00     0.022 A 
BRANCH  82  86
ATOM     86  S   UNL A   1      45.345  37.113  27.948  1.00  0.00     0.124 S 
ATOM     87  O   UNL A   1      46.643  37.744  28.163  1.00  0.00    -0.237 OA
ATOM     88  O   UNL A   1      45.165  36.448  26.661  1.00  0.00    -0.237 OA
ATOM     89  O   UNL A   1      44.195  37.889  28.408  1.00  0.00    -0.744 OA
ENDBRANCH  82  86
ENDBRANCH  56  79
ENDBRANCH  30  31
ENDBRANCH  23  25
ENDBRANCH  22  23
ENDBRANCH  21  22
ENDBRANCH   1  21
TORSDOF 20
ENDMDL
MODEL 3
REMARK VINA RESULT:     -10.3      5.035      7.857
REMARK SMILES CCCN(CCC)c1ccc(C(=O)OCCOC(=O)c2ccc(-c3c4nc(c(-c5cc(S(=O)(=O)[O-])ccc5F)c5ccc([nH]5)c(-c5cc(S(=O)(=O)[O-])ccc5F)c5nc(c(-c6cc(S(=O)(=O)[O-])ccc6F)c6ccc3[nH]6)C=C5)C=C4)cc2)cc1[N+](=O)[O-]
REMARK SMILES IDX 15 1 14 2 12 3 13 4 11 5 8 6 9 7 84 8 10 9 83 10 4 11 3 12
REMARK SMILES IDX 2 13 1 14 5 15 6 16 7 17 85 18 86 19 87 20 16 21 17 22 18 23
REMARK SMILES IDX 19 24 20 25 21 26 82 27 22 28 81 29 23 30 24 31 25 32 75 33
REMARK SMILES IDX 26 34 80 35 74 36 76 37 27 38 79 39 73 40 72 41 28 43 60 44
REMARK SMILES IDX 40 45 59 46 41 47 44 48 58 49 77 50 42 51 43 52 57 54 78 55
REMARK SMILES IDX 45 56 29 57 30 58 38 59 31 60 37 61 39 62 36 63 32 64 33 65
REMARK SMILES IDX 34 66 35 67 61 68 62 69 70 70 63 71 69 72 71 73 68 74 64 75
REMARK SMILES IDX 65 76 66 77 67 78 46 79 47 80 55 81 48 82 54 83 56 84 53 85
REMARK SMILES IDX 49 86 50 87 51 88 52 89
REMARK H PARENT 76 42 44 53
REMARK Flexibility Score: inf
ROOT
ATOM      1  C   UNL A   1      31.381  30.132  25.840  1.00  0.00     0.275 C 
ENDROOT
BRANCH   1   2
ATOM      2  O   UNL A   1      32.304  29.036  25.976  1.00  0.00    -0.458 OA
BRANCH   2   3
ATOM      3  C   UNL A   1      31.916  28.036  26.801  1.00  0.00     0.338 C 
ATOM      4  O   UNL A   1      31.183  28.148  27.773  1.00  0.00    -0.246 OA
BRANCH   3   5
ATOM      5  C   UNL A   1      32.447  26.723  26.345  1.00  0.00     0.067 A 
ATOM      6  C   UNL A   1      33.657  24.288  25.498  1.00  0.00     0.116 A 
ATOM      7  C   UNL A   1      34.122  25.531  25.046  1.00  0.00     0.034 A 
ATOM      8  C   UNL A   1      32.561  24.308  26.381  1.00  0.00     0.293 A 
ATOM      9  C   UNL A   1      33.531  26.730  25.461  1.00  0.00     0.018 A 
ATOM     10  C   UNL A   1      31.949  25.501  26.804  1.00  0.00     0.103 A 
BRANCH   6  11
ATOM     11  N   UNL A   1      34.257  23.126  25.038  1.00  0.00    -0.366 N 
BRANCH  11  12
ATOM     12  C   UNL A   1      35.140  22.370  25.933  1.00  0.00     0.116 C 
BRANCH  12  13
ATOM     13  C   UNL A   1      36.602  22.455  25.478  1.00  0.00     0.018 C 
ATOM     14  C   UNL A   1      37.282  23.765  25.856  1.00  0.00     0.006 C 
ENDBRANCH  12  13
ENDBRANCH  11  12
BRANCH  11  15
ATOM     15  C   UNL A   1      33.653  22.434  23.884  1.00  0.00     0.116 C 
BRANCH  15  16
ATOM     16  C   UNL A   1      33.207  21.002  24.213  1.00  0.00     0.018 C 
ATOM     17  C   UNL A   1      32.307  20.405  23.137  1.00  0.00     0.006 C 
ENDBRANCH  15  16
ENDBRANCH  11  15
ENDBRANCH   6  11
BRANCH   8  18
ATOM     18  N   UNL A   1      31.931  23.067  26.799  1.00  0.00     0.065 N 
ATOM     19  O   UNL A   1      32.345  22.568  27.859  1.00  0.00    -0.258 OA
ATOM     20  O   UNL A   1      31.076  22.562  26.061  1.00  0.00    -0.258 OA
ENDBRANCH   8  18
ENDBRANCH   3   5
ENDBRANCH   2   3
ENDBRANCH   1   2
BRANCH   1  21
ATOM     21  C   UNL A   1      31.962  31.416  26.442  1.00  0.00     0.275 C 
BRANCH  21  22
ATOM     22  O   UNL A   1      32.967  31.145  27.439  1.00  0.00    -0.458 OA
BRANCH  22  23
ATOM     23  C   UNL A   1      33.854  32.150  27.642  1.00  0.00     0.338 C 
ATOM     24  O   UNL A   1      33.627  33.347  27.588  1.00  0.00    -0.246 OA
BRANCH  23  25
ATOM     25  C   UNL A   1      35.150  31.603  28.079  1.00  0.00     0.060 A 
ATOM     26  C   UNL A   1      35.192  30.260  28.463  1.00  0.00     0.016 A 
ATOM     27  C   UNL A   1      36.281  32.410  28.215  1.00  0.00     0.016 A 
ATOM     28  C   UNL A   1      36.357  29.720  29.001  1.00  0.00     0.010 A 
ATOM     29  C   UNL A   1      37.457  31.861  28.746  1.00  0.00     0.010 A 
ATOM     30  C   UNL A   1      37.499  30.515  29.158  1.00  0.00    -0.014 A 
BRANCH  30  31
ATOM     31  C   UNL A   1      38.707  29.945  29.816  1.00  0.00     0.031 A 
ATOM     32  C   UNL A   1      39.089  30.392  31.200  1.00  0.00     0.074 A 
ATOM     33  C   UNL A   1      39.433  28.997  29.192  1.00  0.00     0.049 A 
ATOM     34  N   UNL A   1      40.146  30.087  31.911  1.00  0.00    -0.248 NA
ATOM     35  C   UNL A   1      38.160  31.312  31.872  1.00  0.00     0.031 C 
ATOM     36  C   UNL A   1      39.135  28.440  27.872  1.00  0.00     0.029 A 
ATOM     37  N   UNL A   1      40.567  28.330  29.588  1.00  0.00    -0.354 N 
ATOM     38  C   UNL A   1      40.026  30.799  33.100  1.00  0.00     0.074 A 
ATOM     39  C   UNL A   1      38.802  31.568  33.002  1.00  0.00     0.031 C 
ATOM     40  C   UNL A   1      40.052  27.505  27.575  1.00  0.00     0.029 A 
ATOM     41  C   UNL A   1      41.039  27.441  28.649  1.00  0.00     0.049 A 
ATOM     42  H   UNL A   1      41.000  28.473  30.460  1.00  0.00     0.167 HD
ATOM     43  C   UNL A   1      40.859  30.808  34.171  1.00  0.00     0.034 A 
ATOM     44  C   UNL A   1      42.157  26.687  28.638  1.00  0.00     0.034 A 
ATOM     45  C   UNL A   1      42.066  30.020  34.261  1.00  0.00     0.049 A 
ATOM     46  C   UNL A   1      43.099  26.759  29.814  1.00  0.00     0.074 A 
ATOM     47  C   UNL A   1      42.974  29.948  35.304  1.00  0.00     0.029 A 
ATOM     48  N   UNL A   1      42.535  29.167  33.270  1.00  0.00    -0.354 N 
ATOM     49  N   UNL A   1      42.992  27.466  30.915  1.00  0.00    -0.248 NA
ATOM     50  C   UNL A   1      44.311  25.933  29.743  1.00  0.00     0.031 C 
ATOM     51  C   UNL A   1      44.021  29.102  34.919  1.00  0.00     0.029 A 
ATOM     52  C   UNL A   1      43.732  28.586  33.666  1.00  0.00     0.049 A 
ATOM     53  H   UNL A   1      42.086  28.998  32.411  1.00  0.00     0.167 HD
ATOM     54  C   UNL A   1      44.116  27.155  31.676  1.00  0.00     0.074 A 
ATOM     55  C   UNL A   1      44.875  26.182  30.916  1.00  0.00     0.031 C 
ATOM     56  C   UNL A   1      44.487  27.628  32.893  1.00  0.00     0.034 A 
BRANCH  43  57
ATOM     57  C   UNL A   1      40.520  31.746  35.306  1.00  0.00     0.023 A 
ATOM     58  C   UNL A   1      39.526  31.444  36.253  1.00  0.00     0.031 A 
ATOM     59  C   UNL A   1      41.185  32.981  35.422  1.00  0.00     0.131 A 
ATOM     60  C   UNL A   1      39.177  32.391  37.228  1.00  0.00     0.055 A 
ATOM     61  C   UNL A   1      40.887  33.887  36.442  1.00  0.00     0.041 A 
ATOM     62  F   UNL A   1      42.127  33.335  34.535  1.00  0.00    -0.206 F 
ATOM     63  C   UNL A   1      39.867  33.601  37.344  1.00  0.00     0.022 A 
BRANCH  60  64
ATOM     64  S   UNL A   1      37.713  32.083  38.253  1.00  0.00     0.124 S 
ATOM     65  O   UNL A   1      36.817  33.151  37.815  1.00  0.00    -0.237 OA
ATOM     66  O   UNL A   1      37.334  30.730  37.862  1.00  0.00    -0.237 OA
ATOM     67  O   UNL A   1      38.213  32.221  39.618  1.00  0.00    -0.744 OA
ENDBRANCH  60  64
ENDBRANCH  43  57
BRANCH  44  68
ATOM     68  C   UNL A   1      42.485  25.844  27.452  1.00  0.00     0.023 A 
ATOM     69  C   UNL A   1      42.063  24.508  27.369  1.00  0.00     0.031 A 
ATOM     70  C   UNL A   1      43.268  26.355  26.401  1.00  0.00     0.131 A 
ATOM     71  C   UNL A   1      42.456  23.718  26.277  1.00  0.00     0.055 A 
ATOM     72  C   UNL A   1      43.611  25.581  25.292  1.00  0.00     0.041 A 
ATOM     73  F   UNL A   1      43.701  27.625  26.433  1.00  0.00    -0.206 F 
ATOM     74  C   UNL A   1      43.215  24.250  25.231  1.00  0.00     0.022 A 
BRANCH  71  75
ATOM     75  S   UNL A   1      42.028  21.955  26.280  1.00  0.00     0.124 S 
ATOM     76  O   UNL A   1      42.420  21.555  27.626  1.00  0.00    -0.237 OA
ATOM     77  O   UNL A   1      40.594  21.991  26.012  1.00  0.00    -0.237 OA
ATOM     78  O   UNL A   1      42.847  21.404  25.202  1.00  0.00    -0.744 OA
ENDBRANCH  71  75
ENDBRANCH  44  68
BRANCH  56  79
ATOM     79  C   UNL A   1      45.751  27.060  33.491  1.00  0.00     0.023 A 
ATOM     80  C   UNL A   1      45.748  25.865  34.232  1.00  0.00     0.031 A 
ATOM     81  C   UNL A   1      46.973  27.736  33.331  1.00  0.00     0.131 A 
ATOM     82  C   UNL A   1      46.933  25.412  34.831  1.00  0.00     0.055 A 
ATOM     83  C   UNL A   1      48.160  27.251  33.883  1.00  0.00     0.041 A 
ATOM     84  F   UNL A   1      47.034  28.883  32.635  1.00  0.00    -0.206 F 
ATOM     85  C   UNL A   1      48.141  26.088  34.648  1.00  0.00     0.022 A 
BRANCH  82  86
ATOM     86  S   UNL A   1      46.859  23.970  35.930  1.00  0.00     0.124 S 
ATOM     87  O   UNL A   1      47.016  22.864  34.991  1.00  0.00    -0.237 OA
ATOM     88  O   UNL A   1      47.982  24.205  36.832  1.00  0.00    -0.237 OA
ATOM     89  O   UNL A   1      45.538  24.075  36.547  1.00  0.00    -0.744 OA
ENDBRANCH  82  86
ENDBRANCH  56  79
ENDBRANCH  30  31
ENDBRANCH  23  25
ENDBRANCH  22  23
ENDBRANCH  21  22
ENDBRANCH   1  21
TORSDOF 20
ENDMDL
