MODEL 1
REMARK VINA RESULT:     -11.9      0.000      0.000
REMARK SMILES O=C(CSc1ccc2ccccc2n1)NCc1ccc(C(=O)OCCOC(=O)c2ccc(-c3c4nc(c(-c5cc(S(=O)(=O)[O-])ccc5F)c5ccc([nH]5)c(-c5cc(S(=O)(=O)[O-])ccc5F)c5nc(c(-c6cc(S(=O)(=O)[O-])ccc6F)c6ccc3[nH]6)C=C5)C=C4)cc2)cc1
REMARK SMILES IDX 24 1 23 2 21 3 22 4 20 5 17 6 18 7 93 8 19 9 92 10 16 11
REMARK SMILES IDX 15 12 1 13 2 14 3 16 4 17 5 18 6 19 14 20 7 21 13 22 8 23
REMARK SMILES IDX 12 24 9 25 11 26 10 27 25 28 26 29 27 30 28 31 29 32 30 33
REMARK SMILES IDX 91 34 31 35 90 36 32 37 33 38 34 39 84 40 35 41 89 42 83 43
REMARK SMILES IDX 85 44 36 45 88 46 82 47 81 48 37 50 69 51 49 52 68 53 50 54
REMARK SMILES IDX 53 55 67 56 86 57 51 58 52 59 66 61 87 62 54 63 38 64 39 65
REMARK SMILES IDX 47 66 40 67 46 68 48 69 45 70 41 71 42 72 43 73 44 74 70 75
REMARK SMILES IDX 71 76 79 77 72 78 78 79 80 80 77 81 73 82 74 83 75 84 76 85
REMARK SMILES IDX 55 86 56 87 64 88 57 89 63 90 65 91 62 92 58 93 59 94 60 95
REMARK SMILES IDX 61 96
REMARK H PARENT 15 15 85 49 53 60
REMARK Flexibility Score: inf
ROOT
ATOM      1  C   UNL A   1      36.907  19.071  25.001  1.00  0.00     0.275 C 
ENDROOT
BRANCH   1   2
ATOM      2  O   UNL A   1      35.883  20.087  24.999  1.00  0.00    -0.458 OA
BRANCH   2   3
ATOM      3  C   UNL A   1      34.615  19.623  24.875  1.00  0.00     0.338 C 
ATOM      4  O   UNL A   1      34.280  18.514  24.493  1.00  0.00    -0.246 OA
BRANCH   3   5
ATOM      5  C   UNL A   1      33.643  20.624  25.367  1.00  0.00     0.060 A 
ATOM      6  C   UNL A   1      31.783  22.576  26.157  1.00  0.00    -0.029 A 
ATOM      7  C   UNL A   1      31.652  21.926  24.924  1.00  0.00     0.006 A 
ATOM      8  C   UNL A   1      32.838  22.206  27.009  1.00  0.00     0.006 A 
ATOM      9  C   UNL A   1      32.599  20.993  24.516  1.00  0.00     0.016 A 
ATOM     10  C   UNL A   1      33.759  21.225  26.623  1.00  0.00     0.016 A 
BRANCH   6  11
ATOM     11  C   UNL A   1      30.779  23.620  26.580  1.00  0.00     0.151 C 
BRANCH  11  12
ATOM     12  N   UNL A   1      30.275  24.370  25.449  1.00  0.00    -0.351 N 
ATOM     13  O   UNL A   1      30.285  26.401  26.502  1.00  0.00    -0.274 OA
ATOM     14  C   UNL A   1      30.054  25.730  25.501  1.00  0.00     0.230 C 
ATOM     15  H   UNL A   1      30.084  23.890  24.610  1.00  0.00     0.163 HD
BRANCH  14  16
ATOM     16  C   UNL A   1      29.495  26.332  24.220  1.00  0.00     0.176 C 
BRANCH  16  17
ATOM     17  S   UNL A   1      30.752  27.360  23.383  1.00  0.00    -0.096 SA
BRANCH  17  18
ATOM     18  C   UNL A   1      32.044  26.143  23.261  1.00  0.00     0.097 A 
ATOM     19  C   UNL A   1      32.136  25.341  22.133  1.00  0.00     0.036 A 
ATOM     20  N   UNL A   1      32.901  26.059  24.299  1.00  0.00    -0.241 NA
ATOM     21  C   UNL A   1      33.128  24.372  22.085  1.00  0.00     0.013 A 
ATOM     22  C   UNL A   1      33.874  25.133  24.245  1.00  0.00     0.072 A 
ATOM     23  C   UNL A   1      34.023  24.253  23.151  1.00  0.00     0.000 A 
ATOM     24  C   UNL A   1      34.776  25.025  25.295  1.00  0.00     0.029 A 
ATOM     25  C   UNL A   1      35.050  23.294  23.141  1.00  0.00     0.010 A 
ATOM     26  C   UNL A   1      35.807  24.078  25.284  1.00  0.00     0.002 A 
ATOM     27  C   UNL A   1      35.942  23.210  24.207  1.00  0.00     0.001 A 
ENDBRANCH  17  18
ENDBRANCH  16  17
ENDBRANCH  14  16
ENDBRANCH  11  12
ENDBRANCH   6  11
ENDBRANCH   3   5
ENDBRANCH   2   3
ENDBRANCH   1   2
BRANCH   1  28
ATOM     28  C   UNL A   1      38.286  19.693  24.783  1.00  0.00     0.275 C 
BRANCH  28  29
ATOM     29  O   UNL A   1      38.496  20.745  25.739  1.00  0.00    -0.458 OA
BRANCH  29  30
ATOM     30  C   UNL A   1      39.707  20.754  26.347  1.00  0.00     0.338 C 
ATOM     31  O   UNL A   1      40.429  19.791  26.538  1.00  0.00    -0.246 OA
BRANCH  30  32
ATOM     32  C   UNL A   1      40.053  22.135  26.765  1.00  0.00     0.060 A 
ATOM     33  C   UNL A   1      39.331  23.226  26.285  1.00  0.00     0.016 A 
ATOM     34  C   UNL A   1      41.167  22.355  27.574  1.00  0.00     0.016 A 
ATOM     35  C   UNL A   1      39.775  24.530  26.519  1.00  0.00     0.010 A 
ATOM     36  C   UNL A   1      41.546  23.665  27.900  1.00  0.00     0.010 A 
ATOM     37  C   UNL A   1      40.885  24.775  27.340  1.00  0.00    -0.014 A 
BRANCH  37  38
ATOM     38  C   UNL A   1      41.395  26.169  27.560  1.00  0.00     0.031 A 
ATOM     39  C   UNL A   1      42.701  26.604  26.934  1.00  0.00     0.074 A 
ATOM     40  C   UNL A   1      40.702  27.061  28.301  1.00  0.00     0.049 A 
ATOM     41  N   UNL A   1      43.420  27.675  27.164  1.00  0.00    -0.248 NA
ATOM     42  C   UNL A   1      43.288  25.696  25.938  1.00  0.00     0.031 C 
ATOM     43  C   UNL A   1      39.409  26.813  28.942  1.00  0.00     0.029 A 
ATOM     44  N   UNL A   1      40.986  28.365  28.633  1.00  0.00    -0.354 N 
ATOM     45  C   UNL A   1      44.577  27.532  26.401  1.00  0.00     0.074 A 
ATOM     46  C   UNL A   1      44.462  26.265  25.708  1.00  0.00     0.031 C 
ATOM     47  C   UNL A   1      38.989  27.939  29.540  1.00  0.00     0.029 A 
ATOM     48  C   UNL A   1      40.023  28.961  29.417  1.00  0.00     0.049 A 
ATOM     49  H   UNL A   1      41.803  28.829  28.339  1.00  0.00     0.167 HD
ATOM     50  C   UNL A   1      45.635  28.375  26.289  1.00  0.00     0.034 A 
ATOM     51  C   UNL A   1      39.987  30.171  30.012  1.00  0.00     0.034 A 
ATOM     52  C   UNL A   1      45.707  29.671  26.923  1.00  0.00     0.049 A 
ATOM     53  C   UNL A   1      41.170  31.092  29.875  1.00  0.00     0.074 A 
ATOM     54  C   UNL A   1      46.720  30.613  26.850  1.00  0.00     0.029 A 
ATOM     55  N   UNL A   1      44.719  30.220  27.729  1.00  0.00    -0.354 N 
ATOM     56  N   UNL A   1      42.293  30.902  29.223  1.00  0.00    -0.248 NA
ATOM     57  C   UNL A   1      41.088  32.382  30.573  1.00  0.00     0.031 C 
ATOM     58  C   UNL A   1      46.367  31.707  27.649  1.00  0.00     0.029 A 
ATOM     59  C   UNL A   1      45.106  31.477  28.171  1.00  0.00     0.049 A 
ATOM     60  H   UNL A   1      43.867  29.780  27.953  1.00  0.00     0.167 HD
ATOM     61  C   UNL A   1      43.051  32.050  29.435  1.00  0.00     0.074 A 
ATOM     62  C   UNL A   1      42.245  32.939  30.247  1.00  0.00     0.031 C 
ATOM     63  C   UNL A   1      44.304  32.341  29.003  1.00  0.00     0.034 A 
BRANCH  50  64
ATOM     64  C   UNL A   1      46.831  27.892  25.500  1.00  0.00     0.023 A 
ATOM     65  C   UNL A   1      47.011  28.198  24.140  1.00  0.00     0.031 A 
ATOM     66  C   UNL A   1      47.797  27.081  26.123  1.00  0.00     0.131 A 
ATOM     67  C   UNL A   1      48.087  27.639  23.434  1.00  0.00     0.055 A 
ATOM     68  C   UNL A   1      48.909  26.591  25.435  1.00  0.00     0.041 A 
ATOM     69  F   UNL A   1      47.670  26.739  27.416  1.00  0.00    -0.206 F 
ATOM     70  C   UNL A   1      49.050  26.857  24.077  1.00  0.00     0.022 A 
BRANCH  67  71
ATOM     71  S   UNL A   1      48.136  27.828  21.629  1.00  0.00     0.124 S 
ATOM     72  O   UNL A   1      49.164  28.854  21.469  1.00  0.00    -0.237 OA
ATOM     73  O   UNL A   1      48.494  26.487  21.182  1.00  0.00    -0.237 OA
ATOM     74  O   UNL A   1      46.781  28.257  21.292  1.00  0.00    -0.744 OA
ENDBRANCH  67  71
ENDBRANCH  50  64
BRANCH  51  75
ATOM     75  C   UNL A   1      38.822  30.560  30.858  1.00  0.00     0.023 A 
ATOM     76  C   UNL A   1      37.718  31.232  30.310  1.00  0.00     0.031 A 
ATOM     77  C   UNL A   1      38.813  30.292  32.239  1.00  0.00     0.131 A 
ATOM     78  C   UNL A   1      36.663  31.640  31.144  1.00  0.00     0.055 A 
ATOM     79  C   UNL A   1      37.739  30.654  33.054  1.00  0.00     0.041 A 
ATOM     80  F   UNL A   1      39.845  29.655  32.814  1.00  0.00    -0.206 F 
ATOM     81  C   UNL A   1      36.660  31.340  32.509  1.00  0.00     0.022 A 
BRANCH  78  82
ATOM     82  S   UNL A   1      35.321  32.630  30.431  1.00  0.00     0.124 S 
ATOM     83  O   UNL A   1      34.321  32.584  31.492  1.00  0.00    -0.237 OA
ATOM     84  O   UNL A   1      35.974  33.916  30.217  1.00  0.00    -0.237 OA
ATOM     85  O   UNL A   1      34.972  31.902  29.212  1.00  0.00    -0.744 OA
ENDBRANCH  78  82
ENDBRANCH  51  75
BRANCH  63  86
ATOM     86  C   UNL A   1      44.858  33.690  29.391  1.00  0.00     0.023 A 
ATOM     87  C   UNL A   1      44.666  34.823  28.580  1.00  0.00     0.031 A 
ATOM     88  C   UNL A   1      45.616  33.834  30.565  1.00  0.00     0.131 A 
ATOM     89  C   UNL A   1      45.274  36.039  28.926  1.00  0.00     0.055 A 
ATOM     90  C   UNL A   1      46.176  35.058  30.931  1.00  0.00     0.041 A 
ATOM     91  F   UNL A   1      45.831  32.783  31.373  1.00  0.00    -0.206 F 
ATOM     92  C   UNL A   1      46.018  36.167  30.102  1.00  0.00     0.022 A 
BRANCH  89  93
ATOM     93  S   UNL A   1      45.156  37.433  27.771  1.00  0.00     0.124 S 
ATOM     94  O   UNL A   1      46.146  37.075  26.761  1.00  0.00    -0.237 OA
ATOM     95  O   UNL A   1      43.761  37.370  27.348  1.00  0.00    -0.237 OA
ATOM     96  O   UNL A   1      45.501  38.591  28.594  1.00  0.00    -0.744 OA
ENDBRANCH  89  93
ENDBRANCH  63  86
ENDBRANCH  37  38
ENDBRANCH  30  32
ENDBRANCH  29  30
ENDBRANCH  28  29
ENDBRANCH   1  28
TORSDOF 19
ENDMDL
MODEL 2
REMARK VINA RESULT:     -11.7      1.324      7.601
REMARK SMILES O=C(CSc1ccc2ccccc2n1)NCc1ccc(C(=O)OCCOC(=O)c2ccc(-c3c4nc(c(-c5cc(S(=O)(=O)[O-])ccc5F)c5ccc([nH]5)c(-c5cc(S(=O)(=O)[O-])ccc5F)c5nc(c(-c6cc(S(=O)(=O)[O-])ccc6F)c6ccc3[nH]6)C=C5)C=C4)cc2)cc1
REMARK SMILES IDX 24 1 23 2 21 3 22 4 20 5 17 6 18 7 93 8 19 9 92 10 16 11
REMARK SMILES IDX 15 12 1 13 2 14 3 16 4 17 5 18 6 19 14 20 7 21 13 22 8 23
REMARK SMILES IDX 12 24 9 25 11 26 10 27 25 28 26 29 27 30 28 31 29 32 30 33
REMARK SMILES IDX 91 34 31 35 90 36 32 37 33 38 34 39 84 40 35 41 89 42 83 43
REMARK SMILES IDX 85 44 36 45 88 46 82 47 81 48 37 50 69 51 49 52 68 53 50 54
REMARK SMILES IDX 53 55 67 56 86 57 51 58 52 59 66 61 87 62 54 63 38 64 39 65
REMARK SMILES IDX 47 66 40 67 46 68 48 69 45 70 41 71 42 72 43 73 44 74 70 75
REMARK SMILES IDX 71 76 79 77 72 78 78 79 80 80 77 81 73 82 74 83 75 84 76 85
REMARK SMILES IDX 55 86 56 87 64 88 57 89 63 90 65 91 62 92 58 93 59 94 60 95
REMARK SMILES IDX 61 96
REMARK H PARENT 15 15 85 49 53 60
REMARK Flexibility Score: inf
ROOT
ATOM      1  C   UNL A   1      34.698  20.342  25.075  1.00  0.00     0.275 C 
ENDROOT
BRANCH   1   2
ATOM      2  O   UNL A   1      34.184  21.057  23.933  1.00  0.00    -0.458 OA
BRANCH   2   3
ATOM      3  C   UNL A   1      32.871  21.393  24.011  1.00  0.00     0.338 C 
ATOM      4  O   UNL A   1      31.995  20.776  24.594  1.00  0.00    -0.246 OA
BRANCH   3   5
ATOM      5  C   UNL A   1      32.629  22.699  23.361  1.00  0.00     0.060 A 
ATOM      6  C   UNL A   1      32.018  25.141  22.112  1.00  0.00    -0.029 A 
ATOM      7  C   UNL A   1      31.105  24.541  22.987  1.00  0.00     0.006 A 
ATOM      8  C   UNL A   1      33.261  24.519  21.900  1.00  0.00     0.006 A 
ATOM      9  C   UNL A   1      31.390  23.311  23.569  1.00  0.00     0.016 A 
ATOM     10  C   UNL A   1      33.572  23.308  22.530  1.00  0.00     0.016 A 
BRANCH   6  11
ATOM     11  C   UNL A   1      31.689  26.454  21.447  1.00  0.00     0.151 C 
BRANCH  11  12
ATOM     12  N   UNL A   1      31.720  27.555  22.387  1.00  0.00    -0.351 N 
ATOM     13  O   UNL A   1      29.472  27.972  22.322  1.00  0.00    -0.274 OA
ATOM     14  C   UNL A   1      30.586  28.249  22.753  1.00  0.00     0.230 C 
ATOM     15  H   UNL A   1      32.585  27.817  22.780  1.00  0.00     0.163 HD
BRANCH  14  16
ATOM     16  C   UNL A   1      30.828  29.391  23.729  1.00  0.00     0.176 C 
BRANCH  16  17
ATOM     17  S   UNL A   1      32.534  29.336  24.383  1.00  0.00    -0.096 SA
BRANCH  17  18
ATOM     18  C   UNL A   1      32.461  27.741  25.167  1.00  0.00     0.097 A 
ATOM     19  C   UNL A   1      31.313  27.353  25.842  1.00  0.00     0.036 A 
ATOM     20  N   UNL A   1      33.555  26.960  25.060  1.00  0.00    -0.241 NA
ATOM     21  C   UNL A   1      31.302  26.120  26.480  1.00  0.00     0.013 A 
ATOM     22  C   UNL A   1      33.537  25.757  25.663  1.00  0.00     0.072 A 
ATOM     23  C   UNL A   1      32.425  25.294  26.398  1.00  0.00     0.000 A 
ATOM     24  C   UNL A   1      34.646  24.927  25.567  1.00  0.00     0.029 A 
ATOM     25  C   UNL A   1      32.453  24.034  27.018  1.00  0.00     0.010 A 
ATOM     26  C   UNL A   1      34.675  23.667  26.174  1.00  0.00     0.002 A 
ATOM     27  C   UNL A   1      33.578  23.221  26.903  1.00  0.00     0.001 A 
ENDBRANCH  17  18
ENDBRANCH  16  17
ENDBRANCH  14  16
ENDBRANCH  11  12
ENDBRANCH   6  11
ENDBRANCH   3   5
ENDBRANCH   2   3
ENDBRANCH   1   2
BRANCH   1  28
ATOM     28  C   UNL A   1      36.183  20.027  24.892  1.00  0.00     0.275 C 
BRANCH  28  29
ATOM     29  O   UNL A   1      36.969  21.155  25.311  1.00  0.00    -0.458 OA
BRANCH  29  30
ATOM     30  C   UNL A   1      38.276  20.900  25.560  1.00  0.00     0.338 C 
ATOM     31  O   UNL A   1      38.865  19.856  25.342  1.00  0.00    -0.246 OA
BRANCH  30  32
ATOM     32  C   UNL A   1      38.921  22.096  26.156  1.00  0.00     0.060 A 
ATOM     33  C   UNL A   1      38.387  23.367  25.952  1.00  0.00     0.016 A 
ATOM     34  C   UNL A   1      40.122  21.963  26.851  1.00  0.00     0.016 A 
ATOM     35  C   UNL A   1      39.097  24.506  26.342  1.00  0.00     0.010 A 
ATOM     36  C   UNL A   1      40.776  23.102  27.339  1.00  0.00     0.010 A 
ATOM     37  C   UNL A   1      40.300  24.395  27.053  1.00  0.00    -0.014 A 
BRANCH  37  38
ATOM     38  C   UNL A   1      41.089  25.611  27.437  1.00  0.00     0.031 A 
ATOM     39  C   UNL A   1      40.487  26.642  28.366  1.00  0.00     0.074 A 
ATOM     40  C   UNL A   1      42.346  25.807  26.980  1.00  0.00     0.049 A 
ATOM     41  N   UNL A   1      40.904  27.850  28.654  1.00  0.00    -0.248 NA
ATOM     42  C   UNL A   1      39.232  26.270  29.036  1.00  0.00     0.031 C 
ATOM     43  C   UNL A   1      43.086  24.893  26.108  1.00  0.00     0.029 A 
ATOM     44  N   UNL A   1      43.229  26.839  27.195  1.00  0.00    -0.354 N 
ATOM     45  C   UNL A   1      39.926  28.408  29.475  1.00  0.00     0.074 A 
ATOM     46  C   UNL A   1      38.894  27.405  29.630  1.00  0.00     0.031 C 
ATOM     47  C   UNL A   1      44.322  25.375  25.908  1.00  0.00     0.029 A 
ATOM     48  C   UNL A   1      44.436  26.681  26.549  1.00  0.00     0.049 A 
ATOM     49  H   UNL A   1      43.018  27.619  27.757  1.00  0.00     0.167 HD
ATOM     50  C   UNL A   1      39.891  29.640  30.045  1.00  0.00     0.034 A 
ATOM     51  C   UNL A   1      45.498  27.504  26.441  1.00  0.00     0.034 A 
ATOM     52  C   UNL A   1      40.960  30.606  29.948  1.00  0.00     0.049 A 
ATOM     53  C   UNL A   1      45.440  28.866  27.081  1.00  0.00     0.074 A 
ATOM     54  C   UNL A   1      41.036  31.870  30.511  1.00  0.00     0.029 A 
ATOM     55  N   UNL A   1      42.151  30.411  29.261  1.00  0.00    -0.354 N 
ATOM     56  N   UNL A   1      44.471  29.410  27.777  1.00  0.00    -0.248 NA
ATOM     57  C   UNL A   1      46.613  29.732  26.900  1.00  0.00     0.031 C 
ATOM     58  C   UNL A   1      42.248  32.455  30.125  1.00  0.00     0.029 A 
ATOM     59  C   UNL A   1      42.957  31.534  29.373  1.00  0.00     0.049 A 
ATOM     60  H   UNL A   1      42.389  29.593  28.767  1.00  0.00     0.167 HD
ATOM     61  C   UNL A   1      44.918  30.684  28.116  1.00  0.00     0.074 A 
ATOM     62  C   UNL A   1      46.256  30.814  27.576  1.00  0.00     0.031 C 
ATOM     63  C   UNL A   1      44.279  31.662  28.806  1.00  0.00     0.034 A 
BRANCH  50  64
ATOM     64  C   UNL A   1      38.626  30.037  30.771  1.00  0.00     0.023 A 
ATOM     65  C   UNL A   1      37.600  30.771  30.152  1.00  0.00     0.031 A 
ATOM     66  C   UNL A   1      38.462  29.693  32.126  1.00  0.00     0.131 A 
ATOM     67  C   UNL A   1      36.494  31.198  30.904  1.00  0.00     0.055 A 
ATOM     68  C   UNL A   1      37.323  30.053  32.848  1.00  0.00     0.041 A 
ATOM     69  F   UNL A   1      39.416  29.007  32.777  1.00  0.00    -0.206 F 
ATOM     70  C   UNL A   1      36.337  30.824  32.242  1.00  0.00     0.022 A 
BRANCH  67  71
ATOM     71  S   UNL A   1      35.330  32.370  30.152  1.00  0.00     0.124 S 
ATOM     72  O   UNL A   1      34.329  32.508  31.206  1.00  0.00    -0.237 OA
ATOM     73  O   UNL A   1      36.171  33.537  29.910  1.00  0.00    -0.237 OA
ATOM     74  O   UNL A   1      34.869  31.675  28.953  1.00  0.00    -0.744 OA
ENDBRANCH  67  71
ENDBRANCH  50  64
BRANCH  51  75
ATOM     75  C   UNL A   1      46.685  27.100  25.633  1.00  0.00     0.023 A 
ATOM     76  C   UNL A   1      46.923  27.652  24.364  1.00  0.00     0.031 A 
ATOM     77  C   UNL A   1      47.582  26.125  26.107  1.00  0.00     0.131 A 
ATOM     78  C   UNL A   1      48.014  27.206  23.600  1.00  0.00     0.055 A 
ATOM     79  C   UNL A   1      48.694  25.723  25.366  1.00  0.00     0.041 A 
ATOM     80  F   UNL A   1      47.399  25.563  27.312  1.00  0.00    -0.206 F 
ATOM     81  C   UNL A   1      48.910  26.257  24.101  1.00  0.00     0.022 A 
BRANCH  78  82
ATOM     82  S   UNL A   1      48.210  27.835  21.911  1.00  0.00     0.124 S 
ATOM     83  O   UNL A   1      46.991  28.617  21.740  1.00  0.00    -0.237 OA
ATOM     84  O   UNL A   1      49.452  28.593  22.012  1.00  0.00    -0.237 OA
ATOM     85  O   UNL A   1      48.291  26.620  21.102  1.00  0.00    -0.744 OA
ENDBRANCH  78  82
ENDBRANCH  51  75
BRANCH  63  86
ATOM     86  C   UNL A   1      45.040  32.945  29.026  1.00  0.00     0.023 A 
ATOM     87  C   UNL A   1      45.046  33.970  28.064  1.00  0.00     0.031 A 
ATOM     88  C   UNL A   1      45.798  33.128  30.196  1.00  0.00     0.131 A 
ATOM     89  C   UNL A   1      45.840  35.110  28.263  1.00  0.00     0.055 A 
ATOM     90  C   UNL A   1      46.545  34.285  30.412  1.00  0.00     0.041 A 
ATOM     91  F   UNL A   1      45.828  32.179  31.145  1.00  0.00    -0.206 F 
ATOM     92  C   UNL A   1      46.580  35.280  29.436  1.00  0.00     0.022 A 
BRANCH  89  93
ATOM     93  S   UNL A   1      45.964  36.331  26.927  1.00  0.00     0.124 S 
ATOM     94  O   UNL A   1      46.086  35.479  25.748  1.00  0.00    -0.237 OA
ATOM     95  O   UNL A   1      44.709  37.065  27.057  1.00  0.00    -0.237 OA
ATOM     96  O   UNL A   1      47.165  37.092  27.268  1.00  0.00    -0.744 OA
ENDBRANCH  89  93
ENDBRANCH  63  86
ENDBRANCH  37  38
ENDBRANCH  30  32
ENDBRANCH  29  30
ENDBRANCH  28  29
ENDBRANCH   1  28
TORSDOF 19
ENDMDL
MODEL 3
REMARK VINA RESULT:     -11.6      5.133      7.661
REMARK SMILES O=C(CSc1ccc2ccccc2n1)NCc1ccc(C(=O)OCCOC(=O)c2ccc(-c3c4nc(c(-c5cc(S(=O)(=O)[O-])ccc5F)c5ccc([nH]5)c(-c5cc(S(=O)(=O)[O-])ccc5F)c5nc(c(-c6cc(S(=O)(=O)[O-])ccc6F)c6ccc3[nH]6)C=C5)C=C4)cc2)cc1
REMARK SMILES IDX 24 1 23 2 21 3 22 4 20 5 17 6 18 7 93 8 19 9 92 10 16 11
REMARK SMILES IDX 15 12 1 13 2 14 3 16 4 17 5 18 6 19 14 20 7 21 13 22 8 23
REMARK SMILES IDX 12 24 9 25 11 26 10 27 25 28 26 29 27 30 28 31 29 32 30 33
REMARK SMILES IDX 91 34 31 35 90 36 32 37 33 38 34 39 84 40 35 41 89 42 83 43
REMARK SMILES IDX 85 44 36 45 88 46 82 47 81 48 37 50 69 51 49 52 68 53 50 54
REMARK SMILES IDX 53 55 67 56 86 57 51 58 52 59 66 61 87 62 54 63 38 64 39 65
REMARK SMILES IDX 47 66 40 67 46 68 48 69 45 70 41 71 42 72 43 73 44 74 70 75
REMARK SMILES IDX 71 76 79 77 72 78 78 79 80 80 77 81 73 82 74 83 75 84 76 85
REMARK SMILES IDX 55 86 56 87 64 88 57 89 63 90 65 91 62 92 58 93 59 94 60 95
REMARK SMILES IDX 61 96
REMARK H PARENT 15 15 85 49 53 60
REMARK Flexibility Score: inf
ROOT
ATOM      1  C   UNL A   1      30.945  29.535  24.136  1.00  0.00     0.275 C 
ENDROOT
BRANCH   1   2
ATOM      2  O   UNL A   1      29.928  28.534  23.927  1.00  0.00    -0.458 OA
BRANCH   2   3
ATOM      3  C   UNL A   1      30.305  27.488  23.149  1.00  0.00     0.338 C 
ATOM      4  O   UNL A   1      30.625  27.534  21.973  1.00  0.00    -0.246 OA
BRANCH   3   5
ATOM      5  C   UNL A   1      30.380  26.245  23.947  1.00  0.00     0.060 A 
ATOM      6  C   UNL A   1      30.467  23.806  25.341  1.00  0.00    -0.029 A 
ATOM      7  C   UNL A   1      30.751  23.854  23.971  1.00  0.00     0.006 A 
ATOM      8  C   UNL A   1      30.177  25.006  26.014  1.00  0.00     0.006 A 
ATOM      9  C   UNL A   1      30.664  25.054  23.274  1.00  0.00     0.016 A 
ATOM     10  C   UNL A   1      30.144  26.224  25.324  1.00  0.00     0.016 A 
BRANCH   6  11
ATOM     11  C   UNL A   1      30.520  22.496  26.087  1.00  0.00     0.151 C 
BRANCH  11  12
ATOM     12  N   UNL A   1      31.880  22.105  26.390  1.00  0.00    -0.351 N 
ATOM     13  O   UNL A   1      31.875  20.232  25.077  1.00  0.00    -0.274 OA
ATOM     14  C   UNL A   1      32.462  20.974  25.857  1.00  0.00     0.230 C 
ATOM     15  H   UNL A   1      32.410  22.669  27.000  1.00  0.00     0.163 HD
BRANCH  14  16
ATOM     16  C   UNL A   1      33.889  20.717  26.319  1.00  0.00     0.176 C 
BRANCH  16  17
ATOM     17  S   UNL A   1      35.049  20.781  24.909  1.00  0.00    -0.096 SA
BRANCH  17  18
ATOM     18  C   UNL A   1      34.714  22.444  24.372  1.00  0.00     0.097 A 
ATOM     19  C   UNL A   1      34.641  22.732  23.016  1.00  0.00     0.036 A 
ATOM     20  N   UNL A   1      34.537  23.371  25.334  1.00  0.00    -0.241 NA
ATOM     21  C   UNL A   1      34.421  24.046  22.627  1.00  0.00     0.013 A 
ATOM     22  C   UNL A   1      34.305  24.641  24.958  1.00  0.00     0.072 A 
ATOM     23  C   UNL A   1      34.246  25.031  23.602  1.00  0.00     0.000 A 
ATOM     24  C   UNL A   1      34.113  25.618  25.925  1.00  0.00     0.029 A 
ATOM     25  C   UNL A   1      34.009  26.371  23.255  1.00  0.00     0.010 A 
ATOM     26  C   UNL A   1      33.866  26.952  25.584  1.00  0.00     0.002 A 
ATOM     27  C   UNL A   1      33.818  27.330  24.246  1.00  0.00     0.001 A 
ENDBRANCH  17  18
ENDBRANCH  16  17
ENDBRANCH  14  16
ENDBRANCH  11  12
ENDBRANCH   6  11
ENDBRANCH   3   5
ENDBRANCH   2   3
ENDBRANCH   1   2
BRANCH   1  28
ATOM     28  C   UNL A   1      31.371  29.575  25.603  1.00  0.00     0.275 C 
BRANCH  28  29
ATOM     29  O   UNL A   1      32.610  30.293  25.725  1.00  0.00    -0.458 OA
BRANCH  29  30
ATOM     30  C   UNL A   1      32.654  31.226  26.707  1.00  0.00     0.338 C 
ATOM     31  O   UNL A   1      31.897  32.171  26.844  1.00  0.00    -0.246 OA
BRANCH  30  32
ATOM     32  C   UNL A   1      33.784  30.941  27.625  1.00  0.00     0.060 A 
ATOM     33  C   UNL A   1      34.330  31.951  28.415  1.00  0.00     0.016 A 
ATOM     34  C   UNL A   1      34.369  29.676  27.634  1.00  0.00     0.016 A 
ATOM     35  C   UNL A   1      35.513  31.734  29.127  1.00  0.00     0.010 A 
ATOM     36  C   UNL A   1      35.491  29.430  28.437  1.00  0.00     0.010 A 
ATOM     37  C   UNL A   1      36.111  30.466  29.160  1.00  0.00    -0.014 A 
BRANCH  37  38
ATOM     38  C   UNL A   1      37.403  30.236  29.886  1.00  0.00     0.031 A 
ATOM     39  C   UNL A   1      38.516  29.459  29.219  1.00  0.00     0.074 A 
ATOM     40  C   UNL A   1      37.607  30.722  31.129  1.00  0.00     0.049 A 
ATOM     41  N   UNL A   1      39.617  28.970  29.735  1.00  0.00    -0.248 NA
ATOM     42  C   UNL A   1      38.352  29.171  27.787  1.00  0.00     0.031 C 
ATOM     43  C   UNL A   1      36.651  31.523  31.897  1.00  0.00     0.029 A 
ATOM     44  N   UNL A   1      38.694  30.621  31.966  1.00  0.00    -0.354 N 
ATOM     45  C   UNL A   1      40.235  28.253  28.713  1.00  0.00     0.074 A 
ATOM     46  C   UNL A   1      39.379  28.369  27.550  1.00  0.00     0.031 C 
ATOM     47  C   UNL A   1      37.212  31.884  33.062  1.00  0.00     0.029 A 
ATOM     48  C   UNL A   1      38.526  31.260  33.175  1.00  0.00     0.049 A 
ATOM     49  H   UNL A   1      39.516  30.136  31.724  1.00  0.00     0.167 HD
ATOM     50  C   UNL A   1      41.404  27.563  28.740  1.00  0.00     0.034 A 
ATOM     51  C   UNL A   1      39.310  31.305  34.271  1.00  0.00     0.034 A 
ATOM     52  C   UNL A   1      42.289  27.516  29.880  1.00  0.00     0.049 A 
ATOM     53  C   UNL A   1      40.603  30.534  34.281  1.00  0.00     0.074 A 
ATOM     54  C   UNL A   1      43.509  26.871  30.001  1.00  0.00     0.029 A 
ATOM     55  N   UNL A   1      42.063  28.157  31.091  1.00  0.00    -0.354 N 
ATOM     56  N   UNL A   1      41.128  29.789  33.337  1.00  0.00    -0.248 NA
ATOM     57  C   UNL A   1      41.399  30.593  35.515  1.00  0.00     0.031 C 
ATOM     58  C   UNL A   1      43.995  27.080  31.297  1.00  0.00     0.029 A 
ATOM     59  C   UNL A   1      43.110  27.908  31.967  1.00  0.00     0.049 A 
ATOM     60  H   UNL A   1      41.274  28.708  31.298  1.00  0.00     0.167 HD
ATOM     61  C   UNL A   1      42.314  29.290  33.865  1.00  0.00     0.074 A 
ATOM     62  C   UNL A   1      42.444  29.845  35.197  1.00  0.00     0.031 C 
ATOM     63  C   UNL A   1      43.214  28.444  33.303  1.00  0.00     0.034 A 
BRANCH  50  64
ATOM     64  C   UNL A   1      41.761  26.749  27.517  1.00  0.00     0.023 A 
ATOM     65  C   UNL A   1      41.460  25.380  27.407  1.00  0.00     0.031 A 
ATOM     66  C   UNL A   1      42.448  27.357  26.450  1.00  0.00     0.131 A 
ATOM     67  C   UNL A   1      41.905  24.653  26.293  1.00  0.00     0.055 A 
ATOM     68  C   UNL A   1      42.820  26.645  25.307  1.00  0.00     0.041 A 
ATOM     69  F   UNL A   1      42.781  28.657  26.504  1.00  0.00    -0.206 F 
ATOM     70  C   UNL A   1      42.563  25.280  25.231  1.00  0.00     0.022 A 
BRANCH  67  71
ATOM     71  S   UNL A   1      41.742  22.845  26.311  1.00  0.00     0.124 S 
ATOM     72  O   UNL A   1      40.299  22.679  26.157  1.00  0.00    -0.237 OA
ATOM     73  O   UNL A   1      42.559  22.444  25.172  1.00  0.00    -0.237 OA
ATOM     74  O   UNL A   1      42.268  22.466  27.621  1.00  0.00    -0.744 OA
ENDBRANCH  67  71
ENDBRANCH  50  64
BRANCH  51  75
ATOM     75  C   UNL A   1      38.865  32.048  35.486  1.00  0.00     0.023 A 
ATOM     76  C   UNL A   1      38.253  31.384  36.561  1.00  0.00     0.031 A 
ATOM     77  C   UNL A   1      39.015  33.444  35.573  1.00  0.00     0.131 A 
ATOM     78  C   UNL A   1      37.788  32.118  37.664  1.00  0.00     0.055 A 
ATOM     79  C   UNL A   1      38.598  34.163  36.694  1.00  0.00     0.041 A 
ATOM     80  F   UNL A   1      39.590  34.128  34.571  1.00  0.00    -0.206 F 
ATOM     81  C   UNL A   1      37.972  33.501  37.744  1.00  0.00     0.022 A 
BRANCH  78  82
ATOM     82  S   UNL A   1      36.877  31.249  38.968  1.00  0.00     0.124 S 
ATOM     83  O   UNL A   1      37.803  31.341  40.092  1.00  0.00    -0.237 OA
ATOM     84  O   UNL A   1      35.660  32.046  39.072  1.00  0.00    -0.237 OA
ATOM     85  O   UNL A   1      36.693  29.907  38.419  1.00  0.00    -0.744 OA
ENDBRANCH  78  82
ENDBRANCH  51  75
BRANCH  63  86
ATOM     86  C   UNL A   1      44.424  28.093  34.131  1.00  0.00     0.023 A 
ATOM     87  C   UNL A   1      44.435  26.969  34.975  1.00  0.00     0.031 A 
ATOM     88  C   UNL A   1      45.565  28.913  34.103  1.00  0.00     0.131 A 
ATOM     89  C   UNL A   1      45.544  26.726  35.800  1.00  0.00     0.055 A 
ATOM     90  C   UNL A   1      46.685  28.639  34.887  1.00  0.00     0.041 A 
ATOM     91  F   UNL A   1      45.606  30.000  33.315  1.00  0.00    -0.206 F 
ATOM     92  C   UNL A   1      46.674  27.547  35.752  1.00  0.00     0.022 A 
BRANCH  89  93
ATOM     93  S   UNL A   1      45.456  25.373  37.004  1.00  0.00     0.124 S 
ATOM     94  O   UNL A   1      46.225  25.910  38.123  1.00  0.00    -0.237 OA
ATOM     95  O   UNL A   1      44.019  25.242  37.223  1.00  0.00    -0.237 OA
ATOM     96  O   UNL A   1      46.081  24.250  36.307  1.00  0.00    -0.744 OA
ENDBRANCH  89  93
ENDBRANCH  63  86
ENDBRANCH  37  38
ENDBRANCH  30  32
ENDBRANCH  29  30
ENDBRANCH  28  29
ENDBRANCH   1  28
TORSDOF 19
ENDMDL
