MODEL 1
REMARK VINA RESULT:     -10.5      0.000      0.000
REMARK SMILES O=C(Cc1c(F)cccc1F)NC[C@H]1CC[C@H](C(=O)OCCOC(=O)c2ccc(-c3c4nc(c(-c5cc(S(=O)(=O)[O-])ccc5F)c5ccc([nH]5)c(-c5cc(S(=O)(=O)[O-])ccc5F)c5nc(c(-c6cc(S(=O)(=O)[O-])ccc6F)c6ccc3[nH]6)C=C5)C=C4)cc2)O1
REMARK SMILES IDX 21 1 20 2 18 3 19 4 17 5 14 6 15 7 89 8 16 9 13 10 12 11
REMARK SMILES IDX 1 12 2 13 3 15 4 16 5 17 10 18 6 19 7 20 9 21 11 22 8 23
REMARK SMILES IDX 22 24 23 25 24 26 25 27 26 28 27 29 88 30 28 31 87 32 29 33
REMARK SMILES IDX 30 34 31 35 81 36 32 37 86 38 80 39 82 40 33 41 85 42 79 43
REMARK SMILES IDX 78 44 34 46 66 47 46 48 65 49 47 50 50 51 64 52 83 53 48 54
REMARK SMILES IDX 49 55 63 57 84 58 51 59 35 60 36 61 44 62 37 63 43 64 45 65
REMARK SMILES IDX 42 66 38 67 39 68 40 69 41 70 67 71 68 72 76 73 69 74 75 75
REMARK SMILES IDX 77 76 74 77 70 78 71 79 72 80 73 81 52 82 53 83 61 84 54 85
REMARK SMILES IDX 60 86 62 87 59 88 55 89 56 90 57 91 58 92
REMARK H PARENT 12 14 82 45 50 56
REMARK Flexibility Score: inf
ROOT
ATOM      1  C   UNL A   1      40.853  20.176  26.456  1.00  0.00     0.274 C 
ENDROOT
BRANCH   1   2
ATOM      2  O   UNL A   1      41.530  19.517  25.371  1.00  0.00    -0.460 OA
BRANCH   2   3
ATOM      3  C   UNL A   1      42.591  18.732  25.714  1.00  0.00     0.335 C 
ATOM      4  O   UNL A   1      42.516  17.534  25.964  1.00  0.00    -0.249 OA
BRANCH   3   5
ATOM      5  C   UNL A   1      43.908  19.518  25.757  1.00  0.00     0.228 C 
ATOM      6  C   UNL A   1      45.054  20.687  24.086  1.00  0.00     0.138 C 
ATOM      7  C   UNL A   1      45.424  19.217  23.965  1.00  0.00     0.037 C 
ATOM      8  O   UNL A   1      43.874  20.684  24.914  1.00  0.00    -0.361 OA
ATOM      9  C   UNL A   1      45.134  18.705  25.354  1.00  0.00     0.047 C 
BRANCH   6  10
ATOM     10  C   UNL A   1      46.140  21.551  24.758  1.00  0.00     0.147 C 
BRANCH  10  11
ATOM     11  N   UNL A   1      45.595  22.581  25.622  1.00  0.00    -0.353 N 
ATOM     12  O   UNL A   1      46.123  24.313  24.232  1.00  0.00    -0.275 OA
ATOM     13  C   UNL A   1      45.611  23.912  25.275  1.00  0.00     0.224 C 
ATOM     14  H   UNL A   1      45.200  22.319  26.484  1.00  0.00     0.163 HD
BRANCH  13  15
ATOM     15  C   UNL A   1      45.100  24.886  26.323  1.00  0.00     0.141 C 
BRANCH  15  16
ATOM     16  C   UNL A   1      44.455  24.318  27.560  1.00  0.00     0.033 A 
ATOM     17  C   UNL A   1      43.210  23.689  27.467  1.00  0.00     0.129 A 
ATOM     18  C   UNL A   1      45.082  24.315  28.808  1.00  0.00     0.129 A 
ATOM     19  F   UNL A   1      42.589  23.615  26.280  1.00  0.00    -0.207 F 
ATOM     20  C   UNL A   1      42.585  23.124  28.577  1.00  0.00     0.040 A 
ATOM     21  C   UNL A   1      44.465  23.771  29.935  1.00  0.00     0.040 A 
ATOM     22  F   UNL A   1      46.300  24.853  28.948  1.00  0.00    -0.207 F 
ATOM     23  C   UNL A   1      43.211  23.175  29.821  1.00  0.00     0.006 A 
ENDBRANCH  15  16
ENDBRANCH  13  15
ENDBRANCH  10  11
ENDBRANCH   6  10
ENDBRANCH   3   5
ENDBRANCH   2   3
ENDBRANCH   1   2
BRANCH   1  24
ATOM     24  C   UNL A   1      39.834  21.199  25.946  1.00  0.00     0.275 C 
BRANCH  24  25
ATOM     25  O   UNL A   1      39.603  22.245  26.907  1.00  0.00    -0.458 OA
BRANCH  25  26
ATOM     26  C   UNL A   1      38.941  23.328  26.436  1.00  0.00     0.338 C 
ATOM     27  O   UNL A   1      37.980  23.336  25.688  1.00  0.00    -0.246 OA
BRANCH  26  28
ATOM     28  C   UNL A   1      39.476  24.546  27.061  1.00  0.00     0.060 A 
ATOM     29  C   UNL A   1      39.288  24.727  28.434  1.00  0.00     0.016 A 
ATOM     30  C   UNL A   1      40.079  25.538  26.287  1.00  0.00     0.016 A 
ATOM     31  C   UNL A   1      39.704  25.909  29.043  1.00  0.00     0.010 A 
ATOM     32  C   UNL A   1      40.499  26.722  26.901  1.00  0.00     0.010 A 
ATOM     33  C   UNL A   1      40.305  26.919  28.281  1.00  0.00    -0.014 A 
BRANCH  33  34
ATOM     34  C   UNL A   1      40.691  28.203  28.916  1.00  0.00     0.031 A 
ATOM     35  C   UNL A   1      42.141  28.504  29.162  1.00  0.00     0.074 A 
ATOM     36  C   UNL A   1      39.741  29.090  29.265  1.00  0.00     0.049 A 
ATOM     37  N   UNL A   1      42.683  29.509  29.802  1.00  0.00    -0.248 NA
ATOM     38  C   UNL A   1      43.109  27.541  28.619  1.00  0.00     0.031 C 
ATOM     39  C   UNL A   1      38.306  28.925  29.030  1.00  0.00     0.029 A 
ATOM     40  N   UNL A   1      39.840  30.301  29.902  1.00  0.00    -0.354 N 
ATOM     41  C   UNL A   1      44.055  29.293  29.754  1.00  0.00     0.074 A 
ATOM     42  C   UNL A   1      44.259  28.048  29.042  1.00  0.00     0.031 C 
ATOM     43  C   UNL A   1      37.657  29.992  29.524  1.00  0.00     0.029 A 
ATOM     44  C   UNL A   1      38.622  30.888  30.156  1.00  0.00     0.049 A 
ATOM     45  H   UNL A   1      40.698  30.711  30.154  1.00  0.00     0.167 HD
ATOM     46  C   UNL A   1      45.051  30.064  30.259  1.00  0.00     0.034 A 
ATOM     47  C   UNL A   1      38.317  32.000  30.853  1.00  0.00     0.034 A 
ATOM     48  C   UNL A   1      44.827  31.299  30.971  1.00  0.00     0.049 A 
ATOM     49  C   UNL A   1      39.434  32.801  31.473  1.00  0.00     0.074 A 
ATOM     50  C   UNL A   1      45.759  32.164  31.519  1.00  0.00     0.029 A 
ATOM     51  N   UNL A   1      43.577  31.845  31.242  1.00  0.00    -0.354 N 
ATOM     52  N   UNL A   1      40.728  32.575  31.441  1.00  0.00    -0.248 NA
ATOM     53  C   UNL A   1      39.050  34.002  32.225  1.00  0.00     0.031 C 
ATOM     54  C   UNL A   1      45.074  33.196  32.172  1.00  0.00     0.029 A 
ATOM     55  C   UNL A   1      43.714  33.015  31.974  1.00  0.00     0.049 A 
ATOM     56  H   UNL A   1      42.719  31.456  30.957  1.00  0.00     0.167 HD
ATOM     57  C   UNL A   1      41.312  33.621  32.151  1.00  0.00     0.074 A 
ATOM     58  C   UNL A   1      40.231  34.482  32.587  1.00  0.00     0.031 C 
ATOM     59  C   UNL A   1      42.623  33.852  32.414  1.00  0.00     0.034 A 
BRANCH  46  60
ATOM     60  C   UNL A   1      46.463  29.554  30.107  1.00  0.00     0.023 A 
ATOM     61  C   UNL A   1      47.250  29.871  28.985  1.00  0.00     0.031 A 
ATOM     62  C   UNL A   1      47.018  28.707  31.082  1.00  0.00     0.131 A 
ATOM     63  C   UNL A   1      48.518  29.289  28.833  1.00  0.00     0.055 A 
ATOM     64  C   UNL A   1      48.309  28.191  30.962  1.00  0.00     0.041 A 
ATOM     65  F   UNL A   1      46.306  28.352  32.163  1.00  0.00    -0.206 F 
ATOM     66  C   UNL A   1      49.062  28.469  29.824  1.00  0.00     0.022 A 
BRANCH  63  67
ATOM     67  S   UNL A   1      49.391  29.507  27.258  1.00  0.00     0.124 S 
ATOM     68  O   UNL A   1      48.328  30.024  26.398  1.00  0.00    -0.237 OA
ATOM     69  O   UNL A   1      50.444  30.453  27.608  1.00  0.00    -0.237 OA
ATOM     70  O   UNL A   1      49.847  28.159  26.927  1.00  0.00    -0.744 OA
ENDBRANCH  63  67
ENDBRANCH  46  60
BRANCH  47  71
ATOM     71  C   UNL A   1      36.894  32.394  31.056  1.00  0.00     0.023 A 
ATOM     72  C   UNL A   1      36.136  32.945  30.012  1.00  0.00     0.031 A 
ATOM     73  C   UNL A   1      36.284  32.257  32.316  1.00  0.00     0.131 A 
ATOM     74  C   UNL A   1      34.822  33.374  30.255  1.00  0.00     0.055 A 
ATOM     75  C   UNL A   1      34.960  32.639  32.540  1.00  0.00     0.041 A 
ATOM     76  F   UNL A   1      36.966  31.737  33.349  1.00  0.00    -0.206 F 
ATOM     77  C   UNL A   1      34.225  33.212  31.508  1.00  0.00     0.022 A 
BRANCH  74  78
ATOM     78  S   UNL A   1      33.922  34.217  28.925  1.00  0.00     0.124 S 
ATOM     79  O   UNL A   1      34.918  35.172  28.452  1.00  0.00    -0.237 OA
ATOM     80  O   UNL A   1      33.612  33.115  28.022  1.00  0.00    -0.237 OA
ATOM     81  O   UNL A   1      32.772  34.803  29.609  1.00  0.00    -0.744 OA
ENDBRANCH  74  78
ENDBRANCH  47  71
BRANCH  59  82
ATOM     82  C   UNL A   1      42.952  35.111  33.177  1.00  0.00     0.023 A 
ATOM     83  C   UNL A   1      43.161  36.338  32.524  1.00  0.00     0.031 A 
ATOM     84  C   UNL A   1      43.072  35.075  34.578  1.00  0.00     0.131 A 
ATOM     85  C   UNL A   1      43.529  37.470  33.267  1.00  0.00     0.055 A 
ATOM     86  C   UNL A   1      43.388  36.216  35.316  1.00  0.00     0.041 A 
ATOM     87  F   UNL A   1      42.884  33.928  35.249  1.00  0.00    -0.206 F 
ATOM     88  C   UNL A   1      43.630  37.419  34.660  1.00  0.00     0.022 A 
BRANCH  85  89
ATOM     89  S   UNL A   1      43.950  38.996  32.382  1.00  0.00     0.124 S 
ATOM     90  O   UNL A   1      45.291  39.279  32.884  1.00  0.00    -0.237 OA
ATOM     91  O   UNL A   1      43.867  38.581  30.985  1.00  0.00    -0.237 OA
ATOM     92  O   UNL A   1      42.917  39.937  32.809  1.00  0.00    -0.744 OA
ENDBRANCH  85  89
ENDBRANCH  59  82
ENDBRANCH  33  34
ENDBRANCH  26  28
ENDBRANCH  25  26
ENDBRANCH  24  25
ENDBRANCH   1  24
TORSDOF 18
ENDMDL
MODEL 2
REMARK VINA RESULT:     -10.3      4.454     10.183
REMARK SMILES O=C(Cc1c(F)cccc1F)NC[C@H]1CC[C@H](C(=O)OCCOC(=O)c2ccc(-c3c4nc(c(-c5cc(S(=O)(=O)[O-])ccc5F)c5ccc([nH]5)c(-c5cc(S(=O)(=O)[O-])ccc5F)c5nc(c(-c6cc(S(=O)(=O)[O-])ccc6F)c6ccc3[nH]6)C=C5)C=C4)cc2)O1
REMARK SMILES IDX 21 1 20 2 18 3 19 4 17 5 14 6 15 7 89 8 16 9 13 10 12 11
REMARK SMILES IDX 1 12 2 13 3 15 4 16 5 17 10 18 6 19 7 20 9 21 11 22 8 23
REMARK SMILES IDX 22 24 23 25 24 26 25 27 26 28 27 29 88 30 28 31 87 32 29 33
REMARK SMILES IDX 30 34 31 35 81 36 32 37 86 38 80 39 82 40 33 41 85 42 79 43
REMARK SMILES IDX 78 44 34 46 66 47 46 48 65 49 47 50 50 51 64 52 83 53 48 54
REMARK SMILES IDX 49 55 63 57 84 58 51 59 35 60 36 61 44 62 37 63 43 64 45 65
REMARK SMILES IDX 42 66 38 67 39 68 40 69 41 70 67 71 68 72 76 73 69 74 75 75
REMARK SMILES IDX 77 76 74 77 70 78 71 79 72 80 73 81 52 82 53 83 61 84 54 85
REMARK SMILES IDX 60 86 62 87 59 88 55 89 56 90 57 91 58 92
REMARK H PARENT 12 14 82 45 50 56
REMARK Flexibility Score: inf
ROOT
ATOM      1  C   UNL A   1      35.305  21.134  24.711  1.00  0.00     0.274 C 
ENDROOT
BRANCH   1   2
ATOM      2  O   UNL A   1      35.220  22.570  24.643  1.00  0.00    -0.460 OA
BRANCH   2   3
ATOM      3  C   UNL A   1      35.289  23.117  23.395  1.00  0.00     0.335 C 
ATOM      4  O   UNL A   1      36.261  23.032  22.653  1.00  0.00    -0.249 OA
BRANCH   3   5
ATOM      5  C   UNL A   1      34.005  23.864  23.015  1.00  0.00     0.228 C 
ATOM      6  C   UNL A   1      31.906  23.933  24.046  1.00  0.00     0.138 C 
ATOM      7  C   UNL A   1      31.960  22.683  23.181  1.00  0.00     0.037 C 
ATOM      8  O   UNL A   1      33.285  24.333  24.170  1.00  0.00    -0.361 OA
ATOM      9  C   UNL A   1      33.028  23.042  22.179  1.00  0.00     0.047 C 
BRANCH   6  10
ATOM     10  C   UNL A   1      31.098  25.089  23.423  1.00  0.00     0.147 C 
BRANCH  10  11
ATOM     11  N   UNL A   1      31.703  26.389  23.643  1.00  0.00    -0.353 N 
ATOM     12  O   UNL A   1      30.665  27.399  21.878  1.00  0.00    -0.275 OA
ATOM     13  C   UNL A   1      31.418  27.474  22.847  1.00  0.00     0.224 C 
ATOM     14  H   UNL A   1      32.337  26.499  24.387  1.00  0.00     0.163 HD
BRANCH  13  15
ATOM     15  C   UNL A   1      32.204  28.742  23.132  1.00  0.00     0.141 C 
BRANCH  15  16
ATOM     16  C   UNL A   1      32.492  29.086  24.571  1.00  0.00     0.033 A 
ATOM     17  C   UNL A   1      33.683  28.652  25.162  1.00  0.00     0.129 A 
ATOM     18  C   UNL A   1      31.655  29.898  25.338  1.00  0.00     0.129 A 
ATOM     19  F   UNL A   1      34.549  27.915  24.450  1.00  0.00    -0.207 F 
ATOM     20  C   UNL A   1      34.007  28.967  26.480  1.00  0.00     0.040 A 
ATOM     21  C   UNL A   1      31.953  30.209  26.665  1.00  0.00     0.040 A 
ATOM     22  F   UNL A   1      30.527  30.390  24.808  1.00  0.00    -0.207 F 
ATOM     23  C   UNL A   1      33.133  29.741  27.240  1.00  0.00     0.006 A 
ENDBRANCH  15  16
ENDBRANCH  13  15
ENDBRANCH  10  11
ENDBRANCH   6  10
ENDBRANCH   3   5
ENDBRANCH   2   3
ENDBRANCH   1   2
BRANCH   1  24
ATOM     24  C   UNL A   1      36.636  20.677  25.313  1.00  0.00     0.275 C 
BRANCH  24  25
ATOM     25  O   UNL A   1      37.454  21.794  25.706  1.00  0.00    -0.458 OA
BRANCH  25  26
ATOM     26  C   UNL A   1      38.733  21.490  26.026  1.00  0.00     0.338 C 
ATOM     27  O   UNL A   1      39.301  20.425  25.860  1.00  0.00    -0.246 OA
BRANCH  26  28
ATOM     28  C   UNL A   1      39.422  22.694  26.514  1.00  0.00     0.060 A 
ATOM     29  C   UNL A   1      38.968  23.942  26.078  1.00  0.00     0.016 A 
ATOM     30  C   UNL A   1      40.555  22.589  27.322  1.00  0.00     0.016 A 
ATOM     31  C   UNL A   1      39.650  25.098  26.450  1.00  0.00     0.010 A 
ATOM     32  C   UNL A   1      41.236  23.752  27.696  1.00  0.00     0.010 A 
ATOM     33  C   UNL A   1      40.793  25.013  27.255  1.00  0.00    -0.014 A 
BRANCH  33  34
ATOM     34  C   UNL A   1      41.557  26.237  27.598  1.00  0.00     0.031 A 
ATOM     35  C   UNL A   1      40.907  27.312  28.420  1.00  0.00     0.074 A 
ATOM     36  C   UNL A   1      42.827  26.377  27.174  1.00  0.00     0.049 A 
ATOM     37  N   UNL A   1      41.354  28.501  28.735  1.00  0.00    -0.248 NA
ATOM     38  C   UNL A   1      39.573  27.007  28.956  1.00  0.00     0.031 C 
ATOM     39  C   UNL A   1      43.575  25.377  26.411  1.00  0.00     0.029 A 
ATOM     40  N   UNL A   1      43.706  27.419  27.314  1.00  0.00    -0.354 N 
ATOM     41  C   UNL A   1      40.350  29.096  29.491  1.00  0.00     0.074 A 
ATOM     42  C   UNL A   1      39.262  28.142  29.567  1.00  0.00     0.031 C 
ATOM     43  C   UNL A   1      44.799  25.859  26.144  1.00  0.00     0.029 A 
ATOM     44  C   UNL A   1      44.904  27.218  26.668  1.00  0.00     0.049 A 
ATOM     45  H   UNL A   1      43.502  28.234  27.828  1.00  0.00     0.167 HD
ATOM     46  C   UNL A   1      40.341  30.324  30.068  1.00  0.00     0.034 A 
ATOM     47  C   UNL A   1      45.949  28.049  26.486  1.00  0.00     0.034 A 
ATOM     48  C   UNL A   1      41.434  31.262  29.975  1.00  0.00     0.049 A 
ATOM     49  C   UNL A   1      45.884  29.438  27.068  1.00  0.00     0.074 A 
ATOM     50  C   UNL A   1      41.535  32.529  30.524  1.00  0.00     0.029 A 
ATOM     51  N   UNL A   1      42.617  31.038  29.280  1.00  0.00    -0.354 N 
ATOM     52  N   UNL A   1      44.920  29.999  27.763  1.00  0.00    -0.248 NA
ATOM     53  C   UNL A   1      47.046  30.306  26.839  1.00  0.00     0.031 C 
ATOM     54  C   UNL A   1      42.749  33.093  30.112  1.00  0.00     0.029 A 
ATOM     55  C   UNL A   1      43.438  32.153  29.362  1.00  0.00     0.049 A 
ATOM     56  H   UNL A   1      42.839  30.209  28.799  1.00  0.00     0.167 HD
ATOM     57  C   UNL A   1      45.373  31.279  28.072  1.00  0.00     0.074 A 
ATOM     58  C   UNL A   1      46.698  31.401  27.499  1.00  0.00     0.031 C 
ATOM     59  C   UNL A   1      44.751  32.263  28.770  1.00  0.00     0.034 A 
BRANCH  46  60
ATOM     60  C   UNL A   1      39.083  30.736  30.793  1.00  0.00     0.023 A 
ATOM     61  C   UNL A   1      38.054  31.446  30.151  1.00  0.00     0.031 A 
ATOM     62  C   UNL A   1      38.929  30.445  32.160  1.00  0.00     0.131 A 
ATOM     63  C   UNL A   1      36.951  31.902  30.889  1.00  0.00     0.055 A 
ATOM     64  C   UNL A   1      37.794  30.835  32.873  1.00  0.00     0.041 A 
ATOM     65  F   UNL A   1      39.888  29.788  32.832  1.00  0.00    -0.206 F 
ATOM     66  C   UNL A   1      36.803  31.582  32.241  1.00  0.00     0.022 A 
BRANCH  63  67
ATOM     67  S   UNL A   1      35.781  33.035  30.093  1.00  0.00     0.124 S 
ATOM     68  O   UNL A   1      35.408  33.907  31.206  1.00  0.00    -0.237 OA
ATOM     69  O   UNL A   1      36.593  33.648  29.048  1.00  0.00    -0.237 OA
ATOM     70  O   UNL A   1      34.715  32.154  29.620  1.00  0.00    -0.744 OA
ENDBRANCH  63  67
ENDBRANCH  46  60
BRANCH  47  71
ATOM     71  C   UNL A   1      47.118  27.619  25.670  1.00  0.00     0.023 A 
ATOM     72  C   UNL A   1      47.217  27.948  24.310  1.00  0.00     0.031 A 
ATOM     73  C   UNL A   1      48.140  26.834  26.235  1.00  0.00     0.131 A 
ATOM     74  C   UNL A   1      48.294  27.465  23.550  1.00  0.00     0.055 A 
ATOM     75  C   UNL A   1      49.235  26.398  25.488  1.00  0.00     0.041 A 
ATOM     76  F   UNL A   1      48.093  26.489  27.532  1.00  0.00    -0.206 F 
ATOM     77  C   UNL A   1      49.310  26.704  24.134  1.00  0.00     0.022 A 
BRANCH  74  78
ATOM     78  S   UNL A   1      48.313  27.785  21.765  1.00  0.00     0.124 S 
ATOM     79  O   UNL A   1      48.530  26.448  21.226  1.00  0.00    -0.237 OA
ATOM     80  O   UNL A   1      46.989  28.358  21.546  1.00  0.00    -0.237 OA
ATOM     81  O   UNL A   1      49.428  28.714  21.597  1.00  0.00    -0.744 OA
ENDBRANCH  74  78
ENDBRANCH  47  71
BRANCH  59  82
ATOM     82  C   UNL A   1      45.525  33.540  28.982  1.00  0.00     0.023 A 
ATOM     83  C   UNL A   1      45.391  34.639  28.116  1.00  0.00     0.031 A 
ATOM     84  C   UNL A   1      46.422  33.649  30.060  1.00  0.00     0.131 A 
ATOM     85  C   UNL A   1      46.179  35.783  28.314  1.00  0.00     0.055 A 
ATOM     86  C   UNL A   1      47.166  34.808  30.281  1.00  0.00     0.041 A 
ATOM     87  F   UNL A   1      46.588  32.627  30.915  1.00  0.00    -0.206 F 
ATOM     88  C   UNL A   1      47.055  35.879  29.399  1.00  0.00     0.022 A 
BRANCH  85  89
ATOM     89  S   UNL A   1      46.103  37.117  27.089  1.00  0.00     0.124 S 
ATOM     90  O   UNL A   1      46.824  38.192  27.763  1.00  0.00    -0.237 OA
ATOM     91  O   UNL A   1      46.774  36.523  25.937  1.00  0.00    -0.237 OA
ATOM     92  O   UNL A   1      44.669  37.346  26.918  1.00  0.00    -0.744 OA
ENDBRANCH  85  89
ENDBRANCH  59  82
ENDBRANCH  33  34
ENDBRANCH  26  28
ENDBRANCH  25  26
ENDBRANCH  24  25
ENDBRANCH   1  24
TORSDOF 18
ENDMDL
MODEL 3
REMARK VINA RESULT:     -10.1      4.728     10.822
REMARK SMILES O=C(Cc1c(F)cccc1F)NC[C@H]1CC[C@H](C(=O)OCCOC(=O)c2ccc(-c3c4nc(c(-c5cc(S(=O)(=O)[O-])ccc5F)c5ccc([nH]5)c(-c5cc(S(=O)(=O)[O-])ccc5F)c5nc(c(-c6cc(S(=O)(=O)[O-])ccc6F)c6ccc3[nH]6)C=C5)C=C4)cc2)O1
REMARK SMILES IDX 21 1 20 2 18 3 19 4 17 5 14 6 15 7 89 8 16 9 13 10 12 11
REMARK SMILES IDX 1 12 2 13 3 15 4 16 5 17 10 18 6 19 7 20 9 21 11 22 8 23
REMARK SMILES IDX 22 24 23 25 24 26 25 27 26 28 27 29 88 30 28 31 87 32 29 33
REMARK SMILES IDX 30 34 31 35 81 36 32 37 86 38 80 39 82 40 33 41 85 42 79 43
REMARK SMILES IDX 78 44 34 46 66 47 46 48 65 49 47 50 50 51 64 52 83 53 48 54
REMARK SMILES IDX 49 55 63 57 84 58 51 59 35 60 36 61 44 62 37 63 43 64 45 65
REMARK SMILES IDX 42 66 38 67 39 68 40 69 41 70 67 71 68 72 76 73 69 74 75 75
REMARK SMILES IDX 77 76 74 77 70 78 71 79 72 80 73 81 52 82 53 83 61 84 54 85
REMARK SMILES IDX 60 86 62 87 59 88 55 89 56 90 57 91 58 92
REMARK H PARENT 12 14 82 45 50 56
REMARK Flexibility Score: inf
ROOT
ATOM      1  C   UNL A   1      35.137  20.159  25.007  1.00  0.00     0.274 C 
ENDROOT
BRANCH   1   2
ATOM      2  O   UNL A   1      34.220  20.791  25.919  1.00  0.00    -0.460 OA
BRANCH   2   3
ATOM      3  C   UNL A   1      33.065  21.270  25.373  1.00  0.00     0.335 C 
ATOM      4  O   UNL A   1      32.332  20.629  24.628  1.00  0.00    -0.249 OA
BRANCH   3   5
ATOM      5  C   UNL A   1      32.778  22.716  25.793  1.00  0.00     0.228 C 
ATOM      6  C   UNL A   1      33.366  24.750  24.797  1.00  0.00     0.138 C 
ATOM      7  C   UNL A   1      34.549  24.278  25.628  1.00  0.00     0.037 C 
ATOM      8  O   UNL A   1      32.542  23.575  24.662  1.00  0.00    -0.361 OA
ATOM      9  C   UNL A   1      33.886  23.358  26.622  1.00  0.00     0.047 C 
BRANCH   6  10
ATOM     10  C   UNL A   1      32.542  25.871  25.464  1.00  0.00     0.147 C 
BRANCH  10  11
ATOM     11  N   UNL A   1      32.392  27.044  24.623  1.00  0.00    -0.353 N 
ATOM     12  O   UNL A   1      31.425  28.332  26.241  1.00  0.00    -0.275 OA
ATOM     13  C   UNL A   1      31.850  28.217  25.093  1.00  0.00     0.224 C 
ATOM     14  H   UNL A   1      32.688  26.998  23.686  1.00  0.00     0.163 HD
BRANCH  13  15
ATOM     15  C   UNL A   1      31.660  29.326  24.072  1.00  0.00     0.141 C 
BRANCH  15  16
ATOM     16  C   UNL A   1      30.252  29.678  23.667  1.00  0.00     0.033 A 
ATOM     17  C   UNL A   1      29.658  30.842  24.165  1.00  0.00     0.129 A 
ATOM     18  C   UNL A   1      29.520  28.932  22.740  1.00  0.00     0.129 A 
ATOM     19  F   UNL A   1      30.339  31.624  25.016  1.00  0.00    -0.207 F 
ATOM     20  C   UNL A   1      28.369  31.225  23.799  1.00  0.00     0.040 A 
ATOM     21  C   UNL A   1      28.222  29.290  22.376  1.00  0.00     0.040 A 
ATOM     22  F   UNL A   1      30.058  27.838  22.187  1.00  0.00    -0.207 F 
ATOM     23  C   UNL A   1      27.642  30.439  22.908  1.00  0.00     0.006 A 
ENDBRANCH  15  16
ENDBRANCH  13  15
ENDBRANCH  10  11
ENDBRANCH   6  10
ENDBRANCH   3   5
ENDBRANCH   2   3
ENDBRANCH   1   2
BRANCH   1  24
ATOM     24  C   UNL A   1      36.307  21.080  24.657  1.00  0.00     0.275 C 
BRANCH  24  25
ATOM     25  O   UNL A   1      37.000  21.532  25.835  1.00  0.00    -0.458 OA
BRANCH  25  26
ATOM     26  C   UNL A   1      38.331  21.285  25.853  1.00  0.00     0.338 C 
ATOM     27  O   UNL A   1      38.905  20.304  25.414  1.00  0.00    -0.246 OA
BRANCH  26  28
ATOM     28  C   UNL A   1      39.045  22.454  26.390  1.00  0.00     0.060 A 
ATOM     29  C   UNL A   1      38.564  23.728  26.075  1.00  0.00     0.016 A 
ATOM     30  C   UNL A   1      40.223  22.296  27.120  1.00  0.00     0.016 A 
ATOM     31  C   UNL A   1      39.264  24.857  26.493  1.00  0.00     0.010 A 
ATOM     32  C   UNL A   1      40.922  23.432  27.540  1.00  0.00     0.010 A 
ATOM     33  C   UNL A   1      40.452  24.719  27.221  1.00  0.00    -0.014 A 
BRANCH  33  34
ATOM     34  C   UNL A   1      41.232  25.919  27.611  1.00  0.00     0.031 A 
ATOM     35  C   UNL A   1      40.571  27.012  28.399  1.00  0.00     0.074 A 
ATOM     36  C   UNL A   1      42.527  26.021  27.259  1.00  0.00     0.049 A 
ATOM     37  N   UNL A   1      41.035  28.186  28.742  1.00  0.00    -0.248 NA
ATOM     38  C   UNL A   1      39.200  26.747  28.859  1.00  0.00     0.031 C 
ATOM     39  C   UNL A   1      43.287  25.000  26.536  1.00  0.00     0.029 A 
ATOM     40  N   UNL A   1      43.429  27.036  27.451  1.00  0.00    -0.354 N 
ATOM     41  C   UNL A   1      40.009  28.811  29.443  1.00  0.00     0.074 A 
ATOM     42  C   UNL A   1      38.890  27.890  29.454  1.00  0.00     0.031 C 
ATOM     43  C   UNL A   1      44.538  25.445  26.338  1.00  0.00     0.029 A 
ATOM     44  C   UNL A   1      44.654  26.800  26.872  1.00  0.00     0.049 A 
ATOM     45  H   UNL A   1      43.221  27.856  27.956  1.00  0.00     0.167 HD
ATOM     46  C   UNL A   1      40.005  30.038  30.022  1.00  0.00     0.034 A 
ATOM     47  C   UNL A   1      45.732  27.599  26.751  1.00  0.00     0.034 A 
ATOM     48  C   UNL A   1      41.129  30.942  29.993  1.00  0.00     0.049 A 
ATOM     49  C   UNL A   1      45.678  28.989  27.333  1.00  0.00     0.074 A 
ATOM     50  C   UNL A   1      41.238  32.205  30.552  1.00  0.00     0.029 A 
ATOM     51  N   UNL A   1      42.342  30.684  29.365  1.00  0.00    -0.354 N 
ATOM     52  N   UNL A   1      44.694  29.577  27.975  1.00  0.00    -0.248 NA
ATOM     53  C   UNL A   1      46.876  29.821  27.172  1.00  0.00     0.031 C 
ATOM     54  C   UNL A   1      42.489  32.732  30.209  1.00  0.00     0.029 A 
ATOM     55  C   UNL A   1      43.190  31.773  29.496  1.00  0.00     0.049 A 
ATOM     56  H   UNL A   1      42.565  29.849  28.894  1.00  0.00     0.167 HD
ATOM     57  C   UNL A   1      45.166  30.843  28.313  1.00  0.00     0.074 A 
ATOM     58  C   UNL A   1      46.525  30.925  27.815  1.00  0.00     0.031 C 
ATOM     59  C   UNL A   1      44.537  31.844  28.978  1.00  0.00     0.034 A 
BRANCH  46  60
ATOM     60  C   UNL A   1      38.722  30.486  30.678  1.00  0.00     0.023 A 
ATOM     61  C   UNL A   1      37.721  31.167  29.962  1.00  0.00     0.031 A 
ATOM     62  C   UNL A   1      38.513  30.261  32.050  1.00  0.00     0.131 A 
ATOM     63  C   UNL A   1      36.592  31.660  30.635  1.00  0.00     0.055 A 
ATOM     64  C   UNL A   1      37.353  30.688  32.699  1.00  0.00     0.041 A 
ATOM     65  F   UNL A   1      39.443  29.636  32.789  1.00  0.00    -0.206 F 
ATOM     66  C   UNL A   1      36.390  31.405  31.994  1.00  0.00     0.022 A 
BRANCH  63  67
ATOM     67  S   UNL A   1      35.457  32.757  29.741  1.00  0.00     0.124 S 
ATOM     68  O   UNL A   1      36.231  33.995  29.676  1.00  0.00    -0.237 OA
ATOM     69  O   UNL A   1      35.270  32.056  28.476  1.00  0.00    -0.237 OA
ATOM     70  O   UNL A   1      34.280  32.812  30.604  1.00  0.00    -0.744 OA
ENDBRANCH  63  67
ENDBRANCH  46  60
BRANCH  47  71
ATOM     71  C   UNL A   1      46.932  27.134  26.000  1.00  0.00     0.023 A 
ATOM     72  C   UNL A   1      48.014  26.531  26.658  1.00  0.00     0.031 A 
ATOM     73  C   UNL A   1      47.028  27.324  24.609  1.00  0.00     0.131 A 
ATOM     74  C   UNL A   1      49.160  26.171  25.933  1.00  0.00     0.055 A 
ATOM     75  C   UNL A   1      48.149  26.920  23.885  1.00  0.00     0.041 A 
ATOM     76  F   UNL A   1      46.021  27.898  23.931  1.00  0.00    -0.206 F 
ATOM     77  C   UNL A   1      49.230  26.349  24.549  1.00  0.00     0.022 A 
BRANCH  74  78
ATOM     78  S   UNL A   1      50.596  25.532  26.837  1.00  0.00     0.124 S 
ATOM     79  O   UNL A   1      51.484  25.141  25.748  1.00  0.00    -0.237 OA
ATOM     80  O   UNL A   1      51.009  26.696  27.614  1.00  0.00    -0.237 OA
ATOM     81  O   UNL A   1      50.044  24.428  27.619  1.00  0.00    -0.744 OA
ENDBRANCH  74  78
ENDBRANCH  47  71
BRANCH  59  82
ATOM     82  C   UNL A   1      45.336  33.096  29.238  1.00  0.00     0.023 A 
ATOM     83  C   UNL A   1      45.442  34.118  28.278  1.00  0.00     0.031 A 
ATOM     84  C   UNL A   1      46.014  33.259  30.459  1.00  0.00     0.131 A 
ATOM     85  C   UNL A   1      46.249  35.236  28.536  1.00  0.00     0.055 A 
ATOM     86  C   UNL A   1      46.774  34.397  30.730  1.00  0.00     0.041 A 
ATOM     87  F   UNL A   1      45.947  32.311  31.408  1.00  0.00    -0.206 F 
ATOM     88  C   UNL A   1      46.905  35.387  29.762  1.00  0.00     0.022 A 
BRANCH  85  89
ATOM     89  S   UNL A   1      46.496  36.457  27.219  1.00  0.00     0.124 S 
ATOM     90  O   UNL A   1      47.695  37.156  27.671  1.00  0.00    -0.237 OA
ATOM     91  O   UNL A   1      46.657  35.615  26.038  1.00  0.00    -0.237 OA
ATOM     92  O   UNL A   1      45.268  37.249  27.250  1.00  0.00    -0.744 OA
ENDBRANCH  85  89
ENDBRANCH  59  82
ENDBRANCH  33  34
ENDBRANCH  26  28
ENDBRANCH  25  26
ENDBRANCH  24  25
ENDBRANCH   1  24
TORSDOF 18
ENDMDL
