MODEL 1
REMARK VINA RESULT:     -12.0      0.000      0.000
REMARK SMILES C[C@@H](C(=O)OCCOC(=O)c1ccc(-c2c3nc(c(-c4cc(S(=O)(=O)[O-])ccc4F)c4ccc([nH]4)c(-c4cc(S(=O)(=O)[O-])ccc4F)c4nc(c(-c5cc(S(=O)(=O)[O-])ccc5F)c5ccc2[nH]5)C=C4)C=C3)cc1)c1ccccc1-c1ccn(C(F)F)c(=O)c1
REMARK SMILES IDX 6 1 5 2 3 3 4 4 2 5 1 6 74 7 75 8 79 9 76 10 78 11 77 12
REMARK SMILES IDX 80 13 81 14 89 15 82 16 87 17 83 18 88 19 84 20 85 21 86 22
REMARK SMILES IDX 7 23 8 24 9 25 10 26 11 27 12 28 73 29 13 30 72 31 14 32
REMARK SMILES IDX 15 33 16 34 66 35 17 36 71 37 65 38 67 39 18 40 70 41 64 42
REMARK SMILES IDX 63 43 19 45 51 46 31 47 50 48 32 49 35 50 49 51 68 52 33 53
REMARK SMILES IDX 34 54 48 56 69 57 36 58 20 59 21 60 29 61 22 62 28 63 30 64
REMARK SMILES IDX 27 65 23 66 24 67 25 68 26 69 52 70 53 71 61 72 54 73 60 74
REMARK SMILES IDX 62 75 59 76 55 77 56 78 57 79 58 80 37 81 38 82 46 83 39 84
REMARK SMILES IDX 45 85 47 86 44 87 40 88 41 89 42 90 43 91
REMARK H PARENT 67 44 35 55
REMARK Flexibility Score: inf
ROOT
ATOM      1  C   UNL A   1      31.778  31.353  26.536  1.00  0.00     0.274 C 
ENDROOT
BRANCH   1   2
ATOM      2  O   UNL A   1      32.617  30.505  27.331  1.00  0.00    -0.462 OA
BRANCH   2   3
ATOM      3  C   UNL A   1      32.442  29.164  27.184  1.00  0.00     0.313 C 
ATOM      4  O   UNL A   1      31.457  28.550  27.574  1.00  0.00    -0.252 OA
BRANCH   3   5
ATOM      5  C   UNL A   1      33.657  28.522  26.531  1.00  0.00     0.127 C 
ATOM      6  C   UNL A   1      34.873  29.427  26.849  1.00  0.00     0.025 C 
BRANCH   5   7
ATOM      7  C   UNL A   1      33.558  28.093  25.057  1.00  0.00    -0.026 A 
ATOM      8  C   UNL A   1      33.513  29.134  24.092  1.00  0.00     0.005 A 
ATOM      9  C   UNL A   1      33.607  26.764  24.561  1.00  0.00    -0.014 A 
ATOM     10  C   UNL A   1      33.470  28.889  22.718  1.00  0.00     0.000 A 
ATOM     11  C   UNL A   1      33.619  26.544  23.166  1.00  0.00     0.009 A 
ATOM     12  C   UNL A   1      33.531  27.589  22.252  1.00  0.00     0.001 A 
BRANCH   9  13
ATOM     13  C   UNL A   1      33.454  25.531  25.367  1.00  0.00    -0.011 A 
ATOM     14  C   UNL A   1      34.614  24.714  25.638  1.00  0.00     0.027 A 
ATOM     15  C   UNL A   1      32.296  25.195  25.957  1.00  0.00     0.080 A 
ATOM     16  C   UNL A   1      34.527  23.550  26.278  1.00  0.00     0.095 A 
ATOM     17  C   UNL A   1      32.185  23.922  26.746  1.00  0.00     0.255 A 
ATOM     18  N   UNL A   1      33.314  23.112  26.759  1.00  0.00    -0.258 N 
ATOM     19  O   UNL A   1      31.126  23.663  27.308  1.00  0.00    -0.269 OA
BRANCH  18  20
ATOM     20  C   UNL A   1      33.230  21.823  27.394  1.00  0.00     0.451 C 
ATOM     21  F   UNL A   1      34.437  21.211  27.429  1.00  0.00    -0.185 F 
ATOM     22  F   UNL A   1      32.759  21.903  28.662  1.00  0.00    -0.185 F 
ENDBRANCH  18  20
ENDBRANCH   9  13
ENDBRANCH   5   7
ENDBRANCH   3   5
ENDBRANCH   2   3
ENDBRANCH   1   2
BRANCH   1  23
ATOM     23  C   UNL A   1      31.789  32.757  27.147  1.00  0.00     0.275 C 
BRANCH  23  24
ATOM     24  O   UNL A   1      33.124  33.304  27.122  1.00  0.00    -0.458 OA
BRANCH  24  25
ATOM     25  C   UNL A   1      33.532  33.879  28.294  1.00  0.00     0.338 C 
ATOM     26  O   UNL A   1      32.911  34.679  28.956  1.00  0.00    -0.246 OA
BRANCH  25  27
ATOM     27  C   UNL A   1      34.783  33.212  28.751  1.00  0.00     0.060 A 
ATOM     28  C   UNL A   1      34.659  31.998  29.439  1.00  0.00     0.016 A 
ATOM     29  C   UNL A   1      36.055  33.691  28.409  1.00  0.00     0.016 A 
ATOM     30  C   UNL A   1      35.799  31.250  29.756  1.00  0.00     0.010 A 
ATOM     31  C   UNL A   1      37.197  32.942  28.732  1.00  0.00     0.010 A 
ATOM     32  C   UNL A   1      37.078  31.716  29.412  1.00  0.00    -0.014 A 
BRANCH  32  33
ATOM     33  C   UNL A   1      38.275  31.031  29.973  1.00  0.00     0.031 A 
ATOM     34  C   UNL A   1      38.674  31.379  31.378  1.00  0.00     0.074 A 
ATOM     35  C   UNL A   1      38.970  30.093  29.301  1.00  0.00     0.049 A 
ATOM     36  N   UNL A   1      39.616  30.870  32.127  1.00  0.00    -0.248 NA
ATOM     37  C   UNL A   1      37.902  32.456  32.014  1.00  0.00     0.031 C 
ATOM     38  C   UNL A   1      38.704  29.663  27.934  1.00  0.00     0.029 A 
ATOM     39  N   UNL A   1      40.038  29.316  29.689  1.00  0.00    -0.354 N 
ATOM     40  C   UNL A   1      39.537  31.551  33.335  1.00  0.00     0.074 A 
ATOM     41  C   UNL A   1      38.485  32.537  33.197  1.00  0.00     0.031 C 
ATOM     42  C   UNL A   1      39.545  28.662  27.614  1.00  0.00     0.029 A 
ATOM     43  C   UNL A   1      40.451  28.411  28.735  1.00  0.00     0.049 A 
ATOM     44  H   UNL A   1      40.469  29.400  30.571  1.00  0.00     0.167 HD
ATOM     45  C   UNL A   1      40.267  31.376  34.464  1.00  0.00     0.034 A 
ATOM     46  C   UNL A   1      41.450  27.500  28.764  1.00  0.00     0.034 A 
ATOM     47  C   UNL A   1      41.366  30.457  34.582  1.00  0.00     0.049 A 
ATOM     48  C   UNL A   1      42.326  27.402  29.999  1.00  0.00     0.074 A 
ATOM     49  C   UNL A   1      42.210  30.255  35.660  1.00  0.00     0.029 A 
ATOM     50  N   UNL A   1      41.796  29.603  33.576  1.00  0.00    -0.354 N 
ATOM     51  N   UNL A   1      42.223  28.037  31.143  1.00  0.00    -0.248 NA
ATOM     52  C   UNL A   1      43.464  26.470  29.936  1.00  0.00     0.031 C 
ATOM     53  C   UNL A   1      43.189  29.330  35.282  1.00  0.00     0.029 A 
ATOM     54  C   UNL A   1      42.913  28.899  33.995  1.00  0.00     0.049 A 
ATOM     55  H   UNL A   1      41.368  29.511  32.694  1.00  0.00     0.167 HD
ATOM     56  C   UNL A   1      43.268  27.563  31.938  1.00  0.00     0.074 A 
ATOM     57  C   UNL A   1      43.975  26.575  31.154  1.00  0.00     0.031 C 
ATOM     58  C   UNL A   1      43.613  27.914  33.203  1.00  0.00     0.034 A 
BRANCH  45  59
ATOM     59  C   UNL A   1      39.919  32.278  35.617  1.00  0.00     0.023 A 
ATOM     60  C   UNL A   1      39.053  31.847  36.638  1.00  0.00     0.031 A 
ATOM     61  C   UNL A   1      40.350  33.614  35.629  1.00  0.00     0.131 A 
ATOM     62  C   UNL A   1      38.565  32.773  37.571  1.00  0.00     0.055 A 
ATOM     63  C   UNL A   1      39.928  34.509  36.611  1.00  0.00     0.041 A 
ATOM     64  F   UNL A   1      41.150  34.083  34.658  1.00  0.00    -0.206 F 
ATOM     65  C   UNL A   1      39.014  34.095  37.578  1.00  0.00     0.022 A 
BRANCH  62  66
ATOM     66  S   UNL A   1      37.195  32.269  38.647  1.00  0.00     0.124 S 
ATOM     67  O   UNL A   1      37.167  30.824  38.430  1.00  0.00    -0.237 OA
ATOM     68  O   UNL A   1      37.648  32.709  39.962  1.00  0.00    -0.237 OA
ATOM     69  O   UNL A   1      36.049  32.995  38.105  1.00  0.00    -0.744 OA
ENDBRANCH  62  66
ENDBRANCH  45  59
BRANCH  46  70
ATOM     70  C   UNL A   1      41.744  26.623  27.587  1.00  0.00     0.023 A 
ATOM     71  C   UNL A   1      41.502  25.238  27.637  1.00  0.00     0.031 A 
ATOM     72  C   UNL A   1      42.385  27.134  26.445  1.00  0.00     0.131 A 
ATOM     73  C   UNL A   1      41.957  24.407  26.600  1.00  0.00     0.055 A 
ATOM     74  C   UNL A   1      42.781  26.310  25.388  1.00  0.00     0.041 A 
ATOM     75  F   UNL A   1      42.654  28.445  26.347  1.00  0.00    -0.206 F 
ATOM     76  C   UNL A   1      42.583  24.935  25.470  1.00  0.00     0.022 A 
BRANCH  73  77
ATOM     77  S   UNL A   1      41.823  22.607  26.801  1.00  0.00     0.124 S 
ATOM     78  O   UNL A   1      40.504  22.475  27.411  1.00  0.00    -0.237 OA
ATOM     79  O   UNL A   1      41.945  22.137  25.426  1.00  0.00    -0.237 OA
ATOM     80  O   UNL A   1      42.950  22.277  27.673  1.00  0.00    -0.744 OA
ENDBRANCH  73  77
ENDBRANCH  46  70
BRANCH  58  81
ATOM     81  C   UNL A   1      44.781  27.197  33.836  1.00  0.00     0.023 A 
ATOM     82  C   UNL A   1      44.607  26.051  34.634  1.00  0.00     0.031 A 
ATOM     83  C   UNL A   1      46.092  27.653  33.612  1.00  0.00     0.131 A 
ATOM     84  C   UNL A   1      45.725  25.422  35.206  1.00  0.00     0.055 A 
ATOM     85  C   UNL A   1      47.202  26.995  34.143  1.00  0.00     0.041 A 
ATOM     86  F   UNL A   1      46.317  28.740  32.856  1.00  0.00    -0.206 F 
ATOM     87  C   UNL A   1      47.022  25.877  34.952  1.00  0.00     0.022 A 
BRANCH  84  88
ATOM     88  S   UNL A   1      45.464  24.024  36.335  1.00  0.00     0.124 S 
ATOM     89  O   UNL A   1      44.629  24.622  37.372  1.00  0.00    -0.237 OA
ATOM     90  O   UNL A   1      44.807  23.046  35.473  1.00  0.00    -0.237 OA
ATOM     91  O   UNL A   1      46.816  23.666  36.758  1.00  0.00    -0.744 OA
ENDBRANCH  84  88
ENDBRANCH  58  81
ENDBRANCH  32  33
ENDBRANCH  25  27
ENDBRANCH  24  25
ENDBRANCH  23  24
ENDBRANCH   1  23
TORSDOF 17
ENDMDL
MODEL 2
REMARK VINA RESULT:     -11.8      5.196     10.453
REMARK SMILES C[C@@H](C(=O)OCCOC(=O)c1ccc(-c2c3nc(c(-c4cc(S(=O)(=O)[O-])ccc4F)c4ccc([nH]4)c(-c4cc(S(=O)(=O)[O-])ccc4F)c4nc(c(-c5cc(S(=O)(=O)[O-])ccc5F)c5ccc2[nH]5)C=C4)C=C3)cc1)c1ccccc1-c1ccn(C(F)F)c(=O)c1
REMARK SMILES IDX 6 1 5 2 3 3 4 4 2 5 1 6 74 7 75 8 79 9 76 10 78 11 77 12
REMARK SMILES IDX 80 13 81 14 89 15 82 16 87 17 83 18 88 19 84 20 85 21 86 22
REMARK SMILES IDX 7 23 8 24 9 25 10 26 11 27 12 28 73 29 13 30 72 31 14 32
REMARK SMILES IDX 15 33 16 34 66 35 17 36 71 37 65 38 67 39 18 40 70 41 64 42
REMARK SMILES IDX 63 43 19 45 51 46 31 47 50 48 32 49 35 50 49 51 68 52 33 53
REMARK SMILES IDX 34 54 48 56 69 57 36 58 20 59 21 60 29 61 22 62 28 63 30 64
REMARK SMILES IDX 27 65 23 66 24 67 25 68 26 69 52 70 53 71 61 72 54 73 60 74
REMARK SMILES IDX 62 75 59 76 55 77 56 78 57 79 58 80 37 81 38 82 46 83 39 84
REMARK SMILES IDX 45 85 47 86 44 87 40 88 41 89 42 90 43 91
REMARK H PARENT 67 44 35 55
REMARK Flexibility Score: inf
ROOT
ATOM      1  C   UNL A   1      36.642  20.276  24.953  1.00  0.00     0.274 C 
ENDROOT
BRANCH   1   2
ATOM      2  O   UNL A   1      36.587  21.345  25.906  1.00  0.00    -0.462 OA
BRANCH   2   3
ATOM      3  C   UNL A   1      36.174  22.555  25.441  1.00  0.00     0.313 C 
ATOM      4  O   UNL A   1      36.268  23.604  26.067  1.00  0.00    -0.252 OA
BRANCH   3   5
ATOM      5  C   UNL A   1      35.522  22.421  24.073  1.00  0.00     0.127 C 
ATOM      6  C   UNL A   1      36.523  22.988  23.037  1.00  0.00     0.025 C 
BRANCH   5   7
ATOM      7  C   UNL A   1      34.078  22.923  23.896  1.00  0.00    -0.026 A 
ATOM      8  C   UNL A   1      33.896  24.330  23.839  1.00  0.00     0.005 A 
ATOM      9  C   UNL A   1      32.927  22.121  23.684  1.00  0.00    -0.014 A 
ATOM     10  C   UNL A   1      32.648  24.922  23.635  1.00  0.00     0.000 A 
ATOM     11  C   UNL A   1      31.685  22.742  23.424  1.00  0.00     0.009 A 
ATOM     12  C   UNL A   1      31.539  24.126  23.418  1.00  0.00     0.001 A 
BRANCH   9  13
ATOM     13  C   UNL A   1      32.839  20.658  23.898  1.00  0.00    -0.011 A 
ATOM     14  C   UNL A   1      32.941  20.131  25.238  1.00  0.00     0.027 A 
ATOM     15  C   UNL A   1      32.554  19.801  22.904  1.00  0.00     0.080 A 
ATOM     16  C   UNL A   1      32.960  18.823  25.486  1.00  0.00     0.095 A 
ATOM     17  C   UNL A   1      32.497  18.324  23.167  1.00  0.00     0.255 A 
ATOM     18  N   UNL A   1      32.822  17.920  24.457  1.00  0.00    -0.258 N 
ATOM     19  O   UNL A   1      32.192  17.569  22.249  1.00  0.00    -0.269 OA
BRANCH  18  20
ATOM     20  C   UNL A   1      32.906  16.510  24.738  1.00  0.00     0.451 C 
ATOM     21  F   UNL A   1      34.094  15.998  24.341  1.00  0.00    -0.185 F 
ATOM     22  F   UNL A   1      32.747  16.239  26.056  1.00  0.00    -0.185 F 
ENDBRANCH  18  20
ENDBRANCH   9  13
ENDBRANCH   5   7
ENDBRANCH   3   5
ENDBRANCH   2   3
ENDBRANCH   1   2
BRANCH   1  23
ATOM     23  C   UNL A   1      38.051  19.676  24.978  1.00  0.00     0.275 C 
BRANCH  23  24
ATOM     24  O   UNL A   1      38.690  19.948  26.242  1.00  0.00    -0.458 OA
BRANCH  24  25
ATOM     25  C   UNL A   1      40.055  20.001  26.197  1.00  0.00     0.338 C 
ATOM     26  O   UNL A   1      40.792  19.171  25.714  1.00  0.00    -0.246 OA
BRANCH  25  27
ATOM     27  C   UNL A   1      40.502  21.346  26.653  1.00  0.00     0.060 A 
ATOM     28  C   UNL A   1      39.999  22.463  25.974  1.00  0.00     0.016 A 
ATOM     29  C   UNL A   1      41.294  21.526  27.796  1.00  0.00     0.016 A 
ATOM     30  C   UNL A   1      40.259  23.753  26.451  1.00  0.00     0.010 A 
ATOM     31  C   UNL A   1      41.557  22.820  28.270  1.00  0.00     0.010 A 
ATOM     32  C   UNL A   1      41.045  23.945  27.599  1.00  0.00    -0.014 A 
BRANCH  32  33
ATOM     33  C   UNL A   1      41.507  25.319  27.940  1.00  0.00     0.031 A 
ATOM     34  C   UNL A   1      42.878  25.720  27.477  1.00  0.00     0.074 A 
ATOM     35  C   UNL A   1      40.741  26.215  28.592  1.00  0.00     0.049 A 
ATOM     36  N   UNL A   1      43.483  26.875  27.567  1.00  0.00    -0.248 NA
ATOM     37  C   UNL A   1      43.670  24.663  26.831  1.00  0.00     0.031 C 
ATOM     38  C   UNL A   1      39.400  25.962  29.106  1.00  0.00     0.029 A 
ATOM     39  N   UNL A   1      40.977  27.531  28.917  1.00  0.00    -0.354 N 
ATOM     40  C   UNL A   1      44.723  26.691  26.967  1.00  0.00     0.074 A 
ATOM     41  C   UNL A   1      44.795  25.302  26.562  1.00  0.00     0.031 C 
ATOM     42  C   UNL A   1      38.907  27.099  29.632  1.00  0.00     0.029 A 
ATOM     43  C   UNL A   1      39.918  28.154  29.542  1.00  0.00     0.049 A 
ATOM     44  H   UNL A   1      41.827  27.987  28.720  1.00  0.00     0.167 HD
ATOM     45  C   UNL A   1      45.716  27.591  26.765  1.00  0.00     0.034 A 
ATOM     46  C   UNL A   1      39.790  29.421  29.998  1.00  0.00     0.034 A 
ATOM     47  C   UNL A   1      45.686  28.949  27.237  1.00  0.00     0.049 A 
ATOM     48  C   UNL A   1      40.959  30.377  29.860  1.00  0.00     0.074 A 
ATOM     49  C   UNL A   1      46.670  29.917  27.142  1.00  0.00     0.029 A 
ATOM     50  N   UNL A   1      44.625  29.526  27.921  1.00  0.00    -0.354 N 
ATOM     51  N   UNL A   1      42.118  30.195  29.269  1.00  0.00    -0.248 NA
ATOM     52  C   UNL A   1      40.805  31.710  30.468  1.00  0.00     0.031 C 
ATOM     53  C   UNL A   1      46.230  31.056  27.827  1.00  0.00     0.029 A 
ATOM     54  C   UNL A   1      44.944  30.824  28.285  1.00  0.00     0.049 A 
ATOM     55  H   UNL A   1      43.771  29.078  28.118  1.00  0.00     0.167 HD
ATOM     56  C   UNL A   1      42.814  31.395  29.416  1.00  0.00     0.074 A 
ATOM     57  C   UNL A   1      41.942  32.300  30.131  1.00  0.00     0.031 C 
ATOM     58  C   UNL A   1      44.065  31.720  29.000  1.00  0.00     0.034 A 
BRANCH  45  59
ATOM     59  C   UNL A   1      46.942  27.070  26.066  1.00  0.00     0.023 A 
ATOM     60  C   UNL A   1      47.991  26.476  26.790  1.00  0.00     0.031 A 
ATOM     61  C   UNL A   1      47.121  27.284  24.690  1.00  0.00     0.131 A 
ATOM     62  C   UNL A   1      49.211  26.210  26.153  1.00  0.00     0.055 A 
ATOM     63  C   UNL A   1      48.308  26.937  24.045  1.00  0.00     0.041 A 
ATOM     64  F   UNL A   1      46.163  27.878  23.960  1.00  0.00    -0.206 F 
ATOM     65  C   UNL A   1      49.369  26.416  24.781  1.00  0.00     0.022 A 
BRANCH  62  66
ATOM     66  S   UNL A   1      50.642  25.776  27.180  1.00  0.00     0.124 S 
ATOM     67  O   UNL A   1      50.500  26.713  28.292  1.00  0.00    -0.237 OA
ATOM     68  O   UNL A   1      50.394  24.373  27.491  1.00  0.00    -0.237 OA
ATOM     69  O   UNL A   1      51.782  26.030  26.303  1.00  0.00    -0.744 OA
ENDBRANCH  62  66
ENDBRANCH  45  59
BRANCH  46  70
ATOM     70  C   UNL A   1      38.541  29.885  30.679  1.00  0.00     0.023 A 
ATOM     71  C   UNL A   1      37.615  30.709  30.013  1.00  0.00     0.031 A 
ATOM     72  C   UNL A   1      38.317  29.618  32.041  1.00  0.00     0.131 A 
ATOM     73  C   UNL A   1      36.550  31.287  30.723  1.00  0.00     0.055 A 
ATOM     74  C   UNL A   1      37.220  30.146  32.728  1.00  0.00     0.041 A 
ATOM     75  F   UNL A   1      39.173  28.850  32.732  1.00  0.00    -0.206 F 
ATOM     76  C   UNL A   1      36.339  31.001  32.073  1.00  0.00     0.022 A 
BRANCH  73  77
ATOM     77  S   UNL A   1      35.507  32.515  29.885  1.00  0.00     0.124 S 
ATOM     78  O   UNL A   1      35.306  31.891  28.581  1.00  0.00    -0.237 OA
ATOM     79  O   UNL A   1      34.339  32.568  30.758  1.00  0.00    -0.237 OA
ATOM     80  O   UNL A   1      36.335  33.719  29.881  1.00  0.00    -0.744 OA
ENDBRANCH  73  77
ENDBRANCH  46  70
BRANCH  58  81
ATOM     81  C   UNL A   1      44.550  33.125  29.266  1.00  0.00     0.023 A 
ATOM     82  C   UNL A   1      44.277  34.187  28.386  1.00  0.00     0.031 A 
ATOM     83  C   UNL A   1      45.275  33.408  30.438  1.00  0.00     0.131 A 
ATOM     84  C   UNL A   1      44.755  35.476  28.674  1.00  0.00     0.055 A 
ATOM     85  C   UNL A   1      45.706  34.700  30.743  1.00  0.00     0.041 A 
ATOM     86  F   UNL A   1      45.563  32.433  31.315  1.00  0.00    -0.206 F 
ATOM     87  C   UNL A   1      45.454  35.741  29.855  1.00  0.00     0.022 A 
BRANCH  84  88
ATOM     88  S   UNL A   1      44.499  36.800  27.460  1.00  0.00     0.124 S 
ATOM     89  O   UNL A   1      43.415  36.261  26.645  1.00  0.00    -0.237 OA
ATOM     90  O   UNL A   1      44.155  37.938  28.307  1.00  0.00    -0.237 OA
ATOM     91  O   UNL A   1      45.791  36.902  26.783  1.00  0.00    -0.744 OA
ENDBRANCH  84  88
ENDBRANCH  58  81
ENDBRANCH  32  33
ENDBRANCH  25  27
ENDBRANCH  24  25
ENDBRANCH  23  24
ENDBRANCH   1  23
TORSDOF 17
ENDMDL
MODEL 3
REMARK VINA RESULT:     -11.7      5.079     10.333
REMARK SMILES C[C@@H](C(=O)OCCOC(=O)c1ccc(-c2c3nc(c(-c4cc(S(=O)(=O)[O-])ccc4F)c4ccc([nH]4)c(-c4cc(S(=O)(=O)[O-])ccc4F)c4nc(c(-c5cc(S(=O)(=O)[O-])ccc5F)c5ccc2[nH]5)C=C4)C=C3)cc1)c1ccccc1-c1ccn(C(F)F)c(=O)c1
REMARK SMILES IDX 6 1 5 2 3 3 4 4 2 5 1 6 74 7 75 8 79 9 76 10 78 11 77 12
REMARK SMILES IDX 80 13 81 14 89 15 82 16 87 17 83 18 88 19 84 20 85 21 86 22
REMARK SMILES IDX 7 23 8 24 9 25 10 26 11 27 12 28 73 29 13 30 72 31 14 32
REMARK SMILES IDX 15 33 16 34 66 35 17 36 71 37 65 38 67 39 18 40 70 41 64 42
REMARK SMILES IDX 63 43 19 45 51 46 31 47 50 48 32 49 35 50 49 51 68 52 33 53
REMARK SMILES IDX 34 54 48 56 69 57 36 58 20 59 21 60 29 61 22 62 28 63 30 64
REMARK SMILES IDX 27 65 23 66 24 67 25 68 26 69 52 70 53 71 61 72 54 73 60 74
REMARK SMILES IDX 62 75 59 76 55 77 56 78 57 79 58 80 37 81 38 82 46 83 39 84
REMARK SMILES IDX 45 85 47 86 44 87 40 88 41 89 42 90 43 91
REMARK H PARENT 67 44 35 55
REMARK Flexibility Score: inf
ROOT
ATOM      1  C   UNL A   1      36.503  21.220  25.445  1.00  0.00     0.274 C 
ENDROOT
BRANCH   1   2
ATOM      2  O   UNL A   1      36.122  21.837  24.208  1.00  0.00    -0.462 OA
BRANCH   2   3
ATOM      3  C   UNL A   1      35.562  23.073  24.291  1.00  0.00     0.313 C 
ATOM      4  O   UNL A   1      36.109  24.046  24.795  1.00  0.00    -0.252 OA
BRANCH   3   5
ATOM      5  C   UNL A   1      34.145  23.069  23.737  1.00  0.00     0.127 C 
ATOM      6  C   UNL A   1      34.054  24.232  22.719  1.00  0.00     0.025 C 
BRANCH   5   7
ATOM      7  C   UNL A   1      32.970  23.005  24.729  1.00  0.00    -0.026 A 
ATOM      8  C   UNL A   1      32.630  24.213  25.393  1.00  0.00     0.005 A 
ATOM      9  C   UNL A   1      32.131  21.886  24.970  1.00  0.00    -0.014 A 
ATOM     10  C   UNL A   1      31.557  24.311  26.281  1.00  0.00     0.000 A 
ATOM     11  C   UNL A   1      31.019  22.024  25.830  1.00  0.00     0.009 A 
ATOM     12  C   UNL A   1      30.743  23.215  26.495  1.00  0.00     0.001 A 
BRANCH   9  13
ATOM     13  C   UNL A   1      32.405  20.491  24.555  1.00  0.00    -0.011 A 
ATOM     14  C   UNL A   1      32.823  19.528  25.546  1.00  0.00     0.027 A 
ATOM     15  C   UNL A   1      32.175  20.052  23.308  1.00  0.00     0.080 A 
ATOM     16  C   UNL A   1      33.171  18.284  25.223  1.00  0.00     0.095 A 
ATOM     17  C   UNL A   1      32.491  18.633  22.930  1.00  0.00     0.255 A 
ATOM     18  N   UNL A   1      33.087  17.857  23.917  1.00  0.00    -0.258 N 
ATOM     19  O   UNL A   1      32.229  18.249  21.796  1.00  0.00    -0.269 OA
BRANCH  18  20
ATOM     20  C   UNL A   1      33.526  16.528  23.579  1.00  0.00     0.451 C 
ATOM     21  F   UNL A   1      34.811  16.527  23.154  1.00  0.00    -0.185 F 
ATOM     22  F   UNL A   1      33.424  15.672  24.623  1.00  0.00    -0.185 F 
ENDBRANCH  18  20
ENDBRANCH   9  13
ENDBRANCH   5   7
ENDBRANCH   3   5
ENDBRANCH   2   3
ENDBRANCH   1   2
BRANCH   1  23
ATOM     23  C   UNL A   1      37.836  20.496  25.237  1.00  0.00     0.275 C 
BRANCH  23  24
ATOM     24  O   UNL A   1      38.934  21.425  25.353  1.00  0.00    -0.458 OA
BRANCH  24  25
ATOM     25  C   UNL A   1      39.737  21.233  26.444  1.00  0.00     0.338 C 
ATOM     26  O   UNL A   1      40.162  20.174  26.846  1.00  0.00    -0.246 OA
BRANCH  25  27
ATOM     27  C   UNL A   1      40.187  22.558  26.951  1.00  0.00     0.060 A 
ATOM     28  C   UNL A   1      39.474  23.690  26.537  1.00  0.00     0.016 A 
ATOM     29  C   UNL A   1      41.203  22.688  27.909  1.00  0.00     0.016 A 
ATOM     30  C   UNL A   1      39.752  24.942  27.100  1.00  0.00     0.010 A 
ATOM     31  C   UNL A   1      41.483  23.945  28.468  1.00  0.00     0.010 A 
ATOM     32  C   UNL A   1      40.762  25.083  28.065  1.00  0.00    -0.014 A 
BRANCH  32  33
ATOM     33  C   UNL A   1      41.200  26.449  28.462  1.00  0.00     0.031 A 
ATOM     34  C   UNL A   1      42.609  26.846  28.128  1.00  0.00     0.074 A 
ATOM     35  C   UNL A   1      40.383  27.343  29.053  1.00  0.00     0.049 A 
ATOM     36  N   UNL A   1      43.211  27.996  28.284  1.00  0.00    -0.248 NA
ATOM     37  C   UNL A   1      43.449  25.791  27.543  1.00  0.00     0.031 C 
ATOM     38  C   UNL A   1      39.001  27.094  29.443  1.00  0.00     0.029 A 
ATOM     39  N   UNL A   1      40.597  28.655  29.413  1.00  0.00    -0.354 N 
ATOM     40  C   UNL A   1      44.498  27.809  27.796  1.00  0.00     0.074 A 
ATOM     41  C   UNL A   1      44.597  26.425  27.383  1.00  0.00     0.031 C 
ATOM     42  C   UNL A   1      38.470  28.229  29.936  1.00  0.00     0.029 A 
ATOM     43  C   UNL A   1      39.491  29.277  29.949  1.00  0.00     0.049 A 
ATOM     44  H   UNL A   1      41.464  29.106  29.298  1.00  0.00     0.167 HD
ATOM     45  C   UNL A   1      45.510  28.705  27.693  1.00  0.00     0.034 A 
ATOM     46  C   UNL A   1      39.330  30.540  30.406  1.00  0.00     0.034 A 
ATOM     47  C   UNL A   1      45.446  30.058  28.176  1.00  0.00     0.049 A 
ATOM     48  C   UNL A   1      40.513  31.490  30.384  1.00  0.00     0.074 A 
ATOM     49  C   UNL A   1      46.440  31.020  28.181  1.00  0.00     0.029 A 
ATOM     50  N   UNL A   1      44.331  30.634  28.770  1.00  0.00    -0.354 N 
ATOM     51  N   UNL A   1      41.718  31.306  29.897  1.00  0.00    -0.248 NA
ATOM     52  C   UNL A   1      40.313  32.817  30.991  1.00  0.00     0.031 C 
ATOM     53  C   UNL A   1      45.948  32.154  28.837  1.00  0.00     0.029 A 
ATOM     54  C   UNL A   1      44.625  31.926  29.176  1.00  0.00     0.049 A 
ATOM     55  H   UNL A   1      43.461  30.190  28.885  1.00  0.00     0.167 HD
ATOM     56  C   UNL A   1      42.406  32.500  30.119  1.00  0.00     0.074 A 
ATOM     57  C   UNL A   1      41.479  33.403  30.764  1.00  0.00     0.031 C 
ATOM     58  C   UNL A   1      43.690  32.820  29.820  1.00  0.00     0.034 A 
BRANCH  45  59
ATOM     59  C   UNL A   1      46.790  28.183  27.100  1.00  0.00     0.023 A 
ATOM     60  C   UNL A   1      47.038  28.273  25.718  1.00  0.00     0.031 A 
ATOM     61  C   UNL A   1      47.707  27.478  27.896  1.00  0.00     0.131 A 
ATOM     62  C   UNL A   1      48.122  27.580  25.161  1.00  0.00     0.055 A 
ATOM     63  C   UNL A   1      48.832  26.864  27.346  1.00  0.00     0.041 A 
ATOM     64  F   UNL A   1      47.499  27.336  29.215  1.00  0.00    -0.206 F 
ATOM     65  C   UNL A   1      49.033  26.895  25.968  1.00  0.00     0.022 A 
BRANCH  62  66
ATOM     66  S   UNL A   1      48.210  27.430  23.356  1.00  0.00     0.124 S 
ATOM     67  O   UNL A   1      47.003  28.142  22.942  1.00  0.00    -0.237 OA
ATOM     68  O   UNL A   1      49.476  28.083  23.045  1.00  0.00    -0.237 OA
ATOM     69  O   UNL A   1      48.180  25.986  23.132  1.00  0.00    -0.744 OA
ENDBRANCH  62  66
ENDBRANCH  45  59
BRANCH  46  70
ATOM     70  C   UNL A   1      38.028  31.006  30.978  1.00  0.00     0.023 A 
ATOM     71  C   UNL A   1      37.064  31.634  30.169  1.00  0.00     0.031 A 
ATOM     72  C   UNL A   1      37.781  30.944  32.361  1.00  0.00     0.131 A 
ATOM     73  C   UNL A   1      35.935  32.231  30.755  1.00  0.00     0.055 A 
ATOM     74  C   UNL A   1      36.627  31.486  32.932  1.00  0.00     0.041 A 
ATOM     75  F   UNL A   1      38.671  30.368  33.184  1.00  0.00    -0.206 F 
ATOM     76  C   UNL A   1      35.704  32.150  32.130  1.00  0.00     0.022 A 
BRANCH  73  77
ATOM     77  S   UNL A   1      34.829  33.221  29.709  1.00  0.00     0.124 S 
ATOM     78  O   UNL A   1      35.765  34.152  29.088  1.00  0.00    -0.237 OA
ATOM     79  O   UNL A   1      34.254  32.207  28.831  1.00  0.00    -0.237 OA
ATOM     80  O   UNL A   1      33.897  33.816  30.665  1.00  0.00    -0.744 OA
ENDBRANCH  73  77
ENDBRANCH  46  70
BRANCH  58  81
ATOM     81  C   UNL A   1      44.159  34.219  30.145  1.00  0.00     0.023 A 
ATOM     82  C   UNL A   1      43.911  35.305  29.287  1.00  0.00     0.031 A 
ATOM     83  C   UNL A   1      44.840  34.470  31.350  1.00  0.00     0.131 A 
ATOM     84  C   UNL A   1      44.372  36.587  29.630  1.00  0.00     0.055 A 
ATOM     85  C   UNL A   1      45.253  35.754  31.708  1.00  0.00     0.041 A 
ATOM     86  F   UNL A   1      45.101  33.471  32.208  1.00  0.00    -0.206 F 
ATOM     87  C   UNL A   1      45.027  36.820  30.843  1.00  0.00     0.022 A 
BRANCH  84  88
ATOM     88  S   UNL A   1      44.153  37.945  28.447  1.00  0.00     0.124 S 
ATOM     89  O   UNL A   1      43.376  38.905  29.224  1.00  0.00    -0.237 OA
ATOM     90  O   UNL A   1      45.530  38.330  28.154  1.00  0.00    -0.237 OA
ATOM     91  O   UNL A   1      43.436  37.322  27.336  1.00  0.00    -0.744 OA
ENDBRANCH  84  88
ENDBRANCH  58  81
ENDBRANCH  32  33
ENDBRANCH  25  27
ENDBRANCH  24  25
ENDBRANCH  23  24
ENDBRANCH   1  23
TORSDOF 17
ENDMDL
