MODEL 1
REMARK VINA RESULT:     -11.1      0.000      0.000
REMARK SMILES Cc1cc(Cl)cc2c1O[C@H](C(F)(F)F)C(C(=O)OCCOC(=O)c1ccc(-c3c4nc(c(-c5cc(S(=O)(=O)[O-])ccc5F)c5ccc([nH]5)c(-c5cc(S(=O)(=O)[O-])ccc5F)c5nc(c(-c6cc(S(=O)(=O)[O-])ccc6F)c6ccc3[nH]6)C=C5)C=C4)cc1)=C2
REMARK SMILES IDX 20 1 19 2 18 3 16 4 17 5 15 6 1 7 2 8 3 9 8 10 4 11 7 12
REMARK SMILES IDX 9 13 5 14 6 15 87 16 10 17 11 18 12 19 13 20 14 21 21 22
REMARK SMILES IDX 22 23 23 24 24 25 25 26 86 27 26 28 85 29 27 30 28 31 29 32
REMARK SMILES IDX 79 33 30 34 84 35 78 36 80 37 31 38 83 39 77 40 76 41 32 43
REMARK SMILES IDX 64 44 44 45 63 46 45 47 48 48 62 49 81 50 46 51 47 52 61 54
REMARK SMILES IDX 82 55 49 56 33 57 34 58 42 59 35 60 41 61 43 62 40 63 36 64
REMARK SMILES IDX 37 65 38 66 39 67 65 68 66 69 74 70 67 71 73 72 75 73 72 74
REMARK SMILES IDX 68 75 69 76 70 77 71 78 50 79 51 80 59 81 52 82 58 83 60 84
REMARK SMILES IDX 57 85 53 86 54 87 55 88 56 89
REMARK H PARENT 80 42 48 53
REMARK Flexibility Score: inf
ROOT
ATOM      1  C   UNL A   1      41.028  19.830  26.302  1.00  0.00     0.275 C 
ENDROOT
BRANCH   1   2
ATOM      2  C   UNL A   1      42.521  19.843  26.637  1.00  0.00     0.275 C 
BRANCH   2   3
ATOM      3  O   UNL A   1      43.300  20.461  25.590  1.00  0.00    -0.459 OA
BRANCH   3   4
ATOM      4  C   UNL A   1      43.228  21.811  25.539  1.00  0.00     0.338 C 
ATOM      5  O   UNL A   1      42.381  22.471  24.956  1.00  0.00    -0.246 OA
BRANCH   4   6
ATOM      6  C   UNL A   1      44.337  22.428  26.291  1.00  0.00     0.087 C 
ATOM      7  C   UNL A   1      48.685  24.832  27.567  1.00  0.00     0.048 C 
ATOM      8  C   UNL A   1      47.318  24.690  28.168  1.00  0.00    -0.007 A 
ATOM      9  C   UNL A   1      46.983  25.419  29.322  1.00  0.00     0.027 A 
ATOM     10  C   UNL A   1      46.348  23.874  27.565  1.00  0.00     0.131 A 
ATOM     11  C   UNL A   1      45.711  25.317  29.878  1.00  0.00     0.042 A 
ATOM     12  C   UNL A   1      45.071  23.791  28.123  1.00  0.00     0.019 A 
ATOM     13  O   UNL A   1      46.713  23.180  26.443  1.00  0.00    -0.475 OA
ATOM     14  Cl  UNL A   1      45.313  26.227  31.281  1.00  0.00    -0.084 Cl
ATOM     15  C   UNL A   1      44.753  24.501  29.288  1.00  0.00     0.032 A 
ATOM     16  C   UNL A   1      44.048  23.013  27.458  1.00  0.00     0.027 C 
ATOM     17  C   UNL A   1      45.688  22.514  25.651  1.00  0.00     0.316 C 
BRANCH  17  18
ATOM     18  C   UNL A   1      45.618  23.189  24.273  1.00  0.00     0.430 C 
ATOM     19  F   UNL A   1      45.031  22.379  23.357  1.00  0.00    -0.167 F 
ATOM     20  F   UNL A   1      44.875  24.322  24.308  1.00  0.00    -0.167 F 
ATOM     21  F   UNL A   1      46.839  23.521  23.796  1.00  0.00    -0.167 F 
ENDBRANCH  17  18
ENDBRANCH   4   6
ENDBRANCH   3   4
ENDBRANCH   2   3
ENDBRANCH   1   2
BRANCH   1  22
ATOM     22  O   UNL A   1      40.302  20.729  27.159  1.00  0.00    -0.458 OA
BRANCH  22  23
ATOM     23  C   UNL A   1      39.567  21.657  26.506  1.00  0.00     0.338 C 
ATOM     24  O   UNL A   1      38.774  21.462  25.600  1.00  0.00    -0.246 OA
BRANCH  23  25
ATOM     25  C   UNL A   1      39.769  22.989  27.093  1.00  0.00     0.060 A 
ATOM     26  C   UNL A   1      39.182  24.077  26.461  1.00  0.00     0.016 A 
ATOM     27  C   UNL A   1      40.719  23.191  28.089  1.00  0.00     0.016 A 
ATOM     28  C   UNL A   1      39.682  25.356  26.675  1.00  0.00     0.010 A 
ATOM     29  C   UNL A   1      41.091  24.499  28.427  1.00  0.00     0.010 A 
ATOM     30  C   UNL A   1      40.621  25.598  27.684  1.00  0.00    -0.014 A 
BRANCH  30  31
ATOM     31  C   UNL A   1      41.116  26.983  27.947  1.00  0.00     0.031 A 
ATOM     32  C   UNL A   1      42.523  27.377  27.564  1.00  0.00     0.074 A 
ATOM     33  C   UNL A   1      40.305  27.901  28.515  1.00  0.00     0.049 A 
ATOM     34  N   UNL A   1      43.212  28.431  27.920  1.00  0.00    -0.248 NA
ATOM     35  C   UNL A   1      43.257  26.459  26.678  1.00  0.00     0.031 C 
ATOM     36  C   UNL A   1      38.896  27.695  28.865  1.00  0.00     0.029 A 
ATOM     37  N   UNL A   1      40.539  29.203  28.888  1.00  0.00    -0.354 N 
ATOM     38  C   UNL A   1      44.472  28.279  27.347  1.00  0.00     0.074 A 
ATOM     39  C   UNL A   1      44.457  27.023  26.630  1.00  0.00     0.031 C 
ATOM     40  C   UNL A   1      38.380  28.837  29.335  1.00  0.00     0.029 A 
ATOM     41  C   UNL A   1      39.447  29.818  29.458  1.00  0.00     0.049 A 
ATOM     42  H   UNL A   1      41.405  29.653  28.759  1.00  0.00     0.167 HD
ATOM     43  C   UNL A   1      45.539  29.113  27.419  1.00  0.00     0.034 A 
ATOM     44  C   UNL A   1      39.322  31.009  30.075  1.00  0.00     0.034 A 
ATOM     45  C   UNL A   1      45.518  30.384  28.100  1.00  0.00     0.049 A 
ATOM     46  C   UNL A   1      40.541  31.873  30.227  1.00  0.00     0.074 A 
ATOM     47  C   UNL A   1      46.545  31.302  28.245  1.00  0.00     0.029 A 
ATOM     48  N   UNL A   1      44.409  30.930  28.735  1.00  0.00    -0.354 N 
ATOM     49  N   UNL A   1      41.759  31.659  29.790  1.00  0.00    -0.248 NA
ATOM     50  C   UNL A   1      40.374  33.124  30.976  1.00  0.00     0.031 C 
ATOM     51  C   UNL A   1      46.077  32.368  29.017  1.00  0.00     0.029 A 
ATOM     52  C   UNL A   1      44.735  32.157  29.292  1.00  0.00     0.049 A 
ATOM     53  H   UNL A   1      43.522  30.507  28.783  1.00  0.00     0.167 HD
ATOM     54  C   UNL A   1      42.504  32.758  30.199  1.00  0.00     0.074 A 
ATOM     55  C   UNL A   1      41.594  33.639  30.906  1.00  0.00     0.031 C 
ATOM     56  C   UNL A   1      43.822  33.016  30.005  1.00  0.00     0.034 A 
BRANCH  43  57
ATOM     57  C   UNL A   1      46.835  28.664  26.789  1.00  0.00     0.023 A 
ATOM     58  C   UNL A   1      46.963  28.463  25.404  1.00  0.00     0.031 A 
ATOM     59  C   UNL A   1      47.974  28.466  27.592  1.00  0.00     0.131 A 
ATOM     60  C   UNL A   1      48.193  28.042  24.870  1.00  0.00     0.055 A 
ATOM     61  C   UNL A   1      49.209  28.110  27.049  1.00  0.00     0.041 A 
ATOM     62  F   UNL A   1      47.905  28.626  28.924  1.00  0.00    -0.206 F 
ATOM     63  C   UNL A   1      49.322  27.890  25.680  1.00  0.00     0.022 A 
BRANCH  60  64
ATOM     64  S   UNL A   1      48.282  27.619  23.109  1.00  0.00     0.124 S 
ATOM     65  O   UNL A   1      47.097  28.294  22.585  1.00  0.00    -0.237 OA
ATOM     66  O   UNL A   1      49.566  28.182  22.712  1.00  0.00    -0.237 OA
ATOM     67  O   UNL A   1      48.213  26.160  23.102  1.00  0.00    -0.744 OA
ENDBRANCH  60  64
ENDBRANCH  43  57
BRANCH  44  68
ATOM     68  C   UNL A   1      38.010  31.411  30.656  1.00  0.00     0.023 A 
ATOM     69  C   UNL A   1      37.064  32.101  29.884  1.00  0.00     0.031 A 
ATOM     70  C   UNL A   1      37.674  31.094  31.986  1.00  0.00     0.131 A 
ATOM     71  C   UNL A   1      35.831  32.461  30.450  1.00  0.00     0.055 A 
ATOM     72  C   UNL A   1      36.428  31.409  32.528  1.00  0.00     0.041 A 
ATOM     73  F   UNL A   1      38.544  30.431  32.766  1.00  0.00    -0.206 F 
ATOM     74  C   UNL A   1      35.500  32.103  31.761  1.00  0.00     0.022 A 
BRANCH  71  75
ATOM     75  S   UNL A   1      34.671  33.438  29.457  1.00  0.00     0.124 S 
ATOM     76  O   UNL A   1      33.778  33.967  30.481  1.00  0.00    -0.237 OA
ATOM     77  O   UNL A   1      35.556  34.402  28.813  1.00  0.00    -0.237 OA
ATOM     78  O   UNL A   1      34.076  32.448  28.561  1.00  0.00    -0.744 OA
ENDBRANCH  71  75
ENDBRANCH  44  68
BRANCH  56  79
ATOM     79  C   UNL A   1      44.350  34.321  30.536  1.00  0.00     0.023 A 
ATOM     80  C   UNL A   1      44.257  35.508  29.790  1.00  0.00     0.031 A 
ATOM     81  C   UNL A   1      44.936  34.380  31.812  1.00  0.00     0.131 A 
ATOM     82  C   UNL A   1      44.780  36.700  30.313  1.00  0.00     0.055 A 
ATOM     83  C   UNL A   1      45.404  35.578  32.349  1.00  0.00     0.041 A 
ATOM     84  F   UNL A   1      45.048  33.272  32.564  1.00  0.00    -0.206 F 
ATOM     85  C   UNL A   1      45.335  36.746  31.595  1.00  0.00     0.022 A 
BRANCH  82  86
ATOM     86  S   UNL A   1      44.776  38.181  29.268  1.00  0.00     0.124 S 
ATOM     87  O   UNL A   1      46.194  38.519  29.217  1.00  0.00    -0.237 OA
ATOM     88  O   UNL A   1      44.193  37.689  28.024  1.00  0.00    -0.237 OA
ATOM     89  O   UNL A   1      43.941  39.123  30.012  1.00  0.00    -0.744 OA
ENDBRANCH  82  86
ENDBRANCH  56  79
ENDBRANCH  30  31
ENDBRANCH  23  25
ENDBRANCH  22  23
ENDBRANCH   1  22
TORSDOF 15
ENDMDL
MODEL 2
REMARK VINA RESULT:     -11.0      4.546     12.039
REMARK SMILES Cc1cc(Cl)cc2c1O[C@H](C(F)(F)F)C(C(=O)OCCOC(=O)c1ccc(-c3c4nc(c(-c5cc(S(=O)(=O)[O-])ccc5F)c5ccc([nH]5)c(-c5cc(S(=O)(=O)[O-])ccc5F)c5nc(c(-c6cc(S(=O)(=O)[O-])ccc6F)c6ccc3[nH]6)C=C5)C=C4)cc1)=C2
REMARK SMILES IDX 20 1 19 2 18 3 16 4 17 5 15 6 1 7 2 8 3 9 8 10 4 11 7 12
REMARK SMILES IDX 9 13 5 14 6 15 87 16 10 17 11 18 12 19 13 20 14 21 21 22
REMARK SMILES IDX 22 23 23 24 24 25 25 26 86 27 26 28 85 29 27 30 28 31 29 32
REMARK SMILES IDX 79 33 30 34 84 35 78 36 80 37 31 38 83 39 77 40 76 41 32 43
REMARK SMILES IDX 64 44 44 45 63 46 45 47 48 48 62 49 81 50 46 51 47 52 61 54
REMARK SMILES IDX 82 55 49 56 33 57 34 58 42 59 35 60 41 61 43 62 40 63 36 64
REMARK SMILES IDX 37 65 38 66 39 67 65 68 66 69 74 70 67 71 73 72 75 73 72 74
REMARK SMILES IDX 68 75 69 76 70 77 71 78 50 79 51 80 59 81 52 82 58 83 60 84
REMARK SMILES IDX 57 85 53 86 54 87 55 88 56 89
REMARK H PARENT 80 42 48 53
REMARK Flexibility Score: inf
ROOT
ATOM      1  C   UNL A   1      33.352  34.001  28.255  1.00  0.00     0.275 C 
ENDROOT
BRANCH   1   2
ATOM      2  C   UNL A   1      33.980  35.036  29.191  1.00  0.00     0.275 C 
BRANCH   2   3
ATOM      3  O   UNL A   1      33.824  34.668  30.579  1.00  0.00    -0.459 OA
BRANCH   3   4
ATOM      4  C   UNL A   1      34.585  33.626  30.987  1.00  0.00     0.338 C 
ATOM      5  O   UNL A   1      34.299  32.441  30.898  1.00  0.00    -0.246 OA
BRANCH   4   6
ATOM      6  C   UNL A   1      35.848  34.097  31.585  1.00  0.00     0.087 C 
ATOM      7  C   UNL A   1      39.554  35.380  34.891  1.00  0.00     0.048 C 
ATOM      8  C   UNL A   1      39.499  34.874  33.481  1.00  0.00    -0.007 A 
ATOM      9  C   UNL A   1      40.689  34.539  32.812  1.00  0.00     0.027 A 
ATOM     10  C   UNL A   1      38.269  34.681  32.832  1.00  0.00     0.131 A 
ATOM     11  C   UNL A   1      40.653  34.045  31.510  1.00  0.00     0.042 A 
ATOM     12  C   UNL A   1      38.245  34.171  31.532  1.00  0.00     0.019 A 
ATOM     13  O   UNL A   1      37.132  35.019  33.517  1.00  0.00    -0.475 OA
ATOM     14  Cl  UNL A   1      42.117  33.627  30.712  1.00  0.00    -0.084 Cl
ATOM     15  C   UNL A   1      39.437  33.864  30.864  1.00  0.00     0.032 A 
ATOM     16  C   UNL A   1      36.975  33.899  30.894  1.00  0.00     0.027 C 
ATOM     17  C   UNL A   1      35.836  34.621  32.988  1.00  0.00     0.316 C 
BRANCH  17  18
ATOM     18  C   UNL A   1      35.197  33.617  33.960  1.00  0.00     0.430 C 
ATOM     19  F   UNL A   1      35.758  32.388  33.837  1.00  0.00    -0.167 F 
ATOM     20  F   UNL A   1      35.377  33.988  35.252  1.00  0.00    -0.167 F 
ATOM     21  F   UNL A   1      33.868  33.478  33.761  1.00  0.00    -0.167 F 
ENDBRANCH  17  18
ENDBRANCH   4   6
ENDBRANCH   3   4
ENDBRANCH   2   3
ENDBRANCH   1   2
BRANCH   1  22
ATOM     22  O   UNL A   1      34.367  33.239  27.578  1.00  0.00    -0.458 OA
BRANCH  22  23
ATOM     23  C   UNL A   1      34.189  31.899  27.624  1.00  0.00     0.338 C 
ATOM     24  O   UNL A   1      33.158  31.287  27.399  1.00  0.00    -0.246 OA
BRANCH  23  25
ATOM     25  C   UNL A   1      35.458  31.214  27.905  1.00  0.00     0.060 A 
ATOM     26  C   UNL A   1      35.407  29.894  28.333  1.00  0.00     0.016 A 
ATOM     27  C   UNL A   1      36.649  31.929  27.990  1.00  0.00     0.016 A 
ATOM     28  C   UNL A   1      36.479  29.350  29.030  1.00  0.00     0.010 A 
ATOM     29  C   UNL A   1      37.782  31.310  28.533  1.00  0.00     0.010 A 
ATOM     30  C   UNL A   1      37.699  30.031  29.115  1.00  0.00    -0.014 A 
BRANCH  30  31
ATOM     31  C   UNL A   1      38.866  29.419  29.818  1.00  0.00     0.031 A 
ATOM     32  C   UNL A   1      39.235  29.860  31.214  1.00  0.00     0.074 A 
ATOM     33  C   UNL A   1      39.593  28.452  29.218  1.00  0.00     0.049 A 
ATOM     34  N   UNL A   1      40.333  29.635  31.890  1.00  0.00    -0.248 NA
ATOM     35  C   UNL A   1      38.246  30.674  31.941  1.00  0.00     0.031 C 
ATOM     36  C   UNL A   1      39.311  27.863  27.905  1.00  0.00     0.029 A 
ATOM     37  N   UNL A   1      40.715  27.778  29.636  1.00  0.00    -0.354 N 
ATOM     38  C   UNL A   1      40.191  30.319  33.094  1.00  0.00     0.074 A 
ATOM     39  C   UNL A   1      38.904  30.979  33.052  1.00  0.00     0.031 C 
ATOM     40  C   UNL A   1      40.187  26.881  27.657  1.00  0.00     0.029 A 
ATOM     41  C   UNL A   1      41.180  26.861  28.720  1.00  0.00     0.049 A 
ATOM     42  H   UNL A   1      41.145  27.935  30.507  1.00  0.00     0.167 HD
ATOM     43  C   UNL A   1      41.059  30.387  34.134  1.00  0.00     0.034 A 
ATOM     44  C   UNL A   1      42.311  26.129  28.693  1.00  0.00     0.034 A 
ATOM     45  C   UNL A   1      42.317  29.683  34.176  1.00  0.00     0.049 A 
ATOM     46  C   UNL A   1      43.302  26.295  29.809  1.00  0.00     0.074 A 
ATOM     47  C   UNL A   1      43.277  29.691  35.173  1.00  0.00     0.029 A 
ATOM     48  N   UNL A   1      42.783  28.827  33.186  1.00  0.00    -0.354 N 
ATOM     49  N   UNL A   1      43.213  27.044  30.883  1.00  0.00    -0.248 NA
ATOM     50  C   UNL A   1      44.555  25.539  29.697  1.00  0.00     0.031 C 
ATOM     51  C   UNL A   1      44.347  28.893  34.760  1.00  0.00     0.029 A 
ATOM     52  C   UNL A   1      44.026  28.323  33.539  1.00  0.00     0.049 A 
ATOM     53  H   UNL A   1      42.303  28.610  32.355  1.00  0.00     0.167 HD
ATOM     54  C   UNL A   1      44.394  26.837  31.585  1.00  0.00     0.074 A 
ATOM     55  C   UNL A   1      45.173  25.884  30.818  1.00  0.00     0.031 C 
ATOM     56  C   UNL A   1      44.796  27.386  32.759  1.00  0.00     0.034 A 
BRANCH  43  57
ATOM     57  C   UNL A   1      40.708  31.289  35.293  1.00  0.00     0.023 A 
ATOM     58  C   UNL A   1      39.583  31.062  36.103  1.00  0.00     0.031 A 
ATOM     59  C   UNL A   1      41.542  32.378  35.611  1.00  0.00     0.131 A 
ATOM     60  C   UNL A   1      39.302  31.934  37.168  1.00  0.00     0.055 A 
ATOM     61  C   UNL A   1      41.293  33.202  36.709  1.00  0.00     0.041 A 
ATOM     62  F   UNL A   1      42.622  32.652  34.861  1.00  0.00    -0.206 F 
ATOM     63  C   UNL A   1      40.163  32.987  37.492  1.00  0.00     0.022 A 
BRANCH  60  64
ATOM     64  S   UNL A   1      37.751  31.725  38.084  1.00  0.00     0.124 S 
ATOM     65  O   UNL A   1      37.357  30.374  37.689  1.00  0.00    -0.237 OA
ATOM     66  O   UNL A   1      38.174  31.888  39.469  1.00  0.00    -0.237 OA
ATOM     67  O   UNL A   1      36.898  32.791  37.563  1.00  0.00    -0.744 OA
ENDBRANCH  60  64
ENDBRANCH  43  57
BRANCH  44  68
ATOM     68  C   UNL A   1      42.592  25.236  27.534  1.00  0.00     0.023 A 
ATOM     69  C   UNL A   1      42.116  23.917  27.512  1.00  0.00     0.031 A 
ATOM     70  C   UNL A   1      43.323  25.694  26.422  1.00  0.00     0.131 A 
ATOM     71  C   UNL A   1      42.385  23.098  26.405  1.00  0.00     0.055 A 
ATOM     72  C   UNL A   1      43.544  24.892  25.302  1.00  0.00     0.041 A 
ATOM     73  F   UNL A   1      43.798  26.951  26.392  1.00  0.00    -0.206 F 
ATOM     74  C   UNL A   1      43.079  23.582  25.292  1.00  0.00     0.022 A 
BRANCH  71  75
ATOM     75  S   UNL A   1      41.841  21.368  26.451  1.00  0.00     0.124 S 
ATOM     76  O   UNL A   1      42.173  20.991  27.820  1.00  0.00    -0.237 OA
ATOM     77  O   UNL A   1      40.421  21.486  26.142  1.00  0.00    -0.237 OA
ATOM     78  O   UNL A   1      42.651  20.731  25.414  1.00  0.00    -0.744 OA
ENDBRANCH  71  75
ENDBRANCH  44  68
BRANCH  56  79
ATOM     79  C   UNL A   1      46.126  26.939  33.303  1.00  0.00     0.023 A 
ATOM     80  C   UNL A   1      46.252  25.762  34.059  1.00  0.00     0.031 A 
ATOM     81  C   UNL A   1      47.284  27.694  33.046  1.00  0.00     0.131 A 
ATOM     82  C   UNL A   1      47.506  25.392  34.566  1.00  0.00     0.055 A 
ATOM     83  C   UNL A   1      48.538  27.291  33.506  1.00  0.00     0.041 A 
ATOM     84  F   UNL A   1      47.216  28.827  32.329  1.00  0.00    -0.206 F 
ATOM     85  C   UNL A   1      48.652  26.139  34.278  1.00  0.00     0.022 A 
BRANCH  82  86
ATOM     86  S   UNL A   1      47.610  23.948  35.657  1.00  0.00     0.124 S 
ATOM     87  O   UNL A   1      48.596  23.121  34.970  1.00  0.00    -0.237 OA
ATOM     88  O   UNL A   1      48.042  24.538  36.920  1.00  0.00    -0.237 OA
ATOM     89  O   UNL A   1      46.247  23.419  35.655  1.00  0.00    -0.744 OA
ENDBRANCH  82  86
ENDBRANCH  56  79
ENDBRANCH  30  31
ENDBRANCH  23  25
ENDBRANCH  22  23
ENDBRANCH   1  22
TORSDOF 15
ENDMDL
MODEL 3
REMARK VINA RESULT:     -11.0      4.419     10.095
REMARK SMILES Cc1cc(Cl)cc2c1O[C@H](C(F)(F)F)C(C(=O)OCCOC(=O)c1ccc(-c3c4nc(c(-c5cc(S(=O)(=O)[O-])ccc5F)c5ccc([nH]5)c(-c5cc(S(=O)(=O)[O-])ccc5F)c5nc(c(-c6cc(S(=O)(=O)[O-])ccc6F)c6ccc3[nH]6)C=C5)C=C4)cc1)=C2
REMARK SMILES IDX 20 1 19 2 18 3 16 4 17 5 15 6 1 7 2 8 3 9 8 10 4 11 7 12
REMARK SMILES IDX 9 13 5 14 6 15 87 16 10 17 11 18 12 19 13 20 14 21 21 22
REMARK SMILES IDX 22 23 23 24 24 25 25 26 86 27 26 28 85 29 27 30 28 31 29 32
REMARK SMILES IDX 79 33 30 34 84 35 78 36 80 37 31 38 83 39 77 40 76 41 32 43
REMARK SMILES IDX 64 44 44 45 63 46 45 47 48 48 62 49 81 50 46 51 47 52 61 54
REMARK SMILES IDX 82 55 49 56 33 57 34 58 42 59 35 60 41 61 43 62 40 63 36 64
REMARK SMILES IDX 37 65 38 66 39 67 65 68 66 69 74 70 67 71 73 72 75 73 72 74
REMARK SMILES IDX 68 75 69 76 70 77 71 78 50 79 51 80 59 81 52 82 58 83 60 84
REMARK SMILES IDX 57 85 53 86 54 87 55 88 56 89
REMARK H PARENT 80 42 48 53
REMARK Flexibility Score: inf
ROOT
ATOM      1  C   UNL A   1      36.605  20.645  25.018  1.00  0.00     0.275 C 
ENDROOT
BRANCH   1   2
ATOM      2  C   UNL A   1      35.237  21.322  24.921  1.00  0.00     0.275 C 
BRANCH   2   3
ATOM      3  O   UNL A   1      35.354  22.760  24.867  1.00  0.00    -0.459 OA
BRANCH   3   4
ATOM      4  C   UNL A   1      35.129  23.311  23.652  1.00  0.00     0.338 C 
ATOM      5  O   UNL A   1      35.649  22.976  22.598  1.00  0.00    -0.246 OA
BRANCH   4   6
ATOM      6  C   UNL A   1      34.154  24.412  23.743  1.00  0.00     0.087 C 
ATOM      7  C   UNL A   1      29.834  27.180  23.713  1.00  0.00     0.048 C 
ATOM      8  C   UNL A   1      31.140  27.232  24.449  1.00  0.00    -0.007 A 
ATOM      9  C   UNL A   1      31.323  28.168  25.481  1.00  0.00     0.027 A 
ATOM     10  C   UNL A   1      32.169  26.323  24.156  1.00  0.00     0.131 A 
ATOM     11  C   UNL A   1      32.521  28.212  26.190  1.00  0.00     0.042 A 
ATOM     12  C   UNL A   1      33.359  26.367  24.884  1.00  0.00     0.019 A 
ATOM     13  O   UNL A   1      31.952  25.426  23.143  1.00  0.00    -0.475 OA
ATOM     14  Cl  UNL A   1      32.723  29.354  27.460  1.00  0.00    -0.084 Cl
ATOM     15  C   UNL A   1      33.544  27.320  25.894  1.00  0.00     0.032 A 
ATOM     16  C   UNL A   1      34.388  25.380  24.635  1.00  0.00     0.027 C 
ATOM     17  C   UNL A   1      32.880  24.319  22.959  1.00  0.00     0.316 C 
BRANCH  17  18
ATOM     18  C   UNL A   1      32.137  23.005  23.243  1.00  0.00     0.430 C 
ATOM     19  F   UNL A   1      32.261  22.641  24.544  1.00  0.00    -0.167 F 
ATOM     20  F   UNL A   1      30.807  23.120  23.007  1.00  0.00    -0.167 F 
ATOM     21  F   UNL A   1      32.594  21.979  22.491  1.00  0.00    -0.167 F 
ENDBRANCH  17  18
ENDBRANCH   4   6
ENDBRANCH   3   4
ENDBRANCH   2   3
ENDBRANCH   1   2
BRANCH   1  22
ATOM     22  O   UNL A   1      37.662  21.622  25.026  1.00  0.00    -0.458 OA
BRANCH  22  23
ATOM     23  C   UNL A   1      38.745  21.272  25.757  1.00  0.00     0.338 C 
ATOM     24  O   UNL A   1      39.310  20.192  25.762  1.00  0.00    -0.246 OA
BRANCH  23  25
ATOM     25  C   UNL A   1      39.249  22.421  26.523  1.00  0.00     0.060 A 
ATOM     26  C   UNL A   1      38.790  23.686  26.182  1.00  0.00     0.016 A 
ATOM     27  C   UNL A   1      40.336  22.282  27.381  1.00  0.00     0.016 A 
ATOM     28  C   UNL A   1      39.531  24.809  26.529  1.00  0.00     0.010 A 
ATOM     29  C   UNL A   1      40.972  23.428  27.874  1.00  0.00     0.010 A 
ATOM     30  C   UNL A   1      40.615  24.708  27.409  1.00  0.00    -0.014 A 
BRANCH  30  31
ATOM     31  C   UNL A   1      41.376  25.926  27.823  1.00  0.00     0.031 A 
ATOM     32  C   UNL A   1      40.715  26.987  28.670  1.00  0.00     0.074 A 
ATOM     33  C   UNL A   1      42.667  26.081  27.458  1.00  0.00     0.049 A 
ATOM     34  N   UNL A   1      41.114  28.207  28.926  1.00  0.00    -0.248 NA
ATOM     35  C   UNL A   1      39.431  26.637  29.299  1.00  0.00     0.031 C 
ATOM     36  C   UNL A   1      43.465  25.105  26.710  1.00  0.00     0.029 A 
ATOM     37  N   UNL A   1      43.547  27.113  27.676  1.00  0.00    -0.354 N 
ATOM     38  C   UNL A   1      40.110  28.786  29.699  1.00  0.00     0.074 A 
ATOM     39  C   UNL A   1      39.077  27.786  29.859  1.00  0.00     0.031 C 
ATOM     40  C   UNL A   1      44.722  25.552  26.591  1.00  0.00     0.029 A 
ATOM     41  C   UNL A   1      44.790  26.904  27.123  1.00  0.00     0.049 A 
ATOM     42  H   UNL A   1      43.310  27.925  28.181  1.00  0.00     0.167 HD
ATOM     43  C   UNL A   1      40.062  30.037  30.221  1.00  0.00     0.034 A 
ATOM     44  C   UNL A   1      45.851  27.723  26.991  1.00  0.00     0.034 A 
ATOM     45  C   UNL A   1      41.125  31.002  30.089  1.00  0.00     0.049 A 
ATOM     46  C   UNL A   1      45.738  29.134  27.492  1.00  0.00     0.074 A 
ATOM     47  C   UNL A   1      41.174  32.301  30.567  1.00  0.00     0.029 A 
ATOM     48  N   UNL A   1      42.336  30.771  29.448  1.00  0.00    -0.354 N 
ATOM     49  N   UNL A   1      44.733  29.709  28.109  1.00  0.00    -0.248 NA
ATOM     50  C   UNL A   1      46.889  30.014  27.255  1.00  0.00     0.031 C 
ATOM     51  C   UNL A   1      42.384  32.872  30.163  1.00  0.00     0.029 A 
ATOM     52  C   UNL A   1      43.126  31.909  29.498  1.00  0.00     0.049 A 
ATOM     53  H   UNL A   1      42.594  29.924  29.020  1.00  0.00     0.167 HD
ATOM     54  C   UNL A   1      45.138  31.017  28.350  1.00  0.00     0.074 A 
ATOM     55  C   UNL A   1      46.482  31.141  27.821  1.00  0.00     0.031 C 
ATOM     56  C   UNL A   1      44.457  32.023  28.955  1.00  0.00     0.034 A 
BRANCH  43  57
ATOM     57  C   UNL A   1      38.804  30.456  30.942  1.00  0.00     0.023 A 
ATOM     58  C   UNL A   1      37.743  31.099  30.282  1.00  0.00     0.031 A 
ATOM     59  C   UNL A   1      38.653  30.173  32.313  1.00  0.00     0.131 A 
ATOM     60  C   UNL A   1      36.595  31.470  31.003  1.00  0.00     0.055 A 
ATOM     61  C   UNL A   1      37.485  30.486  33.008  1.00  0.00     0.041 A 
ATOM     62  F   UNL A   1      39.642  29.576  32.998  1.00  0.00    -0.206 F 
ATOM     63  C   UNL A   1      36.448  31.145  32.354  1.00  0.00     0.022 A 
BRANCH  60  64
ATOM     64  S   UNL A   1      35.321  32.456  30.169  1.00  0.00     0.124 S 
ATOM     65  O   UNL A   1      34.325  32.604  31.228  1.00  0.00    -0.237 OA
ATOM     66  O   UNL A   1      36.045  33.665  29.799  1.00  0.00    -0.237 OA
ATOM     67  O   UNL A   1      34.909  31.610  29.051  1.00  0.00    -0.744 OA
ENDBRANCH  60  64
ENDBRANCH  43  57
BRANCH  44  68
ATOM     68  C   UNL A   1      47.078  27.246  26.292  1.00  0.00     0.023 A 
ATOM     69  C   UNL A   1      48.086  26.569  26.993  1.00  0.00     0.031 A 
ATOM     70  C   UNL A   1      47.249  27.439  24.909  1.00  0.00     0.131 A 
ATOM     71  C   UNL A   1      49.228  26.120  26.311  1.00  0.00     0.055 A 
ATOM     72  C   UNL A   1      48.362  26.946  24.227  1.00  0.00     0.041 A 
ATOM     73  F   UNL A   1      46.311  28.078  24.190  1.00  0.00    -0.206 F 
ATOM     74  C   UNL A   1      49.364  26.287  24.930  1.00  0.00     0.022 A 
BRANCH  71  75
ATOM     75  S   UNL A   1      50.557  25.338  27.264  1.00  0.00     0.124 S 
ATOM     76  O   UNL A   1      50.977  26.428  28.136  1.00  0.00    -0.237 OA
ATOM     77  O   UNL A   1      49.861  24.230  27.909  1.00  0.00    -0.237 OA
ATOM     78  O   UNL A   1      51.525  24.949  26.240  1.00  0.00    -0.744 OA
ENDBRANCH  71  75
ENDBRANCH  44  68
BRANCH  56  79
ATOM     79  C   UNL A   1      45.172  33.338  29.109  1.00  0.00     0.023 A 
ATOM     80  C   UNL A   1      45.107  34.329  28.116  1.00  0.00     0.031 A 
ATOM     81  C   UNL A   1      45.913  33.607  30.273  1.00  0.00     0.131 A 
ATOM     82  C   UNL A   1      45.805  35.533  28.290  1.00  0.00     0.055 A 
ATOM     83  C   UNL A   1      46.560  34.828  30.464  1.00  0.00     0.041 A 
ATOM     84  F   UNL A   1      46.007  32.691  31.251  1.00  0.00    -0.206 F 
ATOM     85  C   UNL A   1      46.515  35.796  29.465  1.00  0.00     0.022 A 
BRANCH  82  86
ATOM     86  S   UNL A   1      45.820  36.732  26.930  1.00  0.00     0.124 S 
ATOM     87  O   UNL A   1      44.425  37.158  26.888  1.00  0.00    -0.237 OA
ATOM     88  O   UNL A   1      46.777  37.729  27.398  1.00  0.00    -0.237 OA
ATOM     89  O   UNL A   1      46.262  35.941  25.782  1.00  0.00    -0.744 OA
ENDBRANCH  82  86
ENDBRANCH  56  79
ENDBRANCH  30  31
ENDBRANCH  23  25
ENDBRANCH  22  23
ENDBRANCH   1  22
TORSDOF 15
ENDMDL
