MODEL 1
REMARK VINA RESULT:     -10.6      0.000      0.000
REMARK SMILES C[C@H](C(=O)OCCOC(=O)c1ccc(-c2c3nc(c(-c4cc(S(=O)(=O)[O-])ccc4F)c4ccc([nH]4)c(-c4cc(S(=O)(=O)[O-])ccc4F)c4nc(c(-c5cc(S(=O)(=O)[O-])ccc5F)c5ccc2[nH]5)C=C4)C=C3)cc1)[N@@H+]1CCc2ccccc2C1
REMARK SMILES IDX 7 1 6 2 5 3 3 4 4 5 2 6 1 7 74 8 75 9 83 10 76 12 82 13
REMARK SMILES IDX 77 14 81 15 78 16 80 17 79 18 8 19 9 20 10 21 11 22 12 23
REMARK SMILES IDX 73 24 13 25 72 26 14 27 15 28 16 29 66 30 17 31 71 32 65 33
REMARK SMILES IDX 67 34 18 35 70 36 64 37 63 38 19 40 51 41 31 42 50 43 32 44
REMARK SMILES IDX 35 45 49 46 68 47 33 48 34 49 48 51 69 52 36 53 20 54 21 55
REMARK SMILES IDX 29 56 22 57 28 58 30 59 27 60 23 61 24 62 25 63 26 64 52 65
REMARK SMILES IDX 53 66 61 67 54 68 60 69 62 70 59 71 55 72 56 73 57 74 58 75
REMARK SMILES IDX 37 76 38 77 46 78 39 79 45 80 47 81 44 82 40 83 41 84 42 85
REMARK SMILES IDX 43 86
REMARK H PARENT 74 11 67 39 35 50
REMARK Flexibility Score: inf
ROOT
ATOM      1  C   UNL A   1      41.191  19.690  26.211  1.00  0.00     0.275 C 
ENDROOT
BRANCH   1   2
ATOM      2  C   UNL A   1      42.251  18.881  26.959  1.00  0.00     0.274 C 
BRANCH   2   3
ATOM      3  O   UNL A   1      43.097  18.140  26.057  1.00  0.00    -0.458 OA
BRANCH   3   4
ATOM      4  C   UNL A   1      43.714  18.897  25.102  1.00  0.00     0.364 C 
ATOM      5  O   UNL A   1      43.442  18.815  23.906  1.00  0.00    -0.245 OA
BRANCH   4   6
ATOM      6  C   UNL A   1      44.903  19.715  25.643  1.00  0.00     0.292 C 
ATOM      7  C   UNL A   1      46.153  18.826  25.447  1.00  0.00     0.088 C 
BRANCH   6   8
ATOM      8  N   UNL A   1      45.061  21.110  25.168  1.00  0.00    -0.319 N 
ATOM      9  C   UNL A   1      46.291  21.546  24.482  1.00  0.00     0.268 C 
ATOM     10  C   UNL A   1      44.382  22.185  25.884  1.00  0.00     0.300 C 
ATOM     11  H   UNL A   1      44.457  20.902  24.374  1.00  0.00     0.349 HD
ATOM     12  C   UNL A   1      46.427  23.095  24.320  1.00  0.00     0.097 C 
ATOM     13  C   UNL A   1      45.364  23.108  26.544  1.00  0.00     0.010 A 
ATOM     14  C   UNL A   1      46.324  23.697  25.701  1.00  0.00    -0.034 A 
ATOM     15  C   UNL A   1      45.368  23.371  27.908  1.00  0.00     0.010 A 
ATOM     16  C   UNL A   1      47.160  24.694  26.193  1.00  0.00     0.004 A 
ATOM     17  C   UNL A   1      46.264  24.307  28.413  1.00  0.00     0.001 A 
ATOM     18  C   UNL A   1      47.123  24.999  27.555  1.00  0.00     0.000 A 
ENDBRANCH   6   8
ENDBRANCH   4   6
ENDBRANCH   3   4
ENDBRANCH   2   3
ENDBRANCH   1   2
BRANCH   1  19
ATOM     19  O   UNL A   1      40.489  20.554  27.118  1.00  0.00    -0.458 OA
BRANCH  19  20
ATOM     20  C   UNL A   1      39.605  21.398  26.541  1.00  0.00     0.338 C 
ATOM     21  O   UNL A   1      38.674  21.059  25.814  1.00  0.00    -0.246 OA
BRANCH  20  22
ATOM     22  C   UNL A   1      39.911  22.812  26.880  1.00  0.00     0.060 A 
ATOM     23  C   UNL A   1      39.265  23.889  26.263  1.00  0.00     0.016 A 
ATOM     24  C   UNL A   1      40.921  23.070  27.811  1.00  0.00     0.016 A 
ATOM     25  C   UNL A   1      39.667  25.204  26.533  1.00  0.00     0.010 A 
ATOM     26  C   UNL A   1      41.276  24.387  28.127  1.00  0.00     0.010 A 
ATOM     27  C   UNL A   1      40.678  25.475  27.469  1.00  0.00    -0.014 A 
BRANCH  27  28
ATOM     28  C   UNL A   1      41.145  26.870  27.747  1.00  0.00     0.031 A 
ATOM     29  C   UNL A   1      42.568  27.276  27.434  1.00  0.00     0.074 A 
ATOM     30  C   UNL A   1      40.315  27.780  28.300  1.00  0.00     0.049 A 
ATOM     31  N   UNL A   1      43.211  28.373  27.748  1.00  0.00    -0.248 NA
ATOM     32  C   UNL A   1      43.373  26.318  26.659  1.00  0.00     0.031 C 
ATOM     33  C   UNL A   1      38.902  27.560  28.612  1.00  0.00     0.029 A 
ATOM     34  N   UNL A   1      40.545  29.072  28.713  1.00  0.00    -0.354 N 
ATOM     35  C   UNL A   1      44.497  28.229  27.231  1.00  0.00     0.074 A 
ATOM     36  C   UNL A   1      44.543  26.934  26.587  1.00  0.00     0.031 C 
ATOM     37  C   UNL A   1      38.391  28.676  29.153  1.00  0.00     0.029 A 
ATOM     38  C   UNL A   1      39.458  29.658  29.321  1.00  0.00     0.049 A 
ATOM     39  H   UNL A   1      41.405  29.533  28.586  1.00  0.00     0.167 HD
ATOM     40  C   UNL A   1      45.546  29.089  27.298  1.00  0.00     0.034 A 
ATOM     41  C   UNL A   1      39.336  30.819  29.998  1.00  0.00     0.034 A 
ATOM     42  C   UNL A   1      45.501  30.371  27.959  1.00  0.00     0.049 A 
ATOM     43  C   UNL A   1      40.544  31.700  30.171  1.00  0.00     0.074 A 
ATOM     44  C   UNL A   1      46.507  31.316  28.077  1.00  0.00     0.029 A 
ATOM     45  N   UNL A   1      44.400  30.884  28.632  1.00  0.00    -0.354 N 
ATOM     46  N   UNL A   1      41.764  31.528  29.718  1.00  0.00    -0.248 NA
ATOM     47  C   UNL A   1      40.363  32.924  30.962  1.00  0.00     0.031 C 
ATOM     48  C   UNL A   1      46.041  32.359  28.885  1.00  0.00     0.029 A 
ATOM     49  C   UNL A   1      44.716  32.109  29.204  1.00  0.00     0.049 A 
ATOM     50  H   UNL A   1      43.522  30.443  28.695  1.00  0.00     0.167 HD
ATOM     51  C   UNL A   1      42.491  32.631  30.160  1.00  0.00     0.074 A 
ATOM     52  C   UNL A   1      41.568  33.468  30.898  1.00  0.00     0.031 C 
ATOM     53  C   UNL A   1      43.802  32.923  29.968  1.00  0.00     0.034 A 
BRANCH  40  54
ATOM     54  C   UNL A   1      46.862  28.634  26.711  1.00  0.00     0.023 A 
ATOM     55  C   UNL A   1      47.050  28.457  25.329  1.00  0.00     0.031 A 
ATOM     56  C   UNL A   1      47.954  28.376  27.561  1.00  0.00     0.131 A 
ATOM     57  C   UNL A   1      48.284  27.994  24.843  1.00  0.00     0.055 A 
ATOM     58  C   UNL A   1      49.197  27.979  27.067  1.00  0.00     0.041 A 
ATOM     59  F   UNL A   1      47.827  28.504  28.892  1.00  0.00    -0.206 F 
ATOM     60  C   UNL A   1      49.365  27.776  25.701  1.00  0.00     0.022 A 
BRANCH  57  61
ATOM     61  S   UNL A   1      48.427  27.563  23.087  1.00  0.00     0.124 S 
ATOM     62  O   UNL A   1      47.265  28.241  22.518  1.00  0.00    -0.237 OA
ATOM     63  O   UNL A   1      49.728  28.118  22.733  1.00  0.00    -0.237 OA
ATOM     64  O   UNL A   1      48.350  26.103  23.084  1.00  0.00    -0.744 OA
ENDBRANCH  57  61
ENDBRANCH  40  54
BRANCH  41  65
ATOM     65  C   UNL A   1      38.041  31.170  30.651  1.00  0.00     0.023 A 
ATOM     66  C   UNL A   1      37.071  31.937  29.986  1.00  0.00     0.031 A 
ATOM     67  C   UNL A   1      37.767  30.758  31.969  1.00  0.00     0.131 A 
ATOM     68  C   UNL A   1      35.883  32.283  30.649  1.00  0.00     0.055 A 
ATOM     69  C   UNL A   1      36.561  31.057  32.602  1.00  0.00     0.041 A 
ATOM     70  F   UNL A   1      38.665  30.031  32.654  1.00  0.00    -0.206 F 
ATOM     71  C   UNL A   1      35.613  31.832  31.944  1.00  0.00     0.022 A 
BRANCH  68  72
ATOM     72  S   UNL A   1      34.710  33.389  29.815  1.00  0.00     0.124 S 
ATOM     73  O   UNL A   1      33.961  33.932  30.943  1.00  0.00    -0.237 OA
ATOM     74  O   UNL A   1      35.604  34.317  29.130  1.00  0.00    -0.237 OA
ATOM     75  O   UNL A   1      33.959  32.492  28.940  1.00  0.00    -0.744 OA
ENDBRANCH  68  72
ENDBRANCH  41  65
BRANCH  53  76
ATOM     76  C   UNL A   1      44.299  34.228  30.543  1.00  0.00     0.023 A 
ATOM     77  C   UNL A   1      44.175  35.439  29.840  1.00  0.00     0.031 A 
ATOM     78  C   UNL A   1      44.939  34.252  31.794  1.00  0.00     0.131 A 
ATOM     79  C   UNL A   1      44.740  36.612  30.364  1.00  0.00     0.055 A 
ATOM     80  C   UNL A   1      45.447  35.432  32.337  1.00  0.00     0.041 A 
ATOM     81  F   UNL A   1      45.088  33.123  32.507  1.00  0.00    -0.206 F 
ATOM     82  C   UNL A   1      45.363  36.619  31.614  1.00  0.00     0.022 A 
BRANCH  79  83
ATOM     83  S   UNL A   1      44.744  38.110  29.341  1.00  0.00     0.124 S 
ATOM     84  O   UNL A   1      44.014  37.670  28.156  1.00  0.00    -0.237 OA
ATOM     85  O   UNL A   1      44.054  39.073  30.194  1.00  0.00    -0.237 OA
ATOM     86  O   UNL A   1      46.165  38.378  29.129  1.00  0.00    -0.744 OA
ENDBRANCH  79  83
ENDBRANCH  53  76
ENDBRANCH  27  28
ENDBRANCH  20  22
ENDBRANCH  19  20
ENDBRANCH   1  19
TORSDOF 15
ENDMDL
MODEL 2
REMARK VINA RESULT:     -10.4      5.707      9.161
REMARK SMILES C[C@H](C(=O)OCCOC(=O)c1ccc(-c2c3nc(c(-c4cc(S(=O)(=O)[O-])ccc4F)c4ccc([nH]4)c(-c4cc(S(=O)(=O)[O-])ccc4F)c4nc(c(-c5cc(S(=O)(=O)[O-])ccc5F)c5ccc2[nH]5)C=C4)C=C3)cc1)[N@@H+]1CCc2ccccc2C1
REMARK SMILES IDX 7 1 6 2 5 3 3 4 4 5 2 6 1 7 74 8 75 9 83 10 76 12 82 13
REMARK SMILES IDX 77 14 81 15 78 16 80 17 79 18 8 19 9 20 10 21 11 22 12 23
REMARK SMILES IDX 73 24 13 25 72 26 14 27 15 28 16 29 66 30 17 31 71 32 65 33
REMARK SMILES IDX 67 34 18 35 70 36 64 37 63 38 19 40 51 41 31 42 50 43 32 44
REMARK SMILES IDX 35 45 49 46 68 47 33 48 34 49 48 51 69 52 36 53 20 54 21 55
REMARK SMILES IDX 29 56 22 57 28 58 30 59 27 60 23 61 24 62 25 63 26 64 52 65
REMARK SMILES IDX 53 66 61 67 54 68 60 69 62 70 59 71 55 72 56 73 57 74 58 75
REMARK SMILES IDX 37 76 38 77 46 78 39 79 45 80 47 81 44 82 40 83 41 84 42 85
REMARK SMILES IDX 43 86
REMARK H PARENT 74 11 67 39 35 50
REMARK Flexibility Score: inf
ROOT
ATOM      1  C   UNL A   1      31.846  29.452  25.185  1.00  0.00     0.275 C 
ENDROOT
BRANCH   1   2
ATOM      2  C   UNL A   1      31.909  28.991  23.728  1.00  0.00     0.274 C 
BRANCH   2   3
ATOM      3  O   UNL A   1      32.958  28.025  23.516  1.00  0.00    -0.458 OA
BRANCH   3   4
ATOM      4  C   UNL A   1      32.554  26.721  23.578  1.00  0.00     0.364 C 
ATOM      5  O   UNL A   1      31.420  26.359  23.272  1.00  0.00    -0.245 OA
BRANCH   4   6
ATOM      6  C   UNL A   1      33.587  25.792  24.244  1.00  0.00     0.292 C 
ATOM      7  C   UNL A   1      33.654  26.225  25.727  1.00  0.00     0.088 C 
BRANCH   6   8
ATOM      8  N   UNL A   1      33.442  24.331  24.037  1.00  0.00    -0.319 N 
ATOM      9  C   UNL A   1      32.954  23.454  25.117  1.00  0.00     0.268 C 
ATOM     10  C   UNL A   1      34.331  23.656  23.096  1.00  0.00     0.300 C 
ATOM     11  H   UNL A   1      32.583  24.496  23.515  1.00  0.00     0.349 HD
ATOM     12  C   UNL A   1      33.147  21.926  24.847  1.00  0.00     0.097 C 
ATOM     13  C   UNL A   1      35.243  22.693  23.799  1.00  0.00     0.010 A 
ATOM     14  C   UNL A   1      34.617  21.704  24.579  1.00  0.00    -0.034 A 
ATOM     15  C   UNL A   1      36.628  22.760  23.723  1.00  0.00     0.010 A 
ATOM     16  C   UNL A   1      35.372  20.670  25.123  1.00  0.00     0.004 A 
ATOM     17  C   UNL A   1      37.387  21.771  24.340  1.00  0.00     0.001 A 
ATOM     18  C   UNL A   1      36.762  20.706  24.997  1.00  0.00     0.000 A 
ENDBRANCH   6   8
ENDBRANCH   4   6
ENDBRANCH   3   4
ENDBRANCH   2   3
ENDBRANCH   1   2
BRANCH   1  19
ATOM     19  O   UNL A   1      33.087  30.061  25.571  1.00  0.00    -0.458 OA
BRANCH  19  20
ATOM     20  C   UNL A   1      33.014  30.887  26.639  1.00  0.00     0.338 C 
ATOM     21  O   UNL A   1      32.088  31.659  26.875  1.00  0.00    -0.246 OA
BRANCH  20  22
ATOM     22  C   UNL A   1      34.221  30.764  27.497  1.00  0.00     0.060 A 
ATOM     23  C   UNL A   1      35.049  31.854  27.789  1.00  0.00     0.016 A 
ATOM     24  C   UNL A   1      34.566  29.500  27.983  1.00  0.00     0.016 A 
ATOM     25  C   UNL A   1      36.237  31.666  28.509  1.00  0.00     0.010 A 
ATOM     26  C   UNL A   1      35.721  29.327  28.756  1.00  0.00     0.010 A 
ATOM     27  C   UNL A   1      36.593  30.401  29.005  1.00  0.00    -0.014 A 
BRANCH  27  28
ATOM     28  C   UNL A   1      37.872  30.173  29.746  1.00  0.00     0.031 A 
ATOM     29  C   UNL A   1      38.915  29.225  29.196  1.00  0.00     0.074 A 
ATOM     30  C   UNL A   1      38.109  30.789  30.923  1.00  0.00     0.049 A 
ATOM     31  N   UNL A   1      40.006  28.767  29.759  1.00  0.00    -0.248 NA
ATOM     32  C   UNL A   1      38.702  28.730  27.827  1.00  0.00     0.031 C 
ATOM     33  C   UNL A   1      37.227  31.770  31.560  1.00  0.00     0.029 A 
ATOM     34  N   UNL A   1      39.158  30.670  31.806  1.00  0.00    -0.354 N 
ATOM     35  C   UNL A   1      40.595  27.917  28.826  1.00  0.00     0.074 A 
ATOM     36  C   UNL A   1      39.737  27.919  27.661  1.00  0.00     0.031 C 
ATOM     37  C   UNL A   1      37.776  32.170  32.717  1.00  0.00     0.029 A 
ATOM     38  C   UNL A   1      38.994  31.405  32.958  1.00  0.00     0.049 A 
ATOM     39  H   UNL A   1      39.950  30.114  31.629  1.00  0.00     0.167 HD
ATOM     40  C   UNL A   1      41.737  27.191  28.934  1.00  0.00     0.034 A 
ATOM     41  C   UNL A   1      39.698  31.420  34.110  1.00  0.00     0.034 A 
ATOM     42  C   UNL A   1      42.580  27.176  30.105  1.00  0.00     0.049 A 
ATOM     43  C   UNL A   1      40.890  30.512  34.257  1.00  0.00     0.074 A 
ATOM     44  C   UNL A   1      43.760  26.479  30.310  1.00  0.00     0.029 A 
ATOM     45  N   UNL A   1      42.328  27.873  31.279  1.00  0.00    -0.354 N 
ATOM     46  N   UNL A   1      41.406  29.679  33.384  1.00  0.00    -0.248 NA
ATOM     47  C   UNL A   1      41.582  30.534  35.552  1.00  0.00     0.031 C 
ATOM     48  C   UNL A   1      44.176  26.692  31.629  1.00  0.00     0.029 A 
ATOM     49  C   UNL A   1      43.303  27.589  32.225  1.00  0.00     0.049 A 
ATOM     50  H   UNL A   1      41.567  28.482  31.420  1.00  0.00     0.167 HD
ATOM     51  C   UNL A   1      42.493  29.088  34.023  1.00  0.00     0.074 A 
ATOM     52  C   UNL A   1      42.568  29.673  35.345  1.00  0.00     0.031 C 
ATOM     53  C   UNL A   1      43.353  28.148  33.554  1.00  0.00     0.034 A 
BRANCH  40  54
ATOM     54  C   UNL A   1      42.100  26.283  27.781  1.00  0.00     0.023 A 
ATOM     55  C   UNL A   1      41.665  24.948  27.707  1.00  0.00     0.031 A 
ATOM     56  C   UNL A   1      42.899  26.774  26.731  1.00  0.00     0.131 A 
ATOM     57  C   UNL A   1      42.067  24.139  26.631  1.00  0.00     0.055 A 
ATOM     58  C   UNL A   1      43.240  25.984  25.632  1.00  0.00     0.041 A 
ATOM     59  F   UNL A   1      43.364  28.033  26.759  1.00  0.00    -0.206 F 
ATOM     60  C   UNL A   1      42.832  24.655  25.582  1.00  0.00     0.022 A 
BRANCH  57  61
ATOM     61  S   UNL A   1      41.678  22.368  26.675  1.00  0.00     0.124 S 
ATOM     62  O   UNL A   1      40.229  22.385  26.856  1.00  0.00    -0.237 OA
ATOM     63  O   UNL A   1      42.156  21.909  25.376  1.00  0.00    -0.237 OA
ATOM     64  O   UNL A   1      42.435  21.878  27.826  1.00  0.00    -0.744 OA
ENDBRANCH  57  61
ENDBRANCH  40  54
BRANCH  41  65
ATOM     65  C   UNL A   1      39.234  32.255  35.257  1.00  0.00     0.023 A 
ATOM     66  C   UNL A   1      39.709  33.562  35.449  1.00  0.00     0.031 A 
ATOM     67  C   UNL A   1      38.320  31.740  36.196  1.00  0.00     0.131 A 
ATOM     68  C   UNL A   1      39.282  34.302  36.563  1.00  0.00     0.055 A 
ATOM     69  C   UNL A   1      37.857  32.499  37.270  1.00  0.00     0.041 A 
ATOM     70  F   UNL A   1      37.843  30.492  36.065  1.00  0.00    -0.206 F 
ATOM     71  C   UNL A   1      38.345  33.787  37.463  1.00  0.00     0.022 A 
BRANCH  68  72
ATOM     72  S   UNL A   1      40.017  35.934  36.860  1.00  0.00     0.124 S 
ATOM     73  O   UNL A   1      39.341  36.346  38.085  1.00  0.00    -0.237 OA
ATOM     74  O   UNL A   1      41.434  35.610  36.984  1.00  0.00    -0.237 OA
ATOM     75  O   UNL A   1      39.657  36.692  35.663  1.00  0.00    -0.744 OA
ENDBRANCH  68  72
ENDBRANCH  41  65
BRANCH  53  76
ATOM     76  C   UNL A   1      44.470  27.727  34.478  1.00  0.00     0.023 A 
ATOM     77  C   UNL A   1      44.331  26.637  35.354  1.00  0.00     0.031 A 
ATOM     78  C   UNL A   1      45.675  28.452  34.507  1.00  0.00     0.131 A 
ATOM     79  C   UNL A   1      45.355  26.342  36.269  1.00  0.00     0.055 A 
ATOM     80  C   UNL A   1      46.712  28.116  35.378  1.00  0.00     0.041 A 
ATOM     81  F   UNL A   1      45.860  29.504  33.694  1.00  0.00    -0.206 F 
ATOM     82  C   UNL A   1      46.550  27.065  36.277  1.00  0.00     0.022 A 
BRANCH  79  83
ATOM     83  S   UNL A   1      45.062  25.063  37.522  1.00  0.00     0.124 S 
ATOM     84  O   UNL A   1      46.084  25.375  38.517  1.00  0.00    -0.237 OA
ATOM     85  O   UNL A   1      43.682  25.327  37.922  1.00  0.00    -0.237 OA
ATOM     86  O   UNL A   1      45.267  23.814  36.793  1.00  0.00    -0.744 OA
ENDBRANCH  79  83
ENDBRANCH  53  76
ENDBRANCH  27  28
ENDBRANCH  20  22
ENDBRANCH  19  20
ENDBRANCH   1  19
TORSDOF 15
ENDMDL
MODEL 3
REMARK VINA RESULT:     -10.3      2.209      7.922
REMARK SMILES C[C@H](C(=O)OCCOC(=O)c1ccc(-c2c3nc(c(-c4cc(S(=O)(=O)[O-])ccc4F)c4ccc([nH]4)c(-c4cc(S(=O)(=O)[O-])ccc4F)c4nc(c(-c5cc(S(=O)(=O)[O-])ccc5F)c5ccc2[nH]5)C=C4)C=C3)cc1)[N@@H+]1CCc2ccccc2C1
REMARK SMILES IDX 7 1 6 2 5 3 3 4 4 5 2 6 1 7 74 8 75 9 83 10 76 12 82 13
REMARK SMILES IDX 77 14 81 15 78 16 80 17 79 18 8 19 9 20 10 21 11 22 12 23
REMARK SMILES IDX 73 24 13 25 72 26 14 27 15 28 16 29 66 30 17 31 71 32 65 33
REMARK SMILES IDX 67 34 18 35 70 36 64 37 63 38 19 40 51 41 31 42 50 43 32 44
REMARK SMILES IDX 35 45 49 46 68 47 33 48 34 49 48 51 69 52 36 53 20 54 21 55
REMARK SMILES IDX 29 56 22 57 28 58 30 59 27 60 23 61 24 62 25 63 26 64 52 65
REMARK SMILES IDX 53 66 61 67 54 68 60 69 62 70 59 71 55 72 56 73 57 74 58 75
REMARK SMILES IDX 37 76 38 77 46 78 39 79 45 80 47 81 44 82 40 83 41 84 42 85
REMARK SMILES IDX 43 86
REMARK H PARENT 74 11 67 39 35 50
REMARK Flexibility Score: inf
ROOT
ATOM      1  C   UNL A   1      41.046  20.176  27.072  1.00  0.00     0.275 C 
ENDROOT
BRANCH   1   2
ATOM      2  C   UNL A   1      42.077  19.227  26.460  1.00  0.00     0.274 C 
BRANCH   2   3
ATOM      3  O   UNL A   1      42.681  19.782  25.274  1.00  0.00    -0.458 OA
BRANCH   3   4
ATOM      4  C   UNL A   1      44.013  19.513  25.132  1.00  0.00     0.364 C 
ATOM      5  O   UNL A   1      44.439  18.406  24.813  1.00  0.00    -0.245 OA
BRANCH   4   6
ATOM      6  C   UNL A   1      44.923  20.668  25.592  1.00  0.00     0.292 C 
ATOM      7  C   UNL A   1      46.130  20.667  24.627  1.00  0.00     0.088 C 
BRANCH   6   8
ATOM      8  N   UNL A   1      44.305  21.999  25.801  1.00  0.00    -0.319 N 
ATOM      9  C   UNL A   1      43.686  22.735  24.682  1.00  0.00     0.268 C 
ATOM     10  C   UNL A   1      44.828  22.868  26.850  1.00  0.00     0.300 C 
ATOM     11  H   UNL A   1      43.490  21.550  26.215  1.00  0.00     0.349 HD
ATOM     12  C   UNL A   1      43.358  24.231  24.995  1.00  0.00     0.097 C 
ATOM     13  C   UNL A   1      45.462  24.101  26.274  1.00  0.00     0.010 A 
ATOM     14  C   UNL A   1      44.645  24.885  25.439  1.00  0.00    -0.034 A 
ATOM     15  C   UNL A   1      46.781  24.465  26.513  1.00  0.00     0.010 A 
ATOM     16  C   UNL A   1      45.091  26.129  25.003  1.00  0.00     0.004 A 
ATOM     17  C   UNL A   1      47.252  25.670  26.004  1.00  0.00     0.001 A 
ATOM     18  C   UNL A   1      46.400  26.520  25.292  1.00  0.00     0.000 A 
ENDBRANCH   6   8
ENDBRANCH   4   6
ENDBRANCH   3   4
ENDBRANCH   2   3
ENDBRANCH   1   2
BRANCH   1  19
ATOM     19  O   UNL A   1      41.130  21.470  26.457  1.00  0.00    -0.458 OA
BRANCH  19  20
ATOM     20  C   UNL A   1      40.006  22.217  26.532  1.00  0.00     0.338 C 
ATOM     21  O   UNL A   1      38.889  21.853  26.173  1.00  0.00    -0.246 OA
BRANCH  20  22
ATOM     22  C   UNL A   1      40.292  23.563  27.092  1.00  0.00     0.060 A 
ATOM     23  C   UNL A   1      39.691  24.726  26.597  1.00  0.00     0.016 A 
ATOM     24  C   UNL A   1      41.238  23.672  28.116  1.00  0.00     0.016 A 
ATOM     25  C   UNL A   1      40.076  25.983  27.081  1.00  0.00     0.010 A 
ATOM     26  C   UNL A   1      41.574  24.926  28.642  1.00  0.00     0.010 A 
ATOM     27  C   UNL A   1      41.023  26.105  28.111  1.00  0.00    -0.014 A 
BRANCH  27  28
ATOM     28  C   UNL A   1      41.473  27.439  28.619  1.00  0.00     0.031 A 
ATOM     29  C   UNL A   1      40.457  28.463  29.077  1.00  0.00     0.074 A 
ATOM     30  C   UNL A   1      42.783  27.759  28.657  1.00  0.00     0.049 A 
ATOM     31  N   UNL A   1      40.627  29.723  29.392  1.00  0.00    -0.248 NA
ATOM     32  C   UNL A   1      39.065  28.004  29.200  1.00  0.00     0.031 C 
ATOM     33  C   UNL A   1      43.886  26.864  28.299  1.00  0.00     0.029 A 
ATOM     34  N   UNL A   1      43.412  28.934  29.000  1.00  0.00    -0.354 N 
ATOM     35  C   UNL A   1      39.366  30.211  29.728  1.00  0.00     0.074 A 
ATOM     36  C   UNL A   1      38.440  29.111  29.573  1.00  0.00     0.031 C 
ATOM     37  C   UNL A   1      45.049  27.515  28.453  1.00  0.00     0.029 A 
ATOM     38  C   UNL A   1      44.776  28.900  28.822  1.00  0.00     0.049 A 
ATOM     39  H   UNL A   1      42.932  29.722  29.341  1.00  0.00     0.167 HD
ATOM     40  C   UNL A   1      39.011  31.463  30.115  1.00  0.00     0.034 A 
ATOM     41  C   UNL A   1      45.704  29.879  28.878  1.00  0.00     0.034 A 
ATOM     42  C   UNL A   1      39.936  32.563  30.250  1.00  0.00     0.049 A 
ATOM     43  C   UNL A   1      45.272  31.288  29.186  1.00  0.00     0.074 A 
ATOM     44  C   UNL A   1      39.675  33.866  30.641  1.00  0.00     0.029 A 
ATOM     45  N   UNL A   1      41.296  32.500  29.977  1.00  0.00    -0.354 N 
ATOM     46  N   UNL A   1      44.070  31.743  29.453  1.00  0.00    -0.248 NA
ATOM     47  C   UNL A   1      46.318  32.318  29.180  1.00  0.00     0.031 C 
ATOM     48  C   UNL A   1      40.858  34.606  30.530  1.00  0.00     0.029 A 
ATOM     49  C   UNL A   1      41.877  33.749  30.149  1.00  0.00     0.049 A 
ATOM     50  H   UNL A   1      41.778  31.687  29.702  1.00  0.00     0.167 HD
ATOM     51  C   UNL A   1      44.221  33.111  29.662  1.00  0.00     0.074 A 
ATOM     52  C   UNL A   1      45.631  33.402  29.506  1.00  0.00     0.031 C 
ATOM     53  C   UNL A   1      43.277  34.041  29.959  1.00  0.00     0.034 A 
BRANCH  40  54
ATOM     54  C   UNL A   1      37.542  31.733  30.343  1.00  0.00     0.023 A 
ATOM     55  C   UNL A   1      36.683  32.149  29.310  1.00  0.00     0.031 A 
ATOM     56  C   UNL A   1      36.991  31.564  31.628  1.00  0.00     0.131 A 
ATOM     57  C   UNL A   1      35.334  32.425  29.590  1.00  0.00     0.055 A 
ATOM     58  C   UNL A   1      35.636  31.776  31.885  1.00  0.00     0.041 A 
ATOM     59  F   UNL A   1      37.768  31.192  32.658  1.00  0.00    -0.206 F 
ATOM     60  C   UNL A   1      34.801  32.219  30.865  1.00  0.00     0.022 A 
BRANCH  57  61
ATOM     61  S   UNL A   1      34.307  33.171  28.294  1.00  0.00     0.124 S 
ATOM     62  O   UNL A   1      33.649  31.999  27.723  1.00  0.00    -0.237 OA
ATOM     63  O   UNL A   1      33.453  34.078  29.053  1.00  0.00    -0.237 OA
ATOM     64  O   UNL A   1      35.279  33.819  27.416  1.00  0.00    -0.744 OA
ENDBRANCH  57  61
ENDBRANCH  40  54
BRANCH  41  65
ATOM     65  C   UNL A   1      47.127  29.580  28.539  1.00  0.00     0.023 A 
ATOM     66  C   UNL A   1      48.064  29.263  29.534  1.00  0.00     0.031 A 
ATOM     67  C   UNL A   1      47.571  29.630  27.204  1.00  0.00     0.131 A 
ATOM     68  C   UNL A   1      49.403  29.029  29.181  1.00  0.00     0.055 A 
ATOM     69  C   UNL A   1      48.890  29.342  26.853  1.00  0.00     0.041 A 
ATOM     70  F   UNL A   1      46.718  29.938  26.215  1.00  0.00    -0.206 F 
ATOM     71  C   UNL A   1      49.817  29.047  27.846  1.00  0.00     0.022 A 
BRANCH  68  72
ATOM     72  S   UNL A   1      50.619  28.760  30.500  1.00  0.00     0.124 S 
ATOM     73  O   UNL A   1      51.878  28.901  29.778  1.00  0.00    -0.237 OA
ATOM     74  O   UNL A   1      50.291  29.829  31.438  1.00  0.00    -0.237 OA
ATOM     75  O   UNL A   1      50.317  27.409  30.970  1.00  0.00    -0.744 OA
ENDBRANCH  68  72
ENDBRANCH  41  65
BRANCH  53  76
ATOM     76  C   UNL A   1      43.759  35.456  30.168  1.00  0.00     0.023 A 
ATOM     77  C   UNL A   1      43.818  36.379  29.109  1.00  0.00     0.031 A 
ATOM     78  C   UNL A   1      44.201  35.873  31.435  1.00  0.00     0.131 A 
ATOM     79  C   UNL A   1      44.368  37.653  29.323  1.00  0.00     0.055 A 
ATOM     80  C   UNL A   1      44.691  37.161  31.655  1.00  0.00     0.041 A 
ATOM     81  F   UNL A   1      44.170  35.032  32.481  1.00  0.00    -0.206 F 
ATOM     82  C   UNL A   1      44.792  38.054  30.592  1.00  0.00     0.022 A 
BRANCH  79  83
ATOM     83  S   UNL A   1      44.620  38.745  27.896  1.00  0.00     0.124 S 
ATOM     84  O   UNL A   1      43.576  38.293  26.981  1.00  0.00    -0.237 OA
ATOM     85  O   UNL A   1      44.428  40.070  28.479  1.00  0.00    -0.237 OA
ATOM     86  O   UNL A   1      45.986  38.447  27.473  1.00  0.00    -0.744 OA
ENDBRANCH  79  83
ENDBRANCH  53  76
ENDBRANCH  27  28
ENDBRANCH  20  22
ENDBRANCH  19  20
ENDBRANCH   1  19
TORSDOF 15
ENDMDL
