MODEL 1
REMARK VINA RESULT:     -11.1      0.000      0.000
REMARK SMILES Cc1occc1-c1nnnn1C[C@@H](CC(C)C)C(=O)OCCOC(=O)c1ccc(-c2c3nc(c(-c4cc(S(=O)(=O)[O-])ccc4F)c4ccc([nH]4)c(-c4cc(S(=O)(=O)[O-])ccc4F)c4nc(c(-c5cc(S(=O)(=O)[O-])ccc5F)c5ccc2[nH]5)C=C4)C=C3)cc1
REMARK SMILES IDX 21 1 20 2 18 3 19 4 13 5 12 6 11 7 7 8 8 9 9 10 10 11 6 12
REMARK SMILES IDX 1 13 2 14 3 15 4 16 5 17 14 18 15 19 16 20 17 21 22 22 23 23
REMARK SMILES IDX 24 24 25 25 26 26 27 27 88 28 28 29 87 30 29 31 30 32 31 33
REMARK SMILES IDX 81 34 32 35 86 36 80 37 82 38 33 39 85 40 79 41 78 42 34 44
REMARK SMILES IDX 66 45 46 46 65 47 47 48 50 49 64 50 83 51 48 52 49 53 63 55
REMARK SMILES IDX 84 56 51 57 35 58 36 59 44 60 37 61 43 62 45 63 42 64 38 65
REMARK SMILES IDX 39 66 40 67 41 68 67 69 68 70 76 71 69 72 75 73 77 74 74 75
REMARK SMILES IDX 70 76 71 77 72 78 73 79 52 80 53 81 61 82 54 83 60 84 62 85
REMARK SMILES IDX 59 86 55 87 56 88 57 89 58 90
REMARK H PARENT 82 43 50 54
REMARK Flexibility Score: inf
ROOT
ATOM      1  C   UNL A   1      37.094  21.997  24.194  1.00  0.00     0.274 C 
ENDROOT
BRANCH   1   2
ATOM      2  O   UNL A   1      35.735  22.283  24.592  1.00  0.00    -0.462 OA
BRANCH   2   3
ATOM      3  C   UNL A   1      35.496  23.460  25.223  1.00  0.00     0.310 C 
ATOM      4  O   UNL A   1      36.255  23.987  26.027  1.00  0.00    -0.252 OA
BRANCH   3   5
ATOM      5  C   UNL A   1      34.108  24.002  24.929  1.00  0.00     0.121 C 
BRANCH   5   6
ATOM      6  C   UNL A   1      33.459  24.749  26.112  1.00  0.00     0.164 C 
BRANCH   6   7
ATOM      7  N   UNL A   1      32.007  24.670  26.153  1.00  0.00    -0.224 N 
ATOM      8  C   UNL A   1      31.063  25.668  26.084  1.00  0.00     0.185 A 
ATOM      9  N   UNL A   1      29.967  25.207  26.658  1.00  0.00    -0.108 NA
ATOM     10  N   UNL A   1      30.184  23.877  26.900  1.00  0.00    -0.023 NA
ATOM     11  N   UNL A   1      31.416  23.530  26.561  1.00  0.00    -0.045 NA
BRANCH   8  12
ATOM     12  C   UNL A   1      31.160  27.038  25.522  1.00  0.00     0.062 A 
ATOM     13  C   UNL A   1      32.795  28.343  27.155  1.00  0.00     0.088 C 
ATOM     14  C   UNL A   1      31.863  28.112  26.031  1.00  0.00     0.111 A 
ATOM     15  O   UNL A   1      31.701  29.190  25.212  1.00  0.00    -0.469 OA
ATOM     16  C   UNL A   1      30.966  28.792  24.146  1.00  0.00     0.196 A 
ATOM     17  C   UNL A   1      30.636  27.464  24.271  1.00  0.00     0.054 A 
ENDBRANCH   8  12
ENDBRANCH   6   7
ENDBRANCH   5   6
BRANCH   5  18
ATOM     18  C   UNL A   1      34.170  24.721  23.566  1.00  0.00     0.020 C 
BRANCH  18  19
ATOM     19  C   UNL A   1      33.358  24.145  22.381  1.00  0.00    -0.017 C 
ATOM     20  C   UNL A   1      32.653  22.818  22.672  1.00  0.00     0.007 C 
ATOM     21  C   UNL A   1      32.291  25.166  21.980  1.00  0.00     0.007 C 
ENDBRANCH  18  19
ENDBRANCH   5  18
ENDBRANCH   3   5
ENDBRANCH   2   3
ENDBRANCH   1   2
BRANCH   1  22
ATOM     22  C   UNL A   1      37.667  20.831  24.982  1.00  0.00     0.275 C 
BRANCH  22  23
ATOM     23  O   UNL A   1      38.809  21.281  25.699  1.00  0.00    -0.458 OA
BRANCH  23  24
ATOM     24  C   UNL A   1      39.784  20.357  25.805  1.00  0.00     0.338 C 
ATOM     25  O   UNL A   1      39.697  19.163  25.522  1.00  0.00    -0.246 OA
BRANCH  24  26
ATOM     26  C   UNL A   1      40.962  20.938  26.434  1.00  0.00     0.060 A 
ATOM     27  C   UNL A   1      40.966  20.951  27.833  1.00  0.00     0.016 A 
ATOM     28  C   UNL A   1      41.705  21.833  25.667  1.00  0.00     0.016 A 
ATOM     29  C   UNL A   1      41.463  22.064  28.463  1.00  0.00     0.010 A 
ATOM     30  C   UNL A   1      42.143  22.967  26.289  1.00  0.00     0.010 A 
ATOM     31  C   UNL A   1      41.936  23.100  27.663  1.00  0.00    -0.014 A 
BRANCH  31  32
ATOM     32  C   UNL A   1      42.245  24.366  28.281  1.00  0.00     0.031 A 
ATOM     33  C   UNL A   1      41.185  25.367  28.092  1.00  0.00     0.074 A 
ATOM     34  C   UNL A   1      43.296  24.511  29.104  1.00  0.00     0.049 A 
ATOM     35  N   UNL A   1      41.183  26.383  27.296  1.00  0.00    -0.248 NA
ATOM     36  C   UNL A   1      39.869  25.051  28.675  1.00  0.00     0.031 C 
ATOM     37  C   UNL A   1      44.189  23.464  29.608  1.00  0.00     0.029 A 
ATOM     38  N   UNL A   1      43.696  25.619  29.775  1.00  0.00    -0.354 N 
ATOM     39  C   UNL A   1      39.935  26.963  27.479  1.00  0.00     0.074 A 
ATOM     40  C   UNL A   1      39.108  25.934  28.034  1.00  0.00     0.031 C 
ATOM     41  C   UNL A   1      44.879  23.950  30.664  1.00  0.00     0.029 A 
ATOM     42  C   UNL A   1      44.558  25.359  30.830  1.00  0.00     0.049 A 
ATOM     43  H   UNL A   1      43.401  26.528  29.536  1.00  0.00     0.167 HD
ATOM     44  C   UNL A   1      39.775  28.314  27.493  1.00  0.00     0.034 A 
ATOM     45  C   UNL A   1      44.901  26.223  31.818  1.00  0.00     0.034 A 
ATOM     46  C   UNL A   1      40.956  28.966  26.961  1.00  0.00     0.049 A 
ATOM     47  C   UNL A   1      44.576  27.594  31.347  1.00  0.00     0.074 A 
ATOM     48  C   UNL A   1      41.610  28.955  25.745  1.00  0.00     0.029 A 
ATOM     49  N   UNL A   1      41.852  29.488  27.871  1.00  0.00    -0.354 N 
ATOM     50  N   UNL A   1      45.185  28.176  30.351  1.00  0.00    -0.248 NA
ATOM     51  C   UNL A   1      43.276  28.164  31.679  1.00  0.00     0.031 C 
ATOM     52  C   UNL A   1      42.995  29.097  26.054  1.00  0.00     0.029 A 
ATOM     53  C   UNL A   1      43.129  29.234  27.437  1.00  0.00     0.049 A 
ATOM     54  H   UNL A   1      41.613  29.966  28.699  1.00  0.00     0.167 HD
ATOM     55  C   UNL A   1      44.195  28.867  29.672  1.00  0.00     0.074 A 
ATOM     56  C   UNL A   1      43.082  28.945  30.611  1.00  0.00     0.031 C 
ATOM     57  C   UNL A   1      44.271  29.043  28.318  1.00  0.00     0.034 A 
BRANCH  44  58
ATOM     58  C   UNL A   1      38.764  29.053  28.358  1.00  0.00     0.023 A 
ATOM     59  C   UNL A   1      38.940  28.941  29.748  1.00  0.00     0.031 A 
ATOM     60  C   UNL A   1      37.533  29.628  27.955  1.00  0.00     0.131 A 
ATOM     61  C   UNL A   1      37.900  29.243  30.642  1.00  0.00     0.055 A 
ATOM     62  C   UNL A   1      36.520  29.979  28.852  1.00  0.00     0.041 A 
ATOM     63  F   UNL A   1      37.187  29.833  26.682  1.00  0.00    -0.206 F 
ATOM     64  C   UNL A   1      36.682  29.750  30.202  1.00  0.00     0.022 A 
BRANCH  61  65
ATOM     65  S   UNL A   1      38.111  28.787  32.377  1.00  0.00     0.124 S 
ATOM     66  O   UNL A   1      38.279  27.340  32.281  1.00  0.00    -0.237 OA
ATOM     67  O   UNL A   1      39.297  29.555  32.740  1.00  0.00    -0.237 OA
ATOM     68  O   UNL A   1      36.864  29.231  32.994  1.00  0.00    -0.744 OA
ENDBRANCH  61  65
ENDBRANCH  44  58
BRANCH  45  69
ATOM     69  C   UNL A   1      45.190  25.879  33.231  1.00  0.00     0.023 A 
ATOM     70  C   UNL A   1      44.209  25.914  34.239  1.00  0.00     0.031 A 
ATOM     71  C   UNL A   1      46.433  25.295  33.566  1.00  0.00     0.131 A 
ATOM     72  C   UNL A   1      44.492  25.385  35.518  1.00  0.00     0.055 A 
ATOM     73  C   UNL A   1      46.712  24.787  34.836  1.00  0.00     0.041 A 
ATOM     74  F   UNL A   1      47.394  25.127  32.642  1.00  0.00    -0.206 F 
ATOM     75  C   UNL A   1      45.737  24.824  35.818  1.00  0.00     0.022 A 
BRANCH  72  76
ATOM     76  S   UNL A   1      43.197  25.346  36.797  1.00  0.00     0.124 S 
ATOM     77  O   UNL A   1      43.935  24.913  37.978  1.00  0.00    -0.237 OA
ATOM     78  O   UNL A   1      42.722  26.725  36.797  1.00  0.00    -0.237 OA
ATOM     79  O   UNL A   1      42.237  24.369  36.281  1.00  0.00    -0.744 OA
ENDBRANCH  72  76
ENDBRANCH  45  69
BRANCH  57  80
ATOM     80  C   UNL A   1      45.617  28.811  27.662  1.00  0.00     0.023 A 
ATOM     81  C   UNL A   1      46.014  27.602  27.047  1.00  0.00     0.031 A 
ATOM     82  C   UNL A   1      46.500  29.902  27.585  1.00  0.00     0.131 A 
ATOM     83  C   UNL A   1      47.261  27.514  26.402  1.00  0.00     0.055 A 
ATOM     84  C   UNL A   1      47.726  29.819  26.925  1.00  0.00     0.041 A 
ATOM     85  F   UNL A   1      46.167  31.086  28.125  1.00  0.00    -0.206 F 
ATOM     86  C   UNL A   1      48.114  28.620  26.337  1.00  0.00     0.022 A 
BRANCH  83  87
ATOM     87  S   UNL A   1      47.808  25.946  25.653  1.00  0.00     0.124 S 
ATOM     88  O   UNL A   1      47.064  25.886  24.401  1.00  0.00    -0.237 OA
ATOM     89  O   UNL A   1      49.250  26.143  25.530  1.00  0.00    -0.237 OA
ATOM     90  O   UNL A   1      47.416  24.942  26.643  1.00  0.00    -0.744 OA
ENDBRANCH  83  87
ENDBRANCH  57  80
ENDBRANCH  31  32
ENDBRANCH  24  26
ENDBRANCH  23  24
ENDBRANCH  22  23
ENDBRANCH   1  22
TORSDOF 19
ENDMDL
MODEL 2
REMARK VINA RESULT:     -11.0      1.333      2.429
REMARK SMILES Cc1occc1-c1nnnn1C[C@@H](CC(C)C)C(=O)OCCOC(=O)c1ccc(-c2c3nc(c(-c4cc(S(=O)(=O)[O-])ccc4F)c4ccc([nH]4)c(-c4cc(S(=O)(=O)[O-])ccc4F)c4nc(c(-c5cc(S(=O)(=O)[O-])ccc5F)c5ccc2[nH]5)C=C4)C=C3)cc1
REMARK SMILES IDX 21 1 20 2 18 3 19 4 13 5 12 6 11 7 7 8 8 9 9 10 10 11 6 12
REMARK SMILES IDX 1 13 2 14 3 15 4 16 5 17 14 18 15 19 16 20 17 21 22 22 23 23
REMARK SMILES IDX 24 24 25 25 26 26 27 27 88 28 28 29 87 30 29 31 30 32 31 33
REMARK SMILES IDX 81 34 32 35 86 36 80 37 82 38 33 39 85 40 79 41 78 42 34 44
REMARK SMILES IDX 66 45 46 46 65 47 47 48 50 49 64 50 83 51 48 52 49 53 63 55
REMARK SMILES IDX 84 56 51 57 35 58 36 59 44 60 37 61 43 62 45 63 42 64 38 65
REMARK SMILES IDX 39 66 40 67 41 68 67 69 68 70 76 71 69 72 75 73 77 74 74 75
REMARK SMILES IDX 70 76 71 77 72 78 73 79 52 80 53 81 61 82 54 83 60 84 62 85
REMARK SMILES IDX 59 86 55 87 56 88 57 89 58 90
REMARK H PARENT 82 43 50 54
REMARK Flexibility Score: inf
ROOT
ATOM      1  C   UNL A   1      37.526  23.016  24.863  1.00  0.00     0.274 C 
ENDROOT
BRANCH   1   2
ATOM      2  O   UNL A   1      36.179  23.339  25.273  1.00  0.00    -0.462 OA
BRANCH   2   3
ATOM      3  C   UNL A   1      35.260  23.568  24.300  1.00  0.00     0.310 C 
ATOM      4  O   UNL A   1      35.448  23.377  23.105  1.00  0.00    -0.252 OA
BRANCH   3   5
ATOM      5  C   UNL A   1      33.999  24.220  24.839  1.00  0.00     0.121 C 
BRANCH   5   6
ATOM      6  C   UNL A   1      33.709  23.902  26.321  1.00  0.00     0.164 C 
BRANCH   6   7
ATOM      7  N   UNL A   1      32.384  23.360  26.574  1.00  0.00    -0.224 N 
ATOM      8  C   UNL A   1      31.736  22.295  25.991  1.00  0.00     0.185 A 
ATOM      9  N   UNL A   1      30.440  22.492  26.154  1.00  0.00    -0.108 NA
ATOM     10  N   UNL A   1      30.312  23.566  26.993  1.00  0.00    -0.023 NA
ATOM     11  N   UNL A   1      31.495  24.081  27.287  1.00  0.00    -0.045 NA
BRANCH   8  12
ATOM     12  C   UNL A   1      32.286  21.120  25.272  1.00  0.00     0.062 A 
ATOM     13  C   UNL A   1      32.145  21.752  22.699  1.00  0.00     0.088 C 
ATOM     14  C   UNL A   1      32.395  20.938  23.907  1.00  0.00     0.111 A 
ATOM     15  O   UNL A   1      32.962  19.724  23.654  1.00  0.00    -0.469 OA
ATOM     16  C   UNL A   1      33.287  19.164  24.844  1.00  0.00     0.196 A 
ATOM     17  C   UNL A   1      32.923  19.999  25.873  1.00  0.00     0.054 A 
ENDBRANCH   8  12
ENDBRANCH   6   7
ENDBRANCH   5   6
BRANCH   5  18
ATOM     18  C   UNL A   1      34.021  25.700  24.407  1.00  0.00     0.020 C 
BRANCH  18  19
ATOM     19  C   UNL A   1      32.898  26.224  23.481  1.00  0.00    -0.017 C 
ATOM     20  C   UNL A   1      33.275  26.311  22.000  1.00  0.00     0.007 C 
ATOM     21  C   UNL A   1      31.690  25.290  23.605  1.00  0.00     0.007 C 
ENDBRANCH  18  19
ENDBRANCH   5  18
ENDBRANCH   3   5
ENDBRANCH   2   3
ENDBRANCH   1   2
BRANCH   1  22
ATOM     22  C   UNL A   1      37.814  21.534  25.030  1.00  0.00     0.275 C 
BRANCH  22  23
ATOM     23  O   UNL A   1      38.628  21.353  26.181  1.00  0.00    -0.458 OA
BRANCH  23  24
ATOM     24  C   UNL A   1      39.702  20.566  25.971  1.00  0.00     0.338 C 
ATOM     25  O   UNL A   1      39.699  19.440  25.475  1.00  0.00    -0.246 OA
BRANCH  24  26
ATOM     26  C   UNL A   1      40.895  21.181  26.535  1.00  0.00     0.060 A 
ATOM     27  C   UNL A   1      41.015  21.120  27.927  1.00  0.00     0.016 A 
ATOM     28  C   UNL A   1      41.522  22.157  25.762  1.00  0.00     0.016 A 
ATOM     29  C   UNL A   1      41.504  22.225  28.577  1.00  0.00     0.010 A 
ATOM     30  C   UNL A   1      41.949  23.280  26.411  1.00  0.00     0.010 A 
ATOM     31  C   UNL A   1      41.852  23.328  27.803  1.00  0.00    -0.014 A 
BRANCH  31  32
ATOM     32  C   UNL A   1      42.143  24.575  28.465  1.00  0.00     0.031 A 
ATOM     33  C   UNL A   1      41.117  25.602  28.227  1.00  0.00     0.074 A 
ATOM     34  C   UNL A   1      43.139  24.683  29.359  1.00  0.00     0.049 A 
ATOM     35  N   UNL A   1      41.188  26.632  27.453  1.00  0.00    -0.248 NA
ATOM     36  C   UNL A   1      39.760  25.301  28.715  1.00  0.00     0.031 C 
ATOM     37  C   UNL A   1      43.977  23.609  29.900  1.00  0.00     0.029 A 
ATOM     38  N   UNL A   1      43.515  25.770  30.078  1.00  0.00    -0.354 N 
ATOM     39  C   UNL A   1      39.941  27.234  27.565  1.00  0.00     0.074 A 
ATOM     40  C   UNL A   1      39.060  26.212  28.044  1.00  0.00     0.031 C 
ATOM     41  C   UNL A   1      44.604  24.060  31.009  1.00  0.00     0.029 A 
ATOM     42  C   UNL A   1      44.300  25.473  31.182  1.00  0.00     0.049 A 
ATOM     43  H   UNL A   1      43.254  26.689  29.837  1.00  0.00     0.167 HD
ATOM     44  C   UNL A   1      39.807  28.587  27.596  1.00  0.00     0.034 A 
ATOM     45  C   UNL A   1      44.593  26.311  32.207  1.00  0.00     0.034 A 
ATOM     46  C   UNL A   1      41.033  29.225  27.157  1.00  0.00     0.049 A 
ATOM     47  C   UNL A   1      44.327  27.696  31.744  1.00  0.00     0.074 A 
ATOM     48  C   UNL A   1      41.767  29.224  25.986  1.00  0.00     0.029 A 
ATOM     49  N   UNL A   1      41.876  29.711  28.134  1.00  0.00    -0.354 N 
ATOM     50  N   UNL A   1      45.012  28.285  30.802  1.00  0.00    -0.248 NA
ATOM     51  C   UNL A   1      43.018  28.286  32.000  1.00  0.00     0.031 C 
ATOM     52  C   UNL A   1      43.130  29.331  26.389  1.00  0.00     0.029 A 
ATOM     53  C   UNL A   1      43.174  29.439  27.781  1.00  0.00     0.049 A 
ATOM     54  H   UNL A   1      41.592  30.178  28.953  1.00  0.00     0.167 HD
ATOM     55  C   UNL A   1      44.082  29.009  30.073  1.00  0.00     0.074 A 
ATOM     56  C   UNL A   1      42.911  29.091  30.937  1.00  0.00     0.031 C 
ATOM     57  C   UNL A   1      44.251  29.209  28.731  1.00  0.00     0.034 A 
BRANCH  44  58
ATOM     58  C   UNL A   1      38.755  29.330  28.406  1.00  0.00     0.023 A 
ATOM     59  C   UNL A   1      38.981  29.406  29.792  1.00  0.00     0.031 A 
ATOM     60  C   UNL A   1      37.463  29.736  27.988  1.00  0.00     0.131 A 
ATOM     61  C   UNL A   1      37.943  29.718  30.685  1.00  0.00     0.055 A 
ATOM     62  C   UNL A   1      36.448  30.100  28.877  1.00  0.00     0.041 A 
ATOM     63  F   UNL A   1      37.062  29.751  26.714  1.00  0.00    -0.206 F 
ATOM     64  C   UNL A   1      36.671  30.053  30.238  1.00  0.00     0.022 A 
BRANCH  61  65
ATOM     65  S   UNL A   1      38.248  29.500  32.452  1.00  0.00     0.124 S 
ATOM     66  O   UNL A   1      37.463  28.303  32.739  1.00  0.00    -0.237 OA
ATOM     67  O   UNL A   1      39.698  29.348  32.484  1.00  0.00    -0.237 OA
ATOM     68  O   UNL A   1      37.734  30.737  33.035  1.00  0.00    -0.744 OA
ENDBRANCH  61  65
ENDBRANCH  44  58
BRANCH  45  69
ATOM     69  C   UNL A   1      44.781  25.934  33.629  1.00  0.00     0.023 A 
ATOM     70  C   UNL A   1      43.863  26.284  34.637  1.00  0.00     0.031 A 
ATOM     71  C   UNL A   1      45.799  25.018  33.979  1.00  0.00     0.131 A 
ATOM     72  C   UNL A   1      43.989  25.729  35.930  1.00  0.00     0.055 A 
ATOM     73  C   UNL A   1      45.928  24.484  35.262  1.00  0.00     0.041 A 
ATOM     74  F   UNL A   1      46.659  24.550  33.059  1.00  0.00    -0.206 F 
ATOM     75  C   UNL A   1      45.015  24.834  36.244  1.00  0.00     0.022 A 
BRANCH  72  76
ATOM     76  S   UNL A   1      42.752  26.107  37.211  1.00  0.00     0.124 S 
ATOM     77  O   UNL A   1      42.226  27.394  36.770  1.00  0.00    -0.237 OA
ATOM     78  O   UNL A   1      41.847  24.967  37.112  1.00  0.00    -0.237 OA
ATOM     79  O   UNL A   1      43.540  26.156  38.443  1.00  0.00    -0.744 OA
ENDBRANCH  72  76
ENDBRANCH  45  69
BRANCH  57  80
ATOM     80  C   UNL A   1      45.634  28.961  28.161  1.00  0.00     0.023 A 
ATOM     81  C   UNL A   1      46.086  27.719  27.660  1.00  0.00     0.031 A 
ATOM     82  C   UNL A   1      46.496  30.065  28.044  1.00  0.00     0.131 A 
ATOM     83  C   UNL A   1      47.366  27.614  27.085  1.00  0.00     0.055 A 
ATOM     84  C   UNL A   1      47.755  29.963  27.453  1.00  0.00     0.041 A 
ATOM     85  F   UNL A   1      46.112  31.278  28.476  1.00  0.00    -0.206 F 
ATOM     86  C   UNL A   1      48.198  28.733  26.978  1.00  0.00     0.022 A 
BRANCH  83  87
ATOM     87  S   UNL A   1      47.983  26.009  26.485  1.00  0.00     0.124 S 
ATOM     88  O   UNL A   1      47.310  25.840  25.203  1.00  0.00    -0.237 OA
ATOM     89  O   UNL A   1      49.425  26.229  26.426  1.00  0.00    -0.237 OA
ATOM     90  O   UNL A   1      47.556  25.071  27.525  1.00  0.00    -0.744 OA
ENDBRANCH  83  87
ENDBRANCH  57  80
ENDBRANCH  31  32
ENDBRANCH  24  26
ENDBRANCH  23  24
ENDBRANCH  22  23
ENDBRANCH   1  22
TORSDOF 19
ENDMDL
MODEL 3
REMARK VINA RESULT:     -10.6      3.658      7.617
REMARK SMILES Cc1occc1-c1nnnn1C[C@@H](CC(C)C)C(=O)OCCOC(=O)c1ccc(-c2c3nc(c(-c4cc(S(=O)(=O)[O-])ccc4F)c4ccc([nH]4)c(-c4cc(S(=O)(=O)[O-])ccc4F)c4nc(c(-c5cc(S(=O)(=O)[O-])ccc5F)c5ccc2[nH]5)C=C4)C=C3)cc1
REMARK SMILES IDX 21 1 20 2 18 3 19 4 13 5 12 6 11 7 7 8 8 9 9 10 10 11 6 12
REMARK SMILES IDX 1 13 2 14 3 15 4 16 5 17 14 18 15 19 16 20 17 21 22 22 23 23
REMARK SMILES IDX 24 24 25 25 26 26 27 27 88 28 28 29 87 30 29 31 30 32 31 33
REMARK SMILES IDX 81 34 32 35 86 36 80 37 82 38 33 39 85 40 79 41 78 42 34 44
REMARK SMILES IDX 66 45 46 46 65 47 47 48 50 49 64 50 83 51 48 52 49 53 63 55
REMARK SMILES IDX 84 56 51 57 35 58 36 59 44 60 37 61 43 62 45 63 42 64 38 65
REMARK SMILES IDX 39 66 40 67 41 68 67 69 68 70 76 71 69 72 75 73 77 74 74 75
REMARK SMILES IDX 70 76 71 77 72 78 73 79 52 80 53 81 61 82 54 83 60 84 62 85
REMARK SMILES IDX 59 86 55 87 56 88 57 89 58 90
REMARK H PARENT 82 43 50 54
REMARK Flexibility Score: inf
ROOT
ATOM      1  C   UNL A   1      36.723  23.737  25.756  1.00  0.00     0.274 C 
ENDROOT
BRANCH   1   2
ATOM      2  O   UNL A   1      35.723  22.697  25.689  1.00  0.00    -0.462 OA
BRANCH   2   3
ATOM      3  C   UNL A   1      34.651  22.796  26.516  1.00  0.00     0.310 C 
ATOM      4  O   UNL A   1      34.688  22.633  27.729  1.00  0.00    -0.252 OA
BRANCH   3   5
ATOM      5  C   UNL A   1      33.353  23.003  25.755  1.00  0.00     0.121 C 
BRANCH   5   6
ATOM      6  C   UNL A   1      32.675  24.363  26.022  1.00  0.00     0.164 C 
BRANCH   6   7
ATOM      7  N   UNL A   1      31.239  24.290  26.240  1.00  0.00    -0.224 N 
ATOM      8  C   UNL A   1      30.257  25.222  25.994  1.00  0.00     0.185 A 
ATOM      9  N   UNL A   1      29.242  24.937  26.789  1.00  0.00    -0.108 NA
ATOM     10  N   UNL A   1      29.531  23.732  27.373  1.00  0.00    -0.023 NA
ATOM     11  N   UNL A   1      30.734  23.310  27.014  1.00  0.00    -0.045 NA
BRANCH   8  12
ATOM     12  C   UNL A   1      30.247  26.375  25.061  1.00  0.00     0.062 A 
ATOM     13  C   UNL A   1      32.045  28.068  26.031  1.00  0.00     0.088 C 
ATOM     14  C   UNL A   1      30.983  27.540  25.149  1.00  0.00     0.111 A 
ATOM     15  O   UNL A   1      30.689  28.345  24.088  1.00  0.00    -0.469 OA
ATOM     16  C   UNL A   1      29.833  27.670  23.283  1.00  0.00     0.196 A 
ATOM     17  C   UNL A   1      29.556  26.436  23.819  1.00  0.00     0.054 A 
ENDBRANCH   8  12
ENDBRANCH   6   7
ENDBRANCH   5   6
BRANCH   5  18
ATOM     18  C   UNL A   1      33.604  22.596  24.289  1.00  0.00     0.020 C 
BRANCH  18  19
ATOM     19  C   UNL A   1      33.023  21.256  23.777  1.00  0.00    -0.017 C 
ATOM     20  C   UNL A   1      32.218  20.468  24.813  1.00  0.00     0.007 C 
ATOM     21  C   UNL A   1      32.103  21.547  22.589  1.00  0.00     0.007 C 
ENDBRANCH  18  19
ENDBRANCH   5  18
ENDBRANCH   3   5
ENDBRANCH   2   3
ENDBRANCH   1   2
BRANCH   1  22
ATOM     22  C   UNL A   1      38.085  23.172  26.122  1.00  0.00     0.275 C 
BRANCH  22  23
ATOM     23  O   UNL A   1      38.767  24.115  26.937  1.00  0.00    -0.458 OA
BRANCH  23  24
ATOM     24  C   UNL A   1      40.009  23.730  27.294  1.00  0.00     0.338 C 
ATOM     25  O   UNL A   1      40.339  22.625  27.722  1.00  0.00    -0.246 OA
BRANCH  24  26
ATOM     26  C   UNL A   1      40.925  24.859  27.223  1.00  0.00     0.060 A 
ATOM     27  C   UNL A   1      41.896  24.924  28.227  1.00  0.00     0.016 A 
ATOM     28  C   UNL A   1      40.485  25.981  26.521  1.00  0.00     0.016 A 
ATOM     29  C   UNL A   1      42.196  26.156  28.751  1.00  0.00     0.010 A 
ATOM     30  C   UNL A   1      40.735  27.200  27.083  1.00  0.00     0.010 A 
ATOM     31  C   UNL A   1      41.515  27.257  28.240  1.00  0.00    -0.014 A 
BRANCH  31  32
ATOM     32  C   UNL A   1      41.633  28.522  28.921  1.00  0.00     0.031 A 
ATOM     33  C   UNL A   1      42.796  29.305  28.476  1.00  0.00     0.074 A 
ATOM     34  C   UNL A   1      40.656  28.990  29.714  1.00  0.00     0.049 A 
ATOM     35  N   UNL A   1      43.913  29.493  29.096  1.00  0.00    -0.248 NA
ATOM     36  C   UNL A   1      42.812  29.713  27.060  1.00  0.00     0.031 C 
ATOM     37  C   UNL A   1      39.323  28.419  29.924  1.00  0.00     0.029 A 
ATOM     38  N   UNL A   1      40.609  30.163  30.394  1.00  0.00    -0.354 N 
ATOM     39  C   UNL A   1      44.669  30.259  28.219  1.00  0.00     0.074 A 
ATOM     40  C   UNL A   1      44.092  30.050  26.926  1.00  0.00     0.031 C 
ATOM     41  C   UNL A   1      38.533  29.353  30.498  1.00  0.00     0.029 A 
ATOM     42  C   UNL A   1      39.334  30.532  30.795  1.00  0.00     0.049 A 
ATOM     43  H   UNL A   1      41.409  30.704  30.587  1.00  0.00     0.167 HD
ATOM     44  C   UNL A   1      45.471  31.264  28.665  1.00  0.00     0.034 A 
ATOM     45  C   UNL A   1      38.956  31.753  31.248  1.00  0.00     0.034 A 
ATOM     46  C   UNL A   1      45.664  31.155  30.098  1.00  0.00     0.049 A 
ATOM     47  C   UNL A   1      40.185  32.474  31.668  1.00  0.00     0.074 A 
ATOM     48  C   UNL A   1      46.215  30.207  30.938  1.00  0.00     0.029 A 
ATOM     49  N   UNL A   1      44.903  31.979  30.901  1.00  0.00    -0.354 N 
ATOM     50  N   UNL A   1      40.926  32.107  32.677  1.00  0.00    -0.248 NA
ATOM     51  C   UNL A   1      40.856  33.343  30.708  1.00  0.00     0.031 C 
ATOM     52  C   UNL A   1      45.446  30.264  32.137  1.00  0.00     0.029 A 
ATOM     53  C   UNL A   1      44.488  31.271  32.001  1.00  0.00     0.049 A 
ATOM     54  H   UNL A   1      44.692  32.922  30.715  1.00  0.00     0.167 HD
ATOM     55  C   UNL A   1      42.232  32.323  32.268  1.00  0.00     0.074 A 
ATOM     56  C   UNL A   1      42.122  33.215  31.119  1.00  0.00     0.031 C 
ATOM     57  C   UNL A   1      43.245  31.521  32.715  1.00  0.00     0.034 A 
BRANCH  44  58
ATOM     58  C   UNL A   1      45.728  32.560  27.911  1.00  0.00     0.023 A 
ATOM     59  C   UNL A   1      44.692  33.510  27.941  1.00  0.00     0.031 A 
ATOM     60  C   UNL A   1      46.764  32.834  26.983  1.00  0.00     0.131 A 
ATOM     61  C   UNL A   1      44.634  34.557  27.007  1.00  0.00     0.055 A 
ATOM     62  C   UNL A   1      46.731  33.910  26.092  1.00  0.00     0.041 A 
ATOM     63  F   UNL A   1      47.841  32.062  26.817  1.00  0.00    -0.206 F 
ATOM     64  C   UNL A   1      45.642  34.758  26.071  1.00  0.00     0.022 A 
BRANCH  61  65
ATOM     65  S   UNL A   1      43.123  35.544  26.928  1.00  0.00     0.124 S 
ATOM     66  O   UNL A   1      42.518  35.053  25.694  1.00  0.00    -0.237 OA
ATOM     67  O   UNL A   1      42.460  35.166  28.171  1.00  0.00    -0.237 OA
ATOM     68  O   UNL A   1      43.622  36.916  26.876  1.00  0.00    -0.744 OA
ENDBRANCH  61  65
ENDBRANCH  44  58
BRANCH  45  69
ATOM     69  C   UNL A   1      37.644  32.409  31.032  1.00  0.00     0.023 A 
ATOM     70  C   UNL A   1      36.824  32.839  32.091  1.00  0.00     0.031 A 
ATOM     71  C   UNL A   1      37.273  32.813  29.729  1.00  0.00     0.131 A 
ATOM     72  C   UNL A   1      35.687  33.634  31.825  1.00  0.00     0.055 A 
ATOM     73  C   UNL A   1      36.140  33.585  29.470  1.00  0.00     0.041 A 
ATOM     74  F   UNL A   1      38.048  32.534  28.668  1.00  0.00    -0.206 F 
ATOM     75  C   UNL A   1      35.344  34.006  30.522  1.00  0.00     0.022 A 
BRANCH  72  76
ATOM     76  S   UNL A   1      34.675  34.269  33.199  1.00  0.00     0.124 S 
ATOM     77  O   UNL A   1      35.185  35.625  33.364  1.00  0.00    -0.237 OA
ATOM     78  O   UNL A   1      33.322  34.144  32.668  1.00  0.00    -0.237 OA
ATOM     79  O   UNL A   1      34.985  33.358  34.301  1.00  0.00    -0.744 OA
ENDBRANCH  72  76
ENDBRANCH  45  69
BRANCH  57  80
ATOM     80  C   UNL A   1      42.966  30.667  33.935  1.00  0.00     0.023 A 
ATOM     81  C   UNL A   1      42.479  29.340  33.893  1.00  0.00     0.031 A 
ATOM     82  C   UNL A   1      43.297  31.200  35.193  1.00  0.00     0.131 A 
ATOM     83  C   UNL A   1      42.322  28.607  35.085  1.00  0.00     0.055 A 
ATOM     84  C   UNL A   1      43.162  30.464  36.369  1.00  0.00     0.041 A 
ATOM     85  F   UNL A   1      43.791  32.445  35.295  1.00  0.00    -0.206 F 
ATOM     86  C   UNL A   1      42.666  29.166  36.320  1.00  0.00     0.022 A 
BRANCH  83  87
ATOM     87  S   UNL A   1      41.644  26.918  35.050  1.00  0.00     0.124 S 
ATOM     88  O   UNL A   1      40.521  27.017  34.125  1.00  0.00    -0.237 OA
ATOM     89  O   UNL A   1      42.784  26.131  34.588  1.00  0.00    -0.237 OA
ATOM     90  O   UNL A   1      41.265  26.675  36.443  1.00  0.00    -0.744 OA
ENDBRANCH  83  87
ENDBRANCH  57  80
ENDBRANCH  31  32
ENDBRANCH  24  26
ENDBRANCH  23  24
ENDBRANCH  22  23
ENDBRANCH   1  22
TORSDOF 19
ENDMDL
