MODEL 1
REMARK VINA RESULT:     -12.6      0.000      0.000
REMARK SMILES O=C(OCCOC(=O)[C@H]1Cc2[nH]cnc2CN1C(=O)c1ccncc1Cl)c1ccc(-c2c3nc(c(-c4cc(S(=O)(=O)[O-])ccc4F)c4ccc([nH]4)c(-c4cc(S(=O)(=O)[O-])ccc4F)c4nc(c(-c5cc(S(=O)(=O)[O-])ccc5F)c5ccc2[nH]5)C=C4)C=C3)cc1
REMARK SMILES IDX 4 1 3 2 2 3 1 4 27 5 28 6 89 7 29 8 88 9 30 10 31 11 32 12
REMARK SMILES IDX 82 13 33 14 87 15 81 16 83 17 34 18 86 19 80 20 79 21 35 23
REMARK SMILES IDX 67 24 47 25 66 26 48 27 51 28 65 29 84 30 49 31 50 32 64 34
REMARK SMILES IDX 85 35 52 36 36 37 37 38 45 39 38 40 44 41 46 42 43 43 39 44
REMARK SMILES IDX 40 45 41 46 42 47 68 48 69 49 77 50 70 51 76 52 78 53 75 54
REMARK SMILES IDX 71 55 72 56 73 57 74 58 53 59 54 60 62 61 55 62 61 63 63 64
REMARK SMILES IDX 60 65 56 66 57 67 58 68 59 69 5 70 6 71 7 72 8 73 9 74 10 75
REMARK SMILES IDX 17 76 11 77 16 78 12 79 15 80 13 81 14 83 18 84 19 85 20 86
REMARK SMILES IDX 21 87 25 88 22 89 24 90 26 91 23 92
REMARK H PARENT 83 22 51 33 12 82
REMARK Flexibility Score: inf
ROOT
ATOM      1  C   UNL A   1      32.778  30.728  27.311  1.00  0.00     0.275 C 
ENDROOT
BRANCH   1   2
ATOM      2  O   UNL A   1      34.130  31.163  27.100  1.00  0.00    -0.458 OA
BRANCH   2   3
ATOM      3  C   UNL A   1      34.818  31.700  28.132  1.00  0.00     0.338 C 
ATOM      4  O   UNL A   1      34.363  32.525  28.898  1.00  0.00    -0.246 OA
BRANCH   3   5
ATOM      5  C   UNL A   1      36.111  31.020  28.376  1.00  0.00     0.060 A 
ATOM      6  C   UNL A   1      36.306  29.656  28.140  1.00  0.00     0.016 A 
ATOM      7  C   UNL A   1      37.169  31.809  28.844  1.00  0.00     0.016 A 
ATOM      8  C   UNL A   1      37.527  29.070  28.428  1.00  0.00     0.010 A 
ATOM      9  C   UNL A   1      38.397  31.222  29.129  1.00  0.00     0.010 A 
ATOM     10  C   UNL A   1      38.562  29.849  28.948  1.00  0.00    -0.014 A 
BRANCH  10  11
ATOM     11  C   UNL A   1      39.819  29.175  29.235  1.00  0.00     0.031 A 
ATOM     12  C   UNL A   1      40.168  28.998  30.668  1.00  0.00     0.074 A 
ATOM     13  C   UNL A   1      40.593  28.602  28.297  1.00  0.00     0.049 A 
ATOM     14  N   UNL A   1      41.113  29.559  31.348  1.00  0.00    -0.248 NA
ATOM     15  C   UNL A   1      39.281  28.149  31.471  1.00  0.00     0.031 C 
ATOM     16  C   UNL A   1      40.288  28.382  26.884  1.00  0.00     0.029 A 
ATOM     17  N   UNL A   1      41.795  27.990  28.464  1.00  0.00    -0.354 N 
ATOM     18  C   UNL A   1      41.079  28.979  32.617  1.00  0.00     0.074 A 
ATOM     19  C   UNL A   1      39.833  28.261  32.680  1.00  0.00     0.031 C 
ATOM     20  C   UNL A   1      41.175  27.495  26.380  1.00  0.00     0.029 A 
ATOM     21  C   UNL A   1      42.179  27.203  27.392  1.00  0.00     0.049 A 
ATOM     22  H   UNL A   1      42.344  28.097  29.276  1.00  0.00     0.167 HD
ATOM     23  C   UNL A   1      42.161  28.976  33.448  1.00  0.00     0.034 A 
ATOM     24  C   UNL A   1      43.210  26.324  27.361  1.00  0.00     0.034 A 
ATOM     25  C   UNL A   1      43.165  29.916  33.009  1.00  0.00     0.049 A 
ATOM     26  C   UNL A   1      44.171  26.725  28.419  1.00  0.00     0.074 A 
ATOM     27  C   UNL A   1      43.183  31.277  32.766  1.00  0.00     0.029 A 
ATOM     28  N   UNL A   1      44.309  29.431  32.414  1.00  0.00    -0.354 N 
ATOM     29  N   UNL A   1      44.847  27.841  28.390  1.00  0.00    -0.248 NA
ATOM     30  C   UNL A   1      44.068  26.106  29.733  1.00  0.00     0.031 C 
ATOM     31  C   UNL A   1      44.004  31.427  31.609  1.00  0.00     0.029 A 
ATOM     32  C   UNL A   1      44.484  30.161  31.264  1.00  0.00     0.049 A 
ATOM     33  H   UNL A   1      44.885  28.706  32.746  1.00  0.00     0.167 HD
ATOM     34  C   UNL A   1      44.887  28.279  29.705  1.00  0.00     0.074 A 
ATOM     35  C   UNL A   1      44.496  27.116  30.497  1.00  0.00     0.031 C 
ATOM     36  C   UNL A   1      44.961  29.608  30.012  1.00  0.00     0.034 A 
BRANCH  23  37
ATOM     37  C   UNL A   1      42.475  27.921  34.492  1.00  0.00     0.023 A 
ATOM     38  C   UNL A   1      43.237  26.806  34.082  1.00  0.00     0.031 A 
ATOM     39  C   UNL A   1      41.857  27.800  35.757  1.00  0.00     0.131 A 
ATOM     40  C   UNL A   1      43.270  25.626  34.844  1.00  0.00     0.055 A 
ATOM     41  C   UNL A   1      41.962  26.652  36.550  1.00  0.00     0.041 A 
ATOM     42  F   UNL A   1      41.042  28.736  36.255  1.00  0.00    -0.206 F 
ATOM     43  C   UNL A   1      42.641  25.542  36.081  1.00  0.00     0.022 A 
BRANCH  40  44
ATOM     44  S   UNL A   1      43.974  24.136  34.087  1.00  0.00     0.124 S 
ATOM     45  O   UNL A   1      45.188  23.955  34.877  1.00  0.00    -0.237 OA
ATOM     46  O   UNL A   1      42.912  23.159  34.303  1.00  0.00    -0.237 OA
ATOM     47  O   UNL A   1      44.187  24.532  32.697  1.00  0.00    -0.744 OA
ENDBRANCH  40  44
ENDBRANCH  23  37
BRANCH  24  48
ATOM     48  C   UNL A   1      43.244  25.030  26.641  1.00  0.00     0.023 A 
ATOM     49  C   UNL A   1      42.392  23.961  26.972  1.00  0.00     0.031 A 
ATOM     50  C   UNL A   1      43.995  24.902  25.449  1.00  0.00     0.131 A 
ATOM     51  C   UNL A   1      42.327  22.824  26.136  1.00  0.00     0.055 A 
ATOM     52  C   UNL A   1      43.941  23.770  24.637  1.00  0.00     0.041 A 
ATOM     53  F   UNL A   1      44.747  25.915  24.989  1.00  0.00    -0.206 F 
ATOM     54  C   UNL A   1      43.098  22.725  24.975  1.00  0.00     0.022 A 
BRANCH  51  55
ATOM     55  S   UNL A   1      41.138  21.496  26.500  1.00  0.00     0.124 S 
ATOM     56  O   UNL A   1      39.905  22.019  25.920  1.00  0.00    -0.237 OA
ATOM     57  O   UNL A   1      41.736  20.348  25.828  1.00  0.00    -0.237 OA
ATOM     58  O   UNL A   1      41.149  21.422  27.962  1.00  0.00    -0.744 OA
ENDBRANCH  51  55
ENDBRANCH  24  48
BRANCH  36  59
ATOM     59  C   UNL A   1      45.290  30.601  28.916  1.00  0.00     0.023 A 
ATOM     60  C   UNL A   1      46.601  30.990  28.563  1.00  0.00     0.031 A 
ATOM     61  C   UNL A   1      44.237  31.049  28.097  1.00  0.00     0.131 A 
ATOM     62  C   UNL A   1      46.819  31.802  27.435  1.00  0.00     0.055 A 
ATOM     63  C   UNL A   1      44.457  31.838  26.968  1.00  0.00     0.041 A 
ATOM     64  F   UNL A   1      42.970  30.686  28.357  1.00  0.00    -0.206 F 
ATOM     65  C   UNL A   1      45.751  32.223  26.636  1.00  0.00     0.022 A 
BRANCH  62  66
ATOM     66  S   UNL A   1      48.502  32.331  26.988  1.00  0.00     0.124 S 
ATOM     67  O   UNL A   1      49.030  32.887  28.228  1.00  0.00    -0.237 OA
ATOM     68  O   UNL A   1      49.111  31.082  26.537  1.00  0.00    -0.237 OA
ATOM     69  O   UNL A   1      48.276  33.314  25.926  1.00  0.00    -0.744 OA
ENDBRANCH  62  66
ENDBRANCH  36  59
ENDBRANCH  10  11
ENDBRANCH   3   5
ENDBRANCH   2   3
ENDBRANCH   1   2
BRANCH   1  70
ATOM     70  C   UNL A   1      31.885  30.593  26.082  1.00  0.00     0.274 C 
BRANCH  70  71
ATOM     71  O   UNL A   1      31.495  29.235  25.774  1.00  0.00    -0.461 OA
BRANCH  71  72
ATOM     72  C   UNL A   1      32.328  28.569  24.917  1.00  0.00     0.329 C 
ATOM     73  O   UNL A   1      33.127  29.123  24.171  1.00  0.00    -0.250 OA
BRANCH  72  74
ATOM     74  C   UNL A   1      32.050  27.061  24.837  1.00  0.00     0.201 C 
ATOM     75  C   UNL A   1      31.443  26.529  26.172  1.00  0.00     0.093 C 
ATOM     76  N   UNL A   1      31.393  26.460  23.601  1.00  0.00    -0.318 N 
ATOM     77  C   UNL A   1      31.178  25.078  26.037  1.00  0.00     0.042 A 
ATOM     78  C   UNL A   1      31.395  24.977  23.519  1.00  0.00     0.179 C 
ATOM     79  N   UNL A   1      30.887  24.170  27.009  1.00  0.00    -0.348 N 
ATOM     80  C   UNL A   1      31.145  24.380  24.855  1.00  0.00     0.081 A 
ATOM     81  C   UNL A   1      30.692  22.966  26.384  1.00  0.00     0.197 A 
ATOM     82  H   UNL A   1      30.827  24.345  27.977  1.00  0.00     0.167 HD
ATOM     83  N   UNL A   1      30.857  23.060  25.081  1.00  0.00    -0.240 NA
BRANCH  76  84
ATOM     84  C   UNL A   1      30.922  27.088  22.450  1.00  0.00     0.256 C 
ATOM     85  O   UNL A   1      31.284  26.793  21.311  1.00  0.00    -0.269 OA
BRANCH  84  86
ATOM     86  C   UNL A   1      29.927  28.155  22.502  1.00  0.00     0.061 A 
ATOM     87  C   UNL A   1      30.297  29.413  22.018  1.00  0.00     0.035 A 
ATOM     88  C   UNL A   1      28.710  27.976  23.153  1.00  0.00     0.072 A 
ATOM     89  C   UNL A   1      29.380  30.440  22.135  1.00  0.00     0.112 A 
ATOM     90  C   UNL A   1      27.841  29.054  23.160  1.00  0.00     0.132 A 
ATOM     91  Cl  UNL A   1      28.253  26.501  23.917  1.00  0.00    -0.082 Cl
ATOM     92  N   UNL A   1      28.145  30.282  22.659  1.00  0.00    -0.263 NA
ENDBRANCH  84  86
ENDBRANCH  76  84
ENDBRANCH  72  74
ENDBRANCH  71  72
ENDBRANCH  70  71
ENDBRANCH   1  70
TORSDOF 16
ENDMDL
MODEL 2
REMARK VINA RESULT:     -12.6      1.283      1.521
REMARK SMILES O=C(OCCOC(=O)[C@H]1Cc2[nH]cnc2CN1C(=O)c1ccncc1Cl)c1ccc(-c2c3nc(c(-c4cc(S(=O)(=O)[O-])ccc4F)c4ccc([nH]4)c(-c4cc(S(=O)(=O)[O-])ccc4F)c4nc(c(-c5cc(S(=O)(=O)[O-])ccc5F)c5ccc2[nH]5)C=C4)C=C3)cc1
REMARK SMILES IDX 4 1 3 2 2 3 1 4 27 5 28 6 89 7 29 8 88 9 30 10 31 11 32 12
REMARK SMILES IDX 82 13 33 14 87 15 81 16 83 17 34 18 86 19 80 20 79 21 35 23
REMARK SMILES IDX 67 24 47 25 66 26 48 27 51 28 65 29 84 30 49 31 50 32 64 34
REMARK SMILES IDX 85 35 52 36 36 37 37 38 45 39 38 40 44 41 46 42 43 43 39 44
REMARK SMILES IDX 40 45 41 46 42 47 68 48 69 49 77 50 70 51 76 52 78 53 75 54
REMARK SMILES IDX 71 55 72 56 73 57 74 58 53 59 54 60 62 61 55 62 61 63 63 64
REMARK SMILES IDX 60 65 56 66 57 67 58 68 59 69 5 70 6 71 7 72 8 73 9 74 10 75
REMARK SMILES IDX 17 76 11 77 16 78 12 79 15 80 13 81 14 83 18 84 19 85 20 86
REMARK SMILES IDX 21 87 25 88 22 89 24 90 26 91 23 92
REMARK H PARENT 83 22 51 33 12 82
REMARK Flexibility Score: inf
ROOT
ATOM      1  C   UNL A   1      32.574  30.899  27.259  1.00  0.00     0.275 C 
ENDROOT
BRANCH   1   2
ATOM      2  O   UNL A   1      33.997  30.755  27.141  1.00  0.00    -0.458 OA
BRANCH   2   3
ATOM      3  C   UNL A   1      34.802  31.491  27.940  1.00  0.00     0.338 C 
ATOM      4  O   UNL A   1      34.455  32.510  28.504  1.00  0.00    -0.246 OA
BRANCH   3   5
ATOM      5  C   UNL A   1      36.085  30.816  28.242  1.00  0.00     0.060 A 
ATOM      6  C   UNL A   1      36.300  29.456  28.003  1.00  0.00     0.016 A 
ATOM      7  C   UNL A   1      37.114  31.605  28.770  1.00  0.00     0.016 A 
ATOM      8  C   UNL A   1      37.509  28.873  28.345  1.00  0.00     0.010 A 
ATOM      9  C   UNL A   1      38.329  31.023  29.111  1.00  0.00     0.010 A 
ATOM     10  C   UNL A   1      38.511  29.652  28.924  1.00  0.00    -0.014 A 
BRANCH  10  11
ATOM     11  C   UNL A   1      39.757  28.982  29.267  1.00  0.00     0.031 A 
ATOM     12  C   UNL A   1      40.088  28.893  30.712  1.00  0.00     0.074 A 
ATOM     13  C   UNL A   1      40.532  28.342  28.376  1.00  0.00     0.049 A 
ATOM     14  N   UNL A   1      41.034  29.484  31.366  1.00  0.00    -0.248 NA
ATOM     15  C   UNL A   1      39.182  28.107  31.558  1.00  0.00     0.031 C 
ATOM     16  C   UNL A   1      40.239  28.036  26.977  1.00  0.00     0.029 A 
ATOM     17  N   UNL A   1      41.725  27.726  28.595  1.00  0.00    -0.354 N 
ATOM     18  C   UNL A   1      40.979  28.986  32.668  1.00  0.00     0.074 A 
ATOM     19  C   UNL A   1      39.724  28.289  32.763  1.00  0.00     0.031 C 
ATOM     20  C   UNL A   1      41.119  27.108  26.539  1.00  0.00     0.029 A 
ATOM     21  C   UNL A   1      42.109  26.868  27.578  1.00  0.00     0.049 A 
ATOM     22  H   UNL A   1      42.266  27.878  29.404  1.00  0.00     0.167 HD
ATOM     23  C   UNL A   1      42.053  29.022  33.510  1.00  0.00     0.034 A 
ATOM     24  C   UNL A   1      43.129  25.977  27.615  1.00  0.00     0.034 A 
ATOM     25  C   UNL A   1      43.073  29.921  33.023  1.00  0.00     0.049 A 
ATOM     26  C   UNL A   1      44.084  26.431  28.656  1.00  0.00     0.074 A 
ATOM     27  C   UNL A   1      43.112  31.262  32.694  1.00  0.00     0.029 A 
ATOM     28  N   UNL A   1      44.217  29.384  32.472  1.00  0.00    -0.354 N 
ATOM     29  N   UNL A   1      44.775  27.535  28.564  1.00  0.00    -0.248 NA
ATOM     30  C   UNL A   1      43.959  25.899  30.005  1.00  0.00     0.031 C 
ATOM     31  C   UNL A   1      43.946  31.329  31.539  1.00  0.00     0.029 A 
ATOM     32  C   UNL A   1      44.413  30.038  31.281  1.00  0.00     0.049 A 
ATOM     33  H   UNL A   1      44.780  28.675  32.856  1.00  0.00     0.167 HD
ATOM     34  C   UNL A   1      44.807  28.055  29.848  1.00  0.00     0.074 A 
ATOM     35  C   UNL A   1      44.393  26.949  30.708  1.00  0.00     0.031 C 
ATOM     36  C   UNL A   1      44.895  29.400  30.071  1.00  0.00     0.034 A 
BRANCH  23  37
ATOM     37  C   UNL A   1      42.342  28.032  34.621  1.00  0.00     0.023 A 
ATOM     38  C   UNL A   1      43.128  26.905  34.300  1.00  0.00     0.031 A 
ATOM     39  C   UNL A   1      41.684  27.977  35.871  1.00  0.00     0.131 A 
ATOM     40  C   UNL A   1      43.147  25.770  35.130  1.00  0.00     0.055 A 
ATOM     41  C   UNL A   1      41.774  26.877  36.731  1.00  0.00     0.041 A 
ATOM     42  F   UNL A   1      40.845  28.930  36.289  1.00  0.00    -0.206 F 
ATOM     43  C   UNL A   1      42.479  25.750  36.349  1.00  0.00     0.022 A 
BRANCH  40  44
ATOM     44  S   UNL A   1      43.889  24.247  34.483  1.00  0.00     0.124 S 
ATOM     45  O   UNL A   1      42.714  23.395  34.326  1.00  0.00    -0.237 OA
ATOM     46  O   UNL A   1      44.515  24.718  33.252  1.00  0.00    -0.237 OA
ATOM     47  O   UNL A   1      44.813  23.847  35.541  1.00  0.00    -0.744 OA
ENDBRANCH  40  44
ENDBRANCH  23  37
BRANCH  24  48
ATOM     48  C   UNL A   1      43.153  24.638  26.979  1.00  0.00     0.023 A 
ATOM     49  C   UNL A   1      44.022  24.324  25.919  1.00  0.00     0.031 A 
ATOM     50  C   UNL A   1      42.446  23.564  27.565  1.00  0.00     0.131 A 
ATOM     51  C   UNL A   1      44.144  22.987  25.479  1.00  0.00     0.055 A 
ATOM     52  C   UNL A   1      42.556  22.247  27.115  1.00  0.00     0.041 A 
ATOM     53  F   UNL A   1      41.682  23.745  28.655  1.00  0.00    -0.206 F 
ATOM     54  C   UNL A   1      43.416  21.953  26.070  1.00  0.00     0.022 A 
BRANCH  51  55
ATOM     55  S   UNL A   1      45.356  22.563  24.189  1.00  0.00     0.124 S 
ATOM     56  O   UNL A   1      44.499  22.243  23.053  1.00  0.00    -0.237 OA
ATOM     57  O   UNL A   1      46.144  23.785  24.085  1.00  0.00    -0.237 OA
ATOM     58  O   UNL A   1      46.073  21.422  24.761  1.00  0.00    -0.744 OA
ENDBRANCH  51  55
ENDBRANCH  24  48
BRANCH  36  59
ATOM     59  C   UNL A   1      45.249  30.317  28.918  1.00  0.00     0.023 A 
ATOM     60  C   UNL A   1      46.565  30.714  28.592  1.00  0.00     0.031 A 
ATOM     61  C   UNL A   1      44.222  30.675  28.025  1.00  0.00     0.131 A 
ATOM     62  C   UNL A   1      46.812  31.446  27.416  1.00  0.00     0.055 A 
ATOM     63  C   UNL A   1      44.473  31.383  26.849  1.00  0.00     0.041 A 
ATOM     64  F   UNL A   1      42.954  30.298  28.258  1.00  0.00    -0.206 F 
ATOM     65  C   UNL A   1      45.770  31.777  26.543  1.00  0.00     0.022 A 
BRANCH  62  66
ATOM     66  S   UNL A   1      48.500  31.985  27.001  1.00  0.00     0.124 S 
ATOM     67  O   UNL A   1      49.050  32.411  28.281  1.00  0.00    -0.237 OA
ATOM     68  O   UNL A   1      49.081  30.773  26.427  1.00  0.00    -0.237 OA
ATOM     69  O   UNL A   1      48.282  33.067  26.039  1.00  0.00    -0.744 OA
ENDBRANCH  62  66
ENDBRANCH  36  59
ENDBRANCH  10  11
ENDBRANCH   3   5
ENDBRANCH   2   3
ENDBRANCH   1   2
BRANCH   1  70
ATOM     70  C   UNL A   1      31.746  30.740  25.987  1.00  0.00     0.274 C 
BRANCH  70  71
ATOM     71  O   UNL A   1      31.396  29.373  25.670  1.00  0.00    -0.461 OA
BRANCH  71  72
ATOM     72  C   UNL A   1      32.298  28.707  24.886  1.00  0.00     0.329 C 
ATOM     73  O   UNL A   1      33.131  29.262  24.179  1.00  0.00    -0.250 OA
BRANCH  72  74
ATOM     74  C   UNL A   1      32.061  27.191  24.828  1.00  0.00     0.201 C 
ATOM     75  C   UNL A   1      31.486  26.660  26.178  1.00  0.00     0.093 C 
ATOM     76  N   UNL A   1      31.404  26.557  23.609  1.00  0.00    -0.318 N 
ATOM     77  C   UNL A   1      31.259  25.200  26.064  1.00  0.00     0.042 A 
ATOM     78  C   UNL A   1      31.446  25.074  23.544  1.00  0.00     0.179 C 
ATOM     79  N   UNL A   1      31.005  24.297  27.051  1.00  0.00    -0.348 N 
ATOM     80  C   UNL A   1      31.230  24.487  24.891  1.00  0.00     0.081 A 
ATOM     81  C   UNL A   1      30.835  23.080  26.443  1.00  0.00     0.197 A 
ATOM     82  H   UNL A   1      30.953  24.482  28.016  1.00  0.00     0.167 HD
ATOM     83  N   UNL A   1      30.981  23.163  25.137  1.00  0.00    -0.240 NA
BRANCH  76  84
ATOM     84  C   UNL A   1      30.902  27.158  22.456  1.00  0.00     0.256 C 
ATOM     85  O   UNL A   1      31.240  26.842  21.315  1.00  0.00    -0.269 OA
BRANCH  84  86
ATOM     86  C   UNL A   1      29.899  28.217  22.509  1.00  0.00     0.061 A 
ATOM     87  C   UNL A   1      30.260  29.479  22.028  1.00  0.00     0.035 A 
ATOM     88  C   UNL A   1      28.683  28.028  23.160  1.00  0.00     0.072 A 
ATOM     89  C   UNL A   1      29.335  30.499  22.147  1.00  0.00     0.112 A 
ATOM     90  C   UNL A   1      27.806  29.099  23.168  1.00  0.00     0.132 A 
ATOM     91  Cl  UNL A   1      28.236  26.548  23.921  1.00  0.00    -0.082 Cl
ATOM     92  N   UNL A   1      28.101  30.330  22.670  1.00  0.00    -0.263 NA
ENDBRANCH  84  86
ENDBRANCH  76  84
ENDBRANCH  72  74
ENDBRANCH  71  72
ENDBRANCH  70  71
ENDBRANCH   1  70
TORSDOF 16
ENDMDL
MODEL 3
REMARK VINA RESULT:     -12.5      2.164      3.407
REMARK SMILES O=C(OCCOC(=O)[C@H]1Cc2[nH]cnc2CN1C(=O)c1ccncc1Cl)c1ccc(-c2c3nc(c(-c4cc(S(=O)(=O)[O-])ccc4F)c4ccc([nH]4)c(-c4cc(S(=O)(=O)[O-])ccc4F)c4nc(c(-c5cc(S(=O)(=O)[O-])ccc5F)c5ccc2[nH]5)C=C4)C=C3)cc1
REMARK SMILES IDX 4 1 3 2 2 3 1 4 27 5 28 6 89 7 29 8 88 9 30 10 31 11 32 12
REMARK SMILES IDX 82 13 33 14 87 15 81 16 83 17 34 18 86 19 80 20 79 21 35 23
REMARK SMILES IDX 67 24 47 25 66 26 48 27 51 28 65 29 84 30 49 31 50 32 64 34
REMARK SMILES IDX 85 35 52 36 36 37 37 38 45 39 38 40 44 41 46 42 43 43 39 44
REMARK SMILES IDX 40 45 41 46 42 47 68 48 69 49 77 50 70 51 76 52 78 53 75 54
REMARK SMILES IDX 71 55 72 56 73 57 74 58 53 59 54 60 62 61 55 62 61 63 63 64
REMARK SMILES IDX 60 65 56 66 57 67 58 68 59 69 5 70 6 71 7 72 8 73 9 74 10 75
REMARK SMILES IDX 17 76 11 77 16 78 12 79 15 80 13 81 14 83 18 84 19 85 20 86
REMARK SMILES IDX 21 87 25 88 22 89 24 90 26 91 23 92
REMARK H PARENT 83 22 51 33 12 82
REMARK Flexibility Score: inf
ROOT
ATOM      1  C   UNL A   1      33.800  30.739  27.273  1.00  0.00     0.275 C 
ENDROOT
BRANCH   1   2
ATOM      2  O   UNL A   1      34.577  31.340  28.321  1.00  0.00    -0.458 OA
BRANCH   2   3
ATOM      3  C   UNL A   1      35.733  31.966  28.008  1.00  0.00     0.338 C 
ATOM      4  O   UNL A   1      35.807  33.130  27.669  1.00  0.00    -0.246 OA
BRANCH   3   5
ATOM      5  C   UNL A   1      36.930  31.156  28.332  1.00  0.00     0.060 A 
ATOM      6  C   UNL A   1      37.109  29.850  27.869  1.00  0.00     0.016 A 
ATOM      7  C   UNL A   1      37.916  31.762  29.120  1.00  0.00     0.016 A 
ATOM      8  C   UNL A   1      38.232  29.129  28.241  1.00  0.00     0.010 A 
ATOM      9  C   UNL A   1      39.046  31.041  29.491  1.00  0.00     0.010 A 
ATOM     10  C   UNL A   1      39.185  29.717  29.074  1.00  0.00    -0.014 A 
BRANCH  10  11
ATOM     11  C   UNL A   1      40.340  28.908  29.434  1.00  0.00     0.031 A 
ATOM     12  C   UNL A   1      40.617  28.754  30.885  1.00  0.00     0.074 A 
ATOM     13  C   UNL A   1      41.067  28.206  28.549  1.00  0.00     0.049 A 
ATOM     14  N   UNL A   1      41.602  29.224  31.578  1.00  0.00    -0.248 NA
ATOM     15  C   UNL A   1      39.607  28.054  31.687  1.00  0.00     0.031 C 
ATOM     16  C   UNL A   1      40.784  27.963  27.136  1.00  0.00     0.029 A 
ATOM     17  N   UNL A   1      42.179  27.460  28.785  1.00  0.00    -0.354 N 
ATOM     18  C   UNL A   1      41.455  28.708  32.866  1.00  0.00     0.074 A 
ATOM     19  C   UNL A   1      40.129  28.151  32.911  1.00  0.00     0.031 C 
ATOM     20  C   UNL A   1      41.571  26.954  26.700  1.00  0.00     0.029 A 
ATOM     21  C   UNL A   1      42.498  26.586  27.759  1.00  0.00     0.049 A 
ATOM     22  H   UNL A   1      42.710  27.535  29.612  1.00  0.00     0.167 HD
ATOM     23  C   UNL A   1      42.501  28.610  33.737  1.00  0.00     0.034 A 
ATOM     24  C   UNL A   1      43.413  25.588  27.802  1.00  0.00     0.034 A 
ATOM     25  C   UNL A   1      43.626  29.401  33.300  1.00  0.00     0.049 A 
ATOM     26  C   UNL A   1      44.382  25.914  28.879  1.00  0.00     0.074 A 
ATOM     27  C   UNL A   1      43.820  30.737  33.004  1.00  0.00     0.029 A 
ATOM     28  N   UNL A   1      44.721  28.755  32.767  1.00  0.00    -0.354 N 
ATOM     29  N   UNL A   1      45.190  26.938  28.832  1.00  0.00    -0.248 NA
ATOM     30  C   UNL A   1      44.160  25.370  30.212  1.00  0.00     0.031 C 
ATOM     31  C   UNL A   1      44.690  30.736  31.874  1.00  0.00     0.029 A 
ATOM     32  C   UNL A   1      45.022  29.408  31.597  1.00  0.00     0.049 A 
ATOM     33  H   UNL A   1      45.192  27.980  33.149  1.00  0.00     0.167 HD
ATOM     34  C   UNL A   1      45.241  27.424  30.129  1.00  0.00     0.074 A 
ATOM     35  C   UNL A   1      44.684  26.353  30.951  1.00  0.00     0.031 C 
ATOM     36  C   UNL A   1      45.468  28.747  30.387  1.00  0.00     0.034 A 
BRANCH  23  37
ATOM     37  C   UNL A   1      42.648  27.571  34.832  1.00  0.00     0.023 A 
ATOM     38  C   UNL A   1      43.431  26.431  34.547  1.00  0.00     0.031 A 
ATOM     39  C   UNL A   1      41.866  27.491  36.006  1.00  0.00     0.131 A 
ATOM     40  C   UNL A   1      43.334  25.267  35.329  1.00  0.00     0.055 A 
ATOM     41  C   UNL A   1      41.837  26.359  36.827  1.00  0.00     0.041 A 
ATOM     42  F   UNL A   1      41.015  28.455  36.375  1.00  0.00    -0.206 F 
ATOM     43  C   UNL A   1      42.545  25.224  36.473  1.00  0.00     0.022 A 
BRANCH  40  44
ATOM     44  S   UNL A   1      44.095  23.747  34.700  1.00  0.00     0.124 S 
ATOM     45  O   UNL A   1      44.512  23.097  35.938  1.00  0.00    -0.237 OA
ATOM     46  O   UNL A   1      42.983  23.127  33.987  1.00  0.00    -0.237 OA
ATOM     47  O   UNL A   1      45.182  24.237  33.856  1.00  0.00    -0.744 OA
ENDBRANCH  40  44
ENDBRANCH  23  37
BRANCH  24  48
ATOM     48  C   UNL A   1      43.311  24.269  27.135  1.00  0.00     0.023 A 
ATOM     49  C   UNL A   1      44.198  23.867  26.120  1.00  0.00     0.031 A 
ATOM     50  C   UNL A   1      42.442  23.280  27.652  1.00  0.00     0.131 A 
ATOM     51  C   UNL A   1      44.181  22.533  25.655  1.00  0.00     0.055 A 
ATOM     52  C   UNL A   1      42.417  21.969  27.176  1.00  0.00     0.041 A 
ATOM     53  F   UNL A   1      41.641  23.536  28.700  1.00  0.00    -0.206 F 
ATOM     54  C   UNL A   1      43.295  21.588  26.176  1.00  0.00     0.022 A 
BRANCH  51  55
ATOM     55  S   UNL A   1      45.408  21.984  24.428  1.00  0.00     0.124 S 
ATOM     56  O   UNL A   1      46.323  21.190  25.242  1.00  0.00    -0.237 OA
ATOM     57  O   UNL A   1      44.588  21.252  23.471  1.00  0.00    -0.237 OA
ATOM     58  O   UNL A   1      45.965  23.239  23.921  1.00  0.00    -0.744 OA
ENDBRANCH  51  55
ENDBRANCH  24  48
BRANCH  36  59
ATOM     59  C   UNL A   1      45.952  29.643  29.265  1.00  0.00     0.023 A 
ATOM     60  C   UNL A   1      45.105  30.430  28.454  1.00  0.00     0.031 A 
ATOM     61  C   UNL A   1      47.340  29.821  29.119  1.00  0.00     0.131 A 
ATOM     62  C   UNL A   1      45.654  31.345  27.537  1.00  0.00     0.055 A 
ATOM     63  C   UNL A   1      47.882  30.743  28.223  1.00  0.00     0.041 A 
ATOM     64  F   UNL A   1      48.200  29.130  29.885  1.00  0.00    -0.206 F 
ATOM     65  C   UNL A   1      47.039  31.505  27.423  1.00  0.00     0.022 A 
BRANCH  62  66
ATOM     66  S   UNL A   1      44.571  32.344  26.468  1.00  0.00     0.124 S 
ATOM     67  O   UNL A   1      45.465  32.821  25.421  1.00  0.00    -0.237 OA
ATOM     68  O   UNL A   1      43.561  31.373  26.053  1.00  0.00    -0.237 OA
ATOM     69  O   UNL A   1      44.076  33.386  27.370  1.00  0.00    -0.744 OA
ENDBRANCH  62  66
ENDBRANCH  36  59
ENDBRANCH  10  11
ENDBRANCH   3   5
ENDBRANCH   2   3
ENDBRANCH   1   2
BRANCH   1  70
ATOM     70  C   UNL A   1      33.621  29.224  27.314  1.00  0.00     0.274 C 
BRANCH  70  71
ATOM     71  O   UNL A   1      33.493  28.603  26.015  1.00  0.00    -0.461 OA
BRANCH  71  72
ATOM     72  C   UNL A   1      32.423  27.763  25.872  1.00  0.00     0.329 C 
ATOM     73  O   UNL A   1      32.257  26.747  26.537  1.00  0.00    -0.250 OA
BRANCH  72  74
ATOM     74  C   UNL A   1      31.527  28.106  24.673  1.00  0.00     0.201 C 
ATOM     75  C   UNL A   1      30.998  29.571  24.767  1.00  0.00     0.093 C 
ATOM     76  N   UNL A   1      31.939  27.710  23.261  1.00  0.00    -0.318 N 
ATOM     77  C   UNL A   1      30.156  29.857  23.583  1.00  0.00     0.042 A 
ATOM     78  C   UNL A   1      30.899  27.864  22.212  1.00  0.00     0.179 C 
ATOM     79  N   UNL A   1      29.308  30.901  23.370  1.00  0.00    -0.348 N 
ATOM     80  C   UNL A   1      30.114  29.105  22.435  1.00  0.00     0.081 A 
ATOM     81  C   UNL A   1      28.787  30.741  22.113  1.00  0.00     0.197 A 
ATOM     82  H   UNL A   1      29.107  31.631  24.000  1.00  0.00     0.167 HD
ATOM     83  N   UNL A   1      29.246  29.654  21.529  1.00  0.00    -0.240 NA
BRANCH  76  84
ATOM     84  C   UNL A   1      33.097  27.074  22.818  1.00  0.00     0.256 C 
ATOM     85  O   UNL A   1      34.067  27.666  22.346  1.00  0.00    -0.269 OA
BRANCH  84  86
ATOM     86  C   UNL A   1      33.264  25.626  22.900  1.00  0.00     0.061 A 
ATOM     87  C   UNL A   1      33.809  25.100  24.075  1.00  0.00     0.035 A 
ATOM     88  C   UNL A   1      33.042  24.810  21.794  1.00  0.00     0.072 A 
ATOM     89  C   UNL A   1      34.035  23.737  24.122  1.00  0.00     0.112 A 
ATOM     90  C   UNL A   1      33.243  23.451  21.970  1.00  0.00     0.132 A 
ATOM     91  Cl  UNL A   1      32.527  25.409  20.263  1.00  0.00    -0.082 Cl
ATOM     92  N   UNL A   1      33.728  22.894  23.112  1.00  0.00    -0.263 NA
ENDBRANCH  84  86
ENDBRANCH  76  84
ENDBRANCH  72  74
ENDBRANCH  71  72
ENDBRANCH  70  71
ENDBRANCH   1  70
TORSDOF 16
ENDMDL
