MODEL 1
REMARK VINA RESULT:     -10.8      0.000      0.000
REMARK SMILES CCOc1cccc(OCC)c1-c1ccc([C@@H](C)C(=O)OCCOC(=O)c2ccc(-c3c4nc(c(-c5cc(S(=O)(=O)[O-])ccc5F)c5ccc([nH]5)c(-c5cc(S(=O)(=O)[O-])ccc5F)c5nc(c(-c6cc(S(=O)(=O)[O-])ccc6F)c6ccc3[nH]6)C=C5)C=C4)cc2)cc1F
REMARK SMILES IDX 22 1 21 2 19 3 20 4 17 5 18 6 16 7 13 8 14 9 91 10 15 11
REMARK SMILES IDX 90 12 92 13 12 14 4 15 5 16 6 17 8 18 7 19 3 20 2 21 1 22
REMARK SMILES IDX 9 23 10 24 11 25 23 26 24 27 25 28 26 29 27 30 28 31 89 32
REMARK SMILES IDX 29 33 88 34 30 35 31 36 32 37 82 38 33 39 87 40 81 41 83 42
REMARK SMILES IDX 34 43 86 44 80 45 79 46 35 48 67 49 47 50 66 51 48 52 51 53
REMARK SMILES IDX 65 54 84 55 49 56 50 57 64 59 85 60 52 61 36 62 37 63 45 64
REMARK SMILES IDX 38 65 44 66 46 67 43 68 39 69 40 70 41 71 42 72 68 73 69 74
REMARK SMILES IDX 77 75 70 76 76 77 78 78 75 79 71 80 72 81 73 82 74 83 53 84
REMARK SMILES IDX 54 85 62 86 55 87 61 88 63 89 60 90 56 91 57 92 58 93 59 94
REMARK H PARENT 83 47 51 58
REMARK Flexibility Score: inf
ROOT
ATOM      1  C   UNL A   1      33.302  31.708  27.605  1.00  0.00     0.274 C 
ENDROOT
BRANCH   1   2
ATOM      2  O   UNL A   1      32.779  30.758  26.654  1.00  0.00    -0.462 OA
BRANCH   2   3
ATOM      3  C   UNL A   1      33.605  29.758  26.255  1.00  0.00     0.313 C 
ATOM      4  O   UNL A   1      34.678  29.507  26.798  1.00  0.00    -0.252 OA
BRANCH   3   5
ATOM      5  C   UNL A   1      33.134  29.004  25.012  1.00  0.00     0.126 C 
ATOM      6  C   UNL A   1      31.661  29.304  24.748  1.00  0.00     0.025 C 
BRANCH   5   7
ATOM      7  C   UNL A   1      33.410  27.509  24.924  1.00  0.00    -0.031 A 
ATOM      8  C   UNL A   1      33.723  24.684  24.688  1.00  0.00     0.025 A 
ATOM      9  C   UNL A   1      33.767  25.320  25.937  1.00  0.00     0.012 A 
ATOM     10  C   UNL A   1      33.582  25.495  23.557  1.00  0.00     0.131 A 
ATOM     11  C   UNL A   1      33.570  26.700  26.057  1.00  0.00     0.005 A 
ATOM     12  C   UNL A   1      33.435  26.881  23.666  1.00  0.00     0.044 A 
ATOM     13  F   UNL A   1      33.522  24.947  22.334  1.00  0.00    -0.206 F 
BRANCH   8  14
ATOM     14  C   UNL A   1      33.817  23.215  24.609  1.00  0.00     0.069 A 
ATOM     15  C   UNL A   1      35.108  22.628  24.539  1.00  0.00     0.130 A 
ATOM     16  C   UNL A   1      35.310  21.247  24.609  1.00  0.00     0.047 A 
ATOM     17  C   UNL A   1      34.220  20.405  24.756  1.00  0.00     0.008 A 
ATOM     18  C   UNL A   1      32.713  22.339  24.707  1.00  0.00     0.130 A 
ATOM     19  C   UNL A   1      32.938  20.950  24.792  1.00  0.00     0.047 A 
BRANCH  15  20
ATOM     20  O   UNL A   1      36.196  23.427  24.299  1.00  0.00    -0.493 OA
BRANCH  20  21
ATOM     21  C   UNL A   1      37.388  22.967  24.938  1.00  0.00     0.226 C 
ATOM     22  C   UNL A   1      37.591  23.817  26.174  1.00  0.00     0.049 C 
ENDBRANCH  20  21
ENDBRANCH  15  20
BRANCH  18  23
ATOM     23  O   UNL A   1      31.372  22.604  24.789  1.00  0.00    -0.493 OA
BRANCH  23  24
ATOM     24  C   UNL A   1      30.649  22.572  26.012  1.00  0.00     0.226 C 
ATOM     25  C   UNL A   1      30.493  24.000  26.508  1.00  0.00     0.049 C 
ENDBRANCH  23  24
ENDBRANCH  18  23
ENDBRANCH   8  14
ENDBRANCH   5   7
ENDBRANCH   3   5
ENDBRANCH   2   3
ENDBRANCH   1   2
BRANCH   1  26
ATOM     26  C   UNL A   1      32.597  33.065  27.501  1.00  0.00     0.275 C 
BRANCH  26  27
ATOM     27  O   UNL A   1      33.476  34.154  27.841  1.00  0.00    -0.458 OA
BRANCH  27  28
ATOM     28  C   UNL A   1      33.437  34.502  29.150  1.00  0.00     0.338 C 
ATOM     29  O   UNL A   1      32.544  35.114  29.703  1.00  0.00    -0.246 OA
BRANCH  28  30
ATOM     30  C   UNL A   1      34.559  33.903  29.885  1.00  0.00     0.060 A 
ATOM     31  C   UNL A   1      35.851  34.259  29.489  1.00  0.00     0.016 A 
ATOM     32  C   UNL A   1      34.358  32.951  30.884  1.00  0.00     0.016 A 
ATOM     33  C   UNL A   1      36.954  33.681  30.104  1.00  0.00     0.010 A 
ATOM     34  C   UNL A   1      35.469  32.368  31.501  1.00  0.00     0.010 A 
ATOM     35  C   UNL A   1      36.771  32.731  31.115  1.00  0.00    -0.014 A 
BRANCH  35  36
ATOM     36  C   UNL A   1      37.960  32.116  31.748  1.00  0.00     0.031 A 
ATOM     37  C   UNL A   1      38.701  31.017  31.046  1.00  0.00     0.074 A 
ATOM     38  C   UNL A   1      38.385  32.581  32.937  1.00  0.00     0.049 A 
ATOM     39  N   UNL A   1      39.725  30.316  31.457  1.00  0.00    -0.248 NA
ATOM     40  C   UNL A   1      38.219  30.660  29.706  1.00  0.00     0.031 C 
ATOM     41  C   UNL A   1      37.759  33.675  33.683  1.00  0.00     0.029 A 
ATOM     42  N   UNL A   1      39.436  32.195  33.726  1.00  0.00    -0.354 N 
ATOM     43  C   UNL A   1      40.011  29.425  30.428  1.00  0.00     0.074 A 
ATOM     44  C   UNL A   1      39.025  29.657  29.391  1.00  0.00     0.031 C 
ATOM     45  C   UNL A   1      38.437  33.867  34.825  1.00  0.00     0.029 A 
ATOM     46  C   UNL A   1      39.510  32.882  34.915  1.00  0.00     0.049 A 
ATOM     47  H   UNL A   1      40.077  31.493  33.468  1.00  0.00     0.167 HD
ATOM     48  C   UNL A   1      41.006  28.505  30.360  1.00  0.00     0.034 A 
ATOM     49  C   UNL A   1      40.329  32.714  35.970  1.00  0.00     0.034 A 
ATOM     50  C   UNL A   1      41.965  28.284  31.418  1.00  0.00     0.049 A 
ATOM     51  C   UNL A   1      41.386  31.643  35.901  1.00  0.00     0.074 A 
ATOM     52  C   UNL A   1      43.010  27.376  31.465  1.00  0.00     0.029 A 
ATOM     53  N   UNL A   1      41.992  28.977  32.624  1.00  0.00    -0.354 N 
ATOM     54  N   UNL A   1      41.634  30.791  34.934  1.00  0.00    -0.248 NA
ATOM     55  C   UNL A   1      42.273  31.517  37.063  1.00  0.00     0.031 C 
ATOM     56  C   UNL A   1      43.625  27.476  32.719  1.00  0.00     0.029 A 
ATOM     57  C   UNL A   1      43.014  28.496  33.432  1.00  0.00     0.049 A 
ATOM     58  H   UNL A   1      41.375  29.703  32.871  1.00  0.00     0.167 HD
ATOM     59  C   UNL A   1      42.715  30.030  35.367  1.00  0.00     0.074 A 
ATOM     60  C   UNL A   1      43.085  30.544  36.672  1.00  0.00     0.031 C 
ATOM     61  C   UNL A   1      43.347  29.000  34.745  1.00  0.00     0.034 A 
BRANCH  48  62
ATOM     62  C   UNL A   1      41.052  27.635  29.126  1.00  0.00     0.023 A 
ATOM     63  C   UNL A   1      41.969  27.869  28.085  1.00  0.00     0.031 A 
ATOM     64  C   UNL A   1      40.123  26.592  28.958  1.00  0.00     0.131 A 
ATOM     65  C   UNL A   1      41.885  27.128  26.896  1.00  0.00     0.055 A 
ATOM     66  C   UNL A   1      40.097  25.805  27.805  1.00  0.00     0.041 A 
ATOM     67  F   UNL A   1      39.207  26.334  29.904  1.00  0.00    -0.206 F 
ATOM     68  C   UNL A   1      40.970  26.082  26.756  1.00  0.00     0.022 A 
BRANCH  65  69
ATOM     69  S   UNL A   1      42.875  27.657  25.469  1.00  0.00     0.124 S 
ATOM     70  O   UNL A   1      44.067  28.195  26.122  1.00  0.00    -0.237 OA
ATOM     71  O   UNL A   1      43.053  26.413  24.731  1.00  0.00    -0.237 OA
ATOM     72  O   UNL A   1      42.029  28.655  24.817  1.00  0.00    -0.744 OA
ENDBRANCH  65  69
ENDBRANCH  48  62
BRANCH  49  73
ATOM     73  C   UNL A   1      40.138  33.534  37.198  1.00  0.00     0.023 A 
ATOM     74  C   UNL A   1      39.448  33.035  38.314  1.00  0.00     0.031 A 
ATOM     75  C   UNL A   1      40.642  34.846  37.262  1.00  0.00     0.131 A 
ATOM     76  C   UNL A   1      39.258  33.855  39.438  1.00  0.00     0.055 A 
ATOM     77  C   UNL A   1      40.490  35.640  38.400  1.00  0.00     0.041 A 
ATOM     78  F   UNL A   1      41.311  35.368  36.223  1.00  0.00    -0.206 F 
ATOM     79  C   UNL A   1      39.786  35.148  39.493  1.00  0.00     0.022 A 
BRANCH  76  80
ATOM     80  S   UNL A   1      38.261  33.225  40.816  1.00  0.00     0.124 S 
ATOM     81  O   UNL A   1      37.475  34.400  41.177  1.00  0.00    -0.237 OA
ATOM     82  O   UNL A   1      37.529  32.131  40.186  1.00  0.00    -0.237 OA
ATOM     83  O   UNL A   1      39.260  32.816  41.802  1.00  0.00    -0.744 OA
ENDBRANCH  76  80
ENDBRANCH  49  73
BRANCH  61  84
ATOM     84  C   UNL A   1      44.514  28.386  35.477  1.00  0.00     0.023 A 
ATOM     85  C   UNL A   1      44.329  27.405  36.467  1.00  0.00     0.031 A 
ATOM     86  C   UNL A   1      45.826  28.812  35.203  1.00  0.00     0.131 A 
ATOM     87  C   UNL A   1      45.431  26.926  37.190  1.00  0.00     0.055 A 
ATOM     88  C   UNL A   1      46.925  28.290  35.885  1.00  0.00     0.041 A 
ATOM     89  F   UNL A   1      46.059  29.749  34.269  1.00  0.00    -0.206 F 
ATOM     90  C   UNL A   1      46.730  27.350  36.895  1.00  0.00     0.022 A 
BRANCH  87  91
ATOM     91  S   UNL A   1      45.138  25.809  38.588  1.00  0.00     0.124 S 
ATOM     92  O   UNL A   1      44.699  24.590  37.917  1.00  0.00    -0.237 OA
ATOM     93  O   UNL A   1      46.450  25.750  39.222  1.00  0.00    -0.237 OA
ATOM     94  O   UNL A   1      44.106  26.494  39.365  1.00  0.00    -0.744 OA
ENDBRANCH  87  91
ENDBRANCH  61  84
ENDBRANCH  35  36
ENDBRANCH  28  30
ENDBRANCH  27  28
ENDBRANCH  26  27
ENDBRANCH   1  26
TORSDOF 20
ENDMDL
MODEL 2
REMARK VINA RESULT:     -10.7      1.093      1.897
REMARK SMILES CCOc1cccc(OCC)c1-c1ccc([C@@H](C)C(=O)OCCOC(=O)c2ccc(-c3c4nc(c(-c5cc(S(=O)(=O)[O-])ccc5F)c5ccc([nH]5)c(-c5cc(S(=O)(=O)[O-])ccc5F)c5nc(c(-c6cc(S(=O)(=O)[O-])ccc6F)c6ccc3[nH]6)C=C5)C=C4)cc2)cc1F
REMARK SMILES IDX 22 1 21 2 19 3 20 4 17 5 18 6 16 7 13 8 14 9 91 10 15 11
REMARK SMILES IDX 90 12 92 13 12 14 4 15 5 16 6 17 8 18 7 19 3 20 2 21 1 22
REMARK SMILES IDX 9 23 10 24 11 25 23 26 24 27 25 28 26 29 27 30 28 31 89 32
REMARK SMILES IDX 29 33 88 34 30 35 31 36 32 37 82 38 33 39 87 40 81 41 83 42
REMARK SMILES IDX 34 43 86 44 80 45 79 46 35 48 67 49 47 50 66 51 48 52 51 53
REMARK SMILES IDX 65 54 84 55 49 56 50 57 64 59 85 60 52 61 36 62 37 63 45 64
REMARK SMILES IDX 38 65 44 66 46 67 43 68 39 69 40 70 41 71 42 72 68 73 69 74
REMARK SMILES IDX 77 75 70 76 76 77 78 78 75 79 71 80 72 81 73 82 74 83 53 84
REMARK SMILES IDX 54 85 62 86 55 87 61 88 63 89 60 90 56 91 57 92 58 93 59 94
REMARK H PARENT 83 47 51 58
REMARK Flexibility Score: inf
ROOT
ATOM      1  C   UNL A   1      32.990  32.034  27.271  1.00  0.00     0.274 C 
ENDROOT
BRANCH   1   2
ATOM      2  O   UNL A   1      31.987  31.014  27.092  1.00  0.00    -0.462 OA
BRANCH   2   3
ATOM      3  C   UNL A   1      32.329  29.927  26.354  1.00  0.00     0.313 C 
ATOM      4  O   UNL A   1      32.118  29.832  25.148  1.00  0.00    -0.252 OA
BRANCH   3   5
ATOM      5  C   UNL A   1      32.935  28.779  27.160  1.00  0.00     0.126 C 
ATOM      6  C   UNL A   1      34.394  29.085  27.486  1.00  0.00     0.025 C 
BRANCH   5   7
ATOM      7  C   UNL A   1      32.781  27.360  26.627  1.00  0.00    -0.031 A 
ATOM      8  C   UNL A   1      32.533  24.783  25.431  1.00  0.00     0.025 A 
ATOM      9  C   UNL A   1      31.434  25.418  26.027  1.00  0.00     0.012 A 
ATOM     10  C   UNL A   1      33.770  25.435  25.501  1.00  0.00     0.131 A 
ATOM     11  C   UNL A   1      31.546  26.700  26.575  1.00  0.00     0.005 A 
ATOM     12  C   UNL A   1      33.898  26.696  26.091  1.00  0.00     0.044 A 
ATOM     13  F   UNL A   1      34.857  24.885  24.939  1.00  0.00    -0.206 F 
BRANCH   8  14
ATOM     14  C   UNL A   1      32.354  23.483  24.760  1.00  0.00     0.069 A 
ATOM     15  C   UNL A   1      32.086  23.479  23.366  1.00  0.00     0.130 A 
ATOM     16  C   UNL A   1      32.046  22.303  22.612  1.00  0.00     0.047 A 
ATOM     17  C   UNL A   1      32.279  21.086  23.234  1.00  0.00     0.008 A 
ATOM     18  C   UNL A   1      32.537  22.230  25.387  1.00  0.00     0.130 A 
ATOM     19  C   UNL A   1      32.508  21.056  24.607  1.00  0.00     0.047 A 
BRANCH  15  20
ATOM     20  O   UNL A   1      31.760  24.656  22.741  1.00  0.00    -0.493 OA
BRANCH  20  21
ATOM     21  C   UNL A   1      32.600  24.956  21.626  1.00  0.00     0.226 C 
ATOM     22  C   UNL A   1      33.575  26.024  22.075  1.00  0.00     0.049 C 
ENDBRANCH  20  21
ENDBRANCH  15  20
BRANCH  18  23
ATOM     23  O   UNL A   1      32.803  21.921  26.695  1.00  0.00    -0.493 OA
BRANCH  23  24
ATOM     24  C   UNL A   1      34.011  21.302  27.113  1.00  0.00     0.226 C 
ATOM     25  C   UNL A   1      35.170  22.019  26.440  1.00  0.00     0.049 C 
ENDBRANCH  23  24
ENDBRANCH  18  23
ENDBRANCH   8  14
ENDBRANCH   5   7
ENDBRANCH   3   5
ENDBRANCH   2   3
ENDBRANCH   1   2
BRANCH   1  26
ATOM     26  C   UNL A   1      32.374  33.436  27.330  1.00  0.00     0.275 C 
BRANCH  26  27
ATOM     27  O   UNL A   1      33.321  34.420  27.788  1.00  0.00    -0.458 OA
BRANCH  27  28
ATOM     28  C   UNL A   1      33.367  34.551  29.135  1.00  0.00     0.338 C 
ATOM     29  O   UNL A   1      32.491  35.011  29.841  1.00  0.00    -0.246 OA
BRANCH  28  30
ATOM     30  C   UNL A   1      34.571  33.912  29.683  1.00  0.00     0.060 A 
ATOM     31  C   UNL A   1      34.414  33.109  30.815  1.00  0.00     0.016 A 
ATOM     32  C   UNL A   1      35.838  34.158  29.154  1.00  0.00     0.016 A 
ATOM     33  C   UNL A   1      35.522  32.527  31.417  1.00  0.00     0.010 A 
ATOM     34  C   UNL A   1      36.953  33.574  29.762  1.00  0.00     0.010 A 
ATOM     35  C   UNL A   1      36.800  32.755  30.894  1.00  0.00    -0.014 A 
BRANCH  35  36
ATOM     36  C   UNL A   1      37.971  32.137  31.559  1.00  0.00     0.031 A 
ATOM     37  C   UNL A   1      38.726  31.034  30.879  1.00  0.00     0.074 A 
ATOM     38  C   UNL A   1      38.366  32.603  32.757  1.00  0.00     0.049 A 
ATOM     39  N   UNL A   1      39.737  30.330  31.318  1.00  0.00    -0.248 NA
ATOM     40  C   UNL A   1      38.277  30.675  29.528  1.00  0.00     0.031 C 
ATOM     41  C   UNL A   1      37.725  33.701  33.484  1.00  0.00     0.029 A 
ATOM     42  N   UNL A   1      39.395  32.216  33.575  1.00  0.00    -0.354 N 
ATOM     43  C   UNL A   1      40.046  29.436  30.299  1.00  0.00     0.074 A 
ATOM     44  C   UNL A   1      39.088  29.669  29.236  1.00  0.00     0.031 C 
ATOM     45  C   UNL A   1      38.374  33.894  34.643  1.00  0.00     0.029 A 
ATOM     46  C   UNL A   1      39.441  32.906  34.763  1.00  0.00     0.049 A 
ATOM     47  H   UNL A   1      40.040  31.511  33.335  1.00  0.00     0.167 HD
ATOM     48  C   UNL A   1      41.039  28.512  30.259  1.00  0.00     0.034 A 
ATOM     49  C   UNL A   1      40.232  32.737  35.840  1.00  0.00     0.034 A 
ATOM     50  C   UNL A   1      41.970  28.291  31.342  1.00  0.00     0.049 A 
ATOM     51  C   UNL A   1      41.286  31.662  35.801  1.00  0.00     0.074 A 
ATOM     52  C   UNL A   1      43.009  27.379  31.419  1.00  0.00     0.029 A 
ATOM     53  N   UNL A   1      41.968  28.986  32.547  1.00  0.00    -0.354 N 
ATOM     54  N   UNL A   1      41.556  30.807  34.842  1.00  0.00    -0.248 NA
ATOM     55  C   UNL A   1      42.142  31.537  36.985  1.00  0.00     0.031 C 
ATOM     56  C   UNL A   1      43.592  27.480  32.688  1.00  0.00     0.029 A 
ATOM     57  C   UNL A   1      42.967  28.504  33.382  1.00  0.00     0.049 A 
ATOM     58  H   UNL A   1      41.347  29.715  32.776  1.00  0.00     0.167 HD
ATOM     59  C   UNL A   1      42.623  30.044  35.305  1.00  0.00     0.074 A 
ATOM     60  C   UNL A   1      42.960  30.560  36.618  1.00  0.00     0.031 C 
ATOM     61  C   UNL A   1      43.267  29.010  34.703  1.00  0.00     0.034 A 
BRANCH  48  62
ATOM     62  C   UNL A   1      41.114  27.639  29.029  1.00  0.00     0.023 A 
ATOM     63  C   UNL A   1      42.101  27.826  28.043  1.00  0.00     0.031 A 
ATOM     64  C   UNL A   1      40.147  26.643  28.806  1.00  0.00     0.131 A 
ATOM     65  C   UNL A   1      42.049  27.089  26.850  1.00  0.00     0.055 A 
ATOM     66  C   UNL A   1      40.149  25.855  27.653  1.00  0.00     0.041 A 
ATOM     67  F   UNL A   1      39.166  26.431  29.697  1.00  0.00    -0.206 F 
ATOM     68  C   UNL A   1      41.094  26.089  26.657  1.00  0.00     0.022 A 
BRANCH  65  69
ATOM     69  S   UNL A   1      43.145  27.566  25.484  1.00  0.00     0.124 S 
ATOM     70  O   UNL A   1      43.608  26.265  25.009  1.00  0.00    -0.237 OA
ATOM     71  O   UNL A   1      42.244  28.291  24.597  1.00  0.00    -0.237 OA
ATOM     72  O   UNL A   1      44.169  28.382  26.136  1.00  0.00    -0.744 OA
ENDBRANCH  65  69
ENDBRANCH  48  62
BRANCH  49  73
ATOM     73  C   UNL A   1      40.011  33.561  37.060  1.00  0.00     0.023 A 
ATOM     74  C   UNL A   1      39.372  33.037  38.194  1.00  0.00     0.031 A 
ATOM     75  C   UNL A   1      40.435  34.902  37.099  1.00  0.00     0.131 A 
ATOM     76  C   UNL A   1      39.151  33.859  39.312  1.00  0.00     0.055 A 
ATOM     77  C   UNL A   1      40.255  35.701  38.229  1.00  0.00     0.041 A 
ATOM     78  F   UNL A   1      41.055  35.449  36.042  1.00  0.00    -0.206 F 
ATOM     79  C   UNL A   1      39.600  35.182  39.341  1.00  0.00     0.022 A 
BRANCH  76  80
ATOM     80  S   UNL A   1      38.217  33.189  40.714  1.00  0.00     0.124 S 
ATOM     81  O   UNL A   1      38.777  31.848  40.833  1.00  0.00    -0.237 OA
ATOM     82  O   UNL A   1      38.559  34.124  41.781  1.00  0.00    -0.237 OA
ATOM     83  O   UNL A   1      36.829  33.248  40.259  1.00  0.00    -0.744 OA
ENDBRANCH  76  80
ENDBRANCH  49  73
BRANCH  61  84
ATOM     84  C   UNL A   1      44.412  28.394  35.465  1.00  0.00     0.023 A 
ATOM     85  C   UNL A   1      44.203  27.378  36.415  1.00  0.00     0.031 A 
ATOM     86  C   UNL A   1      45.726  28.852  35.264  1.00  0.00     0.131 A 
ATOM     87  C   UNL A   1      45.282  26.896  37.171  1.00  0.00     0.055 A 
ATOM     88  C   UNL A   1      46.804  28.328  35.978  1.00  0.00     0.041 A 
ATOM     89  F   UNL A   1      45.982  29.822  34.371  1.00  0.00    -0.206 F 
ATOM     90  C   UNL A   1      46.583  27.353  36.948  1.00  0.00     0.022 A 
BRANCH  87  91
ATOM     91  S   UNL A   1      44.949  25.729  38.519  1.00  0.00     0.124 S 
ATOM     92  O   UNL A   1      43.888  26.410  39.255  1.00  0.00    -0.237 OA
ATOM     93  O   UNL A   1      44.554  24.523  37.800  1.00  0.00    -0.237 OA
ATOM     94  O   UNL A   1      46.229  25.639  39.220  1.00  0.00    -0.744 OA
ENDBRANCH  87  91
ENDBRANCH  61  84
ENDBRANCH  35  36
ENDBRANCH  28  30
ENDBRANCH  27  28
ENDBRANCH  26  27
ENDBRANCH   1  26
TORSDOF 20
ENDMDL
MODEL 3
REMARK VINA RESULT:     -10.7      5.705      8.874
REMARK SMILES CCOc1cccc(OCC)c1-c1ccc([C@@H](C)C(=O)OCCOC(=O)c2ccc(-c3c4nc(c(-c5cc(S(=O)(=O)[O-])ccc5F)c5ccc([nH]5)c(-c5cc(S(=O)(=O)[O-])ccc5F)c5nc(c(-c6cc(S(=O)(=O)[O-])ccc6F)c6ccc3[nH]6)C=C5)C=C4)cc2)cc1F
REMARK SMILES IDX 22 1 21 2 19 3 20 4 17 5 18 6 16 7 13 8 14 9 91 10 15 11
REMARK SMILES IDX 90 12 92 13 12 14 4 15 5 16 6 17 8 18 7 19 3 20 2 21 1 22
REMARK SMILES IDX 9 23 10 24 11 25 23 26 24 27 25 28 26 29 27 30 28 31 89 32
REMARK SMILES IDX 29 33 88 34 30 35 31 36 32 37 82 38 33 39 87 40 81 41 83 42
REMARK SMILES IDX 34 43 86 44 80 45 79 46 35 48 67 49 47 50 66 51 48 52 51 53
REMARK SMILES IDX 65 54 84 55 49 56 50 57 64 59 85 60 52 61 36 62 37 63 45 64
REMARK SMILES IDX 38 65 44 66 46 67 43 68 39 69 40 70 41 71 42 72 68 73 69 74
REMARK SMILES IDX 77 75 70 76 76 77 78 78 75 79 71 80 72 81 73 82 74 83 53 84
REMARK SMILES IDX 54 85 62 86 55 87 61 88 63 89 60 90 56 91 57 92 58 93 59 94
REMARK H PARENT 83 47 51 58
REMARK Flexibility Score: inf
ROOT
ATOM      1  C   UNL A   1      36.597  20.209  24.981  1.00  0.00     0.274 C 
ENDROOT
BRANCH   1   2
ATOM      2  O   UNL A   1      35.910  21.425  24.624  1.00  0.00    -0.462 OA
BRANCH   2   3
ATOM      3  C   UNL A   1      34.662  21.605  25.127  1.00  0.00     0.313 C 
ATOM      4  O   UNL A   1      33.658  21.077  24.655  1.00  0.00    -0.252 OA
BRANCH   3   5
ATOM      5  C   UNL A   1      34.584  22.590  26.292  1.00  0.00     0.126 C 
ATOM      6  C   UNL A   1      34.025  21.892  27.528  1.00  0.00     0.025 C 
BRANCH   5   7
ATOM      7  C   UNL A   1      33.895  23.930  26.063  1.00  0.00    -0.031 A 
ATOM      8  C   UNL A   1      32.471  26.334  25.497  1.00  0.00     0.025 A 
ATOM      9  C   UNL A   1      33.816  26.180  25.131  1.00  0.00     0.012 A 
ATOM     10  C   UNL A   1      31.872  25.287  26.206  1.00  0.00     0.131 A 
ATOM     11  C   UNL A   1      34.501  24.985  25.370  1.00  0.00     0.005 A 
ATOM     12  C   UNL A   1      32.568  24.108  26.492  1.00  0.00     0.044 A 
ATOM     13  F   UNL A   1      30.585  25.368  26.574  1.00  0.00    -0.206 F 
BRANCH   8  14
ATOM     14  C   UNL A   1      31.745  27.562  25.125  1.00  0.00     0.069 A 
ATOM     15  C   UNL A   1      32.113  28.777  25.761  1.00  0.00     0.130 A 
ATOM     16  C   UNL A   1      31.591  30.015  25.376  1.00  0.00     0.047 A 
ATOM     17  C   UNL A   1      30.681  30.076  24.333  1.00  0.00     0.008 A 
ATOM     18  C   UNL A   1      30.777  27.638  24.099  1.00  0.00     0.130 A 
ATOM     19  C   UNL A   1      30.273  28.896  23.714  1.00  0.00     0.047 A 
BRANCH  15  20
ATOM     20  O   UNL A   1      32.939  28.739  26.856  1.00  0.00    -0.493 OA
BRANCH  20  21
ATOM     21  C   UNL A   1      33.915  29.782  26.865  1.00  0.00     0.226 C 
ATOM     22  C   UNL A   1      35.100  29.280  27.663  1.00  0.00     0.049 C 
ENDBRANCH  20  21
ENDBRANCH  15  20
BRANCH  18  23
ATOM     23  O   UNL A   1      30.231  26.653  23.319  1.00  0.00    -0.493 OA
BRANCH  23  24
ATOM     24  C   UNL A   1      31.013  25.686  22.632  1.00  0.00     0.226 C 
ATOM     25  C   UNL A   1      30.614  24.309  23.134  1.00  0.00     0.049 C 
ENDBRANCH  23  24
ENDBRANCH  18  23
ENDBRANCH   8  14
ENDBRANCH   5   7
ENDBRANCH   3   5
ENDBRANCH   2   3
ENDBRANCH   1   2
BRANCH   1  26
ATOM     26  C   UNL A   1      38.119  20.393  24.984  1.00  0.00     0.275 C 
BRANCH  26  27
ATOM     27  O   UNL A   1      38.508  21.638  25.595  1.00  0.00    -0.458 OA
BRANCH  27  28
ATOM     28  C   UNL A   1      39.508  21.516  26.500  1.00  0.00     0.338 C 
ATOM     29  O   UNL A   1      40.053  20.480  26.831  1.00  0.00    -0.246 OA
BRANCH  28  30
ATOM     30  C   UNL A   1      39.982  22.835  26.939  1.00  0.00     0.060 A 
ATOM     31  C   UNL A   1      39.488  23.953  26.264  1.00  0.00     0.016 A 
ATOM     32  C   UNL A   1      40.950  22.973  27.934  1.00  0.00     0.016 A 
ATOM     33  C   UNL A   1      39.944  25.224  26.591  1.00  0.00     0.010 A 
ATOM     34  C   UNL A   1      41.411  24.253  28.261  1.00  0.00     0.010 A 
ATOM     35  C   UNL A   1      40.909  25.382  27.593  1.00  0.00    -0.014 A 
BRANCH  35  36
ATOM     36  C   UNL A   1      41.392  26.745  27.916  1.00  0.00     0.031 A 
ATOM     37  C   UNL A   1      42.829  27.107  27.685  1.00  0.00     0.074 A 
ATOM     38  C   UNL A   1      40.520  27.657  28.382  1.00  0.00     0.049 A 
ATOM     39  N   UNL A   1      43.455  28.223  27.955  1.00  0.00    -0.248 NA
ATOM     40  C   UNL A   1      43.670  26.071  27.071  1.00  0.00     0.031 C 
ATOM     41  C   UNL A   1      39.092  27.417  28.603  1.00  0.00     0.029 A 
ATOM     42  N   UNL A   1      40.702  28.963  28.755  1.00  0.00    -0.354 N 
ATOM     43  C   UNL A   1      44.771  28.026  27.551  1.00  0.00     0.074 A 
ATOM     44  C   UNL A   1      44.853  26.668  27.050  1.00  0.00     0.031 C 
ATOM     45  C   UNL A   1      38.531  28.539  29.079  1.00  0.00     0.029 A 
ATOM     46  C   UNL A   1      39.563  29.558  29.243  1.00  0.00     0.049 A 
ATOM     47  H   UNL A   1      41.566  29.430  28.682  1.00  0.00     0.167 HD
ATOM     48  C   UNL A   1      45.807  28.900  27.593  1.00  0.00     0.034 A 
ATOM     49  C   UNL A   1      39.380  30.774  29.790  1.00  0.00     0.034 A 
ATOM     50  C   UNL A   1      45.699  30.244  28.115  1.00  0.00     0.049 A 
ATOM     51  C   UNL A   1      40.558  31.707  29.888  1.00  0.00     0.074 A 
ATOM     52  C   UNL A   1      46.681  31.215  28.217  1.00  0.00     0.029 A 
ATOM     53  N   UNL A   1      44.536  30.805  28.632  1.00  0.00    -0.354 N 
ATOM     54  N   UNL A   1      41.803  31.504  29.524  1.00  0.00    -0.248 NA
ATOM     55  C   UNL A   1      40.303  33.032  30.464  1.00  0.00     0.031 C 
ATOM     56  C   UNL A   1      46.128  32.335  28.851  1.00  0.00     0.029 A 
ATOM     57  C   UNL A   1      44.783  32.095  29.081  1.00  0.00     0.049 A 
ATOM     58  H   UNL A   1      43.663  30.352  28.674  1.00  0.00     0.167 HD
ATOM     59  C   UNL A   1      42.482  32.681  29.821  1.00  0.00     0.074 A 
ATOM     60  C   UNL A   1      41.499  33.597  30.369  1.00  0.00     0.031 C 
ATOM     61  C   UNL A   1      43.796  32.982  29.655  1.00  0.00     0.034 A 
BRANCH  48  62
ATOM     62  C   UNL A   1      47.151  28.395  27.122  1.00  0.00     0.023 A 
ATOM     63  C   UNL A   1      47.494  28.359  25.758  1.00  0.00     0.031 A 
ATOM     64  C   UNL A   1      48.080  27.883  28.045  1.00  0.00     0.131 A 
ATOM     65  C   UNL A   1      48.693  27.752  25.352  1.00  0.00     0.055 A 
ATOM     66  C   UNL A   1      49.307  27.354  27.641  1.00  0.00     0.041 A 
ATOM     67  F   UNL A   1      47.801  27.868  29.358  1.00  0.00    -0.206 F 
ATOM     68  C   UNL A   1      49.613  27.269  26.286  1.00  0.00     0.022 A 
BRANCH  65  69
ATOM     69  S   UNL A   1      48.960  27.451  23.582  1.00  0.00     0.124 S 
ATOM     70  O   UNL A   1      49.170  26.006  23.558  1.00  0.00    -0.237 OA
ATOM     71  O   UNL A   1      47.716  27.930  22.992  1.00  0.00    -0.237 OA
ATOM     72  O   UNL A   1      50.145  28.250  23.274  1.00  0.00    -0.744 OA
ENDBRANCH  65  69
ENDBRANCH  48  62
BRANCH  49  73
ATOM     73  C   UNL A   1      38.048  31.148  30.342  1.00  0.00     0.023 A 
ATOM     74  C   UNL A   1      37.149  31.942  29.615  1.00  0.00     0.031 A 
ATOM     75  C   UNL A   1      37.663  30.715  31.624  1.00  0.00     0.131 A 
ATOM     76  C   UNL A   1      35.918  32.302  30.187  1.00  0.00     0.055 A 
ATOM     77  C   UNL A   1      36.420  31.038  32.169  1.00  0.00     0.041 A 
ATOM     78  F   UNL A   1      38.487  29.951  32.359  1.00  0.00    -0.206 F 
ATOM     79  C   UNL A   1      35.543  31.844  31.453  1.00  0.00     0.022 A 
BRANCH  76  80
ATOM     80  S   UNL A   1      34.828  33.427  29.273  1.00  0.00     0.124 S 
ATOM     81  O   UNL A   1      33.660  33.485  30.144  1.00  0.00    -0.237 OA
ATOM     82  O   UNL A   1      35.636  34.641  29.201  1.00  0.00    -0.237 OA
ATOM     83  O   UNL A   1      34.624  32.743  27.997  1.00  0.00    -0.744 OA
ENDBRANCH  76  80
ENDBRANCH  49  73
BRANCH  61  84
ATOM     84  C   UNL A   1      44.226  34.370  30.061  1.00  0.00     0.023 A 
ATOM     85  C   UNL A   1      44.191  35.445  29.156  1.00  0.00     0.031 A 
ATOM     86  C   UNL A   1      44.711  34.610  31.359  1.00  0.00     0.131 A 
ATOM     87  C   UNL A   1      44.687  36.699  29.542  1.00  0.00     0.055 A 
ATOM     88  C   UNL A   1      45.150  35.874  31.755  1.00  0.00     0.041 A 
ATOM     89  F   UNL A   1      44.770  33.618  32.261  1.00  0.00    -0.206 F 
ATOM     90  C   UNL A   1      45.152  36.924  30.841  1.00  0.00     0.022 A 
BRANCH  87  91
ATOM     91  S   UNL A   1      44.807  38.011  28.295  1.00  0.00     0.124 S 
ATOM     92  O   UNL A   1      43.870  37.548  27.277  1.00  0.00    -0.237 OA
ATOM     93  O   UNL A   1      44.401  39.194  29.046  1.00  0.00    -0.237 OA
ATOM     94  O   UNL A   1      46.215  37.982  27.901  1.00  0.00    -0.744 OA
ENDBRANCH  87  91
ENDBRANCH  61  84
ENDBRANCH  35  36
ENDBRANCH  28  30
ENDBRANCH  27  28
ENDBRANCH  26  27
ENDBRANCH   1  26
TORSDOF 20
ENDMDL
