MODEL 1
REMARK VINA RESULT:     -14.0      0.000      0.000
REMARK SMILES Cc1ccc(C(=O)N2CCCC[C@@H]2C(=O)OCCOC(=O)c2ccc(-c3c4nc(c(-c5cc(S(=O)(=O)[O-])ccc5F)c5ccc([nH]5)c(-c5cc(S(=O)(=O)[O-])ccc5F)c5nc(c(-c6cc(S(=O)(=O)[O-])ccc6F)c6ccc3[nH]6)C=C5)C=C4)cc2)cc1S(=O)(=O)N1CCCCC1
REMARK SMILES IDX 17 1 16 2 14 3 15 4 13 5 8 6 9 7 10 8 12 9 11 10 6 11 7 12
REMARK SMILES IDX 5 13 1 14 2 15 3 16 86 17 4 18 85 19 87 20 88 21 89 22 90 23
REMARK SMILES IDX 91 24 95 25 92 26 94 27 93 28 18 29 19 30 20 31 21 32 22 33
REMARK SMILES IDX 23 34 84 35 24 36 83 37 25 38 26 39 27 40 77 41 28 42 82 43
REMARK SMILES IDX 76 44 78 45 29 46 81 47 75 48 74 49 30 51 62 52 42 53 61 54
REMARK SMILES IDX 43 55 46 56 60 57 79 58 44 59 45 60 59 62 80 63 47 64 31 65
REMARK SMILES IDX 32 66 40 67 33 68 39 69 41 70 38 71 34 72 35 73 36 74 37 75
REMARK SMILES IDX 63 76 64 77 72 78 65 79 71 80 73 81 70 82 66 83 67 84 68 85
REMARK SMILES IDX 69 86 48 87 49 88 57 89 50 90 56 91 58 92 55 93 51 94 52 95
REMARK SMILES IDX 53 96 54 97
REMARK H PARENT 78 50 46 61
REMARK Flexibility Score: inf
ROOT
ATOM      1  C   UNL A   1      36.643  20.974  25.654  1.00  0.00     0.274 C 
ENDROOT
BRANCH   1   2
ATOM      2  O   UNL A   1      34.944  21.506  25.587  1.00  0.00    -0.461 OA
BRANCH   2   3
ATOM      3  C   UNL A   1      33.267  21.116  24.818  1.00  0.00     0.328 C 
ATOM      4  O   UNL A   1      32.996  20.132  24.077  1.00  0.00    -0.250 OA
BRANCH   3   5
ATOM      5  C   UNL A   1      31.784  21.912  25.281  1.00  0.00     0.195 C 
ATOM      6  N   UNL A   1      31.928  23.270  24.921  1.00  0.00    -0.325 N 
ATOM      7  C   UNL A   1      30.898  24.289  25.278  1.00  0.00     0.121 C 
ATOM      8  C   UNL A   1      30.326  24.153  26.666  1.00  0.00     0.022 C 
ATOM      9  C   UNL A   1      30.946  21.755  26.595  1.00  0.00     0.037 C 
ATOM     10  C   UNL A   1      29.793  22.743  26.803  1.00  0.00     0.005 C 
BRANCH   6  11
ATOM     11  C   UNL A   1      32.616  23.496  23.739  1.00  0.00     0.254 C 
ATOM     12  O   UNL A   1      31.795  23.326  22.801  1.00  0.00    -0.269 OA
BRANCH  11  13
ATOM     13  C   UNL A   1      34.443  24.198  23.535  1.00  0.00     0.041 A 
ATOM     14  C   UNL A   1      32.689  28.149  25.070  1.00  0.00     0.046 C 
ATOM     15  C   UNL A   1      32.949  26.698  25.153  1.00  0.00    -0.031 A 
ATOM     16  C   UNL A   1      34.347  25.981  26.195  1.00  0.00     0.005 A 
ATOM     17  C   UNL A   1      32.555  26.298  23.476  1.00  0.00     0.086 A 
ATOM     18  C   UNL A   1      35.438  24.640  25.290  1.00  0.00     0.014 A 
ATOM     19  C   UNL A   1      33.257  25.121  22.745  1.00  0.00     0.035 A 
BRANCH  17  20
ATOM     20  S   UNL A   1      31.662  27.492  21.956  1.00  0.00     0.243 S 
ATOM     21  O   UNL A   1      32.577  28.621  21.812  1.00  0.00    -0.207 OA
ATOM     22  O   UNL A   1      31.428  26.597  20.844  1.00  0.00    -0.207 OA
BRANCH  20  23
ATOM     23  N   UNL A   1      29.920  28.335  22.405  1.00  0.00    -0.198 NA
ATOM     24  C   UNL A   1      30.133  29.727  22.843  1.00  0.00     0.102 C 
ATOM     25  C   UNL A   1      28.877  27.679  23.386  1.00  0.00     0.102 C 
ATOM     26  C   UNL A   1      28.814  30.404  23.298  1.00  0.00     0.017 C 
ATOM     27  C   UNL A   1      27.450  28.352  23.247  1.00  0.00     0.017 C 
ATOM     28  C   UNL A   1      27.523  29.784  22.770  1.00  0.00     0.003 C 
ENDBRANCH  20  23
ENDBRANCH  17  20
ENDBRANCH  11  13
ENDBRANCH   6  11
ENDBRANCH   3   5
ENDBRANCH   2   3
ENDBRANCH   1   2
BRANCH   1  29
ATOM     29  C   UNL A   1      37.942  21.977  25.376  1.00  0.00     0.275 C 
BRANCH  29  30
ATOM     30  O   UNL A   1      39.046  22.239  26.316  1.00  0.00    -0.458 OA
BRANCH  30  31
ATOM     31  C   UNL A   1      40.137  21.450  26.365  1.00  0.00     0.338 C 
ATOM     32  O   UNL A   1      40.260  20.263  26.157  1.00  0.00    -0.246 OA
BRANCH  31  33
ATOM     33  C   UNL A   1      41.134  22.300  26.903  1.00  0.00     0.060 A 
ATOM     34  C   UNL A   1      41.559  22.791  28.625  1.00  0.00     0.016 A 
ATOM     35  C   UNL A   1      42.228  22.811  25.530  1.00  0.00     0.016 A 
ATOM     36  C   UNL A   1      42.961  24.029  28.885  1.00  0.00     0.010 A 
ATOM     37  C   UNL A   1      43.653  23.776  25.918  1.00  0.00     0.010 A 
ATOM     38  C   UNL A   1      43.965  24.729  27.512  1.00  0.00    -0.014 A 
BRANCH  38  39
ATOM     39  C   UNL A   1      44.401  26.684  26.972  1.00  0.00     0.031 A 
ATOM     40  C   UNL A   1      42.801  27.317  26.556  1.00  0.00     0.074 A 
ATOM     41  C   UNL A   1      45.837  27.396  28.095  1.00  0.00     0.049 A 
ATOM     42  N   UNL A   1      42.390  28.572  26.649  1.00  0.00    -0.248 NA
ATOM     43  C   UNL A   1      41.660  26.410  26.427  1.00  0.00     0.031 C 
ATOM     44  C   UNL A   1      45.480  28.130  29.781  1.00  0.00     0.029 A 
ATOM     45  N   UNL A   1      47.019  26.872  28.907  1.00  0.00    -0.354 N 
ATOM     46  C   UNL A   1      41.124  28.510  27.210  1.00  0.00     0.074 A 
ATOM     47  C   UNL A   1      40.639  27.229  26.724  1.00  0.00     0.031 C 
ATOM     48  C   UNL A   1      46.429  28.141  30.695  1.00  0.00     0.029 A 
ATOM     49  C   UNL A   1      47.515  27.703  29.975  1.00  0.00     0.049 A 
ATOM     50  H   UNL A   1      47.428  25.999  28.708  1.00  0.00     0.167 HD
ATOM     51  C   UNL A   1      40.711  29.296  28.276  1.00  0.00     0.034 A 
ATOM     52  C   UNL A   1      48.579  28.517  29.831  1.00  0.00     0.034 A 
ATOM     53  C   UNL A   1      41.782  30.112  28.972  1.00  0.00     0.049 A 
ATOM     54  C   UNL A   1      47.857  30.140  29.489  1.00  0.00     0.074 A 
ATOM     55  C   UNL A   1      42.184  30.145  30.314  1.00  0.00     0.029 A 
ATOM     56  N   UNL A   1      42.734  30.911  28.315  1.00  0.00    -0.354 N 
ATOM     57  N   UNL A   1      46.600  30.566  29.821  1.00  0.00    -0.248 NA
ATOM     58  C   UNL A   1      48.468  31.339  28.849  1.00  0.00     0.031 C 
ATOM     59  C   UNL A   1      43.370  30.924  30.453  1.00  0.00     0.029 A 
ATOM     60  C   UNL A   1      43.744  31.379  29.208  1.00  0.00     0.049 A 
ATOM     61  H   UNL A   1      42.707  31.122  27.354  1.00  0.00     0.167 HD
ATOM     62  C   UNL A   1      46.211  31.785  29.158  1.00  0.00     0.074 A 
ATOM     63  C   UNL A   1      47.494  32.263  28.687  1.00  0.00     0.031 C 
ATOM     64  C   UNL A   1      44.905  32.192  28.749  1.00  0.00     0.034 A 
BRANCH  51  65
ATOM     65  C   UNL A   1      39.321  29.234  28.973  1.00  0.00     0.023 A 
ATOM     66  C   UNL A   1      39.307  28.911  30.352  1.00  0.00     0.031 A 
ATOM     67  C   UNL A   1      38.037  29.499  28.450  1.00  0.00     0.131 A 
ATOM     68  C   UNL A   1      38.127  28.844  31.120  1.00  0.00     0.055 A 
ATOM     69  C   UNL A   1      36.857  29.472  29.222  1.00  0.00     0.041 A 
ATOM     70  F   UNL A   1      37.811  29.798  27.172  1.00  0.00    -0.206 F 
ATOM     71  C   UNL A   1      36.895  29.145  30.567  1.00  0.00     0.022 A 
BRANCH  68  72
ATOM     72  S   UNL A   1      38.258  28.371  32.863  1.00  0.00     0.124 S 
ATOM     73  O   UNL A   1      38.303  26.915  32.777  1.00  0.00    -0.237 OA
ATOM     74  O   UNL A   1      39.490  29.037  33.272  1.00  0.00    -0.237 OA
ATOM     75  O   UNL A   1      37.036  28.918  33.453  1.00  0.00    -0.744 OA
ENDBRANCH  68  72
ENDBRANCH  51  65
BRANCH  52  76
ATOM     76  C   UNL A   1      49.532  27.287  29.266  1.00  0.00     0.023 A 
ATOM     77  C   UNL A   1      49.909  26.994  27.916  1.00  0.00     0.031 A 
ATOM     78  C   UNL A   1      50.570  26.871  30.088  1.00  0.00     0.131 A 
ATOM     79  C   UNL A   1      51.202  26.378  27.569  1.00  0.00     0.055 A 
ATOM     80  C   UNL A   1      51.823  26.271  29.795  1.00  0.00     0.041 A 
ATOM     81  F   UNL A   1      50.391  27.298  31.307  1.00  0.00    -0.206 F 
ATOM     82  C   UNL A   1      52.177  26.080  28.505  1.00  0.00     0.022 A 
BRANCH  79  83
ATOM     83  S   UNL A   1      51.675  25.917  25.875  1.00  0.00     0.124 S 
ATOM     84  O   UNL A   1      52.348  24.644  26.110  1.00  0.00    -0.237 OA
ATOM     85  O   UNL A   1      50.389  25.863  25.191  1.00  0.00    -0.237 OA
ATOM     86  O   UNL A   1      52.553  27.002  25.433  1.00  0.00    -0.744 OA
ENDBRANCH  79  83
ENDBRANCH  52  76
BRANCH  64  87
ATOM     87  C   UNL A   1      44.534  33.298  27.681  1.00  0.00     0.023 A 
ATOM     88  C   UNL A   1      44.337  34.662  27.954  1.00  0.00     0.031 A 
ATOM     89  C   UNL A   1      44.424  32.973  26.291  1.00  0.00     0.131 A 
ATOM     90  C   UNL A   1      43.809  35.539  26.968  1.00  0.00     0.055 A 
ATOM     91  C   UNL A   1      44.028  33.876  25.291  1.00  0.00     0.041 A 
ATOM     92  F   UNL A   1      44.686  31.744  25.825  1.00  0.00    -0.206 F 
ATOM     93  C   UNL A   1      43.642  35.152  25.640  1.00  0.00     0.022 A 
BRANCH  90  94
ATOM     94  S   UNL A   1      43.100  37.123  27.511  1.00  0.00     0.124 S 
ATOM     95  O   UNL A   1      43.976  38.080  26.841  1.00  0.00    -0.237 OA
ATOM     96  O   UNL A   1      41.734  37.053  27.008  1.00  0.00    -0.237 OA
ATOM     97  O   UNL A   1      43.231  37.084  28.968  1.00  0.00    -0.744 OA
ENDBRANCH  90  94
ENDBRANCH  64  87
ENDBRANCH  38  39
ENDBRANCH  31  33
ENDBRANCH  30  31
ENDBRANCH  29  30
ENDBRANCH   1  29
TORSDOF 18
ENDMDL
MODEL 2
REMARK VINA RESULT:     -13.9      6.927     14.687
REMARK SMILES Cc1ccc(C(=O)N2CCCC[C@@H]2C(=O)OCCOC(=O)c2ccc(-c3c4nc(c(-c5cc(S(=O)(=O)[O-])ccc5F)c5ccc([nH]5)c(-c5cc(S(=O)(=O)[O-])ccc5F)c5nc(c(-c6cc(S(=O)(=O)[O-])ccc6F)c6ccc3[nH]6)C=C5)C=C4)cc2)cc1S(=O)(=O)N1CCCCC1
REMARK SMILES IDX 17 1 16 2 14 3 15 4 13 5 8 6 9 7 10 8 12 9 11 10 6 11 7 12
REMARK SMILES IDX 5 13 1 14 2 15 3 16 86 17 4 18 85 19 87 20 88 21 89 22 90 23
REMARK SMILES IDX 91 24 95 25 92 26 94 27 93 28 18 29 19 30 20 31 21 32 22 33
REMARK SMILES IDX 23 34 84 35 24 36 83 37 25 38 26 39 27 40 77 41 28 42 82 43
REMARK SMILES IDX 76 44 78 45 29 46 81 47 75 48 74 49 30 51 62 52 42 53 61 54
REMARK SMILES IDX 43 55 46 56 60 57 79 58 44 59 45 60 59 62 80 63 47 64 31 65
REMARK SMILES IDX 32 66 40 67 33 68 39 69 41 70 38 71 34 72 35 73 36 74 37 75
REMARK SMILES IDX 63 76 64 77 72 78 65 79 71 80 73 81 70 82 66 83 67 84 68 85
REMARK SMILES IDX 69 86 48 87 49 88 57 89 50 90 56 91 58 92 55 93 51 94 52 95
REMARK SMILES IDX 53 96 54 97
REMARK H PARENT 78 50 46 61
REMARK Flexibility Score: inf
ROOT
ATOM      1  C   UNL A   1      45.699  40.357  25.883  1.00  0.00     0.274 C 
ENDROOT
BRANCH   1   2
ATOM      2  O   UNL A   1      45.870  41.517  24.542  1.00  0.00    -0.461 OA
BRANCH   2   3
ATOM      3  C   UNL A   1      46.420  43.271  24.120  1.00  0.00     0.328 C 
ATOM      4  O   UNL A   1      46.352  44.277  24.876  1.00  0.00    -0.250 OA
BRANCH   3   5
ATOM      5  C   UNL A   1      47.382  43.670  22.718  1.00  0.00     0.195 C 
ATOM      6  N   UNL A   1      46.736  43.084  21.608  1.00  0.00    -0.325 N 
ATOM      7  C   UNL A   1      47.340  43.112  20.244  1.00  0.00     0.121 C 
ATOM      8  C   UNL A   1      48.825  42.858  20.203  1.00  0.00     0.022 C 
ATOM      9  C   UNL A   1      48.939  43.650  22.549  1.00  0.00     0.037 C 
ATOM     10  C   UNL A   1      49.483  43.857  21.132  1.00  0.00     0.005 C 
BRANCH   6  11
ATOM     11  C   UNL A   1      45.350  43.106  21.654  1.00  0.00     0.254 C 
ATOM     12  O   UNL A   1      44.957  41.936  21.413  1.00  0.00    -0.269 OA
BRANCH  11  13
ATOM     13  C   UNL A   1      44.198  44.593  22.233  1.00  0.00     0.041 A 
ATOM     14  C   UNL A   1      41.470  43.331  18.768  1.00  0.00     0.046 C 
ATOM     15  C   UNL A   1      42.248  43.077  19.998  1.00  0.00    -0.031 A 
ATOM     16  C   UNL A   1      41.452  43.031  21.706  1.00  0.00     0.005 A 
ATOM     17  C   UNL A   1      43.711  43.952  19.526  1.00  0.00     0.086 A 
ATOM     18  C   UNL A   1      42.390  44.056  23.076  1.00  0.00     0.014 A 
ATOM     19  C   UNL A   1      44.611  44.643  20.587  1.00  0.00     0.035 A 
BRANCH  17  20
ATOM     20  S   UNL A   1      44.262  44.787  17.647  1.00  0.00     0.243 S 
ATOM     21  O   UNL A   1      45.691  45.053  17.785  1.00  0.00    -0.207 OA
ATOM     22  O   UNL A   1      43.788  43.852  16.650  1.00  0.00    -0.207 OA
BRANCH  20  23
ATOM     23  N   UNL A   1      43.480  46.559  17.205  1.00  0.00    -0.198 NA
ATOM     24  C   UNL A   1      43.914  47.562  18.197  1.00  0.00     0.102 C 
ATOM     25  C   UNL A   1      41.942  46.777  16.948  1.00  0.00     0.102 C 
ATOM     26  C   UNL A   1      43.256  48.944  17.955  1.00  0.00     0.017 C 
ATOM     27  C   UNL A   1      41.666  48.168  16.239  1.00  0.00     0.017 C 
ATOM     28  C   UNL A   1      42.725  49.201  16.547  1.00  0.00     0.003 C 
ENDBRANCH  20  23
ENDBRANCH  17  20
ENDBRANCH  11  13
ENDBRANCH   6  11
ENDBRANCH   3   5
ENDBRANCH   2   3
ENDBRANCH   1   2
BRANCH   1  29
ATOM     29  C   UNL A   1      46.315  38.812  25.858  1.00  0.00     0.275 C 
BRANCH  29  30
ATOM     30  O   UNL A   1      46.106  37.783  26.894  1.00  0.00    -0.458 OA
BRANCH  30  31
ATOM     31  C   UNL A   1      44.872  37.379  27.251  1.00  0.00     0.338 C 
ATOM     32  O   UNL A   1      43.998  37.959  27.857  1.00  0.00    -0.246 OA
BRANCH  31  33
ATOM     33  C   UNL A   1      44.863  36.005  26.907  1.00  0.00     0.060 A 
ATOM     34  C   UNL A   1      43.663  34.959  25.982  1.00  0.00     0.016 A 
ATOM     35  C   UNL A   1      46.474  35.297  27.400  1.00  0.00     0.016 A 
ATOM     36  C   UNL A   1      44.029  33.114  25.809  1.00  0.00     0.010 A 
ATOM     37  C   UNL A   1      46.809  33.618  26.976  1.00  0.00     0.010 A 
ATOM     38  C   UNL A   1      45.549  32.314  26.466  1.00  0.00    -0.014 A 
BRANCH  38  39
ATOM     39  C   UNL A   1      45.826  30.685  27.719  1.00  0.00     0.031 A 
ATOM     40  C   UNL A   1      44.529  30.906  28.903  1.00  0.00     0.074 A 
ATOM     41  C   UNL A   1      46.404  29.125  26.688  1.00  0.00     0.049 A 
ATOM     42  N   UNL A   1      43.903  29.960  29.587  1.00  0.00    -0.248 NA
ATOM     43  C   UNL A   1      43.771  32.156  28.941  1.00  0.00     0.031 C 
ATOM     44  C   UNL A   1      45.165  28.019  25.820  1.00  0.00     0.029 A 
ATOM     45  N   UNL A   1      47.134  28.824  25.381  1.00  0.00    -0.354 N 
ATOM     46  C   UNL A   1      42.557  30.289  29.532  1.00  0.00     0.074 A 
ATOM     47  C   UNL A   1      42.601  31.738  29.452  1.00  0.00     0.031 C 
ATOM     48  C   UNL A   1      45.549  27.317  24.774  1.00  0.00     0.029 A 
ATOM     49  C   UNL A   1      46.905  27.540  24.770  1.00  0.00     0.049 A 
ATOM     50  H   UNL A   1      47.738  29.485  24.972  1.00  0.00     0.167 HD
ATOM     51  C   UNL A   1      41.554  29.387  29.205  1.00  0.00     0.034 A 
ATOM     52  C   UNL A   1      47.743  26.497  24.930  1.00  0.00     0.034 A 
ATOM     53  C   UNL A   1      42.001  28.033  28.690  1.00  0.00     0.049 A 
ATOM     54  C   UNL A   1      46.988  25.516  26.249  1.00  0.00     0.074 A 
ATOM     55  C   UNL A   1      41.706  27.362  27.496  1.00  0.00     0.029 A 
ATOM     56  N   UNL A   1      42.987  27.233  29.292  1.00  0.00    -0.354 N 
ATOM     57  N   UNL A   1      45.670  25.509  26.616  1.00  0.00    -0.248 NA
ATOM     58  C   UNL A   1      47.601  24.499  27.149  1.00  0.00     0.031 C 
ATOM     59  C   UNL A   1      42.521  26.199  27.371  1.00  0.00     0.029 A 
ATOM     60  C   UNL A   1      43.351  26.125  28.468  1.00  0.00     0.049 A 
ATOM     61  H   UNL A   1      43.381  27.415  30.176  1.00  0.00     0.167 HD
ATOM     62  C   UNL A   1      45.428  24.863  27.880  1.00  0.00     0.074 A 
ATOM     63  C   UNL A   1      46.669  24.142  28.063  1.00  0.00     0.031 C 
ATOM     64  C   UNL A   1      44.421  25.162  28.848  1.00  0.00     0.034 A 
BRANCH  51  65
ATOM     65  C   UNL A   1      40.037  29.712  29.083  1.00  0.00     0.023 A 
ATOM     66  C   UNL A   1      39.370  30.122  30.264  1.00  0.00     0.031 A 
ATOM     67  C   UNL A   1      39.202  29.707  27.945  1.00  0.00     0.131 A 
ATOM     68  C   UNL A   1      38.006  30.472  30.300  1.00  0.00     0.055 A 
ATOM     69  C   UNL A   1      37.846  30.094  27.967  1.00  0.00     0.041 A 
ATOM     70  F   UNL A   1      39.612  29.331  26.734  1.00  0.00    -0.206 F 
ATOM     71  C   UNL A   1      37.239  30.483  29.148  1.00  0.00     0.022 A 
BRANCH  68  72
ATOM     72  S   UNL A   1      37.276  30.932  31.892  1.00  0.00     0.124 S 
ATOM     73  O   UNL A   1      38.444  30.947  32.766  1.00  0.00    -0.237 OA
ATOM     74  O   UNL A   1      36.671  32.226  31.592  1.00  0.00    -0.237 OA
ATOM     75  O   UNL A   1      36.324  29.852  32.151  1.00  0.00    -0.744 OA
ENDBRANCH  68  72
ENDBRANCH  51  65
BRANCH  52  76
ATOM     76  C   UNL A   1      49.055  27.387  24.454  1.00  0.00     0.023 A 
ATOM     77  C   UNL A   1      50.122  27.907  25.255  1.00  0.00     0.031 A 
ATOM     78  C   UNL A   1      49.572  27.118  23.195  1.00  0.00     0.131 A 
ATOM     79  C   UNL A   1      51.494  28.066  24.742  1.00  0.00     0.055 A 
ATOM     80  C   UNL A   1      50.880  27.261  22.661  1.00  0.00     0.041 A 
ATOM     81  F   UNL A   1      48.714  26.445  22.480  1.00  0.00    -0.206 F 
ATOM     82  C   UNL A   1      51.879  27.682  23.469  1.00  0.00     0.022 A 
BRANCH  79  83
ATOM     83  S   UNL A   1      52.851  28.799  25.705  1.00  0.00     0.124 S 
ATOM     84  O   UNL A   1      52.132  29.813  26.472  1.00  0.00    -0.237 OA
ATOM     85  O   UNL A   1      53.365  27.656  26.449  1.00  0.00    -0.237 OA
ATOM     86  O   UNL A   1      53.769  29.331  24.697  1.00  0.00    -0.744 OA
ENDBRANCH  79  83
ENDBRANCH  52  76
BRANCH  64  87
ATOM     87  C   UNL A   1      44.407  24.752  30.376  1.00  0.00     0.023 A 
ATOM     88  C   UNL A   1      44.765  25.586  31.448  1.00  0.00     0.031 A 
ATOM     89  C   UNL A   1      43.954  23.457  30.788  1.00  0.00     0.131 A 
ATOM     90  C   UNL A   1      44.915  25.069  32.763  1.00  0.00     0.055 A 
ATOM     91  C   UNL A   1      43.978  22.989  32.111  1.00  0.00     0.041 A 
ATOM     92  F   UNL A   1      43.469  22.563  29.916  1.00  0.00    -0.206 F 
ATOM     93  C   UNL A   1      44.535  23.771  33.100  1.00  0.00     0.022 A 
BRANCH  90  94
ATOM     94  S   UNL A   1      45.860  26.043  33.973  1.00  0.00     0.124 S 
ATOM     95  O   UNL A   1      46.823  26.723  33.111  1.00  0.00    -0.237 OA
ATOM     96  O   UNL A   1      44.837  26.889  34.575  1.00  0.00    -0.237 OA
ATOM     97  O   UNL A   1      46.437  25.034  34.861  1.00  0.00    -0.744 OA
ENDBRANCH  90  94
ENDBRANCH  64  87
ENDBRANCH  38  39
ENDBRANCH  31  33
ENDBRANCH  30  31
ENDBRANCH  29  30
ENDBRANCH   1  29
TORSDOF 18
ENDMDL
MODEL 3
REMARK VINA RESULT:     -13.8      2.126      2.813
REMARK SMILES Cc1ccc(C(=O)N2CCCC[C@@H]2C(=O)OCCOC(=O)c2ccc(-c3c4nc(c(-c5cc(S(=O)(=O)[O-])ccc5F)c5ccc([nH]5)c(-c5cc(S(=O)(=O)[O-])ccc5F)c5nc(c(-c6cc(S(=O)(=O)[O-])ccc6F)c6ccc3[nH]6)C=C5)C=C4)cc2)cc1S(=O)(=O)N1CCCCC1
REMARK SMILES IDX 17 1 16 2 14 3 15 4 13 5 8 6 9 7 10 8 12 9 11 10 6 11 7 12
REMARK SMILES IDX 5 13 1 14 2 15 3 16 86 17 4 18 85 19 87 20 88 21 89 22 90 23
REMARK SMILES IDX 91 24 95 25 92 26 94 27 93 28 18 29 19 30 20 31 21 32 22 33
REMARK SMILES IDX 23 34 84 35 24 36 83 37 25 38 26 39 27 40 77 41 28 42 82 43
REMARK SMILES IDX 76 44 78 45 29 46 81 47 75 48 74 49 30 51 62 52 42 53 61 54
REMARK SMILES IDX 43 55 46 56 60 57 79 58 44 59 45 60 59 62 80 63 47 64 31 65
REMARK SMILES IDX 32 66 40 67 33 68 39 69 41 70 38 71 34 72 35 73 36 74 37 75
REMARK SMILES IDX 63 76 64 77 72 78 65 79 71 80 73 81 70 82 66 83 67 84 68 85
REMARK SMILES IDX 69 86 48 87 49 88 57 89 50 90 56 91 58 92 55 93 51 94 52 95
REMARK SMILES IDX 53 96 54 97
REMARK H PARENT 78 50 46 61
REMARK Flexibility Score: inf
ROOT
ATOM      1  C   UNL A   1      38.264  20.854  25.311  1.00  0.00     0.274 C 
ENDROOT
BRANCH   1   2
ATOM      2  O   UNL A   1      36.613  21.427  24.967  1.00  0.00    -0.461 OA
BRANCH   2   3
ATOM      3  C   UNL A   1      34.807  20.886  24.902  1.00  0.00     0.328 C 
ATOM      4  O   UNL A   1      34.156  20.344  25.836  1.00  0.00    -0.250 OA
BRANCH   3   5
ATOM      5  C   UNL A   1      33.708  21.342  23.624  1.00  0.00     0.195 C 
ATOM      6  N   UNL A   1      33.360  22.691  23.857  1.00  0.00    -0.325 N 
ATOM      7  C   UNL A   1      32.334  23.390  23.029  1.00  0.00     0.121 C 
ATOM      8  C   UNL A   1      31.117  22.564  22.698  1.00  0.00     0.022 C 
ATOM      9  C   UNL A   1      32.508  20.539  23.018  1.00  0.00     0.037 C 
ATOM     10  C   UNL A   1      31.597  21.288  22.041  1.00  0.00     0.005 C 
BRANCH   6  11
ATOM     11  C   UNL A   1      34.384  23.487  24.347  1.00  0.00     0.254 C 
ATOM     12  O   UNL A   1      34.934  24.027  23.354  1.00  0.00    -0.269 OA
BRANCH  11  13
ATOM     13  C   UNL A   1      34.766  23.918  26.229  1.00  0.00     0.041 A 
ATOM     14  C   UNL A   1      30.679  26.001  26.187  1.00  0.00     0.046 C 
ATOM     15  C   UNL A   1      31.577  24.849  25.971  1.00  0.00    -0.031 A 
ATOM     16  C   UNL A   1      31.757  23.458  27.229  1.00  0.00     0.005 A 
ATOM     17  C   UNL A   1      32.880  25.726  25.155  1.00  0.00     0.086 A 
ATOM     18  C   UNL A   1      33.597  22.947  27.630  1.00  0.00     0.014 A 
ATOM     19  C   UNL A   1      34.358  25.267  25.282  1.00  0.00     0.035 A 
BRANCH  17  20
ATOM     20  S   UNL A   1      32.940  27.726  24.429  1.00  0.00     0.243 S 
ATOM     21  O   UNL A   1      34.064  27.729  23.498  1.00  0.00    -0.207 OA
ATOM     22  O   UNL A   1      31.602  28.010  23.958  1.00  0.00    -0.207 OA
BRANCH  20  23
ATOM     23  N   UNL A   1      33.404  29.132  25.754  1.00  0.00    -0.198 NA
ATOM     24  C   UNL A   1      34.499  28.661  26.624  1.00  0.00     0.102 C 
ATOM     25  C   UNL A   1      32.334  29.834  26.671  1.00  0.00     0.102 C 
ATOM     26  C   UNL A   1      34.839  29.683  27.739  1.00  0.00     0.017 C 
ATOM     27  C   UNL A   1      32.909  31.159  27.322  1.00  0.00     0.017 C 
ATOM     28  C   UNL A   1      34.411  31.127  27.483  1.00  0.00     0.003 C 
ENDBRANCH  20  23
ENDBRANCH  17  20
ENDBRANCH  11  13
ENDBRANCH   6  11
ENDBRANCH   3   5
ENDBRANCH   2   3
ENDBRANCH   1   2
BRANCH   1  29
ATOM     29  C   UNL A   1      39.374  21.705  26.211  1.00  0.00     0.275 C 
BRANCH  29  30
ATOM     30  O   UNL A   1      40.703  22.146  25.749  1.00  0.00    -0.458 OA
BRANCH  30  31
ATOM     31  C   UNL A   1      41.809  21.408  25.964  1.00  0.00     0.338 C 
ATOM     32  O   UNL A   1      41.965  20.206  25.961  1.00  0.00    -0.246 OA
BRANCH  31  33
ATOM     33  C   UNL A   1      42.767  22.362  26.385  1.00  0.00     0.060 A 
ATOM     34  C   UNL A   1      43.453  22.796  28.037  1.00  0.00     0.016 A 
ATOM     35  C   UNL A   1      43.485  23.125  24.887  1.00  0.00     0.016 A 
ATOM     36  C   UNL A   1      44.695  24.214  28.147  1.00  0.00     0.010 A 
ATOM     37  C   UNL A   1      44.812  24.269  25.092  1.00  0.00     0.010 A 
ATOM     38  C   UNL A   1      45.301  25.150  26.684  1.00  0.00    -0.014 A 
BRANCH  38  39
ATOM     39  C   UNL A   1      45.348  27.180  26.261  1.00  0.00     0.031 A 
ATOM     40  C   UNL A   1      43.625  27.582  26.189  1.00  0.00     0.074 A 
ATOM     41  C   UNL A   1      46.852  28.032  27.178  1.00  0.00     0.049 A 
ATOM     42  N   UNL A   1      43.066  28.749  26.468  1.00  0.00    -0.248 NA
ATOM     43  C   UNL A   1      42.621  26.519  26.177  1.00  0.00     0.031 C 
ATOM     44  C   UNL A   1      46.714  28.589  28.962  1.00  0.00     0.029 A 
ATOM     45  N   UNL A   1      48.226  27.647  27.721  1.00  0.00    -0.354 N 
ATOM     46  C   UNL A   1      41.947  28.453  27.232  1.00  0.00     0.074 A 
ATOM     47  C   UNL A   1      41.567  27.148  26.721  1.00  0.00     0.031 C 
ATOM     48  C   UNL A   1      47.805  28.687  29.694  1.00  0.00     0.029 A 
ATOM     49  C   UNL A   1      48.789  28.472  28.759  1.00  0.00     0.049 A 
ATOM     50  H   UNL A   1      48.710  26.863  27.373  1.00  0.00     0.167 HD
ATOM     51  C   UNL A   1      41.632  29.093  28.422  1.00  0.00     0.034 A 
ATOM     52  C   UNL A   1      49.683  29.450  28.509  1.00  0.00     0.034 A 
ATOM     53  C   UNL A   1      42.688  30.019  28.995  1.00  0.00     0.049 A 
ATOM     54  C   UNL A   1      48.687  30.959  28.450  1.00  0.00     0.074 A 
ATOM     55  C   UNL A   1      43.323  30.026  30.244  1.00  0.00     0.029 A 
ATOM     56  N   UNL A   1      43.379  30.998  28.260  1.00  0.00    -0.354 N 
ATOM     57  N   UNL A   1      47.466  31.162  29.033  1.00  0.00    -0.248 NA
ATOM     58  C   UNL A   1      48.993  32.279  27.828  1.00  0.00     0.031 C 
ATOM     59  C   UNL A   1      44.392  30.969  30.247  1.00  0.00     0.029 A 
ATOM     60  C   UNL A   1      44.461  31.558  29.004  1.00  0.00     0.049 A 
ATOM     61  H   UNL A   1      43.144  31.265  27.341  1.00  0.00     0.167 HD
ATOM     62  C   UNL A   1      46.793  32.346  28.564  1.00  0.00     0.074 A 
ATOM     63  C   UNL A   1      47.885  33.048  27.924  1.00  0.00     0.031 C 
ATOM     64  C   UNL A   1      45.389  32.570  28.428  1.00  0.00     0.034 A 
BRANCH  51  65
ATOM     65  C   UNL A   1      40.419  28.770  29.341  1.00  0.00     0.023 A 
ATOM     66  C   UNL A   1      39.629  29.865  29.773  1.00  0.00     0.031 A 
ATOM     67  C   UNL A   1      39.936  27.523  29.793  1.00  0.00     0.131 A 
ATOM     68  C   UNL A   1      38.487  29.722  30.586  1.00  0.00     0.055 A 
ATOM     69  C   UNL A   1      38.771  27.371  30.574  1.00  0.00     0.041 A 
ATOM     70  F   UNL A   1      40.536  26.363  29.529  1.00  0.00    -0.206 F 
ATOM     71  C   UNL A   1      38.036  28.473  30.974  1.00  0.00     0.022 A 
BRANCH  68  72
ATOM     72  S   UNL A   1      37.603  31.217  31.099  1.00  0.00     0.124 S 
ATOM     73  O   UNL A   1      37.960  31.308  32.511  1.00  0.00    -0.237 OA
ATOM     74  O   UNL A   1      38.171  32.230  30.217  1.00  0.00    -0.237 OA
ATOM     75  O   UNL A   1      36.202  30.886  30.836  1.00  0.00    -0.744 OA
ENDBRANCH  68  72
ENDBRANCH  51  65
BRANCH  52  76
ATOM     76  C   UNL A   1      50.678  28.424  27.676  1.00  0.00     0.023 A 
ATOM     77  C   UNL A   1      50.952  28.386  26.270  1.00  0.00     0.031 A 
ATOM     78  C   UNL A   1      51.818  27.985  28.334  1.00  0.00     0.131 A 
ATOM     79  C   UNL A   1      52.255  27.962  25.727  1.00  0.00     0.055 A 
ATOM     80  C   UNL A   1      53.085  27.563  27.849  1.00  0.00     0.041 A 
ATOM     81  F   UNL A   1      51.717  28.194  29.617  1.00  0.00    -0.206 F 
ATOM     82  C   UNL A   1      53.333  27.615  26.522  1.00  0.00     0.022 A 
BRANCH  79  83
ATOM     83  S   UNL A   1      52.607  27.824  23.949  1.00  0.00     0.124 S 
ATOM     84  O   UNL A   1      53.451  26.634  23.923  1.00  0.00    -0.237 OA
ATOM     85  O   UNL A   1      51.274  27.695  23.371  1.00  0.00    -0.237 OA
ATOM     86  O   UNL A   1      53.296  29.071  23.615  1.00  0.00    -0.744 OA
ENDBRANCH  79  83
ENDBRANCH  52  76
BRANCH  64  87
ATOM     87  C   UNL A   1      44.674  33.673  27.548  1.00  0.00     0.023 A 
ATOM     88  C   UNL A   1      44.187  34.904  28.019  1.00  0.00     0.031 A 
ATOM     89  C   UNL A   1      44.518  33.502  26.134  1.00  0.00     0.131 A 
ATOM     90  C   UNL A   1      43.381  35.738  27.198  1.00  0.00     0.055 A 
ATOM     91  C   UNL A   1      43.833  34.395  25.295  1.00  0.00     0.041 A 
ATOM     92  F   UNL A   1      45.019  32.441  25.487  1.00  0.00    -0.206 F 
ATOM     93  C   UNL A   1      43.191  35.486  25.840  1.00  0.00     0.022 A 
BRANCH  90  94
ATOM     94  S   UNL A   1      42.371  37.021  27.996  1.00  0.00     0.124 S 
ATOM     95  O   UNL A   1      41.269  36.230  28.538  1.00  0.00    -0.237 OA
ATOM     96  O   UNL A   1      43.288  37.589  28.976  1.00  0.00    -0.237 OA
ATOM     97  O   UNL A   1      42.004  37.913  26.896  1.00  0.00    -0.744 OA
ENDBRANCH  90  94
ENDBRANCH  64  87
ENDBRANCH  38  39
ENDBRANCH  31  33
ENDBRANCH  30  31
ENDBRANCH  29  30
ENDBRANCH   1  29
TORSDOF 18
ENDMDL
