MODEL 1
REMARK VINA RESULT:     -12.9      0.000      0.000
REMARK SMILES CC1=C[C@@H](C)[C@H]2C(=O)N([C@H](Cc3ccccc3)C(=O)OCCOC(=O)c3ccc(-c4c5nc(c(-c6cc(S(=O)(=O)[O-])ccc6F)c6ccc([nH]6)c(-c6cc(S(=O)(=O)[O-])ccc6F)c6nc(c(-c7cc(S(=O)(=O)[O-])ccc7F)c7ccc4[nH]7)C=C6)C=C5)cc3)C(=O)[C@H]2C1
REMARK SMILES IDX 22 1 21 2 20 3 18 4 19 5 10 6 9 7 1 8 2 9 3 10 92 11 4 12
REMARK SMILES IDX 91 13 6 14 5 15 89 16 7 17 90 18 8 19 11 20 12 21 13 22
REMARK SMILES IDX 17 23 14 24 16 25 15 26 23 27 24 28 25 29 26 30 27 31 88 32
REMARK SMILES IDX 28 33 87 34 29 35 30 36 31 37 81 38 32 39 86 40 80 41 82 42
REMARK SMILES IDX 33 43 85 44 79 45 78 46 34 48 66 49 46 50 65 51 47 52 50 53
REMARK SMILES IDX 64 54 83 55 48 56 49 57 63 59 84 60 51 61 35 62 36 63 44 64
REMARK SMILES IDX 37 65 43 66 45 67 42 68 38 69 39 70 40 71 41 72 67 73 68 74
REMARK SMILES IDX 76 75 69 76 75 77 77 78 74 79 70 80 71 81 72 82 73 83 52 84
REMARK SMILES IDX 53 85 61 86 54 87 60 88 62 89 59 90 55 91 56 92 57 93 58 94
REMARK H PARENT 82 47 50 58
REMARK Flexibility Score: inf
ROOT
ATOM      1  C   UNL A   1      31.739  31.058  26.103  1.00  0.00     0.275 C 
ENDROOT
BRANCH   1   2
ATOM      2  C   UNL A   1      31.819  29.711  25.376  1.00  0.00     0.274 C 
BRANCH   2   3
ATOM      3  O   UNL A   1      33.088  29.535  24.720  1.00  0.00    -0.461 OA
BRANCH   3   4
ATOM      4  C   UNL A   1      33.087  28.780  23.588  1.00  0.00     0.329 C 
ATOM      5  O   UNL A   1      33.739  29.040  22.581  1.00  0.00    -0.250 OA
BRANCH   4   6
ATOM      6  C   UNL A   1      32.174  27.554  23.694  1.00  0.00     0.207 C 
BRANCH   6   7
ATOM      7  N   UNL A   1      32.986  26.385  24.043  1.00  0.00    -0.267 N 
ATOM      8  C   UNL A   1      33.779  21.080  26.444  1.00  0.00     0.039 C 
ATOM      9  C   UNL A   1      33.893  22.256  25.514  1.00  0.00    -0.076 C 
ATOM     10  C   UNL A   1      34.034  22.071  24.195  1.00  0.00    -0.024 C 
ATOM     11  C   UNL A   1      33.748  23.625  26.127  1.00  0.00     0.044 C 
ATOM     12  C   UNL A   1      33.975  23.174  23.180  1.00  0.00     0.022 C 
ATOM     13  C   UNL A   1      34.213  24.792  25.251  1.00  0.00     0.096 C 
ATOM     14  C   UNL A   1      34.398  24.536  23.753  1.00  0.00     0.098 C 
ATOM     15  C   UNL A   1      32.583  23.125  22.533  1.00  0.00     0.013 C 
ATOM     16  C   UNL A   1      33.283  25.983  25.310  1.00  0.00     0.234 C 
ATOM     17  C   UNL A   1      33.654  25.663  23.096  1.00  0.00     0.234 C 
ATOM     18  O   UNL A   1      32.916  26.524  26.344  1.00  0.00    -0.274 OA
ATOM     19  O   UNL A   1      33.660  25.870  21.893  1.00  0.00    -0.274 OA
ENDBRANCH   6   7
BRANCH   6  20
ATOM     20  C   UNL A   1      31.182  27.363  22.531  1.00  0.00     0.073 C 
BRANCH  20  21
ATOM     21  C   UNL A   1      29.980  28.277  22.641  1.00  0.00    -0.045 A 
ATOM     22  C   UNL A   1      28.780  27.832  23.218  1.00  0.00     0.004 A 
ATOM     23  C   UNL A   1      30.013  29.533  22.021  1.00  0.00     0.004 A 
ATOM     24  C   UNL A   1      27.624  28.612  23.127  1.00  0.00     0.000 A 
ATOM     25  C   UNL A   1      28.856  30.306  21.928  1.00  0.00     0.000 A 
ATOM     26  C   UNL A   1      27.659  29.840  22.470  1.00  0.00     0.000 A 
ENDBRANCH  20  21
ENDBRANCH   6  20
ENDBRANCH   4   6
ENDBRANCH   3   4
ENDBRANCH   2   3
ENDBRANCH   1   2
BRANCH   1  27
ATOM     27  O   UNL A   1      32.498  31.068  27.327  1.00  0.00    -0.458 OA
BRANCH  27  28
ATOM     28  C   UNL A   1      33.325  32.133  27.470  1.00  0.00     0.338 C 
ATOM     29  O   UNL A   1      33.023  33.309  27.354  1.00  0.00    -0.246 OA
BRANCH  28  30
ATOM     30  C   UNL A   1      34.637  31.702  27.978  1.00  0.00     0.060 A 
ATOM     31  C   UNL A   1      34.757  30.370  28.376  1.00  0.00     0.016 A 
ATOM     32  C   UNL A   1      35.702  32.586  28.154  1.00  0.00     0.016 A 
ATOM     33  C   UNL A   1      35.921  29.911  28.971  1.00  0.00     0.010 A 
ATOM     34  C   UNL A   1      36.884  32.122  28.750  1.00  0.00     0.010 A 
ATOM     35  C   UNL A   1      36.992  30.785  29.175  1.00  0.00    -0.014 A 
BRANCH  35  36
ATOM     36  C   UNL A   1      38.181  30.275  29.898  1.00  0.00     0.031 A 
ATOM     37  C   UNL A   1      38.406  30.662  31.332  1.00  0.00     0.074 A 
ATOM     38  C   UNL A   1      38.992  29.387  29.292  1.00  0.00     0.049 A 
ATOM     39  N   UNL A   1      39.366  30.306  32.145  1.00  0.00    -0.248 NA
ATOM     40  C   UNL A   1      37.419  31.574  31.928  1.00  0.00     0.031 C 
ATOM     41  C   UNL A   1      38.829  28.901  27.920  1.00  0.00     0.029 A 
ATOM     42  N   UNL A   1      40.098  28.722  29.753  1.00  0.00    -0.354 N 
ATOM     43  C   UNL A   1      39.111  30.961  33.345  1.00  0.00     0.074 A 
ATOM     44  C   UNL A   1      37.920  31.758  33.141  1.00  0.00     0.031 C 
ATOM     45  C   UNL A   1      39.792  28.004  27.657  1.00  0.00     0.029 A 
ATOM     46  C   UNL A   1      40.668  27.889  28.819  1.00  0.00     0.049 A 
ATOM     47  H   UNL A   1      40.453  28.832  30.665  1.00  0.00     0.167 HD
ATOM     48  C   UNL A   1      39.808  30.896  34.507  1.00  0.00     0.034 A 
ATOM     49  C   UNL A   1      41.784  27.135  28.886  1.00  0.00     0.034 A 
ATOM     50  C   UNL A   1      40.991  30.086  34.687  1.00  0.00     0.049 A 
ATOM     51  C   UNL A   1      42.568  27.124  30.172  1.00  0.00     0.074 A 
ATOM     52  C   UNL A   1      41.766  29.934  35.824  1.00  0.00     0.029 A 
ATOM     53  N   UNL A   1      41.575  29.297  33.703  1.00  0.00    -0.354 N 
ATOM     54  N   UNL A   1      42.322  27.754  31.299  1.00  0.00    -0.248 NA
ATOM     55  C   UNL A   1      43.778  26.295  30.199  1.00  0.00     0.031 C 
ATOM     56  C   UNL A   1      42.855  29.113  35.507  1.00  0.00     0.029 A 
ATOM     57  C   UNL A   1      42.719  28.686  34.195  1.00  0.00     0.049 A 
ATOM     58  H   UNL A   1      41.227  29.188  32.789  1.00  0.00     0.167 HD
ATOM     59  C   UNL A   1      43.339  27.383  32.172  1.00  0.00     0.074 A 
ATOM     60  C   UNL A   1      44.180  26.448  31.451  1.00  0.00     0.031 C 
ATOM     61  C   UNL A   1      43.564  27.779  33.453  1.00  0.00     0.034 A 
BRANCH  48  62
ATOM     62  C   UNL A   1      39.345  31.775  35.644  1.00  0.00     0.023 A 
ATOM     63  C   UNL A   1      38.615  31.270  36.734  1.00  0.00     0.031 A 
ATOM     64  C   UNL A   1      39.617  33.156  35.619  1.00  0.00     0.131 A 
ATOM     65  C   UNL A   1      38.127  32.146  37.718  1.00  0.00     0.055 A 
ATOM     66  C   UNL A   1      39.195  34.011  36.639  1.00  0.00     0.041 A 
ATOM     67  F   UNL A   1      40.288  33.702  34.593  1.00  0.00    -0.206 F 
ATOM     68  C   UNL A   1      38.433  33.509  37.690  1.00  0.00     0.022 A 
BRANCH  65  69
ATOM     69  S   UNL A   1      36.974  31.504  38.963  1.00  0.00     0.124 S 
ATOM     70  O   UNL A   1      37.782  31.580  40.179  1.00  0.00    -0.237 OA
ATOM     71  O   UNL A   1      35.860  32.440  38.875  1.00  0.00    -0.237 OA
ATOM     72  O   UNL A   1      36.688  30.147  38.499  1.00  0.00    -0.744 OA
ENDBRANCH  65  69
ENDBRANCH  48  62
BRANCH  49  73
ATOM     73  C   UNL A   1      42.256  26.376  27.692  1.00  0.00     0.023 A 
ATOM     74  C   UNL A   1      41.899  25.035  27.487  1.00  0.00     0.031 A 
ATOM     75  C   UNL A   1      43.123  26.977  26.760  1.00  0.00     0.131 A 
ATOM     76  C   UNL A   1      42.440  24.325  26.404  1.00  0.00     0.055 A 
ATOM     77  C   UNL A   1      43.614  26.283  25.653  1.00  0.00     0.041 A 
ATOM     78  F   UNL A   1      43.500  28.257  26.908  1.00  0.00    -0.206 F 
ATOM     79  C   UNL A   1      43.283  24.944  25.477  1.00  0.00     0.022 A 
BRANCH  76  80
ATOM     80  S   UNL A   1      42.099  22.549  26.269  1.00  0.00     0.124 S 
ATOM     81  O   UNL A   1      40.640  22.523  26.281  1.00  0.00    -0.237 OA
ATOM     82  O   UNL A   1      42.737  22.213  25.000  1.00  0.00    -0.237 OA
ATOM     83  O   UNL A   1      42.744  21.986  27.454  1.00  0.00    -0.744 OA
ENDBRANCH  76  80
ENDBRANCH  49  73
BRANCH  61  84
ATOM     84  C   UNL A   1      44.763  27.174  34.144  1.00  0.00     0.023 A 
ATOM     85  C   UNL A   1      44.675  25.950  34.832  1.00  0.00     0.031 A 
ATOM     86  C   UNL A   1      45.995  27.851  34.157  1.00  0.00     0.131 A 
ATOM     87  C   UNL A   1      45.772  25.481  35.569  1.00  0.00     0.055 A 
ATOM     88  C   UNL A   1      47.104  27.344  34.834  1.00  0.00     0.041 A 
ATOM     89  F   UNL A   1      46.138  29.024  33.520  1.00  0.00    -0.206 F 
ATOM     90  C   UNL A   1      46.992  26.162  35.561  1.00  0.00     0.022 A 
BRANCH  87  91
ATOM     91  S   UNL A   1      45.545  24.038  36.643  1.00  0.00     0.124 S 
ATOM     92  O   UNL A   1      44.597  23.235  35.878  1.00  0.00    -0.237 OA
ATOM     93  O   UNL A   1      46.900  23.503  36.739  1.00  0.00    -0.237 OA
ATOM     94  O   UNL A   1      45.016  24.610  37.880  1.00  0.00    -0.744 OA
ENDBRANCH  87  91
ENDBRANCH  61  84
ENDBRANCH  35  36
ENDBRANCH  28  30
ENDBRANCH  27  28
ENDBRANCH   1  27
TORSDOF 17
ENDMDL
MODEL 2
REMARK VINA RESULT:     -12.8      4.978     10.598
REMARK SMILES CC1=C[C@@H](C)[C@H]2C(=O)N([C@H](Cc3ccccc3)C(=O)OCCOC(=O)c3ccc(-c4c5nc(c(-c6cc(S(=O)(=O)[O-])ccc6F)c6ccc([nH]6)c(-c6cc(S(=O)(=O)[O-])ccc6F)c6nc(c(-c7cc(S(=O)(=O)[O-])ccc7F)c7ccc4[nH]7)C=C6)C=C5)cc3)C(=O)[C@H]2C1
REMARK SMILES IDX 22 1 21 2 20 3 18 4 19 5 10 6 9 7 1 8 2 9 3 10 92 11 4 12
REMARK SMILES IDX 91 13 6 14 5 15 89 16 7 17 90 18 8 19 11 20 12 21 13 22
REMARK SMILES IDX 17 23 14 24 16 25 15 26 23 27 24 28 25 29 26 30 27 31 88 32
REMARK SMILES IDX 28 33 87 34 29 35 30 36 31 37 81 38 32 39 86 40 80 41 82 42
REMARK SMILES IDX 33 43 85 44 79 45 78 46 34 48 66 49 46 50 65 51 47 52 50 53
REMARK SMILES IDX 64 54 83 55 48 56 49 57 63 59 84 60 51 61 35 62 36 63 44 64
REMARK SMILES IDX 37 65 43 66 45 67 42 68 38 69 39 70 40 71 41 72 67 73 68 74
REMARK SMILES IDX 76 75 69 76 75 77 77 78 74 79 70 80 71 81 72 82 73 83 52 84
REMARK SMILES IDX 53 85 61 86 54 87 60 88 62 89 59 90 55 91 56 92 57 93 58 94
REMARK H PARENT 82 47 50 58
REMARK Flexibility Score: inf
ROOT
ATOM      1  C   UNL A   1      37.650  20.050  24.990  1.00  0.00     0.275 C 
ENDROOT
BRANCH   1   2
ATOM      2  C   UNL A   1      36.149  20.353  25.045  1.00  0.00     0.274 C 
BRANCH   2   3
ATOM      3  O   UNL A   1      35.878  21.567  25.770  1.00  0.00    -0.461 OA
BRANCH   3   4
ATOM      4  C   UNL A   1      34.647  21.670  26.343  1.00  0.00     0.329 C 
ATOM      5  O   UNL A   1      34.408  21.411  27.519  1.00  0.00    -0.250 OA
BRANCH   4   6
ATOM      6  C   UNL A   1      33.573  22.144  25.359  1.00  0.00     0.207 C 
BRANCH   6   7
ATOM      7  N   UNL A   1      33.383  23.588  25.523  1.00  0.00    -0.267 N 
ATOM      8  C   UNL A   1      31.983  28.946  23.559  1.00  0.00     0.039 C 
ATOM      9  C   UNL A   1      32.132  27.751  24.459  1.00  0.00    -0.076 C 
ATOM     10  C   UNL A   1      31.172  27.436  25.338  1.00  0.00    -0.024 C 
ATOM     11  C   UNL A   1      33.354  26.894  24.256  1.00  0.00     0.044 C 
ATOM     12  C   UNL A   1      31.152  26.171  26.144  1.00  0.00     0.022 C 
ATOM     13  C   UNL A   1      33.667  25.912  25.388  1.00  0.00     0.096 C 
ATOM     14  C   UNL A   1      32.557  25.602  26.396  1.00  0.00     0.098 C 
ATOM     15  C   UNL A   1      30.155  25.216  25.470  1.00  0.00     0.013 C 
ATOM     16  C   UNL A   1      34.103  24.553  24.889  1.00  0.00     0.234 C 
ATOM     17  C   UNL A   1      32.537  24.101  26.464  1.00  0.00     0.234 C 
ATOM     18  O   UNL A   1      35.009  24.369  24.086  1.00  0.00    -0.274 OA
ATOM     19  O   UNL A   1      31.851  23.466  27.249  1.00  0.00    -0.274 OA
ENDBRANCH   6   7
BRANCH   6  20
ATOM     20  C   UNL A   1      32.288  21.295  25.321  1.00  0.00     0.073 C 
BRANCH  20  21
ATOM     21  C   UNL A   1      32.520  19.923  24.721  1.00  0.00    -0.045 A 
ATOM     22  C   UNL A   1      32.401  19.707  23.339  1.00  0.00     0.004 A 
ATOM     23  C   UNL A   1      32.703  18.824  25.570  1.00  0.00     0.004 A 
ATOM     24  C   UNL A   1      32.414  18.406  22.827  1.00  0.00     0.000 A 
ATOM     25  C   UNL A   1      32.711  17.528  25.056  1.00  0.00     0.000 A 
ATOM     26  C   UNL A   1      32.554  17.318  23.687  1.00  0.00     0.000 A 
ENDBRANCH  20  21
ENDBRANCH   6  20
ENDBRANCH   4   6
ENDBRANCH   3   4
ENDBRANCH   2   3
ENDBRANCH   1   2
BRANCH   1  27
ATOM     27  O   UNL A   1      38.456  21.205  25.293  1.00  0.00    -0.458 OA
BRANCH  27  28
ATOM     28  C   UNL A   1      39.476  20.971  26.154  1.00  0.00     0.338 C 
ATOM     29  O   UNL A   1      40.035  19.903  26.347  1.00  0.00    -0.246 OA
BRANCH  28  30
ATOM     30  C   UNL A   1      39.974  22.235  26.720  1.00  0.00     0.060 A 
ATOM     31  C   UNL A   1      39.476  23.416  26.167  1.00  0.00     0.016 A 
ATOM     32  C   UNL A   1      40.969  22.282  27.696  1.00  0.00     0.016 A 
ATOM     33  C   UNL A   1      39.975  24.648  26.562  1.00  0.00     0.010 A 
ATOM     34  C   UNL A   1      41.471  23.527  28.101  1.00  0.00     0.010 A 
ATOM     35  C   UNL A   1      40.986  24.715  27.524  1.00  0.00    -0.014 A 
BRANCH  35  36
ATOM     36  C   UNL A   1      41.553  26.046  27.847  1.00  0.00     0.031 A 
ATOM     37  C   UNL A   1      42.903  26.431  27.312  1.00  0.00     0.074 A 
ATOM     38  C   UNL A   1      40.807  26.933  28.532  1.00  0.00     0.049 A 
ATOM     39  N   UNL A   1      43.562  27.551  27.459  1.00  0.00    -0.248 NA
ATOM     40  C   UNL A   1      43.603  25.420  26.507  1.00  0.00     0.031 C 
ATOM     41  C   UNL A   1      39.460  26.678  29.048  1.00  0.00     0.029 A 
ATOM     42  N   UNL A   1      41.064  28.229  28.896  1.00  0.00    -0.354 N 
ATOM     43  C   UNL A   1      44.763  27.377  26.779  1.00  0.00     0.074 A 
ATOM     44  C   UNL A   1      44.750  26.031  26.245  1.00  0.00     0.031 C 
ATOM     45  C   UNL A   1      39.005  27.788  29.648  1.00  0.00     0.029 A 
ATOM     46  C   UNL A   1      40.042  28.814  29.605  1.00  0.00     0.049 A 
ATOM     47  H   UNL A   1      41.901  28.696  28.673  1.00  0.00     0.167 HD
ATOM     48  C   UNL A   1      45.777  28.263  26.616  1.00  0.00     0.034 A 
ATOM     49  C   UNL A   1      39.959  30.033  30.174  1.00  0.00     0.034 A 
ATOM     50  C   UNL A   1      45.763  29.604  27.154  1.00  0.00     0.049 A 
ATOM     51  C   UNL A   1      41.124  30.978  30.023  1.00  0.00     0.074 A 
ATOM     52  C   UNL A   1      46.729  30.589  27.037  1.00  0.00     0.029 A 
ATOM     53  N   UNL A   1      44.735  30.147  27.916  1.00  0.00    -0.354 N 
ATOM     54  N   UNL A   1      42.259  30.800  29.384  1.00  0.00    -0.248 NA
ATOM     55  C   UNL A   1      40.994  32.292  30.664  1.00  0.00     0.031 C 
ATOM     56  C   UNL A   1      46.318  31.698  27.787  1.00  0.00     0.029 A 
ATOM     57  C   UNL A   1      45.060  31.438  28.307  1.00  0.00     0.049 A 
ATOM     58  H   UNL A   1      43.899  29.682  28.146  1.00  0.00     0.167 HD
ATOM     59  C   UNL A   1      42.969  31.986  29.535  1.00  0.00     0.074 A 
ATOM     60  C   UNL A   1      42.120  32.882  30.294  1.00  0.00     0.031 C 
ATOM     61  C   UNL A   1      44.213  32.308  29.091  1.00  0.00     0.034 A 
BRANCH  48  62
ATOM     62  C   UNL A   1      47.008  27.782  25.886  1.00  0.00     0.023 A 
ATOM     63  C   UNL A   1      47.219  28.040  24.519  1.00  0.00     0.031 A 
ATOM     64  C   UNL A   1      47.977  27.024  26.568  1.00  0.00     0.131 A 
ATOM     65  C   UNL A   1      48.333  27.491  23.865  1.00  0.00     0.055 A 
ATOM     66  C   UNL A   1      49.123  26.544  25.930  1.00  0.00     0.041 A 
ATOM     67  F   UNL A   1      47.821  26.723  27.867  1.00  0.00    -0.206 F 
ATOM     68  C   UNL A   1      49.300  26.765  24.567  1.00  0.00     0.022 A 
BRANCH  65  69
ATOM     69  S   UNL A   1      48.438  27.622  22.059  1.00  0.00     0.124 S 
ATOM     70  O   UNL A   1      49.571  28.531  21.895  1.00  0.00    -0.237 OA
ATOM     71  O   UNL A   1      48.662  26.240  21.654  1.00  0.00    -0.237 OA
ATOM     72  O   UNL A   1      47.141  28.181  21.680  1.00  0.00    -0.744 OA
ENDBRANCH  65  69
ENDBRANCH  48  62
BRANCH  49  73
ATOM     73  C   UNL A   1      38.764  30.412  30.983  1.00  0.00     0.023 A 
ATOM     74  C   UNL A   1      37.679  31.094  30.412  1.00  0.00     0.031 A 
ATOM     75  C   UNL A   1      38.718  30.137  32.362  1.00  0.00     0.131 A 
ATOM     76  C   UNL A   1      36.615  31.518  31.223  1.00  0.00     0.055 A 
ATOM     77  C   UNL A   1      37.632  30.511  33.154  1.00  0.00     0.041 A 
ATOM     78  F   UNL A   1      39.730  29.489  32.961  1.00  0.00    -0.206 F 
ATOM     79  C   UNL A   1      36.577  31.218  32.587  1.00  0.00     0.022 A 
BRANCH  76  80
ATOM     80  S   UNL A   1      35.316  32.549  30.489  1.00  0.00     0.124 S 
ATOM     81  O   UNL A   1      36.025  33.803  30.258  1.00  0.00    -0.237 OA
ATOM     82  O   UNL A   1      34.959  31.785  29.298  1.00  0.00    -0.237 OA
ATOM     83  O   UNL A   1      34.288  32.594  31.527  1.00  0.00    -0.744 OA
ENDBRANCH  76  80
ENDBRANCH  49  73
BRANCH  61  84
ATOM     84  C   UNL A   1      44.702  33.701  29.410  1.00  0.00     0.023 A 
ATOM     85  C   UNL A   1      44.407  34.793  28.575  1.00  0.00     0.031 A 
ATOM     86  C   UNL A   1      45.512  33.931  30.536  1.00  0.00     0.131 A 
ATOM     87  C   UNL A   1      44.982  36.047  28.831  1.00  0.00     0.055 A 
ATOM     88  C   UNL A   1      46.024  35.196  30.826  1.00  0.00     0.041 A 
ATOM     89  F   UNL A   1      45.828  32.927  31.368  1.00  0.00    -0.206 F 
ATOM     90  C   UNL A   1      45.776  36.259  29.962  1.00  0.00     0.022 A 
BRANCH  87  91
ATOM     91  S   UNL A   1      44.786  37.363  27.599  1.00  0.00     0.124 S 
ATOM     92  O   UNL A   1      45.953  37.158  26.747  1.00  0.00    -0.237 OA
ATOM     93  O   UNL A   1      43.495  37.038  26.999  1.00  0.00    -0.237 OA
ATOM     94  O   UNL A   1      44.809  38.587  28.396  1.00  0.00    -0.744 OA
ENDBRANCH  87  91
ENDBRANCH  61  84
ENDBRANCH  35  36
ENDBRANCH  28  30
ENDBRANCH  27  28
ENDBRANCH   1  27
TORSDOF 17
ENDMDL
MODEL 3
REMARK VINA RESULT:     -12.8      5.057      8.106
REMARK SMILES CC1=C[C@@H](C)[C@H]2C(=O)N([C@H](Cc3ccccc3)C(=O)OCCOC(=O)c3ccc(-c4c5nc(c(-c6cc(S(=O)(=O)[O-])ccc6F)c6ccc([nH]6)c(-c6cc(S(=O)(=O)[O-])ccc6F)c6nc(c(-c7cc(S(=O)(=O)[O-])ccc7F)c7ccc4[nH]7)C=C6)C=C5)cc3)C(=O)[C@H]2C1
REMARK SMILES IDX 22 1 21 2 20 3 18 4 19 5 10 6 9 7 1 8 2 9 3 10 92 11 4 12
REMARK SMILES IDX 91 13 6 14 5 15 89 16 7 17 90 18 8 19 11 20 12 21 13 22
REMARK SMILES IDX 17 23 14 24 16 25 15 26 23 27 24 28 25 29 26 30 27 31 88 32
REMARK SMILES IDX 28 33 87 34 29 35 30 36 31 37 81 38 32 39 86 40 80 41 82 42
REMARK SMILES IDX 33 43 85 44 79 45 78 46 34 48 66 49 46 50 65 51 47 52 50 53
REMARK SMILES IDX 64 54 83 55 48 56 49 57 63 59 84 60 51 61 35 62 36 63 44 64
REMARK SMILES IDX 37 65 43 66 45 67 42 68 38 69 39 70 40 71 41 72 67 73 68 74
REMARK SMILES IDX 76 75 69 76 75 77 77 78 74 79 70 80 71 81 72 82 73 83 52 84
REMARK SMILES IDX 53 85 61 86 54 87 60 88 62 89 59 90 55 91 56 92 57 93 58 94
REMARK H PARENT 82 47 50 58
REMARK Flexibility Score: inf
ROOT
ATOM      1  C   UNL A   1      37.034  21.195  24.366  1.00  0.00     0.275 C 
ENDROOT
BRANCH   1   2
ATOM      2  C   UNL A   1      36.376  22.425  23.731  1.00  0.00     0.274 C 
BRANCH   2   3
ATOM      3  O   UNL A   1      35.091  22.702  24.316  1.00  0.00    -0.461 OA
BRANCH   3   4
ATOM      4  C   UNL A   1      34.049  22.847  23.452  1.00  0.00     0.329 C 
ATOM      5  O   UNL A   1      34.155  23.267  22.304  1.00  0.00    -0.250 OA
BRANCH   4   6
ATOM      6  C   UNL A   1      32.708  22.429  24.064  1.00  0.00     0.207 C 
BRANCH   6   7
ATOM      7  N   UNL A   1      32.050  23.614  24.620  1.00  0.00    -0.267 N 
ATOM      8  C   UNL A   1      31.969  29.213  26.403  1.00  0.00     0.039 C 
ATOM      9  C   UNL A   1      31.542  27.899  25.811  1.00  0.00    -0.076 C 
ATOM     10  C   UNL A   1      30.757  27.862  24.726  1.00  0.00    -0.024 C 
ATOM     11  C   UNL A   1      32.112  26.653  26.438  1.00  0.00     0.044 C 
ATOM     12  C   UNL A   1      30.430  26.612  23.966  1.00  0.00     0.022 C 
ATOM     13  C   UNL A   1      31.406  25.346  26.066  1.00  0.00     0.096 C 
ATOM     14  C   UNL A   1      30.488  25.349  24.841  1.00  0.00     0.098 C 
ATOM     15  C   UNL A   1      31.315  26.595  22.711  1.00  0.00     0.013 C 
ATOM     16  C   UNL A   1      32.367  24.208  25.804  1.00  0.00     0.234 C 
ATOM     17  C   UNL A   1      30.933  24.152  24.050  1.00  0.00     0.234 C 
ATOM     18  O   UNL A   1      33.248  23.854  26.577  1.00  0.00    -0.274 OA
ATOM     19  O   UNL A   1      30.363  23.752  23.047  1.00  0.00    -0.274 OA
ENDBRANCH   6   7
BRANCH   6  20
ATOM     20  C   UNL A   1      32.755  21.192  24.982  1.00  0.00     0.073 C 
BRANCH  20  21
ATOM     21  C   UNL A   1      33.057  19.918  24.219  1.00  0.00    -0.045 A 
ATOM     22  C   UNL A   1      32.235  19.492  23.164  1.00  0.00     0.004 A 
ATOM     23  C   UNL A   1      34.081  19.074  24.670  1.00  0.00     0.004 A 
ATOM     24  C   UNL A   1      32.404  18.221  22.610  1.00  0.00     0.000 A 
ATOM     25  C   UNL A   1      34.244  17.805  24.117  1.00  0.00     0.000 A 
ATOM     26  C   UNL A   1      33.398  17.373  23.096  1.00  0.00     0.000 A 
ENDBRANCH  20  21
ENDBRANCH   6  20
ENDBRANCH   4   6
ENDBRANCH   3   4
ENDBRANCH   2   3
ENDBRANCH   1   2
BRANCH   1  27
ATOM     27  O   UNL A   1      37.413  21.421  25.738  1.00  0.00    -0.458 OA
BRANCH  27  28
ATOM     28  C   UNL A   1      38.716  21.171  26.012  1.00  0.00     0.338 C 
ATOM     29  O   UNL A   1      39.332  20.150  25.751  1.00  0.00    -0.246 OA
BRANCH  28  30
ATOM     30  C   UNL A   1      39.380  22.384  26.517  1.00  0.00     0.060 A 
ATOM     31  C   UNL A   1      38.836  23.610  26.131  1.00  0.00     0.016 A 
ATOM     32  C   UNL A   1      40.554  22.341  27.269  1.00  0.00     0.016 A 
ATOM     33  C   UNL A   1      39.464  24.800  26.468  1.00  0.00     0.010 A 
ATOM     34  C   UNL A   1      41.187  23.544  27.616  1.00  0.00     0.010 A 
ATOM     35  C   UNL A   1      40.652  24.777  27.203  1.00  0.00    -0.014 A 
BRANCH  35  36
ATOM     36  C   UNL A   1      41.337  26.067  27.460  1.00  0.00     0.031 A 
ATOM     37  C   UNL A   1      40.666  27.113  28.304  1.00  0.00     0.074 A 
ATOM     38  C   UNL A   1      42.596  26.246  27.016  1.00  0.00     0.049 A 
ATOM     39  N   UNL A   1      41.105  28.291  28.664  1.00  0.00    -0.248 NA
ATOM     40  C   UNL A   1      39.324  26.789  28.808  1.00  0.00     0.031 C 
ATOM     41  C   UNL A   1      43.358  25.269  26.235  1.00  0.00     0.029 A 
ATOM     42  N   UNL A   1      43.461  27.297  27.173  1.00  0.00    -0.354 N 
ATOM     43  C   UNL A   1      40.087  28.859  29.424  1.00  0.00     0.074 A 
ATOM     44  C   UNL A   1      38.999  27.904  29.446  1.00  0.00     0.031 C 
ATOM     45  C   UNL A   1      44.583  25.762  25.995  1.00  0.00     0.029 A 
ATOM     46  C   UNL A   1      44.676  27.105  26.559  1.00  0.00     0.049 A 
ATOM     47  H   UNL A   1      43.234  28.112  27.676  1.00  0.00     0.167 HD
ATOM     48  C   UNL A   1      40.070  30.064  30.045  1.00  0.00     0.034 A 
ATOM     49  C   UNL A   1      45.737  27.929  26.444  1.00  0.00     0.034 A 
ATOM     50  C   UNL A   1      41.172  30.998  30.014  1.00  0.00     0.049 A 
ATOM     51  C   UNL A   1      45.669  29.285  27.100  1.00  0.00     0.074 A 
ATOM     52  C   UNL A   1      41.268  32.239  30.620  1.00  0.00     0.029 A 
ATOM     53  N   UNL A   1      42.368  30.797  29.334  1.00  0.00    -0.354 N 
ATOM     54  N   UNL A   1      44.697  29.814  27.810  1.00  0.00    -0.248 NA
ATOM     55  C   UNL A   1      46.843  30.151  26.945  1.00  0.00     0.031 C 
ATOM     56  C   UNL A   1      42.488  32.816  30.248  1.00  0.00     0.029 A 
ATOM     57  C   UNL A   1      43.191  31.905  29.475  1.00  0.00     0.049 A 
ATOM     58  H   UNL A   1      42.597  29.986  28.826  1.00  0.00     0.167 HD
ATOM     59  C   UNL A   1      45.152  31.070  28.198  1.00  0.00     0.074 A 
ATOM     60  C   UNL A   1      46.497  31.202  27.672  1.00  0.00     0.031 C 
ATOM     61  C   UNL A   1      44.519  32.032  28.919  1.00  0.00     0.034 A 
BRANCH  48  62
ATOM     62  C   UNL A   1      38.795  30.464  30.750  1.00  0.00     0.023 A 
ATOM     63  C   UNL A   1      37.724  31.075  30.074  1.00  0.00     0.031 A 
ATOM     64  C   UNL A   1      38.663  30.253  32.135  1.00  0.00     0.131 A 
ATOM     65  C   UNL A   1      36.600  31.513  30.792  1.00  0.00     0.055 A 
ATOM     66  C   UNL A   1      37.510  30.621  32.832  1.00  0.00     0.041 A 
ATOM     67  F   UNL A   1      39.661  29.697  32.840  1.00  0.00    -0.206 F 
ATOM     68  C   UNL A   1      36.475  31.268  32.163  1.00  0.00     0.022 A 
BRANCH  65  69
ATOM     69  S   UNL A   1      35.360  32.526  29.940  1.00  0.00     0.124 S 
ATOM     70  O   UNL A   1      36.157  33.677  29.520  1.00  0.00    -0.237 OA
ATOM     71  O   UNL A   1      34.905  31.640  28.875  1.00  0.00    -0.237 OA
ATOM     72  O   UNL A   1      34.373  32.809  30.981  1.00  0.00    -0.744 OA
ENDBRANCH  65  69
ENDBRANCH  48  62
BRANCH  49  73
ATOM     73  C   UNL A   1      46.925  27.525  25.638  1.00  0.00     0.023 A 
ATOM     74  C   UNL A   1      47.069  27.914  24.298  1.00  0.00     0.031 A 
ATOM     75  C   UNL A   1      47.915  26.693  26.193  1.00  0.00     0.131 A 
ATOM     76  C   UNL A   1      48.151  27.435  23.544  1.00  0.00     0.055 A 
ATOM     77  C   UNL A   1      49.020  26.266  25.455  1.00  0.00     0.041 A 
ATOM     78  F   UNL A   1      47.827  26.289  27.470  1.00  0.00    -0.206 F 
ATOM     79  C   UNL A   1      49.136  26.626  24.117  1.00  0.00     0.022 A 
BRANCH  76  80
ATOM     80  S   UNL A   1      48.212  27.811  21.770  1.00  0.00     0.124 S 
ATOM     81  O   UNL A   1      49.342  28.730  21.698  1.00  0.00    -0.237 OA
ATOM     82  O   UNL A   1      48.419  26.490  21.186  1.00  0.00    -0.237 OA
ATOM     83  O   UNL A   1      46.904  28.407  21.504  1.00  0.00    -0.744 OA
ENDBRANCH  76  80
ENDBRANCH  49  73
BRANCH  61  84
ATOM     84  C   UNL A   1      45.300  33.297  29.189  1.00  0.00     0.023 A 
ATOM     85  C   UNL A   1      45.241  34.398  28.316  1.00  0.00     0.031 A 
ATOM     86  C   UNL A   1      46.149  33.385  30.305  1.00  0.00     0.131 A 
ATOM     87  C   UNL A   1      46.074  35.505  28.528  1.00  0.00     0.055 A 
ATOM     88  C   UNL A   1      46.924  34.519  30.550  1.00  0.00     0.041 A 
ATOM     89  F   UNL A   1      46.248  32.365  31.173  1.00  0.00    -0.206 F 
ATOM     90  C   UNL A   1      46.904  35.580  29.650  1.00  0.00     0.022 A 
BRANCH  87  91
ATOM     91  S   UNL A   1      46.157  36.790  27.250  1.00  0.00     0.124 S 
ATOM     92  O   UNL A   1      47.086  37.747  27.841  1.00  0.00    -0.237 OA
ATOM     93  O   UNL A   1      46.656  36.049  26.095  1.00  0.00    -0.237 OA
ATOM     94  O   UNL A   1      44.776  37.254  27.139  1.00  0.00    -0.744 OA
ENDBRANCH  87  91
ENDBRANCH  61  84
ENDBRANCH  35  36
ENDBRANCH  28  30
ENDBRANCH  27  28
ENDBRANCH   1  27
TORSDOF 17
ENDMDL
