MODEL 1
REMARK VINA RESULT:     -11.7      0.000      0.000
REMARK SMILES CC[C@H](NC(=O)c1nn(C)cc1C(=O)OCCOC(=O)c1ccc(-c2c3nc(c(-c4cc(S(=O)(=O)[O-])ccc4F)c4ccc([nH]4)c(-c4cc(S(=O)(=O)[O-])ccc4F)c4nc(c(-c5cc(S(=O)(=O)[O-])ccc5F)c5ccc2[nH]5)C=C4)C=C3)cc1)c1ccccc1
REMARK SMILES IDX 16 1 15 2 13 3 14 4 12 5 7 6 8 7 9 8 11 9 10 10 5 11 4 12
REMARK SMILES IDX 6 14 3 15 2 16 1 17 84 18 85 19 89 20 86 21 88 22 87 23
REMARK SMILES IDX 17 24 18 25 19 26 20 27 21 28 22 29 83 30 23 31 82 32 24 33
REMARK SMILES IDX 25 34 26 35 76 36 27 37 81 38 75 39 77 40 28 41 80 42 74 43
REMARK SMILES IDX 73 44 29 46 61 47 41 48 60 49 42 50 45 51 59 52 78 53 43 54
REMARK SMILES IDX 44 55 58 57 79 58 46 59 30 60 31 61 39 62 32 63 38 64 40 65
REMARK SMILES IDX 37 66 33 67 34 68 35 69 36 70 62 71 63 72 71 73 64 74 70 75
REMARK SMILES IDX 72 76 69 77 65 78 66 79 67 80 68 81 47 82 48 83 56 84 49 85
REMARK SMILES IDX 55 86 57 87 54 88 50 89 51 90 52 91 53 92
REMARK H PARENT 4 13 77 45 45 56
REMARK Flexibility Score: inf
ROOT
ATOM      1  C   UNL A   1      36.657  22.437  23.747  1.00  0.00     0.275 C 
ENDROOT
BRANCH   1   2
ATOM      2  O   UNL A   1      35.870  23.251  24.649  1.00  0.00    -0.458 OA
BRANCH   2   3
ATOM      3  C   UNL A   1      34.767  23.853  24.096  1.00  0.00     0.342 C 
ATOM      4  O   UNL A   1      34.695  24.190  22.922  1.00  0.00    -0.246 OA
BRANCH   3   5
ATOM      5  C   UNL A   1      33.735  24.167  25.062  1.00  0.00     0.111 A 
ATOM      6  C   UNL A   1      33.186  23.443  26.190  1.00  0.00     0.164 A 
ATOM      7  N   UNL A   1      32.036  24.051  26.578  1.00  0.00    -0.167 NA
ATOM      8  N   UNL A   1      31.903  25.119  25.794  1.00  0.00    -0.274 N 
ATOM      9  C   UNL A   1      32.896  25.257  24.884  1.00  0.00     0.125 A 
ATOM     10  C   UNL A   1      30.722  25.941  25.903  1.00  0.00     0.173 C 
BRANCH   6  11
ATOM     11  C   UNL A   1      33.476  22.110  26.795  1.00  0.00     0.273 C 
ATOM     12  N   UNL A   1      32.910  20.879  26.451  1.00  0.00    -0.344 N 
ATOM     13  H   UNL A   1      32.718  20.301  27.224  1.00  0.00     0.164 HD
ATOM     14  O   UNL A   1      34.326  22.045  27.693  1.00  0.00    -0.267 OA
BRANCH  12  15
ATOM     15  C   UNL A   1      32.540  20.276  25.160  1.00  0.00     0.112 C 
BRANCH  15  16
ATOM     16  C   UNL A   1      32.648  21.052  23.797  1.00  0.00     0.026 C 
ATOM     17  C   UNL A   1      32.059  20.550  22.485  1.00  0.00     0.006 C 
ENDBRANCH  15  16
BRANCH  15  18
ATOM     18  C   UNL A   1      33.133  18.887  25.071  1.00  0.00    -0.026 A 
ATOM     19  C   UNL A   1      34.429  18.762  24.551  1.00  0.00     0.006 A 
ATOM     20  C   UNL A   1      32.348  17.737  25.247  1.00  0.00     0.006 A 
ATOM     21  C   UNL A   1      34.900  17.519  24.144  1.00  0.00     0.000 A 
ATOM     22  C   UNL A   1      32.831  16.492  24.861  1.00  0.00     0.000 A 
ATOM     23  C   UNL A   1      34.097  16.388  24.290  1.00  0.00     0.000 A 
ENDBRANCH  15  18
ENDBRANCH  12  15
ENDBRANCH   6  11
ENDBRANCH   3   5
ENDBRANCH   2   3
ENDBRANCH   1   2
BRANCH   1  24
ATOM     24  C   UNL A   1      37.297  21.182  24.390  1.00  0.00     0.275 C 
BRANCH  24  25
ATOM     25  O   UNL A   1      37.514  21.246  25.830  1.00  0.00    -0.458 OA
BRANCH  25  26
ATOM     26  C   UNL A   1      38.807  21.507  26.101  1.00  0.00     0.338 C 
ATOM     27  O   UNL A   1      39.680  20.685  25.851  1.00  0.00    -0.246 OA
BRANCH  26  28
ATOM     28  C   UNL A   1      39.233  22.736  26.789  1.00  0.00     0.060 A 
ATOM     29  C   UNL A   1      38.812  23.950  26.245  1.00  0.00     0.016 A 
ATOM     30  C   UNL A   1      40.428  22.696  27.524  1.00  0.00     0.016 A 
ATOM     31  C   UNL A   1      39.618  25.091  26.387  1.00  0.00     0.010 A 
ATOM     32  C   UNL A   1      41.224  23.842  27.678  1.00  0.00     0.010 A 
ATOM     33  C   UNL A   1      40.831  25.057  27.108  1.00  0.00    -0.014 A 
BRANCH  33  34
ATOM     34  C   UNL A   1      41.478  26.329  27.539  1.00  0.00     0.031 A 
ATOM     35  C   UNL A   1      40.831  27.399  28.385  1.00  0.00     0.074 A 
ATOM     36  C   UNL A   1      42.700  26.532  27.010  1.00  0.00     0.049 A 
ATOM     37  N   UNL A   1      41.302  28.577  28.721  1.00  0.00    -0.248 NA
ATOM     38  C   UNL A   1      39.473  27.143  28.882  1.00  0.00     0.031 C 
ATOM     39  C   UNL A   1      43.367  25.591  26.102  1.00  0.00     0.029 A 
ATOM     40  N   UNL A   1      43.597  27.554  27.140  1.00  0.00    -0.354 N 
ATOM     41  C   UNL A   1      40.295  29.222  29.440  1.00  0.00     0.074 A 
ATOM     42  C   UNL A   1      39.176  28.298  29.474  1.00  0.00     0.031 C 
ATOM     43  C   UNL A   1      44.595  26.032  25.830  1.00  0.00     0.029 A 
ATOM     44  C   UNL A   1      44.765  27.334  26.450  1.00  0.00     0.049 A 
ATOM     45  H   UNL A   1      43.425  28.364  27.673  1.00  0.00     0.167 HD
ATOM     46  C   UNL A   1      40.315  30.467  29.998  1.00  0.00     0.034 A 
ATOM     47  C   UNL A   1      45.859  28.097  26.301  1.00  0.00     0.034 A 
ATOM     48  C   UNL A   1      41.472  31.348  29.941  1.00  0.00     0.049 A 
ATOM     49  C   UNL A   1      45.880  29.427  26.977  1.00  0.00     0.074 A 
ATOM     50  C   UNL A   1      41.646  32.593  30.528  1.00  0.00     0.029 A 
ATOM     51  N   UNL A   1      42.651  31.085  29.247  1.00  0.00    -0.354 N 
ATOM     52  N   UNL A   1      44.933  30.004  27.681  1.00  0.00    -0.248 NA
ATOM     53  C   UNL A   1      47.111  30.206  26.846  1.00  0.00     0.031 C 
ATOM     54  C   UNL A   1      42.884  33.110  30.125  1.00  0.00     0.029 A 
ATOM     55  C   UNL A   1      43.532  32.154  29.361  1.00  0.00     0.049 A 
ATOM     56  H   UNL A   1      42.834  30.257  28.746  1.00  0.00     0.167 HD
ATOM     57  C   UNL A   1      45.457  31.224  28.081  1.00  0.00     0.074 A 
ATOM     58  C   UNL A   1      46.815  31.275  27.569  1.00  0.00     0.031 C 
ATOM     59  C   UNL A   1      44.866  32.212  28.800  1.00  0.00     0.034 A 
BRANCH  46  60
ATOM     60  C   UNL A   1      39.054  30.985  30.681  1.00  0.00     0.023 A 
ATOM     61  C   UNL A   1      37.944  31.466  29.961  1.00  0.00     0.031 A 
ATOM     62  C   UNL A   1      38.945  30.969  32.087  1.00  0.00     0.131 A 
ATOM     63  C   UNL A   1      36.817  31.964  30.642  1.00  0.00     0.055 A 
ATOM     64  C   UNL A   1      37.790  31.389  32.756  1.00  0.00     0.041 A 
ATOM     65  F   UNL A   1      39.965  30.539  32.848  1.00  0.00    -0.206 F 
ATOM     66  C   UNL A   1      36.721  31.905  32.033  1.00  0.00     0.022 A 
BRANCH  63  67
ATOM     67  S   UNL A   1      35.530  32.826  29.692  1.00  0.00     0.124 S 
ATOM     68  O   UNL A   1      34.422  32.848  30.645  1.00  0.00    -0.237 OA
ATOM     69  O   UNL A   1      36.157  34.111  29.406  1.00  0.00    -0.237 OA
ATOM     70  O   UNL A   1      35.322  31.962  28.531  1.00  0.00    -0.744 OA
ENDBRANCH  63  67
ENDBRANCH  46  60
BRANCH  47  71
ATOM     71  C   UNL A   1      46.995  27.576  25.495  1.00  0.00     0.023 A 
ATOM     72  C   UNL A   1      47.101  27.883  24.133  1.00  0.00     0.031 A 
ATOM     73  C   UNL A   1      48.049  26.865  26.102  1.00  0.00     0.131 A 
ATOM     74  C   UNL A   1      48.238  27.483  23.418  1.00  0.00     0.055 A 
ATOM     75  C   UNL A   1      49.204  26.522  25.401  1.00  0.00     0.041 A 
ATOM     76  F   UNL A   1      48.003  26.568  27.411  1.00  0.00    -0.206 F 
ATOM     77  C   UNL A   1      49.301  26.829  24.047  1.00  0.00     0.022 A 
BRANCH  74  78
ATOM     78  S   UNL A   1      48.294  27.797  21.634  1.00  0.00     0.124 S 
ATOM     79  O   UNL A   1      46.969  28.353  21.387  1.00  0.00    -0.237 OA
ATOM     80  O   UNL A   1      49.411  28.727  21.523  1.00  0.00    -0.237 OA
ATOM     81  O   UNL A   1      48.530  26.471  21.065  1.00  0.00    -0.744 OA
ENDBRANCH  74  78
ENDBRANCH  47  71
BRANCH  59  82
ATOM     82  C   UNL A   1      45.720  33.427  29.066  1.00  0.00     0.023 A 
ATOM     83  C   UNL A   1      45.731  34.520  28.180  1.00  0.00     0.031 A 
ATOM     84  C   UNL A   1      46.593  33.457  30.167  1.00  0.00     0.131 A 
ATOM     85  C   UNL A   1      46.658  35.555  28.361  1.00  0.00     0.055 A 
ATOM     86  C   UNL A   1      47.462  34.526  30.382  1.00  0.00     0.041 A 
ATOM     87  F   UNL A   1      46.630  32.436  31.038  1.00  0.00    -0.206 F 
ATOM     88  C   UNL A   1      47.513  35.574  29.467  1.00  0.00     0.022 A 
BRANCH  85  89
ATOM     89  S   UNL A   1      46.828  36.806  27.058  1.00  0.00     0.124 S 
ATOM     90  O   UNL A   1      47.958  37.593  27.540  1.00  0.00    -0.237 OA
ATOM     91  O   UNL A   1      47.077  35.991  25.873  1.00  0.00    -0.237 OA
ATOM     92  O   UNL A   1      45.539  37.495  27.075  1.00  0.00    -0.744 OA
ENDBRANCH  85  89
ENDBRANCH  59  82
ENDBRANCH  33  34
ENDBRANCH  26  28
ENDBRANCH  25  26
ENDBRANCH  24  25
ENDBRANCH   1  24
TORSDOF 18
ENDMDL
MODEL 2
REMARK VINA RESULT:     -11.3      1.696      1.954
REMARK SMILES CC[C@H](NC(=O)c1nn(C)cc1C(=O)OCCOC(=O)c1ccc(-c2c3nc(c(-c4cc(S(=O)(=O)[O-])ccc4F)c4ccc([nH]4)c(-c4cc(S(=O)(=O)[O-])ccc4F)c4nc(c(-c5cc(S(=O)(=O)[O-])ccc5F)c5ccc2[nH]5)C=C4)C=C3)cc1)c1ccccc1
REMARK SMILES IDX 16 1 15 2 13 3 14 4 12 5 7 6 8 7 9 8 11 9 10 10 5 11 4 12
REMARK SMILES IDX 6 14 3 15 2 16 1 17 84 18 85 19 89 20 86 21 88 22 87 23
REMARK SMILES IDX 17 24 18 25 19 26 20 27 21 28 22 29 83 30 23 31 82 32 24 33
REMARK SMILES IDX 25 34 26 35 76 36 27 37 81 38 75 39 77 40 28 41 80 42 74 43
REMARK SMILES IDX 73 44 29 46 61 47 41 48 60 49 42 50 45 51 59 52 78 53 43 54
REMARK SMILES IDX 44 55 58 57 79 58 46 59 30 60 31 61 39 62 32 63 38 64 40 65
REMARK SMILES IDX 37 66 33 67 34 68 35 69 36 70 62 71 63 72 71 73 64 74 70 75
REMARK SMILES IDX 72 76 69 77 65 78 66 79 67 80 68 81 47 82 48 83 56 84 49 85
REMARK SMILES IDX 55 86 57 87 54 88 50 89 51 90 52 91 53 92
REMARK H PARENT 4 13 77 45 45 56
REMARK Flexibility Score: inf
ROOT
ATOM      1  C   UNL A   1      36.544  21.824  24.457  1.00  0.00     0.275 C 
ENDROOT
BRANCH   1   2
ATOM      2  O   UNL A   1      36.141  23.182  24.753  1.00  0.00    -0.458 OA
BRANCH   2   3
ATOM      3  C   UNL A   1      34.988  23.606  24.140  1.00  0.00     0.342 C 
ATOM      4  O   UNL A   1      34.897  23.819  22.939  1.00  0.00    -0.246 OA
BRANCH   3   5
ATOM      5  C   UNL A   1      33.915  23.897  25.067  1.00  0.00     0.111 A 
ATOM      6  C   UNL A   1      33.312  23.144  26.147  1.00  0.00     0.164 A 
ATOM      7  N   UNL A   1      32.148  23.747  26.501  1.00  0.00    -0.167 NA
ATOM      8  N   UNL A   1      32.054  24.837  25.743  1.00  0.00    -0.274 N 
ATOM      9  C   UNL A   1      33.089  24.996  24.883  1.00  0.00     0.125 A 
ATOM     10  C   UNL A   1      30.873  25.662  25.821  1.00  0.00     0.173 C 
BRANCH   6  11
ATOM     11  C   UNL A   1      33.569  21.792  26.726  1.00  0.00     0.273 C 
ATOM     12  N   UNL A   1      32.988  20.580  26.344  1.00  0.00    -0.344 N 
ATOM     13  H   UNL A   1      32.774  19.988  27.101  1.00  0.00     0.164 HD
ATOM     14  O   UNL A   1      34.402  21.693  27.637  1.00  0.00    -0.267 OA
BRANCH  12  15
ATOM     15  C   UNL A   1      32.631  20.013  25.034  1.00  0.00     0.112 C 
BRANCH  15  16
ATOM     16  C   UNL A   1      32.900  20.765  23.680  1.00  0.00     0.026 C 
ATOM     17  C   UNL A   1      31.891  21.682  23.001  1.00  0.00     0.006 C 
ENDBRANCH  15  16
BRANCH  15  18
ATOM     18  C   UNL A   1      33.075  18.568  24.979  1.00  0.00    -0.026 A 
ATOM     19  C   UNL A   1      33.858  18.166  23.888  1.00  0.00     0.006 A 
ATOM     20  C   UNL A   1      32.524  17.594  25.827  1.00  0.00     0.006 A 
ATOM     21  C   UNL A   1      34.023  16.814  23.608  1.00  0.00     0.000 A 
ATOM     22  C   UNL A   1      32.710  16.243  25.558  1.00  0.00     0.000 A 
ATOM     23  C   UNL A   1      33.440  15.856  24.437  1.00  0.00     0.000 A 
ENDBRANCH  15  18
ENDBRANCH  12  15
ENDBRANCH   6  11
ENDBRANCH   3   5
ENDBRANCH   2   3
ENDBRANCH   1   2
BRANCH   1  24
ATOM     24  C   UNL A   1      37.405  21.145  25.552  1.00  0.00     0.275 C 
BRANCH  24  25
ATOM     25  O   UNL A   1      38.768  20.801  25.168  1.00  0.00    -0.458 OA
BRANCH  25  26
ATOM     26  C   UNL A   1      39.595  20.897  26.226  1.00  0.00     0.338 C 
ATOM     27  O   UNL A   1      40.120  19.900  26.706  1.00  0.00    -0.246 OA
BRANCH  26  28
ATOM     28  C   UNL A   1      39.839  22.173  26.919  1.00  0.00     0.060 A 
ATOM     29  C   UNL A   1      39.468  23.341  26.253  1.00  0.00     0.016 A 
ATOM     30  C   UNL A   1      40.886  22.223  27.851  1.00  0.00     0.016 A 
ATOM     31  C   UNL A   1      40.186  24.527  26.478  1.00  0.00     0.010 A 
ATOM     32  C   UNL A   1      41.592  23.413  28.086  1.00  0.00     0.010 A 
ATOM     33  C   UNL A   1      41.254  24.583  27.400  1.00  0.00    -0.014 A 
BRANCH  33  34
ATOM     34  C   UNL A   1      41.759  25.902  27.876  1.00  0.00     0.031 A 
ATOM     35  C   UNL A   1      40.952  26.927  28.636  1.00  0.00     0.074 A 
ATOM     36  C   UNL A   1      43.010  26.191  27.470  1.00  0.00     0.049 A 
ATOM     37  N   UNL A   1      41.300  28.139  29.001  1.00  0.00    -0.248 NA
ATOM     38  C   UNL A   1      39.573  26.576  28.996  1.00  0.00     0.031 C 
ATOM     39  C   UNL A   1      43.833  25.295  26.649  1.00  0.00     0.029 A 
ATOM     40  N   UNL A   1      43.813  27.278  27.676  1.00  0.00    -0.354 N 
ATOM     41  C   UNL A   1      40.180  28.713  29.604  1.00  0.00     0.074 A 
ATOM     42  C   UNL A   1      39.134  27.710  29.538  1.00  0.00     0.031 C 
ATOM     43  C   UNL A   1      45.047  25.824  26.496  1.00  0.00     0.029 A 
ATOM     44  C   UNL A   1      45.058  27.140  27.110  1.00  0.00     0.049 A 
ATOM     45  H   UNL A   1      43.529  28.077  28.176  1.00  0.00     0.167 HD
ATOM     46  C   UNL A   1      40.052  29.960  30.143  1.00  0.00     0.034 A 
ATOM     47  C   UNL A   1      46.103  27.981  27.062  1.00  0.00     0.034 A 
ATOM     48  C   UNL A   1      41.142  30.924  30.191  1.00  0.00     0.049 A 
ATOM     49  C   UNL A   1      45.958  29.313  27.718  1.00  0.00     0.074 A 
ATOM     50  C   UNL A   1      41.164  32.183  30.775  1.00  0.00     0.029 A 
ATOM     51  N   UNL A   1      42.402  30.744  29.624  1.00  0.00    -0.354 N 
ATOM     52  N   UNL A   1      44.905  29.823  28.313  1.00  0.00    -0.248 NA
ATOM     53  C   UNL A   1      47.136  30.180  27.701  1.00  0.00     0.031 C 
ATOM     54  C   UNL A   1      42.396  32.787  30.492  1.00  0.00     0.029 A 
ATOM     55  C   UNL A   1      43.187  31.876  29.811  1.00  0.00     0.049 A 
ATOM     56  H   UNL A   1      42.695  29.928  29.156  1.00  0.00     0.167 HD
ATOM     57  C   UNL A   1      45.294  31.082  28.747  1.00  0.00     0.074 A 
ATOM     58  C   UNL A   1      46.690  31.230  28.375  1.00  0.00     0.031 C 
ATOM     59  C   UNL A   1      44.563  32.028  29.388  1.00  0.00     0.034 A 
BRANCH  46  60
ATOM     60  C   UNL A   1      38.694  30.389  30.687  1.00  0.00     0.023 A 
ATOM     61  C   UNL A   1      37.721  31.018  29.889  1.00  0.00     0.031 A 
ATOM     62  C   UNL A   1      38.349  30.133  32.031  1.00  0.00     0.131 A 
ATOM     63  C   UNL A   1      36.494  31.424  30.449  1.00  0.00     0.055 A 
ATOM     64  C   UNL A   1      37.097  30.464  32.562  1.00  0.00     0.041 A 
ATOM     65  F   UNL A   1      39.226  29.548  32.863  1.00  0.00    -0.206 F 
ATOM     66  C   UNL A   1      36.166  31.128  31.773  1.00  0.00     0.022 A 
BRANCH  63  67
ATOM     67  S   UNL A   1      35.386  32.473  29.464  1.00  0.00     0.124 S 
ATOM     68  O   UNL A   1      36.211  33.660  29.252  1.00  0.00    -0.237 OA
ATOM     69  O   UNL A   1      35.132  31.648  28.289  1.00  0.00    -0.237 OA
ATOM     70  O   UNL A   1      34.235  32.677  30.343  1.00  0.00    -0.744 OA
ENDBRANCH  63  67
ENDBRANCH  46  60
BRANCH  47  71
ATOM     71  C   UNL A   1      47.350  27.539  26.384  1.00  0.00     0.023 A 
ATOM     72  C   UNL A   1      48.294  26.761  27.066  1.00  0.00     0.031 A 
ATOM     73  C   UNL A   1      47.558  27.788  25.013  1.00  0.00     0.131 A 
ATOM     74  C   UNL A   1      49.405  26.254  26.377  1.00  0.00     0.055 A 
ATOM     75  C   UNL A   1      48.632  27.232  24.319  1.00  0.00     0.041 A 
ATOM     76  F   UNL A   1      46.668  28.508  24.311  1.00  0.00    -0.206 F 
ATOM     77  C   UNL A   1      49.566  26.462  25.004  1.00  0.00     0.022 A 
BRANCH  74  78
ATOM     78  S   UNL A   1      50.664  25.348  27.313  1.00  0.00     0.124 S 
ATOM     79  O   UNL A   1      51.540  24.870  26.249  1.00  0.00    -0.237 OA
ATOM     80  O   UNL A   1      51.210  26.389  28.175  1.00  0.00    -0.237 OA
ATOM     81  O   UNL A   1      49.894  24.312  28.000  1.00  0.00    -0.744 OA
ENDBRANCH  74  78
ENDBRANCH  47  71
BRANCH  59  82
ATOM     82  C   UNL A   1      45.295  33.305  29.721  1.00  0.00     0.023 A 
ATOM     83  C   UNL A   1      45.367  34.367  28.801  1.00  0.00     0.031 A 
ATOM     84  C   UNL A   1      45.996  33.429  30.932  1.00  0.00     0.131 A 
ATOM     85  C   UNL A   1      46.194  35.467  29.068  1.00  0.00     0.055 A 
ATOM     86  C   UNL A   1      46.759  34.559  31.224  1.00  0.00     0.041 A 
ATOM     87  F   UNL A   1      45.969  32.441  31.841  1.00  0.00    -0.206 F 
ATOM     88  C   UNL A   1      46.878  35.577  30.282  1.00  0.00     0.022 A 
BRANCH  85  89
ATOM     89  S   UNL A   1      46.473  36.682  27.751  1.00  0.00     0.124 S 
ATOM     90  O   UNL A   1      45.218  36.616  27.009  1.00  0.00    -0.237 OA
ATOM     91  O   UNL A   1      46.705  37.911  28.503  1.00  0.00    -0.237 OA
ATOM     92  O   UNL A   1      47.640  36.159  27.044  1.00  0.00    -0.744 OA
ENDBRANCH  85  89
ENDBRANCH  59  82
ENDBRANCH  33  34
ENDBRANCH  26  28
ENDBRANCH  25  26
ENDBRANCH  24  25
ENDBRANCH   1  24
TORSDOF 18
ENDMDL
MODEL 3
REMARK VINA RESULT:     -11.3      5.566     10.944
REMARK SMILES CC[C@H](NC(=O)c1nn(C)cc1C(=O)OCCOC(=O)c1ccc(-c2c3nc(c(-c4cc(S(=O)(=O)[O-])ccc4F)c4ccc([nH]4)c(-c4cc(S(=O)(=O)[O-])ccc4F)c4nc(c(-c5cc(S(=O)(=O)[O-])ccc5F)c5ccc2[nH]5)C=C4)C=C3)cc1)c1ccccc1
REMARK SMILES IDX 16 1 15 2 13 3 14 4 12 5 7 6 8 7 9 8 11 9 10 10 5 11 4 12
REMARK SMILES IDX 6 14 3 15 2 16 1 17 84 18 85 19 89 20 86 21 88 22 87 23
REMARK SMILES IDX 17 24 18 25 19 26 20 27 21 28 22 29 83 30 23 31 82 32 24 33
REMARK SMILES IDX 25 34 26 35 76 36 27 37 81 38 75 39 77 40 28 41 80 42 74 43
REMARK SMILES IDX 73 44 29 46 61 47 41 48 60 49 42 50 45 51 59 52 78 53 43 54
REMARK SMILES IDX 44 55 58 57 79 58 46 59 30 60 31 61 39 62 32 63 38 64 40 65
REMARK SMILES IDX 37 66 33 67 34 68 35 69 36 70 62 71 63 72 71 73 64 74 70 75
REMARK SMILES IDX 72 76 69 77 65 78 66 79 67 80 68 81 47 82 48 83 56 84 49 85
REMARK SMILES IDX 55 86 57 87 54 88 50 89 51 90 52 91 53 92
REMARK H PARENT 4 13 77 45 45 56
REMARK Flexibility Score: inf
ROOT
ATOM      1  C   UNL A   1      31.843  28.565  27.388  1.00  0.00     0.275 C 
ENDROOT
BRANCH   1   2
ATOM      2  O   UNL A   1      31.444  27.464  26.538  1.00  0.00    -0.458 OA
BRANCH   2   3
ATOM      3  C   UNL A   1      32.455  26.865  25.829  1.00  0.00     0.342 C 
ATOM      4  O   UNL A   1      33.633  27.176  25.932  1.00  0.00    -0.246 OA
BRANCH   3   5
ATOM      5  C   UNL A   1      31.985  25.907  24.850  1.00  0.00     0.111 A 
ATOM      6  C   UNL A   1      30.765  25.803  24.077  1.00  0.00     0.164 A 
ATOM      7  N   UNL A   1      30.697  24.560  23.536  1.00  0.00    -0.167 NA
ATOM      8  N   UNL A   1      31.824  23.945  23.888  1.00  0.00    -0.274 N 
ATOM      9  C   UNL A   1      32.645  24.703  24.653  1.00  0.00     0.125 A 
ATOM     10  C   UNL A   1      32.023  22.561  23.531  1.00  0.00     0.173 C 
BRANCH   6  11
ATOM     11  C   UNL A   1      29.534  26.643  23.982  1.00  0.00     0.273 C 
ATOM     12  N   UNL A   1      29.450  28.037  24.043  1.00  0.00    -0.344 N 
ATOM     13  H   UNL A   1      28.673  28.365  24.551  1.00  0.00     0.164 HD
ATOM     14  O   UNL A   1      28.448  26.074  23.809  1.00  0.00    -0.267 OA
BRANCH  12  15
ATOM     15  C   UNL A   1      30.295  29.112  23.500  1.00  0.00     0.112 C 
BRANCH  15  16
ATOM     16  C   UNL A   1      31.488  28.841  22.514  1.00  0.00     0.026 C 
ATOM     17  C   UNL A   1      32.955  29.004  22.890  1.00  0.00     0.006 C 
ENDBRANCH  15  16
BRANCH  15  18
ATOM     18  C   UNL A   1      29.413  30.246  23.025  1.00  0.00    -0.026 A 
ATOM     19  C   UNL A   1      28.995  30.233  21.687  1.00  0.00     0.006 A 
ATOM     20  C   UNL A   1      29.224  31.406  23.793  1.00  0.00     0.006 A 
ATOM     21  C   UNL A   1      28.469  31.382  21.110  1.00  0.00     0.000 A 
ATOM     22  C   UNL A   1      28.676  32.547  23.219  1.00  0.00     0.000 A 
ATOM     23  C   UNL A   1      28.320  32.540  21.873  1.00  0.00     0.000 A 
ENDBRANCH  15  18
ENDBRANCH  12  15
ENDBRANCH   6  11
ENDBRANCH   3   5
ENDBRANCH   2   3
ENDBRANCH   1   2
BRANCH   1  24
ATOM     24  C   UNL A   1      31.626  29.972  26.777  1.00  0.00     0.275 C 
BRANCH  24  25
ATOM     25  O   UNL A   1      32.795  30.581  26.153  1.00  0.00    -0.458 OA
BRANCH  25  26
ATOM     26  C   UNL A   1      33.486  31.306  27.053  1.00  0.00     0.338 C 
ATOM     27  O   UNL A   1      33.016  32.332  27.529  1.00  0.00    -0.246 OA
BRANCH  26  28
ATOM     28  C   UNL A   1      34.864  30.966  27.443  1.00  0.00     0.060 A 
ATOM     29  C   UNL A   1      35.114  29.645  27.817  1.00  0.00     0.016 A 
ATOM     30  C   UNL A   1      35.667  31.987  27.974  1.00  0.00     0.016 A 
ATOM     31  C   UNL A   1      36.116  29.367  28.760  1.00  0.00     0.010 A 
ATOM     32  C   UNL A   1      36.679  31.706  28.905  1.00  0.00     0.010 A 
ATOM     33  C   UNL A   1      36.916  30.390  29.314  1.00  0.00    -0.014 A 
BRANCH  33  34
ATOM     34  C   UNL A   1      38.180  30.045  30.026  1.00  0.00     0.031 A 
ATOM     35  C   UNL A   1      39.276  29.160  29.486  1.00  0.00     0.074 A 
ATOM     36  C   UNL A   1      38.240  30.502  31.292  1.00  0.00     0.049 A 
ATOM     37  N   UNL A   1      40.364  28.739  30.090  1.00  0.00    -0.248 NA
ATOM     38  C   UNL A   1      39.122  28.643  28.121  1.00  0.00     0.031 C 
ATOM     39  C   UNL A   1      37.179  31.289  31.931  1.00  0.00     0.029 A 
ATOM     40  N   UNL A   1      39.197  30.392  32.262  1.00  0.00    -0.354 N 
ATOM     41  C   UNL A   1      41.011  27.883  29.198  1.00  0.00     0.074 A 
ATOM     42  C   UNL A   1      40.176  27.836  28.012  1.00  0.00     0.031 C 
ATOM     43  C   UNL A   1      37.577  31.666  33.146  1.00  0.00     0.029 A 
ATOM     44  C   UNL A   1      38.868  31.060  33.417  1.00  0.00     0.049 A 
ATOM     45  H   UNL A   1      40.034  29.888  32.145  1.00  0.00     0.167 HD
ATOM     46  C   UNL A   1      42.181  27.202  29.373  1.00  0.00     0.034 A 
ATOM     47  C   UNL A   1      39.515  31.166  34.589  1.00  0.00     0.034 A 
ATOM     48  C   UNL A   1      42.984  27.295  30.583  1.00  0.00     0.049 A 
ATOM     49  C   UNL A   1      40.824  30.465  34.730  1.00  0.00     0.074 A 
ATOM     50  C   UNL A   1      44.218  26.720  30.853  1.00  0.00     0.029 A 
ATOM     51  N   UNL A   1      42.630  27.999  31.732  1.00  0.00    -0.354 N 
ATOM     52  N   UNL A   1      41.437  29.690  33.864  1.00  0.00    -0.248 NA
ATOM     53  C   UNL A   1      41.531  30.652  35.997  1.00  0.00     0.031 C 
ATOM     54  C   UNL A   1      44.566  27.008  32.180  1.00  0.00     0.029 A 
ATOM     55  C   UNL A   1      43.599  27.840  32.718  1.00  0.00     0.049 A 
ATOM     56  H   UNL A   1      41.809  28.533  31.833  1.00  0.00     0.167 HD
ATOM     57  C   UNL A   1      42.612  29.293  34.484  1.00  0.00     0.074 A 
ATOM     58  C   UNL A   1      42.633  29.948  35.780  1.00  0.00     0.031 C 
ATOM     59  C   UNL A   1      43.580  28.460  34.026  1.00  0.00     0.034 A 
BRANCH  46  60
ATOM     60  C   UNL A   1      42.656  26.264  28.270  1.00  0.00     0.023 A 
ATOM     61  C   UNL A   1      42.096  24.988  28.064  1.00  0.00     0.031 A 
ATOM     62  C   UNL A   1      43.673  26.666  27.378  1.00  0.00     0.131 A 
ATOM     63  C   UNL A   1      42.595  24.147  27.051  1.00  0.00     0.055 A 
ATOM     64  C   UNL A   1      44.108  25.858  26.321  1.00  0.00     0.041 A 
ATOM     65  F   UNL A   1      44.268  27.862  27.514  1.00  0.00    -0.206 F 
ATOM     66  C   UNL A   1      43.578  24.584  26.161  1.00  0.00     0.022 A 
BRANCH  63  67
ATOM     67  S   UNL A   1      42.042  22.418  26.996  1.00  0.00     0.124 S 
ATOM     68  O   UNL A   1      40.590  22.571  26.957  1.00  0.00    -0.237 OA
ATOM     69  O   UNL A   1      42.669  21.925  25.775  1.00  0.00    -0.237 OA
ATOM     70  O   UNL A   1      42.564  21.850  28.238  1.00  0.00    -0.744 OA
ENDBRANCH  63  67
ENDBRANCH  46  60
BRANCH  47  71
ATOM     71  C   UNL A   1      38.911  31.987  35.671  1.00  0.00     0.023 A 
ATOM     72  C   UNL A   1      38.235  31.377  36.735  1.00  0.00     0.031 A 
ATOM     73  C   UNL A   1      39.105  33.382  35.718  1.00  0.00     0.131 A 
ATOM     74  C   UNL A   1      37.776  32.157  37.805  1.00  0.00     0.055 A 
ATOM     75  C   UNL A   1      38.700  34.144  36.812  1.00  0.00     0.041 A 
ATOM     76  F   UNL A   1      39.770  34.008  34.732  1.00  0.00    -0.206 F 
ATOM     77  C   UNL A   1      38.027  33.531  37.864  1.00  0.00     0.022 A 
BRANCH  74  78
ATOM     78  S   UNL A   1      36.806  31.354  39.108  1.00  0.00     0.124 S 
ATOM     79  O   UNL A   1      35.627  32.209  39.172  1.00  0.00    -0.237 OA
ATOM     80  O   UNL A   1      36.602  30.019  38.557  1.00  0.00    -0.237 OA
ATOM     81  O   UNL A   1      37.687  31.418  40.273  1.00  0.00    -0.744 OA
ENDBRANCH  74  78
ENDBRANCH  47  71
BRANCH  59  82
ATOM     82  C   UNL A   1      44.742  28.232  34.961  1.00  0.00     0.023 A 
ATOM     83  C   UNL A   1      44.676  27.272  35.987  1.00  0.00     0.031 A 
ATOM     84  C   UNL A   1      45.890  29.037  34.880  1.00  0.00     0.131 A 
ATOM     85  C   UNL A   1      45.698  27.201  36.944  1.00  0.00     0.055 A 
ATOM     86  C   UNL A   1      46.938  28.912  35.791  1.00  0.00     0.041 A 
ATOM     87  F   UNL A   1      46.001  29.975  33.925  1.00  0.00    -0.206 F 
ATOM     88  C   UNL A   1      46.838  28.004  36.842  1.00  0.00     0.022 A 
BRANCH  85  89
ATOM     89  S   UNL A   1      45.455  26.145  38.398  1.00  0.00     0.124 S 
ATOM     90  O   UNL A   1      46.823  25.747  38.715  1.00  0.00    -0.237 OA
ATOM     91  O   UNL A   1      44.821  27.057  39.344  1.00  0.00    -0.237 OA
ATOM     92  O   UNL A   1      44.596  25.071  37.902  1.00  0.00    -0.744 OA
ENDBRANCH  85  89
ENDBRANCH  59  82
ENDBRANCH  33  34
ENDBRANCH  26  28
ENDBRANCH  25  26
ENDBRANCH  24  25
ENDBRANCH   1  24
TORSDOF 18
ENDMDL
