MODEL 1
REMARK VINA RESULT:     -12.4      0.000      0.000
REMARK SMILES O=C(OCCOC(=O)c1ccccc1Nc1cccc(S(F)(F)(F)(F)F)c1)c1ccc(-c2c3nc(c(-c4cc(S(=O)(=O)[O-])ccc4F)c4ccc([nH]4)c(-c4cc(S(=O)(=O)[O-])ccc4F)c4nc(c(-c5cc(S(=O)(=O)[O-])ccc5F)c5ccc2[nH]5)C=C4)C=C3)cc1
REMARK SMILES IDX 4 1 3 2 2 3 1 4 28 5 29 6 90 7 30 8 89 9 31 10 32 11 33 12
REMARK SMILES IDX 83 13 34 14 88 15 82 16 84 17 35 18 87 19 81 20 80 21 36 23
REMARK SMILES IDX 68 24 48 25 67 26 49 27 52 28 66 29 85 30 50 31 51 32 65 34
REMARK SMILES IDX 86 35 53 36 37 37 38 38 46 39 39 40 45 41 47 42 44 43 40 44
REMARK SMILES IDX 41 45 42 46 43 47 69 48 70 49 78 50 71 51 77 52 79 53 76 54
REMARK SMILES IDX 72 55 73 56 74 57 75 58 54 59 55 60 63 61 56 62 62 63 64 64
REMARK SMILES IDX 61 65 57 66 58 67 59 68 60 69 5 70 6 71 7 72 8 73 9 74 10 75
REMARK SMILES IDX 14 76 11 77 13 78 12 79 15 80 16 82 17 83 27 84 18 85 20 86
REMARK SMILES IDX 19 87 21 88 22 89 23 90 24 91 25 92 26 93
REMARK H PARENT 84 22 52 33 15 81
REMARK Flexibility Score: inf
ROOT
ATOM      1  C   UNL A   1      31.796  29.566  25.825  1.00  0.00     0.275 C 
ENDROOT
BRANCH   1   2
ATOM      2  O   UNL A   1      32.915  30.439  25.759  1.00  0.00    -0.458 OA
BRANCH   2   3
ATOM      3  C   UNL A   1      33.258  31.239  26.881  1.00  0.00     0.338 C 
ATOM      4  O   UNL A   1      32.498  32.191  27.239  1.00  0.00    -0.246 OA
BRANCH   3   5
ATOM      5  C   UNL A   1      34.537  30.955  27.654  1.00  0.00     0.060 A 
ATOM      6  C   UNL A   1      34.743  29.680  28.155  1.00  0.00     0.016 A 
ATOM      7  C   UNL A   1      35.399  31.936  27.891  1.00  0.00     0.016 A 
ATOM      8  C   UNL A   1      35.750  29.611  29.147  1.00  0.00     0.010 A 
ATOM      9  C   UNL A   1      36.440  31.755  28.770  1.00  0.00     0.010 A 
ATOM     10  C   UNL A   1      36.668  30.538  29.349  1.00  0.00    -0.014 A 
BRANCH  10  11
ATOM     11  C   UNL A   1      37.912  30.266  30.180  1.00  0.00     0.031 A 
ATOM     12  C   UNL A   1      38.028  30.859  31.438  1.00  0.00     0.074 A 
ATOM     13  C   UNL A   1      38.833  29.378  29.654  1.00  0.00     0.049 A 
ATOM     14  N   UNL A   1      38.988  30.665  32.343  1.00  0.00    -0.248 NA
ATOM     15  C   UNL A   1      37.068  31.829  31.985  1.00  0.00     0.031 C 
ATOM     16  C   UNL A   1      38.718  28.769  28.389  1.00  0.00     0.029 A 
ATOM     17  N   UNL A   1      39.999  28.929  30.233  1.00  0.00    -0.354 N 
ATOM     18  C   UNL A   1      38.748  31.394  33.435  1.00  0.00     0.074 A 
ATOM     19  C   UNL A   1      37.513  32.158  33.217  1.00  0.00     0.031 C 
ATOM     20  C   UNL A   1      39.804  27.973  28.204  1.00  0.00     0.029 A 
ATOM     21  C   UNL A   1      40.617  28.071  29.349  1.00  0.00     0.049 A 
ATOM     22  H   UNL A   1      40.334  29.178  31.125  1.00  0.00     0.167 HD
ATOM     23  C   UNL A   1      39.510  31.451  34.603  1.00  0.00     0.034 A 
ATOM     24  C   UNL A   1      41.820  27.404  29.514  1.00  0.00     0.034 A 
ATOM     25  C   UNL A   1      40.691  30.749  34.785  1.00  0.00     0.049 A 
ATOM     26  C   UNL A   1      42.612  27.505  30.660  1.00  0.00     0.074 A 
ATOM     27  C   UNL A   1      41.467  30.788  35.959  1.00  0.00     0.029 A 
ATOM     28  N   UNL A   1      41.320  29.911  33.891  1.00  0.00    -0.354 N 
ATOM     29  N   UNL A   1      42.351  28.204  31.767  1.00  0.00    -0.248 NA
ATOM     30  C   UNL A   1      43.904  26.828  30.833  1.00  0.00     0.031 C 
ATOM     31  C   UNL A   1      42.553  29.993  35.774  1.00  0.00     0.029 A 
ATOM     32  C   UNL A   1      42.474  29.444  34.479  1.00  0.00     0.049 A 
ATOM     33  H   UNL A   1      41.001  29.684  32.988  1.00  0.00     0.167 HD
ATOM     34  C   UNL A   1      43.333  28.041  32.656  1.00  0.00     0.074 A 
ATOM     35  C   UNL A   1      44.350  27.160  32.065  1.00  0.00     0.031 C 
ATOM     36  C   UNL A   1      43.421  28.588  33.936  1.00  0.00     0.034 A 
BRANCH  23  37
ATOM     37  C   UNL A   1      39.016  32.330  35.740  1.00  0.00     0.023 A 
ATOM     38  C   UNL A   1      39.389  33.662  35.669  1.00  0.00     0.031 A 
ATOM     39  C   UNL A   1      38.227  31.887  36.712  1.00  0.00     0.131 A 
ATOM     40  C   UNL A   1      39.109  34.399  36.844  1.00  0.00     0.055 A 
ATOM     41  C   UNL A   1      37.882  32.704  37.761  1.00  0.00     0.041 A 
ATOM     42  F   UNL A   1      37.765  30.640  36.668  1.00  0.00    -0.206 F 
ATOM     43  C   UNL A   1      38.267  34.016  37.786  1.00  0.00     0.022 A 
BRANCH  40  44
ATOM     44  S   UNL A   1      39.967  35.976  37.073  1.00  0.00     0.124 S 
ATOM     45  O   UNL A   1      39.900  36.788  35.777  1.00  0.00    -0.237 OA
ATOM     46  O   UNL A   1      39.295  36.763  38.202  1.00  0.00    -0.237 OA
ATOM     47  O   UNL A   1      41.601  35.683  37.478  1.00  0.00    -0.744 OA
ENDBRANCH  40  44
ENDBRANCH  23  37
BRANCH  24  48
ATOM     48  C   UNL A   1      42.305  26.511  28.384  1.00  0.00     0.023 A 
ATOM     49  C   UNL A   1      41.939  25.176  28.331  1.00  0.00     0.031 A 
ATOM     50  C   UNL A   1      43.164  27.025  27.511  1.00  0.00     0.131 A 
ATOM     51  C   UNL A   1      42.762  24.389  27.490  1.00  0.00     0.055 A 
ATOM     52  C   UNL A   1      43.833  26.213  26.627  1.00  0.00     0.041 A 
ATOM     53  F   UNL A   1      43.381  28.337  27.494  1.00  0.00    -0.206 F 
ATOM     54  C   UNL A   1      43.563  24.874  26.560  1.00  0.00     0.022 A 
BRANCH  51  55
ATOM     55  S   UNL A   1      42.709  22.593  27.706  1.00  0.00     0.124 S 
ATOM     56  O   UNL A   1      43.398  21.916  26.518  1.00  0.00    -0.237 OA
ATOM     57  O   UNL A   1      43.433  22.212  28.999  1.00  0.00    -0.237 OA
ATOM     58  O   UNL A   1      41.081  22.077  27.790  1.00  0.00    -0.744 OA
ENDBRANCH  51  55
ENDBRANCH  24  48
BRANCH  36  59
ATOM     59  C   UNL A   1      44.627  28.224  34.788  1.00  0.00     0.023 A 
ATOM     60  C   UNL A   1      44.530  27.148  35.654  1.00  0.00     0.031 A 
ATOM     61  C   UNL A   1      45.726  28.964  34.729  1.00  0.00     0.131 A 
ATOM     62  C   UNL A   1      45.551  27.107  36.633  1.00  0.00     0.055 A 
ATOM     63  C   UNL A   1      46.745  28.779  35.633  1.00  0.00     0.041 A 
ATOM     64  F   UNL A   1      45.845  29.894  33.784  1.00  0.00    -0.206 F 
ATOM     65  C   UNL A   1      46.689  27.772  36.556  1.00  0.00     0.022 A 
BRANCH  62  66
ATOM     66  S   UNL A   1      45.278  26.072  38.092  1.00  0.00     0.124 S 
ATOM     67  O   UNL A   1      44.279  24.962  37.751  1.00  0.00    -0.237 OA
ATOM     68  O   UNL A   1      46.604  25.446  38.530  1.00  0.00    -0.237 OA
ATOM     69  O   UNL A   1      44.653  27.030  39.363  1.00  0.00    -0.744 OA
ENDBRANCH  62  66
ENDBRANCH  36  59
ENDBRANCH  10  11
ENDBRANCH   3   5
ENDBRANCH   2   3
ENDBRANCH   1   2
BRANCH   1  70
ATOM     70  C   UNL A   1      32.281  28.126  25.880  1.00  0.00     0.275 C 
BRANCH  70  71
ATOM     71  O   UNL A   1      33.603  28.051  25.369  1.00  0.00    -0.458 OA
BRANCH  71  72
ATOM     72  C   UNL A   1      33.822  27.675  24.017  1.00  0.00     0.340 C 
ATOM     73  O   UNL A   1      34.228  28.536  23.175  1.00  0.00    -0.246 OA
BRANCH  72  74
ATOM     74  C   UNL A   1      33.569  26.242  23.576  1.00  0.00     0.083 A 
ATOM     75  C   UNL A   1      34.215  25.196  24.213  1.00  0.00     0.018 A 
ATOM     76  C   UNL A   1      32.802  26.033  22.512  1.00  0.00     0.053 A 
ATOM     77  C   UNL A   1      34.220  23.989  23.473  1.00  0.00     0.001 A 
ATOM     78  C   UNL A   1      32.750  24.794  21.921  1.00  0.00     0.027 A 
ATOM     79  C   UNL A   1      33.411  23.727  22.463  1.00  0.00     0.002 A 
BRANCH  76  80
ATOM     80  N   UNL A   1      32.002  27.136  21.963  1.00  0.00    -0.355 N 
ATOM     81  H   UNL A   1      32.305  27.610  21.154  1.00  0.00     0.167 HD
BRANCH  80  82
ATOM     82  C   UNL A   1      30.748  27.533  22.619  1.00  0.00     0.040 A 
ATOM     83  C   UNL A   1      29.990  26.603  23.310  1.00  0.00     0.026 A 
ATOM     84  C   UNL A   1      30.317  28.776  22.440  1.00  0.00     0.050 A 
ATOM     85  C   UNL A   1      28.651  27.002  23.528  1.00  0.00     0.004 A 
ATOM     86  C   UNL A   1      29.040  29.132  22.800  1.00  0.00     0.109 A 
ATOM     87  C   UNL A   1      28.215  28.245  23.434  1.00  0.00     0.024 A 
BRANCH  86  88
ATOM     88  S   UNL A   1      28.440  30.799  22.430  1.00  0.00     0.310 S 
ATOM     89  F   UNL A   1      27.195  30.405  23.331  1.00  0.00    -0.094 F 
ATOM     90  F   UNL A   1      27.614  30.293  21.188  1.00  0.00    -0.094 F 
ATOM     91  F   UNL A   1      27.819  32.219  22.301  1.00  0.00    -0.094 F 
ATOM     92  F   UNL A   1      29.166  31.248  23.760  1.00  0.00    -0.094 F 
ATOM     93  F   UNL A   1      28.990  29.333  22.641  1.00  0.00    -0.094 F 
ENDBRANCH  86  88
ENDBRANCH  80  82
ENDBRANCH  76  80
ENDBRANCH  72  74
ENDBRANCH  71  72
ENDBRANCH  70  71
ENDBRANCH   1  70
TORSDOF 17
ENDMDL
MODEL 2
REMARK VINA RESULT:     -12.2      6.382     10.757
REMARK SMILES O=C(OCCOC(=O)c1ccccc1Nc1cccc(S(F)(F)(F)(F)F)c1)c1ccc(-c2c3nc(c(-c4cc(S(=O)(=O)[O-])ccc4F)c4ccc([nH]4)c(-c4cc(S(=O)(=O)[O-])ccc4F)c4nc(c(-c5cc(S(=O)(=O)[O-])ccc5F)c5ccc2[nH]5)C=C4)C=C3)cc1
REMARK SMILES IDX 4 1 3 2 2 3 1 4 28 5 29 6 90 7 30 8 89 9 31 10 32 11 33 12
REMARK SMILES IDX 83 13 34 14 88 15 82 16 84 17 35 18 87 19 81 20 80 21 36 23
REMARK SMILES IDX 68 24 48 25 67 26 49 27 52 28 66 29 85 30 50 31 51 32 65 34
REMARK SMILES IDX 86 35 53 36 37 37 38 38 46 39 39 40 45 41 47 42 44 43 40 44
REMARK SMILES IDX 41 45 42 46 43 47 69 48 70 49 78 50 71 51 77 52 79 53 76 54
REMARK SMILES IDX 72 55 73 56 74 57 75 58 54 59 55 60 63 61 56 62 62 63 64 64
REMARK SMILES IDX 61 65 57 66 58 67 59 68 60 69 5 70 6 71 7 72 8 73 9 74 10 75
REMARK SMILES IDX 14 76 11 77 13 78 12 79 15 80 16 82 17 83 27 84 18 85 20 86
REMARK SMILES IDX 19 87 21 88 22 89 23 90 24 91 25 92 26 93
REMARK H PARENT 84 22 52 33 15 81
REMARK Flexibility Score: inf
ROOT
ATOM      1  C   UNL A   1      37.497  20.702  24.859  1.00  0.00     0.275 C 
ENDROOT
BRANCH   1   2
ATOM      2  O   UNL A   1      38.073  20.850  26.150  1.00  0.00    -0.458 OA
BRANCH   2   3
ATOM      3  C   UNL A   1      39.480  20.977  26.289  1.00  0.00     0.338 C 
ATOM      4  O   UNL A   1      40.229  19.965  26.124  1.00  0.00    -0.246 OA
BRANCH   3   5
ATOM      5  C   UNL A   1      40.091  22.326  26.636  1.00  0.00     0.060 A 
ATOM      6  C   UNL A   1      41.142  22.370  27.537  1.00  0.00     0.016 A 
ATOM      7  C   UNL A   1      39.573  23.438  26.127  1.00  0.00     0.016 A 
ATOM      8  C   UNL A   1      41.389  23.658  28.066  1.00  0.00     0.010 A 
ATOM      9  C   UNL A   1      39.961  24.669  26.597  1.00  0.00     0.010 A 
ATOM     10  C   UNL A   1      40.952  24.784  27.532  1.00  0.00    -0.014 A 
BRANCH  10  11
ATOM     11  C   UNL A   1      41.521  26.136  27.934  1.00  0.00     0.031 A 
ATOM     12  C   UNL A   1      42.852  26.427  27.631  1.00  0.00     0.074 A 
ATOM     13  C   UNL A   1      40.647  27.031  28.525  1.00  0.00     0.049 A 
ATOM     14  N   UNL A   1      43.493  27.583  27.815  1.00  0.00    -0.248 NA
ATOM     15  C   UNL A   1      43.792  25.467  27.035  1.00  0.00     0.031 C 
ATOM     16  C   UNL A   1      39.300  26.746  28.825  1.00  0.00     0.029 A 
ATOM     17  N   UNL A   1      40.903  28.324  28.922  1.00  0.00    -0.354 N 
ATOM     18  C   UNL A   1      44.753  27.485  27.385  1.00  0.00     0.074 A 
ATOM     19  C   UNL A   1      44.964  26.120  26.883  1.00  0.00     0.031 C 
ATOM     20  C   UNL A   1      38.756  27.848  29.406  1.00  0.00     0.029 A 
ATOM     21  C   UNL A   1      39.752  28.840  29.478  1.00  0.00     0.049 A 
ATOM     22  H   UNL A   1      41.760  28.799  28.826  1.00  0.00     0.167 HD
ATOM     23  C   UNL A   1      45.732  28.479  27.390  1.00  0.00     0.034 A 
ATOM     24  C   UNL A   1      39.563  30.100  30.023  1.00  0.00     0.034 A 
ATOM     25  C   UNL A   1      45.530  29.754  27.895  1.00  0.00     0.049 A 
ATOM     26  C   UNL A   1      40.560  31.077  30.081  1.00  0.00     0.074 A 
ATOM     27  C   UNL A   1      46.504  30.771  27.901  1.00  0.00     0.029 A 
ATOM     28  N   UNL A   1      44.387  30.260  28.473  1.00  0.00    -0.354 N 
ATOM     29  N   UNL A   1      41.808  30.991  29.615  1.00  0.00    -0.248 NA
ATOM     30  C   UNL A   1      40.381  32.404  30.685  1.00  0.00     0.031 C 
ATOM     31  C   UNL A   1      45.959  31.873  28.482  1.00  0.00     0.029 A 
ATOM     32  C   UNL A   1      44.636  31.561  28.850  1.00  0.00     0.049 A 
ATOM     33  H   UNL A   1      43.539  29.777  28.595  1.00  0.00     0.167 HD
ATOM     34  C   UNL A   1      42.461  32.133  29.836  1.00  0.00     0.074 A 
ATOM     35  C   UNL A   1      41.556  33.056  30.535  1.00  0.00     0.031 C 
ATOM     36  C   UNL A   1      43.774  32.445  29.481  1.00  0.00     0.034 A 
BRANCH  23  37
ATOM     37  C   UNL A   1      47.095  28.146  26.808  1.00  0.00     0.023 A 
ATOM     38  C   UNL A   1      47.211  28.296  25.436  1.00  0.00     0.031 A 
ATOM     39  C   UNL A   1      48.137  27.793  27.553  1.00  0.00     0.131 A 
ATOM     40  C   UNL A   1      48.410  27.767  24.901  1.00  0.00     0.055 A 
ATOM     41  C   UNL A   1      49.321  27.418  26.966  1.00  0.00     0.041 A 
ATOM     42  F   UNL A   1      48.032  27.805  28.878  1.00  0.00    -0.206 F 
ATOM     43  C   UNL A   1      49.487  27.484  25.610  1.00  0.00     0.022 A 
BRANCH  40  44
ATOM     44  S   UNL A   1      48.471  27.454  23.119  1.00  0.00     0.124 S 
ATOM     45  O   UNL A   1      48.275  25.959  22.855  1.00  0.00    -0.237 OA
ATOM     46  O   UNL A   1      47.358  28.244  22.424  1.00  0.00    -0.237 OA
ATOM     47  O   UNL A   1      49.988  27.947  22.505  1.00  0.00    -0.744 OA
ENDBRANCH  40  44
ENDBRANCH  23  37
BRANCH  24  48
ATOM     48  C   UNL A   1      38.194  30.439  30.589  1.00  0.00     0.023 A 
ATOM     49  C   UNL A   1      37.218  31.005  29.786  1.00  0.00     0.031 A 
ATOM     50  C   UNL A   1      38.000  30.266  31.892  1.00  0.00     0.131 A 
ATOM     51  C   UNL A   1      36.172  31.627  30.509  1.00  0.00     0.055 A 
ATOM     52  C   UNL A   1      36.887  30.785  32.508  1.00  0.00     0.041 A 
ATOM     53  F   UNL A   1      38.892  29.586  32.606  1.00  0.00    -0.206 F 
ATOM     54  C   UNL A   1      35.910  31.409  31.784  1.00  0.00     0.022 A 
BRANCH  51  55
ATOM     55  S   UNL A   1      35.120  32.802  29.621  1.00  0.00     0.124 S 
ATOM     56  O   UNL A   1      35.991  33.883  28.978  1.00  0.00    -0.237 OA
ATOM     57  O   UNL A   1      34.336  32.065  28.532  1.00  0.00    -0.237 OA
ATOM     58  O   UNL A   1      34.027  33.529  30.717  1.00  0.00    -0.744 OA
ENDBRANCH  51  55
ENDBRANCH  24  48
BRANCH  36  59
ATOM     59  C   UNL A   1      44.291  33.838  29.806  1.00  0.00     0.023 A 
ATOM     60  C   UNL A   1      44.101  34.852  28.882  1.00  0.00     0.031 A 
ATOM     61  C   UNL A   1      44.954  34.050  30.935  1.00  0.00     0.131 A 
ATOM     62  C   UNL A   1      44.906  35.993  29.111  1.00  0.00     0.055 A 
ATOM     63  C   UNL A   1      45.605  35.242  31.152  1.00  0.00     0.041 A 
ATOM     64  F   UNL A   1      44.990  33.101  31.868  1.00  0.00    -0.206 F 
ATOM     65  C   UNL A   1      45.510  36.267  30.253  1.00  0.00     0.022 A 
BRANCH  62  66
ATOM     66  S   UNL A   1      45.122  37.158  27.743  1.00  0.00     0.124 S 
ATOM     67  O   UNL A   1      45.941  36.495  26.632  1.00  0.00    -0.237 OA
ATOM     68  O   UNL A   1      43.752  37.561  27.194  1.00  0.00    -0.237 OA
ATOM     69  O   UNL A   1      45.943  38.549  28.304  1.00  0.00    -0.744 OA
ENDBRANCH  62  66
ENDBRANCH  36  59
ENDBRANCH  10  11
ENDBRANCH   3   5
ENDBRANCH   2   3
ENDBRANCH   1   2
BRANCH   1  70
ATOM     70  C   UNL A   1      36.103  21.307  24.855  1.00  0.00     0.275 C 
BRANCH  70  71
ATOM     71  O   UNL A   1      35.875  21.983  26.082  1.00  0.00    -0.458 OA
BRANCH  71  72
ATOM     72  C   UNL A   1      34.554  22.118  26.584  1.00  0.00     0.340 C 
ATOM     73  O   UNL A   1      34.207  21.493  27.635  1.00  0.00    -0.246 OA
BRANCH  72  74
ATOM     74  C   UNL A   1      33.554  23.009  25.865  1.00  0.00     0.083 A 
ATOM     75  C   UNL A   1      33.870  24.329  25.595  1.00  0.00     0.018 A 
ATOM     76  C   UNL A   1      32.348  22.520  25.598  1.00  0.00     0.053 A 
ATOM     77  C   UNL A   1      32.746  25.140  25.307  1.00  0.00     0.001 A 
ATOM     78  C   UNL A   1      31.332  23.350  25.190  1.00  0.00     0.027 A 
ATOM     79  C   UNL A   1      31.559  24.679  24.960  1.00  0.00     0.002 A 
BRANCH  76  80
ATOM     80  N   UNL A   1      32.098  21.079  25.742  1.00  0.00    -0.355 N 
ATOM     81  H   UNL A   1      31.640  20.735  26.543  1.00  0.00     0.167 HD
BRANCH  80  82
ATOM     82  C   UNL A   1      32.531  20.149  24.689  1.00  0.00     0.040 A 
ATOM     83  C   UNL A   1      32.147  20.347  23.373  1.00  0.00     0.026 A 
ATOM     84  C   UNL A   1      33.208  19.066  25.053  1.00  0.00     0.050 A 
ATOM     85  C   UNL A   1      32.274  19.197  22.559  1.00  0.00     0.004 A 
ATOM     86  C   UNL A   1      33.411  18.037  24.165  1.00  0.00     0.109 A 
ATOM     87  C   UNL A   1      33.005  18.141  22.864  1.00  0.00     0.024 A 
BRANCH  86  88
ATOM     88  S   UNL A   1      34.228  16.523  24.727  1.00  0.00     0.310 S 
ATOM     89  F   UNL A   1      34.395  16.201  23.182  1.00  0.00    -0.094 F 
ATOM     90  F   UNL A   1      32.883  15.706  24.681  1.00  0.00    -0.094 F 
ATOM     91  F   UNL A   1      35.038  15.228  25.021  1.00  0.00    -0.094 F 
ATOM     92  F   UNL A   1      35.581  17.335  24.629  1.00  0.00    -0.094 F 
ATOM     93  F   UNL A   1      33.434  17.826  24.316  1.00  0.00    -0.094 F 
ENDBRANCH  86  88
ENDBRANCH  80  82
ENDBRANCH  76  80
ENDBRANCH  72  74
ENDBRANCH  71  72
ENDBRANCH  70  71
ENDBRANCH   1  70
TORSDOF 17
ENDMDL
MODEL 3
REMARK VINA RESULT:     -12.1      1.725      2.109
REMARK SMILES O=C(OCCOC(=O)c1ccccc1Nc1cccc(S(F)(F)(F)(F)F)c1)c1ccc(-c2c3nc(c(-c4cc(S(=O)(=O)[O-])ccc4F)c4ccc([nH]4)c(-c4cc(S(=O)(=O)[O-])ccc4F)c4nc(c(-c5cc(S(=O)(=O)[O-])ccc5F)c5ccc2[nH]5)C=C4)C=C3)cc1
REMARK SMILES IDX 4 1 3 2 2 3 1 4 28 5 29 6 90 7 30 8 89 9 31 10 32 11 33 12
REMARK SMILES IDX 83 13 34 14 88 15 82 16 84 17 35 18 87 19 81 20 80 21 36 23
REMARK SMILES IDX 68 24 48 25 67 26 49 27 52 28 66 29 85 30 50 31 51 32 65 34
REMARK SMILES IDX 86 35 53 36 37 37 38 38 46 39 39 40 45 41 47 42 44 43 40 44
REMARK SMILES IDX 41 45 42 46 43 47 69 48 70 49 78 50 71 51 77 52 79 53 76 54
REMARK SMILES IDX 72 55 73 56 74 57 75 58 54 59 55 60 63 61 56 62 62 63 64 64
REMARK SMILES IDX 61 65 57 66 58 67 59 68 60 69 5 70 6 71 7 72 8 73 9 74 10 75
REMARK SMILES IDX 14 76 11 77 13 78 12 79 15 80 16 82 17 83 27 84 18 85 20 86
REMARK SMILES IDX 19 87 21 88 22 89 23 90 24 91 25 92 26 93
REMARK H PARENT 84 22 52 33 15 81
REMARK Flexibility Score: inf
ROOT
ATOM      1  C   UNL A   1      31.397  31.072  26.231  1.00  0.00     0.275 C 
ENDROOT
BRANCH   1   2
ATOM      2  O   UNL A   1      32.565  31.875  26.125  1.00  0.00    -0.458 OA
BRANCH   2   3
ATOM      3  C   UNL A   1      33.021  32.616  27.247  1.00  0.00     0.338 C 
ATOM      4  O   UNL A   1      32.397  33.660  27.615  1.00  0.00    -0.246 OA
BRANCH   3   5
ATOM      5  C   UNL A   1      34.256  32.160  28.008  1.00  0.00     0.060 A 
ATOM      6  C   UNL A   1      35.268  33.075  28.245  1.00  0.00     0.016 A 
ATOM      7  C   UNL A   1      34.376  30.890  28.375  1.00  0.00     0.016 A 
ATOM      8  C   UNL A   1      36.498  32.484  28.618  1.00  0.00     0.010 A 
ATOM      9  C   UNL A   1      35.569  30.411  28.859  1.00  0.00     0.010 A 
ATOM     10  C   UNL A   1      36.631  31.248  29.062  1.00  0.00    -0.014 A 
BRANCH  10  11
ATOM     11  C   UNL A   1      37.898  30.780  29.762  1.00  0.00     0.031 A 
ATOM     12  C   UNL A   1      38.185  31.267  31.038  1.00  0.00     0.074 A 
ATOM     13  C   UNL A   1      38.662  29.832  29.104  1.00  0.00     0.049 A 
ATOM     14  N   UNL A   1      39.187  30.903  31.841  1.00  0.00    -0.248 NA
ATOM     15  C   UNL A   1      37.395  32.300  31.724  1.00  0.00     0.031 C 
ATOM     16  C   UNL A   1      38.372  29.330  27.821  1.00  0.00     0.029 A 
ATOM     17  N   UNL A   1      39.809  29.215  29.550  1.00  0.00    -0.354 N 
ATOM     18  C   UNL A   1      39.125  31.577  32.991  1.00  0.00     0.074 A 
ATOM     19  C   UNL A   1      37.975  32.490  32.929  1.00  0.00     0.031 C 
ATOM     20  C   UNL A   1      39.338  28.431  27.492  1.00  0.00     0.029 A 
ATOM     21  C   UNL A   1      40.247  28.356  28.565  1.00  0.00     0.049 A 
ATOM     22  H   UNL A   1      40.243  29.362  30.421  1.00  0.00     0.167 HD
ATOM     23  C   UNL A   1      39.980  31.466  34.088  1.00  0.00     0.034 A 
ATOM     24  C   UNL A   1      41.371  27.547  28.581  1.00  0.00     0.034 A 
ATOM     25  C   UNL A   1      41.080  30.624  34.122  1.00  0.00     0.049 A 
ATOM     26  C   UNL A   1      42.261  27.478  29.657  1.00  0.00     0.074 A 
ATOM     27  C   UNL A   1      41.948  30.494  35.223  1.00  0.00     0.029 A 
ATOM     28  N   UNL A   1      41.531  29.785  33.128  1.00  0.00    -0.354 N 
ATOM     29  N   UNL A   1      42.176  28.124  30.822  1.00  0.00    -0.248 NA
ATOM     30  C   UNL A   1      43.473  26.649  29.673  1.00  0.00     0.031 C 
ATOM     31  C   UNL A   1      42.914  29.595  34.894  1.00  0.00     0.029 A 
ATOM     32  C   UNL A   1      42.666  29.150  33.582  1.00  0.00     0.049 A 
ATOM     33  H   UNL A   1      41.114  29.659  32.245  1.00  0.00     0.167 HD
ATOM     34  C   UNL A   1      43.200  27.789  31.609  1.00  0.00     0.074 A 
ATOM     35  C   UNL A   1      44.054  26.842  30.878  1.00  0.00     0.031 C 
ATOM     36  C   UNL A   1      43.456  28.233  32.907  1.00  0.00     0.034 A 
BRANCH  23  37
ATOM     37  C   UNL A   1      39.688  32.314  35.314  1.00  0.00     0.023 A 
ATOM     38  C   UNL A   1      39.083  31.650  36.369  1.00  0.00     0.031 A 
ATOM     39  C   UNL A   1      40.036  33.592  35.414  1.00  0.00     0.131 A 
ATOM     40  C   UNL A   1      38.623  32.507  37.397  1.00  0.00     0.055 A 
ATOM     41  C   UNL A   1      39.668  34.334  36.510  1.00  0.00     0.041 A 
ATOM     42  F   UNL A   1      40.747  34.158  34.443  1.00  0.00    -0.206 F 
ATOM     43  C   UNL A   1      39.016  33.757  37.564  1.00  0.00     0.022 A 
BRANCH  40  44
ATOM     44  S   UNL A   1      37.408  31.844  38.564  1.00  0.00     0.124 S 
ATOM     45  O   UNL A   1      37.998  31.856  39.977  1.00  0.00    -0.237 OA
ATOM     46  O   UNL A   1      36.145  32.709  38.533  1.00  0.00    -0.237 OA
ATOM     47  O   UNL A   1      37.011  30.241  38.126  1.00  0.00    -0.744 OA
ENDBRANCH  40  44
ENDBRANCH  23  37
BRANCH  24  48
ATOM     48  C   UNL A   1      41.654  26.686  27.362  1.00  0.00     0.023 A 
ATOM     49  C   UNL A   1      41.209  25.375  27.304  1.00  0.00     0.031 A 
ATOM     50  C   UNL A   1      42.420  27.196  26.405  1.00  0.00     0.131 A 
ATOM     51  C   UNL A   1      41.869  24.589  26.330  1.00  0.00     0.055 A 
ATOM     52  C   UNL A   1      42.920  26.394  25.407  1.00  0.00     0.041 A 
ATOM     53  F   UNL A   1      42.706  28.495  26.412  1.00  0.00    -0.206 F 
ATOM     54  C   UNL A   1      42.568  25.076  25.322  1.00  0.00     0.022 A 
BRANCH  51  55
ATOM     55  S   UNL A   1      41.743  22.789  26.477  1.00  0.00     0.124 S 
ATOM     56  O   UNL A   1      42.252  22.352  27.853  1.00  0.00    -0.237 OA
ATOM     57  O   UNL A   1      40.281  22.364  26.317  1.00  0.00    -0.237 OA
ATOM     58  O   UNL A   1      42.688  22.051  25.258  1.00  0.00    -0.744 OA
ENDBRANCH  51  55
ENDBRANCH  24  48
BRANCH  36  59
ATOM     59  C   UNL A   1      44.676  27.676  33.625  1.00  0.00     0.023 A 
ATOM     60  C   UNL A   1      44.563  26.468  34.292  1.00  0.00     0.031 A 
ATOM     61  C   UNL A   1      45.805  28.371  33.646  1.00  0.00     0.131 A 
ATOM     62  C   UNL A   1      45.618  26.214  35.200  1.00  0.00     0.055 A 
ATOM     63  C   UNL A   1      46.848  27.989  34.456  1.00  0.00     0.041 A 
ATOM     64  F   UNL A   1      45.931  29.449  32.875  1.00  0.00    -0.206 F 
ATOM     65  C   UNL A   1      46.781  26.837  35.189  1.00  0.00     0.022 A 
BRANCH  62  66
ATOM     66  S   UNL A   1      45.353  24.947  36.465  1.00  0.00     0.124 S 
ATOM     67  O   UNL A   1      44.582  25.554  37.641  1.00  0.00    -0.237 OA
ATOM     68  O   UNL A   1      44.546  23.792  35.869  1.00  0.00    -0.237 OA
ATOM     69  O   UNL A   1      46.864  24.365  37.014  1.00  0.00    -0.744 OA
ENDBRANCH  62  66
ENDBRANCH  36  59
ENDBRANCH  10  11
ENDBRANCH   3   5
ENDBRANCH   2   3
ENDBRANCH   1   2
BRANCH   1  70
ATOM     70  C   UNL A   1      31.770  29.610  26.044  1.00  0.00     0.275 C 
BRANCH  70  71
ATOM     71  O   UNL A   1      33.045  29.521  25.426  1.00  0.00    -0.458 OA
BRANCH  71  72
ATOM     72  C   UNL A   1      33.205  28.769  24.233  1.00  0.00     0.340 C 
ATOM     73  O   UNL A   1      33.659  29.328  23.185  1.00  0.00    -0.246 OA
BRANCH  72  74
ATOM     74  C   UNL A   1      32.832  27.295  24.207  1.00  0.00     0.083 A 
ATOM     75  C   UNL A   1      33.376  26.426  25.137  1.00  0.00     0.018 A 
ATOM     76  C   UNL A   1      32.063  26.854  23.218  1.00  0.00     0.053 A 
ATOM     77  C   UNL A   1      33.284  25.062  24.770  1.00  0.00     0.001 A 
ATOM     78  C   UNL A   1      31.909  25.506  23.000  1.00  0.00     0.027 A 
ATOM     79  C   UNL A   1      32.468  24.589  23.847  1.00  0.00     0.002 A 
BRANCH  76  80
ATOM     80  N   UNL A   1      31.370  27.816  22.350  1.00  0.00    -0.355 N 
ATOM     81  H   UNL A   1      31.760  28.064  21.480  1.00  0.00     0.167 HD
BRANCH  80  82
ATOM     82  C   UNL A   1      30.095  28.407  22.778  1.00  0.00     0.040 A 
ATOM     83  C   UNL A   1      29.029  27.599  23.137  1.00  0.00     0.026 A 
ATOM     84  C   UNL A   1      29.965  29.727  22.710  1.00  0.00     0.050 A 
ATOM     85  C   UNL A   1      27.778  28.260  23.124  1.00  0.00     0.004 A 
ATOM     86  C   UNL A   1      28.731  30.317  22.841  1.00  0.00     0.109 A 
ATOM     87  C   UNL A   1      27.624  29.571  23.137  1.00  0.00     0.024 A 
BRANCH  86  88
ATOM     88  S   UNL A   1      28.568  32.106  22.620  1.00  0.00     0.310 S 
ATOM     89  F   UNL A   1      27.276  31.965  23.529  1.00  0.00    -0.094 F 
ATOM     90  F   UNL A   1      27.626  31.928  21.371  1.00  0.00    -0.094 F 
ATOM     91  F   UNL A   1      28.325  33.642  22.620  1.00  0.00    -0.094 F 
ATOM     92  F   UNL A   1      29.402  32.247  23.955  1.00  0.00    -0.094 F 
ATOM     93  F   UNL A   1      28.733  30.536  22.700  1.00  0.00    -0.094 F 
ENDBRANCH  86  88
ENDBRANCH  80  82
ENDBRANCH  76  80
ENDBRANCH  72  74
ENDBRANCH  71  72
ENDBRANCH  70  71
ENDBRANCH   1  70
TORSDOF 17
ENDMDL
