MODEL 1
REMARK VINA RESULT:     -11.8      0.000      0.000
REMARK SMILES NS(=O)(=O)c1ccc(N2N=C(C(=O)OCCOC(=O)c3ccc(-c4c5nc(c(-c6cc(S(=O)(=O)[O-])ccc6F)c6ccc([nH]6)c(-c6cc(S(=O)(=O)[O-])ccc6F)c6nc(c(-c7cc(S(=O)(=O)[O-])ccc7F)c7ccc4[nH]7)C=C6)C=C5)cc3)C[C@H]2c2ccco2)cc1
REMARK SMILES IDX 15 1 14 2 12 3 13 4 11 5 9 6 10 7 84 8 83 9 8 10 5 11 6 12
REMARK SMILES IDX 91 13 7 14 90 15 2 16 3 17 4 18 1 19 85 22 86 23 89 24 87 25
REMARK SMILES IDX 88 26 16 27 17 28 18 29 19 30 20 31 21 32 82 33 22 34 81 35
REMARK SMILES IDX 23 36 24 37 25 38 75 39 26 40 80 41 74 42 76 43 27 44 79 45
REMARK SMILES IDX 73 46 72 47 28 49 60 50 40 51 59 52 41 53 44 54 58 55 77 56
REMARK SMILES IDX 42 57 43 58 57 60 78 61 45 62 29 63 30 64 38 65 31 66 37 67
REMARK SMILES IDX 39 68 36 69 32 70 33 71 34 72 35 73 61 74 62 75 70 76 63 77
REMARK SMILES IDX 69 78 71 79 68 80 64 81 65 82 66 83 67 84 46 85 47 86 55 87
REMARK SMILES IDX 48 88 54 89 56 90 53 91 49 92 50 93 51 94 52 95
REMARK H PARENT 1 20 1 21 76 48 44 59
REMARK Flexibility Score: inf
ROOT
ATOM      1  C   UNL A   1      35.341  21.791  24.296  1.00  0.00     0.275 C 
ENDROOT
BRANCH   1   2
ATOM      2  O   UNL A   1      34.565  22.963  24.607  1.00  0.00    -0.458 OA
BRANCH   2   3
ATOM      3  C   UNL A   1      34.094  23.658  23.549  1.00  0.00     0.354 C 
ATOM      4  O   UNL A   1      34.342  23.483  22.373  1.00  0.00    -0.245 OA
BRANCH   3   5
ATOM      5  C   UNL A   1      33.109  24.689  24.036  1.00  0.00     0.148 C 
ATOM      6  N   UNL A   1      31.669  26.228  24.014  1.00  0.00    -0.254 N 
ATOM      7  N   UNL A   1      32.551  25.549  23.239  1.00  0.00    -0.169 NA
ATOM      8  C   UNL A   1      31.931  26.064  25.447  1.00  0.00     0.180 C 
ATOM      9  C   UNL A   1      32.636  24.696  25.454  1.00  0.00     0.101 C 
BRANCH   6  10
ATOM     10  C   UNL A   1      30.863  27.211  23.467  1.00  0.00     0.060 A 
ATOM     11  C   UNL A   1      29.210  29.250  22.469  1.00  0.00     0.082 A 
ATOM     12  C   UNL A   1      28.640  28.169  23.140  1.00  0.00     0.024 A 
ATOM     13  C   UNL A   1      30.588  29.305  22.256  1.00  0.00     0.024 A 
ATOM     14  C   UNL A   1      29.471  27.157  23.638  1.00  0.00     0.029 A 
ATOM     15  C   UNL A   1      31.402  28.279  22.741  1.00  0.00     0.029 A 
BRANCH  11  16
ATOM     16  S   UNL A   1      28.198  30.587  21.905  1.00  0.00     0.238 S 
ATOM     17  O   UNL A   1      27.181  30.825  22.909  1.00  0.00    -0.207 OA
ATOM     18  O   UNL A   1      27.883  30.402  20.514  1.00  0.00    -0.207 OA
BRANCH  16  19
ATOM     19  N   UNL A   1      29.241  31.899  21.975  1.00  0.00    -0.225 NA
ATOM     20  H   UNL A   1      30.084  31.635  22.484  1.00  0.00     0.137 HD
ATOM     21  H   UNL A   1      28.782  32.672  22.454  1.00  0.00     0.137 HD
ENDBRANCH  16  19
ENDBRANCH  11  16
ENDBRANCH   6  10
BRANCH   8  22
ATOM     22  C   UNL A   1      32.773  27.149  26.060  1.00  0.00     0.128 A 
ATOM     23  C   UNL A   1      34.032  27.634  25.760  1.00  0.00     0.048 A 
ATOM     24  O   UNL A   1      32.298  27.770  27.182  1.00  0.00    -0.467 OA
ATOM     25  C   UNL A   1      34.356  28.567  26.773  1.00  0.00     0.042 A 
ATOM     26  C   UNL A   1      33.268  28.617  27.611  1.00  0.00     0.195 A 
ENDBRANCH   8  22
ENDBRANCH   3   5
ENDBRANCH   2   3
ENDBRANCH   1   2
BRANCH   1  27
ATOM     27  C   UNL A   1      36.326  21.495  25.430  1.00  0.00     0.275 C 
BRANCH  27  28
ATOM     28  O   UNL A   1      37.687  21.586  24.966  1.00  0.00    -0.458 OA
BRANCH  28  29
ATOM     29  C   UNL A   1      38.624  21.184  25.860  1.00  0.00     0.338 C 
ATOM     30  O   UNL A   1      38.959  20.037  26.106  1.00  0.00    -0.246 OA
BRANCH  29  31
ATOM     31  C   UNL A   1      39.309  22.363  26.411  1.00  0.00     0.060 A 
ATOM     32  C   UNL A   1      38.892  23.611  25.958  1.00  0.00     0.016 A 
ATOM     33  C   UNL A   1      40.391  22.259  27.283  1.00  0.00     0.016 A 
ATOM     34  C   UNL A   1      39.550  24.769  26.353  1.00  0.00     0.010 A 
ATOM     35  C   UNL A   1      41.041  23.429  27.705  1.00  0.00     0.010 A 
ATOM     36  C   UNL A   1      40.629  24.692  27.238  1.00  0.00    -0.014 A 
BRANCH  36  37
ATOM     37  C   UNL A   1      41.330  25.940  27.637  1.00  0.00     0.031 A 
ATOM     38  C   UNL A   1      40.609  26.985  28.440  1.00  0.00     0.074 A 
ATOM     39  C   UNL A   1      42.627  26.110  27.316  1.00  0.00     0.049 A 
ATOM     40  N   UNL A   1      41.012  28.175  28.806  1.00  0.00    -0.248 NA
ATOM     41  C   UNL A   1      39.250  26.646  28.887  1.00  0.00     0.031 C 
ATOM     42  C   UNL A   1      43.451  25.135  26.597  1.00  0.00     0.029 A 
ATOM     43  N   UNL A   1      43.484  27.155  27.556  1.00  0.00    -0.354 N 
ATOM     44  C   UNL A   1      39.950  28.739  29.504  1.00  0.00     0.074 A 
ATOM     45  C   UNL A   1      38.878  27.766  29.490  1.00  0.00     0.031 C 
ATOM     46  C   UNL A   1      44.696  25.622  26.468  1.00  0.00     0.029 A 
ATOM     47  C   UNL A   1      44.742  26.968  27.030  1.00  0.00     0.049 A 
ATOM     48  H   UNL A   1      43.224  27.962  28.056  1.00  0.00     0.167 HD
ATOM     49  C   UNL A   1      39.881  29.956  30.100  1.00  0.00     0.034 A 
ATOM     50  C   UNL A   1      45.799  27.800  26.971  1.00  0.00     0.034 A 
ATOM     51  C   UNL A   1      40.969  30.906  30.113  1.00  0.00     0.049 A 
ATOM     52  C   UNL A   1      45.670  29.179  27.563  1.00  0.00     0.074 A 
ATOM     53  C   UNL A   1      41.017  32.158  30.703  1.00  0.00     0.029 A 
ATOM     54  N   UNL A   1      42.203  30.712  29.503  1.00  0.00    -0.354 N 
ATOM     55  N   UNL A   1      44.649  29.715  28.190  1.00  0.00    -0.248 NA
ATOM     56  C   UNL A   1      46.830  30.068  27.428  1.00  0.00     0.031 C 
ATOM     57  C   UNL A   1      42.249  32.745  30.394  1.00  0.00     0.029 A 
ATOM     58  C   UNL A   1      43.002  31.835  29.669  1.00  0.00     0.049 A 
ATOM     59  H   UNL A   1      42.472  29.896  29.023  1.00  0.00     0.167 HD
ATOM     60  C   UNL A   1      45.046  31.004  28.529  1.00  0.00     0.074 A 
ATOM     61  C   UNL A   1      46.411  31.153  28.061  1.00  0.00     0.031 C 
ATOM     62  C   UNL A   1      44.349  31.978  29.167  1.00  0.00     0.034 A 
BRANCH  49  63
ATOM     63  C   UNL A   1      38.562  30.351  30.720  1.00  0.00     0.023 A 
ATOM     64  C   UNL A   1      37.564  31.026  29.994  1.00  0.00     0.031 A 
ATOM     65  C   UNL A   1      38.314  30.072  32.076  1.00  0.00     0.131 A 
ATOM     66  C   UNL A   1      36.397  31.458  30.645  1.00  0.00     0.055 A 
ATOM     67  C   UNL A   1      37.119  30.439  32.699  1.00  0.00     0.041 A 
ATOM     68  F   UNL A   1      39.238  29.451  32.826  1.00  0.00    -0.206 F 
ATOM     69  C   UNL A   1      36.158  31.149  31.987  1.00  0.00     0.022 A 
BRANCH  66  70
ATOM     70  S   UNL A   1      35.254  32.553  29.755  1.00  0.00     0.124 S 
ATOM     71  O   UNL A   1      34.331  32.944  30.818  1.00  0.00    -0.237 OA
ATOM     72  O   UNL A   1      36.142  33.597  29.259  1.00  0.00    -0.237 OA
ATOM     73  O   UNL A   1      34.677  31.686  28.729  1.00  0.00    -0.744 OA
ENDBRANCH  66  70
ENDBRANCH  49  63
BRANCH  50  74
ATOM     74  C   UNL A   1      47.045  27.386  26.262  1.00  0.00     0.023 A 
ATOM     75  C   UNL A   1      48.116  26.798  26.953  1.00  0.00     0.031 A 
ATOM     76  C   UNL A   1      47.194  27.611  24.881  1.00  0.00     0.131 A 
ATOM     77  C   UNL A   1      49.299  26.482  26.267  1.00  0.00     0.055 A 
ATOM     78  C   UNL A   1      48.352  27.248  24.194  1.00  0.00     0.041 A 
ATOM     79  F   UNL A   1      46.202  28.176  24.174  1.00  0.00    -0.206 F 
ATOM     80  C   UNL A   1      49.419  26.690  24.891  1.00  0.00     0.022 A 
BRANCH  77  81
ATOM     81  S   UNL A   1      50.717  25.863  27.216  1.00  0.00     0.124 S 
ATOM     82  O   UNL A   1      51.826  26.141  26.311  1.00  0.00    -0.237 OA
ATOM     83  O   UNL A   1      50.653  26.681  28.423  1.00  0.00    -0.237 OA
ATOM     84  O   UNL A   1      50.407  24.448  27.408  1.00  0.00    -0.744 OA
ENDBRANCH  77  81
ENDBRANCH  50  74
BRANCH  62  85
ATOM     85  C   UNL A   1      45.069  33.281  29.402  1.00  0.00     0.023 A 
ATOM     86  C   UNL A   1      45.037  34.319  28.453  1.00  0.00     0.031 A 
ATOM     87  C   UNL A   1      45.820  33.478  30.574  1.00  0.00     0.131 A 
ATOM     88  C   UNL A   1      45.785  35.486  28.668  1.00  0.00     0.055 A 
ATOM     89  C   UNL A   1      46.517  34.663  30.808  1.00  0.00     0.041 A 
ATOM     90  F   UNL A   1      45.888  32.517  31.509  1.00  0.00    -0.206 F 
ATOM     91  C   UNL A   1      46.513  35.670  29.846  1.00  0.00     0.022 A 
BRANCH  88  92
ATOM     92  S   UNL A   1      45.863  36.727  27.348  1.00  0.00     0.124 S 
ATOM     93  O   UNL A   1      46.509  35.983  26.271  1.00  0.00    -0.237 OA
ATOM     94  O   UNL A   1      44.457  37.056  27.142  1.00  0.00    -0.237 OA
ATOM     95  O   UNL A   1      46.670  37.797  27.931  1.00  0.00    -0.744 OA
ENDBRANCH  88  92
ENDBRANCH  62  85
ENDBRANCH  36  37
ENDBRANCH  29  31
ENDBRANCH  28  29
ENDBRANCH  27  28
ENDBRANCH   1  27
TORSDOF 18
ENDMDL
MODEL 2
REMARK VINA RESULT:     -11.4      2.603      8.198
REMARK SMILES NS(=O)(=O)c1ccc(N2N=C(C(=O)OCCOC(=O)c3ccc(-c4c5nc(c(-c6cc(S(=O)(=O)[O-])ccc6F)c6ccc([nH]6)c(-c6cc(S(=O)(=O)[O-])ccc6F)c6nc(c(-c7cc(S(=O)(=O)[O-])ccc7F)c7ccc4[nH]7)C=C6)C=C5)cc3)C[C@H]2c2ccco2)cc1
REMARK SMILES IDX 15 1 14 2 12 3 13 4 11 5 9 6 10 7 84 8 83 9 8 10 5 11 6 12
REMARK SMILES IDX 91 13 7 14 90 15 2 16 3 17 4 18 1 19 85 22 86 23 89 24 87 25
REMARK SMILES IDX 88 26 16 27 17 28 18 29 19 30 20 31 21 32 82 33 22 34 81 35
REMARK SMILES IDX 23 36 24 37 25 38 75 39 26 40 80 41 74 42 76 43 27 44 79 45
REMARK SMILES IDX 73 46 72 47 28 49 60 50 40 51 59 52 41 53 44 54 58 55 77 56
REMARK SMILES IDX 42 57 43 58 57 60 78 61 45 62 29 63 30 64 38 65 31 66 37 67
REMARK SMILES IDX 39 68 36 69 32 70 33 71 34 72 35 73 61 74 62 75 70 76 63 77
REMARK SMILES IDX 69 78 71 79 68 80 64 81 65 82 66 83 67 84 46 85 47 86 55 87
REMARK SMILES IDX 48 88 54 89 56 90 53 91 49 92 50 93 51 94 52 95
REMARK H PARENT 1 20 1 21 76 48 44 59
REMARK Flexibility Score: inf
ROOT
ATOM      1  C   UNL A   1      35.431  22.331  25.302  1.00  0.00     0.275 C 
ENDROOT
BRANCH   1   2
ATOM      2  O   UNL A   1      35.433  23.762  25.139  1.00  0.00    -0.458 OA
BRANCH   2   3
ATOM      3  C   UNL A   1      34.703  24.241  24.109  1.00  0.00     0.354 C 
ATOM      4  O   UNL A   1      34.794  23.951  22.933  1.00  0.00    -0.245 OA
BRANCH   3   5
ATOM      5  C   UNL A   1      33.653  25.180  24.644  1.00  0.00     0.148 C 
ATOM      6  N   UNL A   1      32.081  26.583  24.693  1.00  0.00    -0.254 N 
ATOM      7  N   UNL A   1      32.983  25.985  23.876  1.00  0.00    -0.169 NA
ATOM      8  C   UNL A   1      32.425  26.447  26.112  1.00  0.00     0.180 C 
ATOM      9  C   UNL A   1      33.250  25.149  26.083  1.00  0.00     0.101 C 
BRANCH   6  10
ATOM     10  C   UNL A   1      31.164  27.488  24.187  1.00  0.00     0.060 A 
ATOM     11  C   UNL A   1      29.375  29.337  23.062  1.00  0.00     0.082 A 
ATOM     12  C   UNL A   1      30.579  29.786  23.604  1.00  0.00     0.024 A 
ATOM     13  C   UNL A   1      29.037  27.984  23.112  1.00  0.00     0.024 A 
ATOM     14  C   UNL A   1      31.468  28.858  24.161  1.00  0.00     0.029 A 
ATOM     15  C   UNL A   1      29.925  27.073  23.687  1.00  0.00     0.029 A 
BRANCH  11  16
ATOM     16  S   UNL A   1      28.271  30.472  22.273  1.00  0.00     0.238 S 
ATOM     17  O   UNL A   1      27.249  30.835  23.234  1.00  0.00    -0.207 OA
ATOM     18  O   UNL A   1      27.956  29.999  20.951  1.00  0.00    -0.207 OA
BRANCH  16  19
ATOM     19  N   UNL A   1      29.224  31.835  22.064  1.00  0.00    -0.225 NA
ATOM     20  H   UNL A   1      29.622  32.112  22.962  1.00  0.00     0.137 HD
ATOM     21  H   UNL A   1      28.654  32.595  21.695  1.00  0.00     0.137 HD
ENDBRANCH  16  19
ENDBRANCH  11  16
ENDBRANCH   6  10
BRANCH   8  22
ATOM     22  C   UNL A   1      33.193  27.605  26.686  1.00  0.00     0.128 A 
ATOM     23  C   UNL A   1      32.855  28.589  27.596  1.00  0.00     0.048 A 
ATOM     24  O   UNL A   1      34.452  27.838  26.205  1.00  0.00    -0.467 OA
ATOM     25  C   UNL A   1      33.946  29.488  27.640  1.00  0.00     0.042 A 
ATOM     26  C   UNL A   1      34.893  28.985  26.780  1.00  0.00     0.195 A 
ENDBRANCH   8  22
ENDBRANCH   3   5
ENDBRANCH   2   3
ENDBRANCH   1   2
BRANCH   1  27
ATOM     27  C   UNL A   1      36.831  21.842  25.682  1.00  0.00     0.275 C 
BRANCH  27  28
ATOM     28  O   UNL A   1      37.810  22.880  25.484  1.00  0.00    -0.458 OA
BRANCH  28  29
ATOM     29  C   UNL A   1      38.907  22.790  26.275  1.00  0.00     0.338 C 
ATOM     30  O   UNL A   1      39.619  21.812  26.435  1.00  0.00    -0.246 OA
BRANCH  29  31
ATOM     31  C   UNL A   1      39.221  24.117  26.826  1.00  0.00     0.060 A 
ATOM     32  C   UNL A   1      39.846  25.026  25.979  1.00  0.00     0.016 A 
ATOM     33  C   UNL A   1      38.994  24.445  28.162  1.00  0.00     0.016 A 
ATOM     34  C   UNL A   1      40.265  26.265  26.447  1.00  0.00     0.010 A 
ATOM     35  C   UNL A   1      39.392  25.706  28.631  1.00  0.00     0.010 A 
ATOM     36  C   UNL A   1      40.036  26.622  27.779  1.00  0.00    -0.014 A 
BRANCH  36  37
ATOM     37  C   UNL A   1      40.505  27.946  28.266  1.00  0.00     0.031 A 
ATOM     38  C   UNL A   1      41.968  28.285  28.236  1.00  0.00     0.074 A 
ATOM     39  C   UNL A   1      39.608  28.858  28.690  1.00  0.00     0.049 A 
ATOM     40  N   UNL A   1      42.584  29.343  28.698  1.00  0.00    -0.248 NA
ATOM     41  C   UNL A   1      42.857  27.298  27.606  1.00  0.00     0.031 C 
ATOM     42  C   UNL A   1      38.156  28.668  28.701  1.00  0.00     0.029 A 
ATOM     43  N   UNL A   1      39.780  30.126  29.185  1.00  0.00    -0.354 N 
ATOM     44  C   UNL A   1      43.935  29.141  28.439  1.00  0.00     0.074 A 
ATOM     45  C   UNL A   1      44.048  27.847  27.798  1.00  0.00     0.031 C 
ATOM     46  C   UNL A   1      37.570  29.783  29.166  1.00  0.00     0.029 A 
ATOM     47  C   UNL A   1      38.603  30.739  29.550  1.00  0.00     0.049 A 
ATOM     48  H   UNL A   1      40.661  30.556  29.272  1.00  0.00     0.167 HD
ATOM     49  C   UNL A   1      44.981  29.961  28.712  1.00  0.00     0.034 A 
ATOM     50  C   UNL A   1      38.383  31.919  30.162  1.00  0.00     0.034 A 
ATOM     51  C   UNL A   1      44.843  31.255  29.340  1.00  0.00     0.049 A 
ATOM     52  C   UNL A   1      39.566  32.774  30.534  1.00  0.00     0.074 A 
ATOM     53  C   UNL A   1      45.830  32.177  29.645  1.00  0.00     0.029 A 
ATOM     54  N   UNL A   1      43.642  31.810  29.766  1.00  0.00    -0.354 N 
ATOM     55  N   UNL A   1      40.842  32.557  30.315  1.00  0.00    -0.248 NA
ATOM     56  C   UNL A   1      39.280  34.026  31.244  1.00  0.00     0.031 C 
ATOM     57  C   UNL A   1      45.236  33.254  30.312  1.00  0.00     0.029 A 
ATOM     58  C   UNL A   1      43.868  33.041  30.364  1.00  0.00     0.049 A 
ATOM     59  H   UNL A   1      42.758  31.390  29.657  1.00  0.00     0.167 HD
ATOM     60  C   UNL A   1      41.511  33.648  30.859  1.00  0.00     0.074 A 
ATOM     61  C   UNL A   1      40.494  34.535  31.389  1.00  0.00     0.031 C 
ATOM     62  C   UNL A   1      42.844  33.897  30.917  1.00  0.00     0.034 A 
BRANCH  49  63
ATOM     63  C   UNL A   1      46.366  29.448  28.398  1.00  0.00     0.023 A 
ATOM     64  C   UNL A   1      47.118  28.702  29.323  1.00  0.00     0.031 A 
ATOM     65  C   UNL A   1      46.956  29.740  27.155  1.00  0.00     0.131 A 
ATOM     66  C   UNL A   1      48.438  28.334  29.017  1.00  0.00     0.055 A 
ATOM     67  C   UNL A   1      48.243  29.308  26.828  1.00  0.00     0.041 A 
ATOM     68  F   UNL A   1      46.296  30.468  26.240  1.00  0.00    -0.206 F 
ATOM     69  C   UNL A   1      48.997  28.612  27.768  1.00  0.00     0.022 A 
BRANCH  66  70
ATOM     70  S   UNL A   1      49.469  27.610  30.325  1.00  0.00     0.124 S 
ATOM     71  O   UNL A   1      49.702  28.763  31.191  1.00  0.00    -0.237 OA
ATOM     72  O   UNL A   1      48.607  26.566  30.863  1.00  0.00    -0.237 OA
ATOM     73  O   UNL A   1      50.650  27.135  29.606  1.00  0.00    -0.744 OA
ENDBRANCH  66  70
ENDBRANCH  49  63
BRANCH  50  74
ATOM     74  C   UNL A   1      36.998  32.329  30.530  1.00  0.00     0.023 A 
ATOM     75  C   UNL A   1      36.140  32.927  29.594  1.00  0.00     0.031 A 
ATOM     76  C   UNL A   1      36.525  32.161  31.845  1.00  0.00     0.131 A 
ATOM     77  C   UNL A   1      34.866  33.361  29.992  1.00  0.00     0.055 A 
ATOM     78  C   UNL A   1      35.239  32.548  32.223  1.00  0.00     0.041 A 
ATOM     79  F   UNL A   1      37.307  31.601  32.781  1.00  0.00    -0.206 F 
ATOM     80  C   UNL A   1      34.405  33.163  31.295  1.00  0.00     0.022 A 
BRANCH  77  81
ATOM     81  S   UNL A   1      33.841  34.263  28.797  1.00  0.00     0.124 S 
ATOM     82  O   UNL A   1      32.756  34.751  29.641  1.00  0.00    -0.237 OA
ATOM     83  O   UNL A   1      34.771  35.272  28.301  1.00  0.00    -0.237 OA
ATOM     84  O   UNL A   1      33.464  33.237  27.827  1.00  0.00    -0.744 OA
ENDBRANCH  77  81
ENDBRANCH  50  74
BRANCH  62  85
ATOM     85  C   UNL A   1      43.262  35.190  31.568  1.00  0.00     0.023 A 
ATOM     86  C   UNL A   1      43.279  35.336  32.967  1.00  0.00     0.031 A 
ATOM     87  C   UNL A   1      43.620  36.300  30.782  1.00  0.00     0.131 A 
ATOM     88  C   UNL A   1      43.595  36.579  33.536  1.00  0.00     0.055 A 
ATOM     89  C   UNL A   1      43.987  37.517  31.355  1.00  0.00     0.041 A 
ATOM     90  F   UNL A   1      43.615  36.215  29.442  1.00  0.00    -0.206 F 
ATOM     91  C   UNL A   1      43.963  37.666  32.739  1.00  0.00     0.022 A 
BRANCH  88  92
ATOM     92  S   UNL A   1      43.437  36.781  35.331  1.00  0.00     0.124 S 
ATOM     93  O   UNL A   1      44.089  38.068  35.550  1.00  0.00    -0.237 OA
ATOM     94  O   UNL A   1      41.991  36.758  35.524  1.00  0.00    -0.237 OA
ATOM     95  O   UNL A   1      44.151  35.625  35.871  1.00  0.00    -0.744 OA
ENDBRANCH  88  92
ENDBRANCH  62  85
ENDBRANCH  36  37
ENDBRANCH  29  31
ENDBRANCH  28  29
ENDBRANCH  27  28
ENDBRANCH   1  27
TORSDOF 18
ENDMDL
MODEL 3
REMARK VINA RESULT:     -11.4      2.635      4.021
REMARK SMILES NS(=O)(=O)c1ccc(N2N=C(C(=O)OCCOC(=O)c3ccc(-c4c5nc(c(-c6cc(S(=O)(=O)[O-])ccc6F)c6ccc([nH]6)c(-c6cc(S(=O)(=O)[O-])ccc6F)c6nc(c(-c7cc(S(=O)(=O)[O-])ccc7F)c7ccc4[nH]7)C=C6)C=C5)cc3)C[C@H]2c2ccco2)cc1
REMARK SMILES IDX 15 1 14 2 12 3 13 4 11 5 9 6 10 7 84 8 83 9 8 10 5 11 6 12
REMARK SMILES IDX 91 13 7 14 90 15 2 16 3 17 4 18 1 19 85 22 86 23 89 24 87 25
REMARK SMILES IDX 88 26 16 27 17 28 18 29 19 30 20 31 21 32 82 33 22 34 81 35
REMARK SMILES IDX 23 36 24 37 25 38 75 39 26 40 80 41 74 42 76 43 27 44 79 45
REMARK SMILES IDX 73 46 72 47 28 49 60 50 40 51 59 52 41 53 44 54 58 55 77 56
REMARK SMILES IDX 42 57 43 58 57 60 78 61 45 62 29 63 30 64 38 65 31 66 37 67
REMARK SMILES IDX 39 68 36 69 32 70 33 71 34 72 35 73 61 74 62 75 70 76 63 77
REMARK SMILES IDX 69 78 71 79 68 80 64 81 65 82 66 83 67 84 46 85 47 86 55 87
REMARK SMILES IDX 48 88 54 89 56 90 53 91 49 92 50 93 51 94 52 95
REMARK H PARENT 1 20 1 21 76 48 44 59
REMARK Flexibility Score: inf
ROOT
ATOM      1  C   UNL A   1      39.459  21.452  26.118  1.00  0.00     0.275 C 
ENDROOT
BRANCH   1   2
ATOM      2  O   UNL A   1      38.123  21.774  25.690  1.00  0.00    -0.458 OA
BRANCH   2   3
ATOM      3  C   UNL A   1      37.754  23.066  25.825  1.00  0.00     0.354 C 
ATOM      4  O   UNL A   1      38.262  23.916  26.530  1.00  0.00    -0.245 OA
BRANCH   3   5
ATOM      5  C   UNL A   1      36.613  23.354  24.885  1.00  0.00     0.148 C 
ATOM      6  N   UNL A   1      34.969  24.327  23.993  1.00  0.00    -0.254 N 
ATOM      7  N   UNL A   1      35.774  24.325  25.085  1.00  0.00    -0.169 NA
ATOM      8  C   UNL A   1      35.044  23.076  23.233  1.00  0.00     0.180 C 
ATOM      9  C   UNL A   1      36.459  22.600  23.603  1.00  0.00     0.101 C 
BRANCH   6  10
ATOM     10  C   UNL A   1      33.969  25.274  23.858  1.00  0.00     0.060 A 
ATOM     11  C   UNL A   1      31.860  27.106  23.574  1.00  0.00     0.082 A 
ATOM     12  C   UNL A   1      32.314  26.401  22.460  1.00  0.00     0.024 A 
ATOM     13  C   UNL A   1      32.472  26.937  24.817  1.00  0.00     0.024 A 
ATOM     14  C   UNL A   1      33.364  25.487  22.609  1.00  0.00     0.029 A 
ATOM     15  C   UNL A   1      33.531  26.037  24.947  1.00  0.00     0.029 A 
BRANCH  11  16
ATOM     16  S   UNL A   1      30.478  28.202  23.437  1.00  0.00     0.238 S 
ATOM     17  O   UNL A   1      30.724  29.335  24.307  1.00  0.00    -0.207 OA
ATOM     18  O   UNL A   1      29.255  27.445  23.481  1.00  0.00    -0.207 OA
BRANCH  16  19
ATOM     19  N   UNL A   1      30.613  28.777  21.868  1.00  0.00    -0.225 NA
ATOM     20  H   UNL A   1      31.486  29.297  21.771  1.00  0.00     0.137 HD
ATOM     21  H   UNL A   1      29.826  29.393  21.663  1.00  0.00     0.137 HD
ENDBRANCH  16  19
ENDBRANCH  11  16
ENDBRANCH   6  10
BRANCH   8  22
ATOM     22  C   UNL A   1      33.986  22.065  23.581  1.00  0.00     0.128 A 
ATOM     23  C   UNL A   1      33.894  21.120  24.585  1.00  0.00     0.048 A 
ATOM     24  O   UNL A   1      32.911  21.950  22.743  1.00  0.00    -0.467 OA
ATOM     25  C   UNL A   1      32.728  20.365  24.321  1.00  0.00     0.042 A 
ATOM     26  C   UNL A   1      32.163  20.912  23.194  1.00  0.00     0.195 A 
ENDBRANCH   8  22
ENDBRANCH   3   5
ENDBRANCH   2   3
ENDBRANCH   1   2
BRANCH   1  27
ATOM     27  C   UNL A   1      39.663  19.935  26.114  1.00  0.00     0.275 C 
BRANCH  27  28
ATOM     28  O   UNL A   1      40.846  19.577  25.373  1.00  0.00    -0.458 OA
BRANCH  28  29
ATOM     29  C   UNL A   1      41.965  19.427  26.121  1.00  0.00     0.338 C 
ATOM     30  O   UNL A   1      42.477  18.377  26.475  1.00  0.00    -0.246 OA
BRANCH  29  31
ATOM     31  C   UNL A   1      42.587  20.742  26.337  1.00  0.00     0.060 A 
ATOM     32  C   UNL A   1      42.688  21.190  27.650  1.00  0.00     0.016 A 
ATOM     33  C   UNL A   1      42.986  21.563  25.284  1.00  0.00     0.016 A 
ATOM     34  C   UNL A   1      43.173  22.460  27.935  1.00  0.00     0.010 A 
ATOM     35  C   UNL A   1      43.500  22.837  25.570  1.00  0.00     0.010 A 
ATOM     36  C   UNL A   1      43.591  23.297  26.897  1.00  0.00    -0.014 A 
BRANCH  36  37
ATOM     37  C   UNL A   1      44.092  24.659  27.220  1.00  0.00     0.031 A 
ATOM     38  C   UNL A   1      43.157  25.693  27.780  1.00  0.00     0.074 A 
ATOM     39  C   UNL A   1      45.397  24.947  27.053  1.00  0.00     0.049 A 
ATOM     40  N   UNL A   1      43.376  26.957  28.038  1.00  0.00    -0.248 NA
ATOM     41  C   UNL A   1      41.790  25.245  28.084  1.00  0.00     0.031 C 
ATOM     42  C   UNL A   1      46.414  24.004  26.580  1.00  0.00     0.029 A 
ATOM     43  N   UNL A   1      46.096  26.109  27.265  1.00  0.00    -0.354 N 
ATOM     44  C   UNL A   1      42.171  27.463  28.512  1.00  0.00     0.074 A 
ATOM     45  C   UNL A   1      41.219  26.372  28.484  1.00  0.00     0.031 C 
ATOM     46  C   UNL A   1      47.606  24.621  26.553  1.00  0.00     0.029 A 
ATOM     47  C   UNL A   1      47.429  26.017  26.938  1.00  0.00     0.049 A 
ATOM     48  H   UNL A   1      45.683  26.930  27.619  1.00  0.00     0.167 HD
ATOM     49  C   UNL A   1      41.890  28.723  28.931  1.00  0.00     0.034 A 
ATOM     50  C   UNL A   1      48.391  26.960  26.910  1.00  0.00     0.034 A 
ATOM     51  C   UNL A   1      42.859  29.793  28.964  1.00  0.00     0.049 A 
ATOM     52  C   UNL A   1      48.034  28.371  27.297  1.00  0.00     0.074 A 
ATOM     53  C   UNL A   1      42.690  31.100  29.388  1.00  0.00     0.029 A 
ATOM     54  N   UNL A   1      44.182  29.682  28.551  1.00  0.00    -0.354 N 
ATOM     55  N   UNL A   1      46.883  28.847  27.710  1.00  0.00    -0.248 NA
ATOM     56  C   UNL A   1      49.102  29.373  27.202  1.00  0.00     0.031 C 
ATOM     57  C   UNL A   1      43.886  31.793  29.170  1.00  0.00     0.029 A 
ATOM     58  C   UNL A   1      44.827  30.905  28.674  1.00  0.00     0.049 A 
ATOM     59  H   UNL A   1      44.601  28.855  28.220  1.00  0.00     0.167 HD
ATOM     60  C   UNL A   1      47.090  30.205  27.929  1.00  0.00     0.074 A 
ATOM     61  C   UNL A   1      48.485  30.464  27.629  1.00  0.00     0.031 C 
ATOM     62  C   UNL A   1      46.209  31.153  28.339  1.00  0.00     0.034 A 
BRANCH  49  63
ATOM     63  C   UNL A   1      40.461  29.023  29.316  1.00  0.00     0.023 A 
ATOM     64  C   UNL A   1      40.012  28.957  30.647  1.00  0.00     0.031 A 
ATOM     65  C   UNL A   1      39.521  29.352  28.322  1.00  0.00     0.131 A 
ATOM     66  C   UNL A   1      38.652  29.147  30.938  1.00  0.00     0.055 A 
ATOM     67  C   UNL A   1      38.184  29.613  28.626  1.00  0.00     0.041 A 
ATOM     68  F   UNL A   1      39.885  29.408  27.031  1.00  0.00    -0.206 F 
ATOM     69  C   UNL A   1      37.739  29.498  29.940  1.00  0.00     0.022 A 
BRANCH  66  70
ATOM     70  S   UNL A   1      38.058  28.794  32.617  1.00  0.00     0.124 S 
ATOM     71  O   UNL A   1      36.709  29.352  32.578  1.00  0.00    -0.237 OA
ATOM     72  O   UNL A   1      38.151  27.340  32.683  1.00  0.00    -0.237 OA
ATOM     73  O   UNL A   1      38.997  29.518  33.472  1.00  0.00    -0.744 OA
ENDBRANCH  66  70
ENDBRANCH  49  63
BRANCH  50  74
ATOM     74  C   UNL A   1      49.763  26.623  26.431  1.00  0.00     0.023 A 
ATOM     75  C   UNL A   1      50.222  27.047  25.174  1.00  0.00     0.031 A 
ATOM     76  C   UNL A   1      50.624  25.833  27.216  1.00  0.00     0.131 A 
ATOM     77  C   UNL A   1      51.494  26.656  24.727  1.00  0.00     0.055 A 
ATOM     78  C   UNL A   1      51.906  25.490  26.788  1.00  0.00     0.041 A 
ATOM     79  F   UNL A   1      50.232  25.395  28.423  1.00  0.00    -0.206 F 
ATOM     80  C   UNL A   1      52.343  25.893  25.531  1.00  0.00     0.022 A 
BRANCH  77  81
ATOM     81  S   UNL A   1      51.996  27.096  23.040  1.00  0.00     0.124 S 
ATOM     82  O   UNL A   1      52.704  25.893  22.616  1.00  0.00    -0.237 OA
ATOM     83  O   UNL A   1      50.710  27.343  22.396  1.00  0.00    -0.237 OA
ATOM     84  O   UNL A   1      52.832  28.279  23.230  1.00  0.00    -0.744 OA
ENDBRANCH  77  81
ENDBRANCH  50  74
BRANCH  62  85
ATOM     85  C   UNL A   1      46.748  32.552  28.495  1.00  0.00     0.023 A 
ATOM     86  C   UNL A   1      46.806  33.442  27.408  1.00  0.00     0.031 A 
ATOM     87  C   UNL A   1      47.236  32.992  29.738  1.00  0.00     0.131 A 
ATOM     88  C   UNL A   1      47.388  34.708  27.571  1.00  0.00     0.055 A 
ATOM     89  C   UNL A   1      47.763  34.272  29.908  1.00  0.00     0.041 A 
ATOM     90  F   UNL A   1      47.209  32.180  30.807  1.00  0.00    -0.206 F 
ATOM     91  C   UNL A   1      47.853  35.133  28.818  1.00  0.00     0.022 A 
BRANCH  88  92
ATOM     92  S   UNL A   1      47.607  35.762  26.112  1.00  0.00     0.124 S 
ATOM     93  O   UNL A   1      47.943  34.785  25.080  1.00  0.00    -0.237 OA
ATOM     94  O   UNL A   1      46.301  36.399  25.985  1.00  0.00    -0.237 OA
ATOM     95  O   UNL A   1      48.698  36.656  26.495  1.00  0.00    -0.744 OA
ENDBRANCH  88  92
ENDBRANCH  62  85
ENDBRANCH  36  37
ENDBRANCH  29  31
ENDBRANCH  28  29
ENDBRANCH  27  28
ENDBRANCH   1  27
TORSDOF 18
ENDMDL
