MODEL 1
REMARK VINA RESULT:     -12.7      0.000      0.000
REMARK SMILES Cc1cccc2c1N=CN1C2=[NH+]NC(=O)[C@@H]1CC(=O)OCCOC(=O)c1ccc(-c2c3nc(c(-c4cc(S(=O)(=O)[O-])ccc4F)c4ccc([nH]4)c(-c4cc(S(=O)(=O)[O-])ccc4F)c4nc(c(-c5cc(S(=O)(=O)[O-])ccc5F)c5ccc2[nH]5)C=C4)C=C3)cc1
REMARK SMILES IDX 22 1 21 2 20 3 18 4 19 5 17 6 16 7 1 8 2 9 3 10 7 11 4 12
REMARK SMILES IDX 6 13 8 14 5 15 11 16 9 17 10 18 12 19 13 20 14 22 15 24
REMARK SMILES IDX 23 25 24 26 25 27 26 28 27 29 88 30 28 31 87 32 29 33 30 34
REMARK SMILES IDX 31 35 81 36 32 37 86 38 80 39 82 40 33 41 85 42 79 43 78 44
REMARK SMILES IDX 34 46 66 47 46 48 65 49 47 50 50 51 64 52 83 53 48 54 49 55
REMARK SMILES IDX 63 57 84 58 51 59 35 60 36 61 44 62 37 63 43 64 45 65 42 66
REMARK SMILES IDX 38 67 39 68 40 69 41 70 67 71 68 72 76 73 69 74 75 75 77 76
REMARK SMILES IDX 74 77 70 78 71 79 72 80 73 81 52 82 53 83 61 84 54 85 60 86
REMARK SMILES IDX 62 87 59 88 55 89 56 90 57 91 58 92
REMARK H PARENT 12 21 13 23 82 45 50 56
REMARK Flexibility Score: inf
ROOT
ATOM      1  C   UNL A   1      31.782  29.914  25.561  1.00  0.00     0.275 C 
ENDROOT
BRANCH   1   2
ATOM      2  C   UNL A   1      31.592  28.449  25.186  1.00  0.00     0.274 C 
BRANCH   2   3
ATOM      3  O   UNL A   1      30.489  28.355  24.256  1.00  0.00    -0.462 OA
BRANCH   3   4
ATOM      4  C   UNL A   1      30.833  27.925  23.019  1.00  0.00     0.310 C 
ATOM      5  O   UNL A   1      30.272  28.261  21.981  1.00  0.00    -0.252 OA
BRANCH   4   6
ATOM      6  C   UNL A   1      32.035  27.020  22.981  1.00  0.00     0.183 C 
BRANCH   6   7
ATOM      7  C   UNL A   1      31.872  25.571  22.536  1.00  0.00     0.286 C 
ATOM      8  C   UNL A   1      32.916  22.459  28.073  1.00  0.00     0.047 C 
ATOM      9  C   UNL A   1      33.107  22.046  26.640  1.00  0.00    -0.024 A 
ATOM     10  C   UNL A   1      33.922  20.931  26.366  1.00  0.00     0.006 A 
ATOM     11  C   UNL A   1      32.536  22.767  25.579  1.00  0.00     0.085 A 
ATOM     12  C   UNL A   1      34.151  20.510  25.055  1.00  0.00     0.001 A 
ATOM     13  C   UNL A   1      32.819  22.349  24.264  1.00  0.00     0.092 A 
ATOM     14  N   UNL A   1      31.769  23.924  25.852  1.00  0.00    -0.215 NA
ATOM     15  C   UNL A   1      33.589  21.211  23.998  1.00  0.00     0.019 A 
ATOM     16  C   UNL A   1      32.518  23.309  23.167  1.00  0.00     0.309 C 
ATOM     17  C   UNL A   1      31.585  24.734  24.859  1.00  0.00     0.317 C 
ATOM     18  N   UNL A   1      32.029  24.545  23.573  1.00  0.00    -0.202 N 
ATOM     19  N   UNL A   1      32.816  22.955  21.950  1.00  0.00    -0.169 N 
ATOM     20  N   UNL A   1      32.848  23.933  21.009  1.00  0.00    -0.193 N 
ATOM     21  H   UNL A   1      33.013  22.017  21.723  1.00  0.00     0.340 HD
ATOM     22  C   UNL A   1      32.729  25.269  21.310  1.00  0.00     0.300 C 
ATOM     23  H   UNL A   1      32.960  23.672  20.066  1.00  0.00     0.216 HD
ATOM     24  O   UNL A   1      33.192  26.134  20.573  1.00  0.00    -0.267 OA
ENDBRANCH   6   7
ENDBRANCH   4   6
ENDBRANCH   3   4
ENDBRANCH   2   3
ENDBRANCH   1   2
BRANCH   1  25
ATOM     25  O   UNL A   1      33.133  30.111  26.009  1.00  0.00    -0.458 OA
BRANCH  25  26
ATOM     26  C   UNL A   1      33.276  31.064  26.956  1.00  0.00     0.338 C 
ATOM     27  O   UNL A   1      32.467  31.958  27.200  1.00  0.00    -0.246 OA
BRANCH  26  28
ATOM     28  C   UNL A   1      34.592  30.960  27.626  1.00  0.00     0.060 A 
ATOM     29  C   UNL A   1      35.490  32.031  27.749  1.00  0.00     0.016 A 
ATOM     30  C   UNL A   1      34.921  29.712  28.161  1.00  0.00     0.016 A 
ATOM     31  C   UNL A   1      36.719  31.842  28.396  1.00  0.00     0.010 A 
ATOM     32  C   UNL A   1      36.117  29.539  28.846  1.00  0.00     0.010 A 
ATOM     33  C   UNL A   1      37.029  30.596  28.962  1.00  0.00    -0.014 A 
BRANCH  33  34
ATOM     34  C   UNL A   1      38.266  30.353  29.740  1.00  0.00     0.031 A 
ATOM     35  C   UNL A   1      39.273  29.354  29.251  1.00  0.00     0.074 A 
ATOM     36  C   UNL A   1      38.389  30.916  30.956  1.00  0.00     0.049 A 
ATOM     37  N   UNL A   1      40.310  28.856  29.870  1.00  0.00    -0.248 NA
ATOM     38  C   UNL A   1      39.073  28.830  27.890  1.00  0.00     0.031 C 
ATOM     39  C   UNL A   1      37.444  31.875  31.532  1.00  0.00     0.029 A 
ATOM     40  N   UNL A   1      39.325  30.734  31.942  1.00  0.00    -0.354 N 
ATOM     41  C   UNL A   1      40.883  27.953  28.983  1.00  0.00     0.074 A 
ATOM     42  C   UNL A   1      40.057  27.946  27.794  1.00  0.00     0.031 C 
ATOM     43  C   UNL A   1      37.842  32.189  32.773  1.00  0.00     0.029 A 
ATOM     44  C   UNL A   1      39.040  31.419  33.099  1.00  0.00     0.049 A 
ATOM     45  H   UNL A   1      40.123  30.169  31.831  1.00  0.00     0.167 HD
ATOM     46  C   UNL A   1      42.001  27.207  29.147  1.00  0.00     0.034 A 
ATOM     47  C   UNL A   1      39.655  31.408  34.299  1.00  0.00     0.034 A 
ATOM     48  C   UNL A   1      42.795  27.221  30.349  1.00  0.00     0.049 A 
ATOM     49  C   UNL A   1      40.882  30.555  34.472  1.00  0.00     0.074 A 
ATOM     50  C   UNL A   1      43.966  26.532  30.612  1.00  0.00     0.029 A 
ATOM     51  N   UNL A   1      42.499  27.957  31.489  1.00  0.00    -0.354 N 
ATOM     52  N   UNL A   1      41.452  29.752  33.603  1.00  0.00    -0.248 NA
ATOM     53  C   UNL A   1      41.556  30.603  35.776  1.00  0.00     0.031 C 
ATOM     54  C   UNL A   1      44.351  26.816  31.924  1.00  0.00     0.029 A 
ATOM     55  C   UNL A   1      43.453  27.725  32.464  1.00  0.00     0.049 A 
ATOM     56  H   UNL A   1      41.724  28.556  31.589  1.00  0.00     0.167 HD
ATOM     57  C   UNL A   1      42.561  29.214  34.247  1.00  0.00     0.074 A 
ATOM     58  C   UNL A   1      42.590  29.796  35.574  1.00  0.00     0.031 C 
ATOM     59  C   UNL A   1      43.470  28.320  33.780  1.00  0.00     0.034 A 
BRANCH  46  60
ATOM     60  C   UNL A   1      42.449  26.329  28.007  1.00  0.00     0.023 A 
ATOM     61  C   UNL A   1      41.946  25.021  27.873  1.00  0.00     0.031 A 
ATOM     62  C   UNL A   1      43.441  26.757  27.105  1.00  0.00     0.131 A 
ATOM     63  C   UNL A   1      42.450  24.183  26.868  1.00  0.00     0.055 A 
ATOM     64  C   UNL A   1      43.917  25.928  26.089  1.00  0.00     0.041 A 
ATOM     65  F   UNL A   1      43.949  27.997  27.191  1.00  0.00    -0.206 F 
ATOM     66  C   UNL A   1      43.427  24.632  25.972  1.00  0.00     0.022 A 
BRANCH  63  67
ATOM     67  S   UNL A   1      41.881  22.469  26.700  1.00  0.00     0.124 S 
ATOM     68  O   UNL A   1      42.649  21.793  27.744  1.00  0.00    -0.237 OA
ATOM     69  O   UNL A   1      40.450  22.596  26.962  1.00  0.00    -0.237 OA
ATOM     70  O   UNL A   1      42.245  22.111  25.334  1.00  0.00    -0.744 OA
ENDBRANCH  63  67
ENDBRANCH  46  60
BRANCH  47  71
ATOM     71  C   UNL A   1      39.134  32.294  35.377  1.00  0.00     0.023 A 
ATOM     72  C   UNL A   1      39.606  33.610  35.529  1.00  0.00     0.031 A 
ATOM     73  C   UNL A   1      38.277  31.776  36.362  1.00  0.00     0.131 A 
ATOM     74  C   UNL A   1      39.277  34.336  36.682  1.00  0.00     0.055 A 
ATOM     75  C   UNL A   1      37.905  32.525  37.480  1.00  0.00     0.041 A 
ATOM     76  F   UNL A   1      37.816  30.520  36.263  1.00  0.00    -0.206 F 
ATOM     77  C   UNL A   1      38.419  33.806  37.652  1.00  0.00     0.022 A 
BRANCH  74  78
ATOM     78  S   UNL A   1      40.042  35.947  37.020  1.00  0.00     0.124 S 
ATOM     79  O   UNL A   1      39.375  36.352  38.255  1.00  0.00    -0.237 OA
ATOM     80  O   UNL A   1      41.449  35.581  37.155  1.00  0.00    -0.237 OA
ATOM     81  O   UNL A   1      39.712  36.739  35.841  1.00  0.00    -0.744 OA
ENDBRANCH  74  78
ENDBRANCH  47  71
BRANCH  59  82
ATOM     82  C   UNL A   1      44.591  27.901  34.695  1.00  0.00     0.023 A 
ATOM     83  C   UNL A   1      44.329  27.034  35.772  1.00  0.00     0.031 A 
ATOM     84  C   UNL A   1      45.868  28.477  34.592  1.00  0.00     0.131 A 
ATOM     85  C   UNL A   1      45.321  26.800  36.731  1.00  0.00     0.055 A 
ATOM     86  C   UNL A   1      46.867  28.207  35.528  1.00  0.00     0.041 A 
ATOM     87  F   UNL A   1      46.158  29.316  33.584  1.00  0.00    -0.206 F 
ATOM     88  C   UNL A   1      46.591  27.376  36.610  1.00  0.00     0.022 A 
BRANCH  85  89
ATOM     89  S   UNL A   1      44.980  25.796  38.202  1.00  0.00     0.124 S 
ATOM     90  O   UNL A   1      43.700  26.339  38.650  1.00  0.00    -0.237 OA
ATOM     91  O   UNL A   1      44.927  24.447  37.645  1.00  0.00    -0.237 OA
ATOM     92  O   UNL A   1      46.111  26.068  39.083  1.00  0.00    -0.744 OA
ENDBRANCH  85  89
ENDBRANCH  59  82
ENDBRANCH  33  34
ENDBRANCH  26  28
ENDBRANCH  25  26
ENDBRANCH   1  25
TORSDOF 15
ENDMDL
MODEL 2
REMARK VINA RESULT:     -12.6      1.442      1.751
REMARK SMILES Cc1cccc2c1N=CN1C2=[NH+]NC(=O)[C@@H]1CC(=O)OCCOC(=O)c1ccc(-c2c3nc(c(-c4cc(S(=O)(=O)[O-])ccc4F)c4ccc([nH]4)c(-c4cc(S(=O)(=O)[O-])ccc4F)c4nc(c(-c5cc(S(=O)(=O)[O-])ccc5F)c5ccc2[nH]5)C=C4)C=C3)cc1
REMARK SMILES IDX 22 1 21 2 20 3 18 4 19 5 17 6 16 7 1 8 2 9 3 10 7 11 4 12
REMARK SMILES IDX 6 13 8 14 5 15 11 16 9 17 10 18 12 19 13 20 14 22 15 24
REMARK SMILES IDX 23 25 24 26 25 27 26 28 27 29 88 30 28 31 87 32 29 33 30 34
REMARK SMILES IDX 31 35 81 36 32 37 86 38 80 39 82 40 33 41 85 42 79 43 78 44
REMARK SMILES IDX 34 46 66 47 46 48 65 49 47 50 50 51 64 52 83 53 48 54 49 55
REMARK SMILES IDX 63 57 84 58 51 59 35 60 36 61 44 62 37 63 43 64 45 65 42 66
REMARK SMILES IDX 38 67 39 68 40 69 41 70 67 71 68 72 76 73 69 74 75 75 77 76
REMARK SMILES IDX 74 77 70 78 71 79 72 80 73 81 52 82 53 83 61 84 54 85 60 86
REMARK SMILES IDX 62 87 59 88 55 89 56 90 57 91 58 92
REMARK H PARENT 12 21 13 23 82 45 50 56
REMARK Flexibility Score: inf
ROOT
ATOM      1  C   UNL A   1      31.787  30.235  25.853  1.00  0.00     0.275 C 
ENDROOT
BRANCH   1   2
ATOM      2  C   UNL A   1      31.486  28.947  25.096  1.00  0.00     0.274 C 
BRANCH   2   3
ATOM      3  O   UNL A   1      31.297  29.273  23.699  1.00  0.00    -0.462 OA
BRANCH   3   4
ATOM      4  C   UNL A   1      31.173  28.199  22.885  1.00  0.00     0.310 C 
ATOM      5  O   UNL A   1      30.311  28.072  22.021  1.00  0.00    -0.252 OA
BRANCH   4   6
ATOM      6  C   UNL A   1      32.235  27.148  23.064  1.00  0.00     0.183 C 
BRANCH   6   7
ATOM      7  C   UNL A   1      31.969  25.721  22.598  1.00  0.00     0.286 C 
ATOM      8  C   UNL A   1      32.938  22.445  28.054  1.00  0.00     0.047 C 
ATOM      9  C   UNL A   1      33.069  22.048  26.610  1.00  0.00    -0.024 A 
ATOM     10  C   UNL A   1      33.804  20.888  26.296  1.00  0.00     0.006 A 
ATOM     11  C   UNL A   1      32.522  22.824  25.575  1.00  0.00     0.085 A 
ATOM     12  C   UNL A   1      33.976  20.478  24.974  1.00  0.00     0.001 A 
ATOM     13  C   UNL A   1      32.747  22.413  24.246  1.00  0.00     0.092 A 
ATOM     14  N   UNL A   1      31.837  24.022  25.887  1.00  0.00    -0.215 NA
ATOM     15  C   UNL A   1      33.436  21.234  23.943  1.00  0.00     0.019 A 
ATOM     16  C   UNL A   1      32.483  23.411  23.174  1.00  0.00     0.309 C 
ATOM     17  C   UNL A   1      31.683  24.860  24.913  1.00  0.00     0.317 C 
ATOM     18  N   UNL A   1      32.084  24.668  23.614  1.00  0.00    -0.202 N 
ATOM     19  N   UNL A   1      32.730  23.061  21.945  1.00  0.00    -0.169 N 
ATOM     20  N   UNL A   1      32.803  24.053  21.020  1.00  0.00    -0.193 N 
ATOM     21  H   UNL A   1      32.860  22.117  21.697  1.00  0.00     0.340 HD
ATOM     22  C   UNL A   1      32.777  25.388  21.347  1.00  0.00     0.300 C 
ATOM     23  H   UNL A   1      32.877  23.804  20.071  1.00  0.00     0.216 HD
ATOM     24  O   UNL A   1      33.277  26.236  20.614  1.00  0.00    -0.267 OA
ENDBRANCH   6   7
ENDBRANCH   4   6
ENDBRANCH   3   4
ENDBRANCH   2   3
ENDBRANCH   1   2
BRANCH   1  25
ATOM     25  O   UNL A   1      33.113  30.154  26.405  1.00  0.00    -0.458 OA
BRANCH  25  26
ATOM     26  C   UNL A   1      33.454  31.194  27.196  1.00  0.00     0.338 C 
ATOM     27  O   UNL A   1      32.776  32.203  27.385  1.00  0.00    -0.246 OA
BRANCH  26  28
ATOM     28  C   UNL A   1      34.814  31.018  27.755  1.00  0.00     0.060 A 
ATOM     29  C   UNL A   1      35.762  32.049  27.834  1.00  0.00     0.016 A 
ATOM     30  C   UNL A   1      35.132  29.743  28.227  1.00  0.00     0.016 A 
ATOM     31  C   UNL A   1      37.030  31.793  28.374  1.00  0.00     0.010 A 
ATOM     32  C   UNL A   1      36.371  29.502  28.807  1.00  0.00     0.010 A 
ATOM     33  C   UNL A   1      37.332  30.519  28.879  1.00  0.00    -0.014 A 
BRANCH  33  34
ATOM     34  C   UNL A   1      38.616  30.203  29.547  1.00  0.00     0.031 A 
ATOM     35  C   UNL A   1      39.530  29.168  28.961  1.00  0.00     0.074 A 
ATOM     36  C   UNL A   1      38.866  30.738  30.757  1.00  0.00     0.049 A 
ATOM     37  N   UNL A   1      40.590  28.611  29.484  1.00  0.00    -0.248 NA
ATOM     38  C   UNL A   1      39.194  28.679  27.614  1.00  0.00     0.031 C 
ATOM     39  C   UNL A   1      38.020  31.729  31.423  1.00  0.00     0.029 A 
ATOM     40  N   UNL A   1      39.871  30.494  31.658  1.00  0.00    -0.354 N 
ATOM     41  C   UNL A   1      41.043  27.698  28.539  1.00  0.00     0.074 A 
ATOM     42  C   UNL A   1      40.122  27.752  27.423  1.00  0.00     0.031 C 
ATOM     43  C   UNL A   1      38.533  32.000  32.632  1.00  0.00     0.029 A 
ATOM     44  C   UNL A   1      39.715  31.169  32.845  1.00  0.00     0.049 A 
ATOM     45  H   UNL A   1      40.629  29.894  31.473  1.00  0.00     0.167 HD
ATOM     46  C   UNL A   1      42.134  26.898  28.599  1.00  0.00     0.034 A 
ATOM     47  C   UNL A   1      40.426  31.107  33.989  1.00  0.00     0.034 A 
ATOM     48  C   UNL A   1      43.024  26.852  29.730  1.00  0.00     0.049 A 
ATOM     49  C   UNL A   1      41.621  30.194  34.046  1.00  0.00     0.074 A 
ATOM     50  C   UNL A   1      44.178  26.104  29.884  1.00  0.00     0.029 A 
ATOM     51  N   UNL A   1      42.859  27.580  30.901  1.00  0.00    -0.354 N 
ATOM     52  N   UNL A   1      42.078  29.382  33.122  1.00  0.00    -0.248 NA
ATOM     53  C   UNL A   1      42.402  30.188  35.291  1.00  0.00     0.031 C 
ATOM     54  C   UNL A   1      44.683  26.346  31.164  1.00  0.00     0.029 A 
ATOM     55  C   UNL A   1      43.878  27.286  31.790  1.00  0.00     0.049 A 
ATOM     56  H   UNL A   1      42.124  28.212  31.074  1.00  0.00     0.167 HD
ATOM     57  C   UNL A   1      43.209  28.781  33.663  1.00  0.00     0.074 A 
ATOM     58  C   UNL A   1      43.376  29.337  34.991  1.00  0.00     0.031 C 
ATOM     59  C   UNL A   1      44.032  27.854  33.109  1.00  0.00     0.034 A 
BRANCH  46  60
ATOM     60  C   UNL A   1      42.443  26.021  27.412  1.00  0.00     0.023 A 
ATOM     61  C   UNL A   1      42.055  24.668  27.404  1.00  0.00     0.031 A 
ATOM     62  C   UNL A   1      43.201  26.503  26.329  1.00  0.00     0.131 A 
ATOM     63  C   UNL A   1      42.441  23.842  26.339  1.00  0.00     0.055 A 
ATOM     64  C   UNL A   1      43.556  25.683  25.258  1.00  0.00     0.041 A 
ATOM     65  F   UNL A   1      43.591  27.787  26.291  1.00  0.00    -0.206 F 
ATOM     66  C   UNL A   1      43.183  24.343  25.264  1.00  0.00     0.022 A 
BRANCH  63  67
ATOM     67  S   UNL A   1      42.021  22.077  26.318  1.00  0.00     0.124 S 
ATOM     68  O   UNL A   1      40.586  22.112  26.041  1.00  0.00    -0.237 OA
ATOM     69  O   UNL A   1      42.854  21.579  25.227  1.00  0.00    -0.237 OA
ATOM     70  O   UNL A   1      42.383  21.614  27.653  1.00  0.00    -0.744 OA
ENDBRANCH  63  67
ENDBRANCH  46  60
BRANCH  47  71
ATOM     71  C   UNL A   1      40.039  31.997  35.119  1.00  0.00     0.023 A 
ATOM     72  C   UNL A   1      39.236  31.527  36.174  1.00  0.00     0.031 A 
ATOM     73  C   UNL A   1      40.336  33.369  35.069  1.00  0.00     0.131 A 
ATOM     74  C   UNL A   1      38.696  32.436  37.093  1.00  0.00     0.055 A 
ATOM     75  C   UNL A   1      39.843  34.263  36.021  1.00  0.00     0.041 A 
ATOM     76  F   UNL A   1      41.087  33.861  34.072  1.00  0.00    -0.206 F 
ATOM     77  C   UNL A   1      39.005  33.800  37.031  1.00  0.00     0.022 A 
BRANCH  74  78
ATOM     78  S   UNL A   1      37.481  31.901  38.331  1.00  0.00     0.124 S 
ATOM     79  O   UNL A   1      38.223  32.061  39.580  1.00  0.00    -0.237 OA
ATOM     80  O   UNL A   1      36.400  32.859  38.115  1.00  0.00    -0.237 OA
ATOM     81  O   UNL A   1      37.185  30.525  37.950  1.00  0.00    -0.744 OA
ENDBRANCH  74  78
ENDBRANCH  47  71
BRANCH  59  82
ATOM     82  C   UNL A   1      45.203  27.367  33.921  1.00  0.00     0.023 A 
ATOM     83  C   UNL A   1      45.046  26.271  34.790  1.00  0.00     0.031 A 
ATOM     84  C   UNL A   1      46.415  28.076  33.948  1.00  0.00     0.131 A 
ATOM     85  C   UNL A   1      46.071  25.941  35.683  1.00  0.00     0.055 A 
ATOM     86  C   UNL A   1      47.451  27.716  34.811  1.00  0.00     0.041 A 
ATOM     87  F   UNL A   1      46.606  29.132  33.141  1.00  0.00    -0.206 F 
ATOM     88  C   UNL A   1      47.276  26.653  35.693  1.00  0.00     0.022 A 
BRANCH  85  89
ATOM     89  S   UNL A   1      45.854  24.622  36.908  1.00  0.00     0.124 S 
ATOM     90  O   UNL A   1      45.375  23.516  36.081  1.00  0.00    -0.237 OA
ATOM     91  O   UNL A   1      47.208  24.468  37.433  1.00  0.00    -0.237 OA
ATOM     92  O   UNL A   1      44.875  25.167  37.842  1.00  0.00    -0.744 OA
ENDBRANCH  85  89
ENDBRANCH  59  82
ENDBRANCH  33  34
ENDBRANCH  26  28
ENDBRANCH  25  26
ENDBRANCH   1  25
TORSDOF 15
ENDMDL
MODEL 3
REMARK VINA RESULT:     -12.5      5.154     10.069
REMARK SMILES Cc1cccc2c1N=CN1C2=[NH+]NC(=O)[C@@H]1CC(=O)OCCOC(=O)c1ccc(-c2c3nc(c(-c4cc(S(=O)(=O)[O-])ccc4F)c4ccc([nH]4)c(-c4cc(S(=O)(=O)[O-])ccc4F)c4nc(c(-c5cc(S(=O)(=O)[O-])ccc5F)c5ccc2[nH]5)C=C4)C=C3)cc1
REMARK SMILES IDX 22 1 21 2 20 3 18 4 19 5 17 6 16 7 1 8 2 9 3 10 7 11 4 12
REMARK SMILES IDX 6 13 8 14 5 15 11 16 9 17 10 18 12 19 13 20 14 22 15 24
REMARK SMILES IDX 23 25 24 26 25 27 26 28 27 29 88 30 28 31 87 32 29 33 30 34
REMARK SMILES IDX 31 35 81 36 32 37 86 38 80 39 82 40 33 41 85 42 79 43 78 44
REMARK SMILES IDX 34 46 66 47 46 48 65 49 47 50 50 51 64 52 83 53 48 54 49 55
REMARK SMILES IDX 63 57 84 58 51 59 35 60 36 61 44 62 37 63 43 64 45 65 42 66
REMARK SMILES IDX 38 67 39 68 40 69 41 70 67 71 68 72 76 73 69 74 75 75 77 76
REMARK SMILES IDX 74 77 70 78 71 79 72 80 73 81 52 82 53 83 61 84 54 85 60 86
REMARK SMILES IDX 62 87 59 88 55 89 56 90 57 91 58 92
REMARK H PARENT 12 21 13 23 82 45 50 56
REMARK Flexibility Score: inf
ROOT
ATOM      1  C   UNL A   1      36.970  20.536  24.999  1.00  0.00     0.275 C 
ENDROOT
BRANCH   1   2
ATOM      2  C   UNL A   1      35.484  20.872  25.026  1.00  0.00     0.274 C 
BRANCH   2   3
ATOM      3  O   UNL A   1      35.318  22.157  25.669  1.00  0.00    -0.462 OA
BRANCH   3   4
ATOM      4  C   UNL A   1      34.293  22.214  26.552  1.00  0.00     0.310 C 
ATOM      5  O   UNL A   1      34.240  21.582  27.602  1.00  0.00    -0.252 OA
BRANCH   4   6
ATOM      6  C   UNL A   1      33.203  23.185  26.187  1.00  0.00     0.183 C 
BRANCH   6   7
ATOM      7  C   UNL A   1      33.097  23.694  24.754  1.00  0.00     0.286 C 
ATOM      8  C   UNL A   1      31.713  29.901  25.751  1.00  0.00     0.047 C 
ATOM      9  C   UNL A   1      31.406  28.977  24.606  1.00  0.00    -0.024 A 
ATOM     10  C   UNL A   1      30.401  29.351  23.693  1.00  0.00     0.006 A 
ATOM     11  C   UNL A   1      32.058  27.743  24.454  1.00  0.00     0.085 A 
ATOM     12  C   UNL A   1      30.058  28.528  22.620  1.00  0.00     0.001 A 
ATOM     13  C   UNL A   1      31.662  26.909  23.389  1.00  0.00     0.092 A 
ATOM     14  N   UNL A   1      33.023  27.339  25.407  1.00  0.00    -0.215 NA
ATOM     15  C   UNL A   1      30.697  27.308  22.457  1.00  0.00     0.019 A 
ATOM     16  C   UNL A   1      32.089  25.485  23.447  1.00  0.00     0.309 C 
ATOM     17  C   UNL A   1      33.311  26.078  25.427  1.00  0.00     0.317 C 
ATOM     18  N   UNL A   1      32.799  25.121  24.585  1.00  0.00    -0.202 N 
ATOM     19  N   UNL A   1      31.693  24.692  22.493  1.00  0.00    -0.169 N 
ATOM     20  N   UNL A   1      31.800  23.357  22.712  1.00  0.00    -0.193 N 
ATOM     21  H   UNL A   1      31.329  25.047  21.650  1.00  0.00     0.340 HD
ATOM     22  C   UNL A   1      32.159  22.820  23.925  1.00  0.00     0.300 C 
ATOM     23  H   UNL A   1      31.613  22.743  21.964  1.00  0.00     0.216 HD
ATOM     24  O   UNL A   1      31.830  21.682  24.245  1.00  0.00    -0.267 OA
ENDBRANCH   6   7
ENDBRANCH   4   6
ENDBRANCH   3   4
ENDBRANCH   2   3
ENDBRANCH   1   2
BRANCH   1  25
ATOM     25  O   UNL A   1      37.701  21.597  25.637  1.00  0.00    -0.458 OA
BRANCH  25  26
ATOM     26  C   UNL A   1      38.969  21.278  25.976  1.00  0.00     0.338 C 
ATOM     27  O   UNL A   1      39.479  20.164  25.872  1.00  0.00    -0.246 OA
BRANCH  26  28
ATOM     28  C   UNL A   1      39.666  22.432  26.587  1.00  0.00     0.060 A 
ATOM     29  C   UNL A   1      40.655  22.310  27.575  1.00  0.00     0.016 A 
ATOM     30  C   UNL A   1      39.299  23.698  26.124  1.00  0.00     0.016 A 
ATOM     31  C   UNL A   1      41.261  23.459  28.103  1.00  0.00     0.010 A 
ATOM     32  C   UNL A   1      39.935  24.832  26.611  1.00  0.00     0.010 A 
ATOM     33  C   UNL A   1      40.913  24.725  27.609  1.00  0.00    -0.014 A 
BRANCH  33  34
ATOM     34  C   UNL A   1      41.578  25.972  28.054  1.00  0.00     0.031 A 
ATOM     35  C   UNL A   1      40.788  27.029  28.767  1.00  0.00     0.074 A 
ATOM     36  C   UNL A   1      42.847  26.203  27.667  1.00  0.00     0.049 A 
ATOM     37  N   UNL A   1      41.126  28.256  29.061  1.00  0.00    -0.248 NA
ATOM     38  C   UNL A   1      39.425  26.661  29.186  1.00  0.00     0.031 C 
ATOM     39  C   UNL A   1      43.686  25.248  26.943  1.00  0.00     0.029 A 
ATOM     40  N   UNL A   1      43.634  27.319  27.788  1.00  0.00    -0.354 N 
ATOM     41  C   UNL A   1      40.019  28.814  29.689  1.00  0.00     0.074 A 
ATOM     42  C   UNL A   1      38.986  27.801  29.703  1.00  0.00     0.031 C 
ATOM     43  C   UNL A   1      44.867  25.822  26.671  1.00  0.00     0.029 A 
ATOM     44  C   UNL A   1      44.852  27.199  27.160  1.00  0.00     0.049 A 
ATOM     45  H   UNL A   1      43.356  28.127  28.275  1.00  0.00     0.167 HD
ATOM     46  C   UNL A   1      39.888  30.056  30.213  1.00  0.00     0.034 A 
ATOM     47  C   UNL A   1      45.834  28.102  26.972  1.00  0.00     0.034 A 
ATOM     48  C   UNL A   1      40.928  31.051  30.169  1.00  0.00     0.049 A 
ATOM     49  C   UNL A   1      45.661  29.484  27.539  1.00  0.00     0.074 A 
ATOM     50  C   UNL A   1      40.915  32.329  30.698  1.00  0.00     0.029 A 
ATOM     51  N   UNL A   1      42.164  30.882  29.560  1.00  0.00    -0.354 N 
ATOM     52  N   UNL A   1      44.634  29.982  28.188  1.00  0.00    -0.248 NA
ATOM     53  C   UNL A   1      46.771  30.429  27.359  1.00  0.00     0.031 C 
ATOM     54  C   UNL A   1      42.124  32.946  30.369  1.00  0.00     0.029 A 
ATOM     55  C   UNL A   1      42.916  32.037  29.683  1.00  0.00     0.049 A 
ATOM     56  H   UNL A   1      42.463  30.060  29.106  1.00  0.00     0.167 HD
ATOM     57  C   UNL A   1      44.979  31.290  28.510  1.00  0.00     0.074 A 
ATOM     58  C   UNL A   1      46.319  31.501  27.998  1.00  0.00     0.031 C 
ATOM     59  C   UNL A   1      44.252  32.227  29.170  1.00  0.00     0.034 A 
BRANCH  46  60
ATOM     60  C   UNL A   1      38.590  30.411  30.892  1.00  0.00     0.023 A 
ATOM     61  C   UNL A   1      37.606  31.151  30.210  1.00  0.00     0.031 A 
ATOM     62  C   UNL A   1      38.365  30.093  32.244  1.00  0.00     0.131 A 
ATOM     63  C   UNL A   1      36.450  31.561  30.889  1.00  0.00     0.055 A 
ATOM     64  C   UNL A   1      37.200  30.478  32.906  1.00  0.00     0.041 A 
ATOM     65  F   UNL A   1      39.273  29.385  32.936  1.00  0.00    -0.206 F 
ATOM     66  C   UNL A   1      36.239  31.223  32.230  1.00  0.00     0.022 A 
BRANCH  63  67
ATOM     67  S   UNL A   1      35.187  32.574  30.070  1.00  0.00     0.124 S 
ATOM     68  O   UNL A   1      35.961  33.740  29.651  1.00  0.00    -0.237 OA
ATOM     69  O   UNL A   1      34.747  31.696  28.989  1.00  0.00    -0.237 OA
ATOM     70  O   UNL A   1      34.206  32.827  31.120  1.00  0.00    -0.744 OA
ENDBRANCH  63  67
ENDBRANCH  46  60
BRANCH  47  71
ATOM     71  C   UNL A   1      47.077  27.670  26.273  1.00  0.00     0.023 A 
ATOM     72  C   UNL A   1      47.292  27.972  24.916  1.00  0.00     0.031 A 
ATOM     73  C   UNL A   1      47.984  26.812  26.916  1.00  0.00     0.131 A 
ATOM     74  C   UNL A   1      48.347  27.357  24.227  1.00  0.00     0.055 A 
ATOM     75  C   UNL A   1      49.068  26.249  26.240  1.00  0.00     0.041 A 
ATOM     76  F   UNL A   1      47.809  26.487  28.206  1.00  0.00    -0.206 F 
ATOM     77  C   UNL A   1      49.244  26.508  24.884  1.00  0.00     0.022 A 
BRANCH  74  78
ATOM     78  S   UNL A   1      48.524  27.547  22.431  1.00  0.00     0.124 S 
ATOM     79  O   UNL A   1      47.316  28.288  22.078  1.00  0.00    -0.237 OA
ATOM     80  O   UNL A   1      49.773  28.297  22.337  1.00  0.00    -0.237 OA
ATOM     81  O   UNL A   1      48.580  26.173  21.945  1.00  0.00    -0.744 OA
ENDBRANCH  74  78
ENDBRANCH  47  71
BRANCH  59  82
ATOM     82  C   UNL A   1      44.873  33.582  29.393  1.00  0.00     0.023 A 
ATOM     83  C   UNL A   1      44.742  34.582  28.412  1.00  0.00     0.031 A 
ATOM     84  C   UNL A   1      45.715  33.825  30.491  1.00  0.00     0.131 A 
ATOM     85  C   UNL A   1      45.475  35.768  28.528  1.00  0.00     0.055 A 
ATOM     86  C   UNL A   1      46.411  35.027  30.623  1.00  0.00     0.041 A 
ATOM     87  F   UNL A   1      45.875  32.895  31.446  1.00  0.00    -0.206 F 
ATOM     88  C   UNL A   1      46.304  35.999  29.632  1.00  0.00     0.022 A 
BRANCH  85  89
ATOM     89  S   UNL A   1      45.434  37.024  27.220  1.00  0.00     0.124 S 
ATOM     90  O   UNL A   1      46.048  38.172  27.882  1.00  0.00    -0.237 OA
ATOM     91  O   UNL A   1      46.241  36.401  26.174  1.00  0.00    -0.237 OA
ATOM     92  O   UNL A   1      44.014  37.169  26.917  1.00  0.00    -0.744 OA
ENDBRANCH  85  89
ENDBRANCH  59  82
ENDBRANCH  33  34
ENDBRANCH  26  28
ENDBRANCH  25  26
ENDBRANCH   1  25
TORSDOF 15
ENDMDL
