MODEL 1
REMARK VINA RESULT:     -12.6      0.000      0.000
REMARK SMILES COc1ccc(-c2ccc3n(c2=O)C[C@H]2C[C@@H]3CN(C(=O)CCCC(=O)OCCOC(=O)c3ccc(-c4c5nc(c(-c6cc(S(=O)(=O)[O-])ccc6F)c6ccc([nH]6)c(-c6cc(S(=O)(=O)[O-])ccc6F)c6nc(c(-c7cc(S(=O)(=O)[O-])ccc7F)c7ccc4[nH]7)C=C6)C=C5)cc3)C2)cc1
REMARK SMILES IDX 27 1 25 2 26 3 24 4 23 5 22 6 20 7 21 8 19 9 7 10 8 11 12 12
REMARK SMILES IDX 9 13 11 14 13 15 10 16 14 17 17 18 15 19 16 20 18 21 96 22
REMARK SMILES IDX 6 23 3 24 4 25 98 26 5 27 97 28 2 29 1 30 28 31 29 32 30 33
REMARK SMILES IDX 31 34 32 35 33 36 34 37 95 38 35 39 94 40 36 41 37 42 38 43
REMARK SMILES IDX 88 44 39 45 93 46 87 47 89 48 40 49 92 50 86 51 85 52 41 54
REMARK SMILES IDX 73 55 53 56 72 57 54 58 57 59 71 60 90 61 55 62 56 63 70 65
REMARK SMILES IDX 91 66 58 67 42 68 43 69 51 70 44 71 50 72 52 73 49 74 45 75
REMARK SMILES IDX 46 76 47 77 48 78 74 79 75 80 83 81 76 82 82 83 84 84 81 85
REMARK SMILES IDX 77 86 78 87 79 88 80 89 59 90 60 91 68 92 61 93 67 94 69 95
REMARK SMILES IDX 66 96 62 97 63 98 64 99 65 100
REMARK H PARENT 89 53 57 64
REMARK Flexibility Score: inf
ROOT
ATOM      1  O   UNL A   1      35.835  22.767  24.872  1.00  0.00    -0.462 OA
ENDROOT
BRANCH   1   2
ATOM      2  C   UNL A   1      35.310  23.480  23.845  1.00  0.00     0.305 C 
ATOM      3  O   UNL A   1      35.304  23.092  22.681  1.00  0.00    -0.252 OA
BRANCH   2   4
ATOM      4  C   UNL A   1      34.761  24.834  24.253  1.00  0.00     0.123 C 
BRANCH   4   5
ATOM      5  C   UNL A   1      34.227  24.959  25.672  1.00  0.00     0.022 C 
BRANCH   5   6
ATOM      6  C   UNL A   1      34.061  26.385  26.190  1.00  0.00     0.101 C 
BRANCH   6   7
ATOM      7  C   UNL A   1      33.396  27.337  25.209  1.00  0.00     0.222 C 
ATOM      8  O   UNL A   1      34.073  28.240  24.708  1.00  0.00    -0.275 OA
BRANCH   7   9
ATOM      9  N   UNL A   1      32.068  27.131  24.853  1.00  0.00    -0.342 N 
ATOM     10  C   UNL A   1      31.809  21.865  24.633  1.00  0.00     0.047 A 
ATOM     11  C   UNL A   1      31.430  22.228  25.869  1.00  0.00     0.016 A 
ATOM     12  C   UNL A   1      31.706  22.879  23.523  1.00  0.00     0.258 A 
ATOM     13  C   UNL A   1      30.862  23.518  26.134  1.00  0.00     0.023 A 
ATOM     14  N   UNL A   1      31.118  24.117  23.858  1.00  0.00    -0.311 N 
ATOM     15  O   UNL A   1      32.098  22.614  22.389  1.00  0.00    -0.269 OA
ATOM     16  C   UNL A   1      30.695  24.415  25.151  1.00  0.00     0.026 A 
ATOM     17  C   UNL A   1      30.907  25.051  22.751  1.00  0.00     0.131 C 
ATOM     18  C   UNL A   1      30.057  25.758  25.440  1.00  0.00     0.056 C 
ATOM     19  C   UNL A   1      30.378  26.450  23.110  1.00  0.00     0.029 C 
ATOM     20  C   UNL A   1      29.335  26.305  24.209  1.00  0.00     0.019 C 
ATOM     21  C   UNL A   1      31.130  26.753  25.910  1.00  0.00     0.129 C 
ATOM     22  C   UNL A   1      31.463  27.446  23.562  1.00  0.00     0.125 C 
BRANCH  10  23
ATOM     23  C   UNL A   1      32.267  20.481  24.412  1.00  0.00    -0.013 A 
ATOM     24  C   UNL A   1      33.038  17.819  23.942  1.00  0.00     0.118 A 
ATOM     25  C   UNL A   1      33.202  18.388  25.206  1.00  0.00     0.047 A 
ATOM     26  C   UNL A   1      32.477  18.569  22.912  1.00  0.00     0.047 A 
ATOM     27  C   UNL A   1      32.832  19.718  25.438  1.00  0.00     0.013 A 
ATOM     28  C   UNL A   1      32.102  19.894  23.145  1.00  0.00     0.013 A 
BRANCH  24  29
ATOM     29  O   UNL A   1      33.390  16.503  23.811  1.00  0.00    -0.497 OA
ATOM     30  C   UNL A   1      33.535  15.824  25.061  1.00  0.00     0.278 C 
ENDBRANCH  24  29
ENDBRANCH  10  23
ENDBRANCH   7   9
ENDBRANCH   6   7
ENDBRANCH   5   6
ENDBRANCH   4   5
ENDBRANCH   2   4
ENDBRANCH   1   2
BRANCH   1  31
ATOM     31  C   UNL A   1      35.883  21.340  24.678  1.00  0.00     0.274 C 
BRANCH  31  32
ATOM     32  C   UNL A   1      37.274  20.766  24.949  1.00  0.00     0.275 C 
BRANCH  32  33
ATOM     33  O   UNL A   1      38.246  21.800  25.164  1.00  0.00    -0.458 OA
BRANCH  33  34
ATOM     34  C   UNL A   1      39.207  21.484  26.061  1.00  0.00     0.338 C 
ATOM     35  O   UNL A   1      39.725  20.387  26.229  1.00  0.00    -0.246 OA
BRANCH  34  36
ATOM     36  C   UNL A   1      39.664  22.688  26.757  1.00  0.00     0.060 A 
ATOM     37  C   UNL A   1      39.100  23.914  26.396  1.00  0.00     0.016 A 
ATOM     38  C   UNL A   1      40.740  22.634  27.641  1.00  0.00     0.016 A 
ATOM     39  C   UNL A   1      39.639  25.099  26.865  1.00  0.00     0.010 A 
ATOM     40  C   UNL A   1      41.272  23.828  28.131  1.00  0.00     0.010 A 
ATOM     41  C   UNL A   1      40.746  25.065  27.714  1.00  0.00    -0.014 A 
BRANCH  41  42
ATOM     42  C   UNL A   1      41.432  26.333  28.034  1.00  0.00     0.031 A 
ATOM     43  C   UNL A   1      40.686  27.375  28.815  1.00  0.00     0.074 A 
ATOM     44  C   UNL A   1      42.722  26.506  27.697  1.00  0.00     0.049 A 
ATOM     45  N   UNL A   1      41.021  28.607  29.089  1.00  0.00    -0.248 NA
ATOM     46  C   UNL A   1      39.377  26.970  29.354  1.00  0.00     0.031 C 
ATOM     47  C   UNL A   1      43.563  25.503  27.039  1.00  0.00     0.029 A 
ATOM     48  N   UNL A   1      43.553  27.579  27.871  1.00  0.00    -0.354 N 
ATOM     49  C   UNL A   1      39.948  29.141  29.795  1.00  0.00     0.074 A 
ATOM     50  C   UNL A   1      38.949  28.099  29.899  1.00  0.00     0.031 C 
ATOM     51  C   UNL A   1      44.794  26.012  26.868  1.00  0.00     0.029 A 
ATOM     52  C   UNL A   1      44.807  27.391  27.341  1.00  0.00     0.049 A 
ATOM     53  H   UNL A   1      43.278  28.405  28.331  1.00  0.00     0.167 HD
ATOM     54  C   UNL A   1      39.817  30.391  30.302  1.00  0.00     0.034 A 
ATOM     55  C   UNL A   1      45.832  28.256  27.218  1.00  0.00     0.034 A 
ATOM     56  C   UNL A   1      40.846  31.397  30.190  1.00  0.00     0.049 A 
ATOM     57  C   UNL A   1      45.645  29.657  27.738  1.00  0.00     0.074 A 
ATOM     58  C   UNL A   1      40.822  32.715  30.609  1.00  0.00     0.029 A 
ATOM     59  N   UNL A   1      42.097  31.185  29.620  1.00  0.00    -0.354 N 
ATOM     60  N   UNL A   1      44.590  30.190  28.317  1.00  0.00    -0.248 NA
ATOM     61  C   UNL A   1      46.781  30.572  27.592  1.00  0.00     0.031 C 
ATOM     62  C   UNL A   1      42.038  33.310  30.250  1.00  0.00     0.029 A 
ATOM     63  C   UNL A   1      42.848  32.347  29.667  1.00  0.00     0.049 A 
ATOM     64  H   UNL A   1      42.404  30.331  29.237  1.00  0.00     0.167 HD
ATOM     65  C   UNL A   1      44.946  31.500  28.620  1.00  0.00     0.074 A 
ATOM     66  C   UNL A   1      46.318  31.666  28.179  1.00  0.00     0.031 C 
ATOM     67  C   UNL A   1      44.212  32.480  29.207  1.00  0.00     0.034 A 
BRANCH  54  68
ATOM     68  C   UNL A   1      38.489  30.745  30.928  1.00  0.00     0.023 A 
ATOM     69  C   UNL A   1      37.444  31.331  30.190  1.00  0.00     0.031 A 
ATOM     70  C   UNL A   1      38.292  30.555  32.307  1.00  0.00     0.131 A 
ATOM     71  C   UNL A   1      36.285  31.774  30.848  1.00  0.00     0.055 A 
ATOM     72  C   UNL A   1      37.105  30.927  32.942  1.00  0.00     0.041 A 
ATOM     73  F   UNL A   1      39.263  30.027  33.069  1.00  0.00    -0.206 F 
ATOM     74  C   UNL A   1      36.099  31.554  32.216  1.00  0.00     0.022 A 
BRANCH  71  75
ATOM     75  S   UNL A   1      35.084  32.773  29.924  1.00  0.00     0.124 S 
ATOM     76  O   UNL A   1      35.945  33.786  29.321  1.00  0.00    -0.237 OA
ATOM     77  O   UNL A   1      34.502  31.799  29.009  1.00  0.00    -0.237 OA
ATOM     78  O   UNL A   1      34.181  33.270  30.962  1.00  0.00    -0.744 OA
ENDBRANCH  71  75
ENDBRANCH  54  68
BRANCH  55  79
ATOM     79  C   UNL A   1      47.085  27.847  26.523  1.00  0.00     0.023 A 
ATOM     80  C   UNL A   1      47.227  27.976  25.132  1.00  0.00     0.031 A 
ATOM     81  C   UNL A   1      48.155  27.285  27.245  1.00  0.00     0.131 A 
ATOM     82  C   UNL A   1      48.395  27.517  24.503  1.00  0.00     0.055 A 
ATOM     83  C   UNL A   1      49.334  26.877  26.621  1.00  0.00     0.041 A 
ATOM     84  F   UNL A   1      48.073  27.137  28.577  1.00  0.00    -0.206 F 
ATOM     85  C   UNL A   1      49.454  26.980  25.240  1.00  0.00     0.022 A 
BRANCH  82  86
ATOM     86  S   UNL A   1      48.481  27.556  22.690  1.00  0.00     0.124 S 
ATOM     87  O   UNL A   1      48.503  26.135  22.361  1.00  0.00    -0.237 OA
ATOM     88  O   UNL A   1      47.261  28.277  22.341  1.00  0.00    -0.237 OA
ATOM     89  O   UNL A   1      49.724  28.276  22.424  1.00  0.00    -0.744 OA
ENDBRANCH  82  86
ENDBRANCH  55  79
BRANCH  67  90
ATOM     90  C   UNL A   1      44.914  33.793  29.440  1.00  0.00     0.023 A 
ATOM     91  C   UNL A   1      44.877  34.827  28.491  1.00  0.00     0.031 A 
ATOM     92  C   UNL A   1      45.659  33.994  30.615  1.00  0.00     0.131 A 
ATOM     93  C   UNL A   1      45.627  35.993  28.702  1.00  0.00     0.055 A 
ATOM     94  C   UNL A   1      46.356  35.179  30.846  1.00  0.00     0.041 A 
ATOM     95  F   UNL A   1      45.726  33.035  31.554  1.00  0.00    -0.206 F 
ATOM     96  C   UNL A   1      46.356  36.180  29.880  1.00  0.00     0.022 A 
BRANCH  93  97
ATOM     97  S   UNL A   1      45.725  37.217  27.368  1.00  0.00     0.124 S 
ATOM     98  O   UNL A   1      46.376  38.341  28.033  1.00  0.00    -0.237 OA
ATOM     99  O   UNL A   1      46.524  36.522  26.364  1.00  0.00    -0.237 OA
ATOM    100  O   UNL A   1      44.327  37.439  27.003  1.00  0.00    -0.744 OA
ENDBRANCH  93  97
ENDBRANCH  67  90
ENDBRANCH  41  42
ENDBRANCH  34  36
ENDBRANCH  33  34
ENDBRANCH  32  33
ENDBRANCH  31  32
ENDBRANCH   1  31
TORSDOF 20
ENDMDL
MODEL 2
REMARK VINA RESULT:     -12.4      4.806      8.051
REMARK SMILES COc1ccc(-c2ccc3n(c2=O)C[C@H]2C[C@@H]3CN(C(=O)CCCC(=O)OCCOC(=O)c3ccc(-c4c5nc(c(-c6cc(S(=O)(=O)[O-])ccc6F)c6ccc([nH]6)c(-c6cc(S(=O)(=O)[O-])ccc6F)c6nc(c(-c7cc(S(=O)(=O)[O-])ccc7F)c7ccc4[nH]7)C=C6)C=C5)cc3)C2)cc1
REMARK SMILES IDX 27 1 25 2 26 3 24 4 23 5 22 6 20 7 21 8 19 9 7 10 8 11 12 12
REMARK SMILES IDX 9 13 11 14 13 15 10 16 14 17 17 18 15 19 16 20 18 21 96 22
REMARK SMILES IDX 6 23 3 24 4 25 98 26 5 27 97 28 2 29 1 30 28 31 29 32 30 33
REMARK SMILES IDX 31 34 32 35 33 36 34 37 95 38 35 39 94 40 36 41 37 42 38 43
REMARK SMILES IDX 88 44 39 45 93 46 87 47 89 48 40 49 92 50 86 51 85 52 41 54
REMARK SMILES IDX 73 55 53 56 72 57 54 58 57 59 71 60 90 61 55 62 56 63 70 65
REMARK SMILES IDX 91 66 58 67 42 68 43 69 51 70 44 71 50 72 52 73 49 74 45 75
REMARK SMILES IDX 46 76 47 77 48 78 74 79 75 80 83 81 76 82 82 83 84 84 81 85
REMARK SMILES IDX 77 86 78 87 79 88 80 89 59 90 60 91 68 92 61 93 67 94 69 95
REMARK SMILES IDX 66 96 62 97 63 98 64 99 65 100
REMARK H PARENT 89 53 57 64
REMARK Flexibility Score: inf
ROOT
ATOM      1  O   UNL A   1      32.335  29.141  27.044  1.00  0.00    -0.462 OA
ENDROOT
BRANCH   1   2
ATOM      2  C   UNL A   1      32.056  27.850  26.735  1.00  0.00     0.305 C 
ATOM      3  O   UNL A   1      31.140  27.211  27.243  1.00  0.00    -0.252 OA
BRANCH   2   4
ATOM      4  C   UNL A   1      33.010  27.240  25.725  1.00  0.00     0.123 C 
BRANCH   4   5
ATOM      5  C   UNL A   1      33.445  25.803  25.972  1.00  0.00     0.022 C 
BRANCH   5   6
ATOM      6  C   UNL A   1      34.801  25.416  25.388  1.00  0.00     0.101 C 
BRANCH   6   7
ATOM      7  C   UNL A   1      35.033  23.918  25.274  1.00  0.00     0.222 C 
ATOM      8  O   UNL A   1      35.954  23.410  25.920  1.00  0.00    -0.275 OA
BRANCH   7   9
ATOM      9  N   UNL A   1      34.169  23.152  24.500  1.00  0.00    -0.342 N 
ATOM     10  C   UNL A   1      30.599  26.732  22.990  1.00  0.00     0.047 A 
ATOM     11  C   UNL A   1      31.531  26.672  22.025  1.00  0.00     0.016 A 
ATOM     12  C   UNL A   1      30.445  25.553  23.914  1.00  0.00     0.258 A 
ATOM     13  C   UNL A   1      32.316  25.491  21.809  1.00  0.00     0.023 A 
ATOM     14  N   UNL A   1      31.237  24.422  23.624  1.00  0.00    -0.311 N 
ATOM     15  O   UNL A   1      29.648  25.585  24.850  1.00  0.00    -0.269 OA
ATOM     16  C   UNL A   1      32.150  24.401  22.573  1.00  0.00     0.026 A 
ATOM     17  C   UNL A   1      30.994  23.236  24.448  1.00  0.00     0.131 C 
ATOM     18  C   UNL A   1      32.959  23.150  22.306  1.00  0.00     0.056 C 
ATOM     19  C   UNL A   1      31.926  22.032  24.229  1.00  0.00     0.029 C 
ATOM     20  C   UNL A   1      32.198  21.896  22.738  1.00  0.00     0.019 C 
ATOM     21  C   UNL A   1      34.304  23.232  23.045  1.00  0.00     0.129 C 
ATOM     22  C   UNL A   1      33.264  22.115  24.988  1.00  0.00     0.125 C 
BRANCH  10  23
ATOM     23  C   UNL A   1      29.744  27.931  23.073  1.00  0.00    -0.013 A 
ATOM     24  C   UNL A   1      28.050  30.174  23.144  1.00  0.00     0.118 A 
ATOM     25  C   UNL A   1      29.436  30.337  23.108  1.00  0.00     0.047 A 
ATOM     26  C   UNL A   1      27.504  28.894  23.132  1.00  0.00     0.047 A 
ATOM     27  C   UNL A   1      30.282  29.221  23.086  1.00  0.00     0.013 A 
ATOM     28  C   UNL A   1      28.347  27.781  23.105  1.00  0.00     0.013 A 
BRANCH  24  29
ATOM     29  O   UNL A   1      27.297  31.316  23.125  1.00  0.00    -0.497 OA
ATOM     30  C   UNL A   1      27.923  32.400  22.435  1.00  0.00     0.278 C 
ENDBRANCH  24  29
ENDBRANCH  10  23
ENDBRANCH   7   9
ENDBRANCH   6   7
ENDBRANCH   5   6
ENDBRANCH   4   5
ENDBRANCH   2   4
ENDBRANCH   1   2
BRANCH   1  31
ATOM     31  C   UNL A   1      31.618  30.131  26.281  1.00  0.00     0.274 C 
BRANCH  31  32
ATOM     32  C   UNL A   1      32.060  31.555  26.622  1.00  0.00     0.275 C 
BRANCH  32  33
ATOM     33  O   UNL A   1      32.888  31.591  27.795  1.00  0.00    -0.458 OA
BRANCH  33  34
ATOM     34  C   UNL A   1      33.851  32.539  27.767  1.00  0.00     0.338 C 
ATOM     35  O   UNL A   1      33.693  33.746  27.638  1.00  0.00    -0.246 OA
BRANCH  34  36
ATOM     36  C   UNL A   1      35.158  31.939  28.045  1.00  0.00     0.060 A 
ATOM     37  C   UNL A   1      35.219  30.561  28.263  1.00  0.00     0.016 A 
ATOM     38  C   UNL A   1      36.281  32.740  28.242  1.00  0.00     0.016 A 
ATOM     39  C   UNL A   1      36.381  29.976  28.734  1.00  0.00     0.010 A 
ATOM     40  C   UNL A   1      37.461  32.149  28.699  1.00  0.00     0.010 A 
ATOM     41  C   UNL A   1      37.501  30.771  28.981  1.00  0.00    -0.014 A 
BRANCH  41  42
ATOM     42  C   UNL A   1      38.657  30.169  29.677  1.00  0.00     0.031 A 
ATOM     43  C   UNL A   1      38.949  30.597  31.086  1.00  0.00     0.074 A 
ATOM     44  C   UNL A   1      39.376  29.203  29.079  1.00  0.00     0.049 A 
ATOM     45  N   UNL A   1      39.977  30.321  31.842  1.00  0.00    -0.248 NA
ATOM     46  C   UNL A   1      37.942  31.461  31.725  1.00  0.00     0.031 C 
ATOM     47  C   UNL A   1      39.096  28.641  27.756  1.00  0.00     0.029 A 
ATOM     48  N   UNL A   1      40.478  28.516  29.509  1.00  0.00    -0.354 N 
ATOM     49  C   UNL A   1      39.766  31.012  33.031  1.00  0.00     0.074 A 
ATOM     50  C   UNL A   1      38.514  31.724  32.890  1.00  0.00     0.031 C 
ATOM     51  C   UNL A   1      40.006  27.691  27.485  1.00  0.00     0.029 A 
ATOM     52  C   UNL A   1      40.965  27.627  28.581  1.00  0.00     0.049 A 
ATOM     53  H   UNL A   1      40.884  28.647  30.397  1.00  0.00     0.167 HD
ATOM     54  C   UNL A   1      40.555  31.045  34.133  1.00  0.00     0.034 A 
ATOM     55  C   UNL A   1      42.085  26.880  28.605  1.00  0.00     0.034 A 
ATOM     56  C   UNL A   1      41.790  30.305  34.238  1.00  0.00     0.049 A 
ATOM     57  C   UNL A   1      42.976  26.973  29.816  1.00  0.00     0.074 A 
ATOM     58  C   UNL A   1      42.709  30.291  35.272  1.00  0.00     0.029 A 
ATOM     59  N   UNL A   1      42.272  29.434  33.267  1.00  0.00    -0.354 N 
ATOM     60  N   UNL A   1      42.825  27.705  30.898  1.00  0.00    -0.248 NA
ATOM     61  C   UNL A   1      44.186  26.144  29.810  1.00  0.00     0.031 C 
ATOM     62  C   UNL A   1      43.767  29.450  34.905  1.00  0.00     0.029 A 
ATOM     63  C   UNL A   1      43.478  28.886  33.672  1.00  0.00     0.049 A 
ATOM     64  H   UNL A   1      41.821  29.235  32.414  1.00  0.00     0.167 HD
ATOM     65  C   UNL A   1      43.913  27.408  31.712  1.00  0.00     0.074 A 
ATOM     66  C   UNL A   1      44.698  26.415  31.002  1.00  0.00     0.031 C 
ATOM     67  C   UNL A   1      44.240  27.905  32.933  1.00  0.00     0.034 A 
BRANCH  54  68
ATOM     68  C   UNL A   1      40.141  31.975  35.248  1.00  0.00     0.023 A 
ATOM     69  C   UNL A   1      39.323  31.553  36.312  1.00  0.00     0.031 A 
ATOM     70  C   UNL A   1      40.516  33.330  35.205  1.00  0.00     0.131 A 
ATOM     71  C   UNL A   1      38.847  32.491  37.243  1.00  0.00     0.055 A 
ATOM     72  C   UNL A   1      40.102  34.242  36.178  1.00  0.00     0.041 A 
ATOM     73  F   UNL A   1      41.271  33.798  34.199  1.00  0.00    -0.206 F 
ATOM     74  C   UNL A   1      39.250  33.828  37.197  1.00  0.00     0.022 A 
BRANCH  71  75
ATOM     75  S   UNL A   1      37.576  31.974  38.432  1.00  0.00     0.124 S 
ATOM     76  O   UNL A   1      37.241  30.639  37.942  1.00  0.00    -0.237 OA
ATOM     77  O   UNL A   1      38.291  32.029  39.701  1.00  0.00    -0.237 OA
ATOM     78  O   UNL A   1      36.523  32.974  38.265  1.00  0.00    -0.744 OA
ENDBRANCH  71  75
ENDBRANCH  54  68
BRANCH  55  79
ATOM     79  C   UNL A   1      42.457  26.039  27.431  1.00  0.00     0.023 A 
ATOM     80  C   UNL A   1      42.116  24.679  27.369  1.00  0.00     0.031 A 
ATOM     81  C   UNL A   1      43.193  26.584  26.362  1.00  0.00     0.131 A 
ATOM     82  C   UNL A   1      42.542  23.901  26.279  1.00  0.00     0.055 A 
ATOM     83  C   UNL A   1      43.570  25.819  25.259  1.00  0.00     0.041 A 
ATOM     84  F   UNL A   1      43.547  27.880  26.371  1.00  0.00    -0.206 F 
ATOM     85  C   UNL A   1      43.255  24.465  25.219  1.00  0.00     0.022 A 
BRANCH  82  86
ATOM     86  S   UNL A   1      42.218  22.115  26.305  1.00  0.00     0.124 S 
ATOM     87  O   UNL A   1      42.528  21.775  27.689  1.00  0.00    -0.237 OA
ATOM     88  O   UNL A   1      40.809  22.054  25.930  1.00  0.00    -0.237 OA
ATOM     89  O   UNL A   1      43.149  21.586  25.310  1.00  0.00    -0.744 OA
ENDBRANCH  82  86
ENDBRANCH  55  79
BRANCH  67  90
ATOM     90  C   UNL A   1      45.476  27.334  33.578  1.00  0.00     0.023 A 
ATOM     91  C   UNL A   1      45.421  26.188  34.389  1.00  0.00     0.031 A 
ATOM     92  C   UNL A   1      46.717  27.970  33.406  1.00  0.00     0.131 A 
ATOM     93  C   UNL A   1      46.576  25.750  35.053  1.00  0.00     0.055 A 
ATOM     94  C   UNL A   1      47.875  27.496  34.023  1.00  0.00     0.041 A 
ATOM     95  F   UNL A   1      46.821  29.070  32.641  1.00  0.00    -0.206 F 
ATOM     96  C   UNL A   1      47.805  26.390  34.864  1.00  0.00     0.022 A 
BRANCH  93  97
ATOM     97  S   UNL A   1      46.430  24.398  36.252  1.00  0.00     0.124 S 
ATOM     98  O   UNL A   1      47.779  23.842  36.251  1.00  0.00    -0.237 OA
ATOM     99  O   UNL A   1      46.031  25.100  37.467  1.00  0.00    -0.237 OA
ATOM    100  O   UNL A   1      45.403  23.534  35.670  1.00  0.00    -0.744 OA
ENDBRANCH  93  97
ENDBRANCH  67  90
ENDBRANCH  41  42
ENDBRANCH  34  36
ENDBRANCH  33  34
ENDBRANCH  32  33
ENDBRANCH  31  32
ENDBRANCH   1  31
TORSDOF 20
ENDMDL
MODEL 3
REMARK VINA RESULT:     -12.4      0.544      7.178
REMARK SMILES COc1ccc(-c2ccc3n(c2=O)C[C@H]2C[C@@H]3CN(C(=O)CCCC(=O)OCCOC(=O)c3ccc(-c4c5nc(c(-c6cc(S(=O)(=O)[O-])ccc6F)c6ccc([nH]6)c(-c6cc(S(=O)(=O)[O-])ccc6F)c6nc(c(-c7cc(S(=O)(=O)[O-])ccc7F)c7ccc4[nH]7)C=C6)C=C5)cc3)C2)cc1
REMARK SMILES IDX 27 1 25 2 26 3 24 4 23 5 22 6 20 7 21 8 19 9 7 10 8 11 12 12
REMARK SMILES IDX 9 13 11 14 13 15 10 16 14 17 17 18 15 19 16 20 18 21 96 22
REMARK SMILES IDX 6 23 3 24 4 25 98 26 5 27 97 28 2 29 1 30 28 31 29 32 30 33
REMARK SMILES IDX 31 34 32 35 33 36 34 37 95 38 35 39 94 40 36 41 37 42 38 43
REMARK SMILES IDX 88 44 39 45 93 46 87 47 89 48 40 49 92 50 86 51 85 52 41 54
REMARK SMILES IDX 73 55 53 56 72 57 54 58 57 59 71 60 90 61 55 62 56 63 70 65
REMARK SMILES IDX 91 66 58 67 42 68 43 69 51 70 44 71 50 72 52 73 49 74 45 75
REMARK SMILES IDX 46 76 47 77 48 78 74 79 75 80 83 81 76 82 82 83 84 84 81 85
REMARK SMILES IDX 77 86 78 87 79 88 80 89 59 90 60 91 68 92 61 93 67 94 69 95
REMARK SMILES IDX 66 96 62 97 63 98 64 99 65 100
REMARK H PARENT 89 53 57 64
REMARK Flexibility Score: inf
ROOT
ATOM      1  O   UNL A   1      36.002  22.753  24.943  1.00  0.00    -0.462 OA
ENDROOT
BRANCH   1   2
ATOM      2  C   UNL A   1      35.614  23.480  23.866  1.00  0.00     0.305 C 
ATOM      3  O   UNL A   1      36.042  23.296  22.731  1.00  0.00    -0.252 OA
BRANCH   2   4
ATOM      4  C   UNL A   1      34.624  24.582  24.193  1.00  0.00     0.123 C 
BRANCH   4   5
ATOM      5  C   UNL A   1      34.397  24.887  25.666  1.00  0.00     0.022 C 
BRANCH   5   6
ATOM      6  C   UNL A   1      34.230  26.364  26.015  1.00  0.00     0.101 C 
BRANCH   6   7
ATOM      7  C   UNL A   1      33.459  27.171  24.983  1.00  0.00     0.222 C 
ATOM      8  O   UNL A   1      34.075  27.977  24.281  1.00  0.00    -0.275 OA
BRANCH   7   9
ATOM      9  N   UNL A   1      32.099  26.937  24.812  1.00  0.00    -0.342 N 
ATOM     10  C   UNL A   1      31.890  21.664  24.885  1.00  0.00     0.047 A 
ATOM     11  C   UNL A   1      31.668  22.086  26.140  1.00  0.00     0.016 A 
ATOM     12  C   UNL A   1      31.630  22.620  23.749  1.00  0.00     0.258 A 
ATOM     13  C   UNL A   1      31.121  23.383  26.413  1.00  0.00     0.023 A 
ATOM     14  N   UNL A   1      31.072  23.869  24.097  1.00  0.00    -0.311 N 
ATOM     15  O   UNL A   1      31.876  22.302  22.588  1.00  0.00    -0.269 OA
ATOM     16  C   UNL A   1      30.815  24.228  25.418  1.00  0.00     0.026 A 
ATOM     17  C   UNL A   1      30.707  24.744  22.982  1.00  0.00     0.131 C 
ATOM     18  C   UNL A   1      30.201  25.578  25.722  1.00  0.00     0.056 C 
ATOM     19  C   UNL A   1      30.208  26.156  23.339  1.00  0.00     0.029 C 
ATOM     20  C   UNL A   1      29.318  26.057  24.569  1.00  0.00     0.019 C 
ATOM     21  C   UNL A   1      31.311  26.605  25.999  1.00  0.00     0.129 C 
ATOM     22  C   UNL A   1      31.328  27.181  23.597  1.00  0.00     0.125 C 
BRANCH  10  23
ATOM     23  C   UNL A   1      32.336  20.275  24.674  1.00  0.00    -0.013 A 
ATOM     24  C   UNL A   1      33.084  17.603  24.221  1.00  0.00     0.118 A 
ATOM     25  C   UNL A   1      33.222  18.168  25.489  1.00  0.00     0.047 A 
ATOM     26  C   UNL A   1      32.560  18.361  23.178  1.00  0.00     0.047 A 
ATOM     27  C   UNL A   1      32.863  19.503  25.714  1.00  0.00     0.013 A 
ATOM     28  C   UNL A   1      32.196  19.691  23.403  1.00  0.00     0.013 A 
BRANCH  24  29
ATOM     29  O   UNL A   1      33.422  16.283  24.097  1.00  0.00    -0.497 OA
ATOM     30  C   UNL A   1      32.874  15.455  25.126  1.00  0.00     0.278 C 
ENDBRANCH  24  29
ENDBRANCH  10  23
ENDBRANCH   7   9
ENDBRANCH   6   7
ENDBRANCH   5   6
ENDBRANCH   4   5
ENDBRANCH   2   4
ENDBRANCH   1   2
BRANCH   1  31
ATOM     31  C   UNL A   1      35.895  21.323  24.799  1.00  0.00     0.274 C 
BRANCH  31  32
ATOM     32  C   UNL A   1      37.218  20.612  25.088  1.00  0.00     0.275 C 
BRANCH  32  33
ATOM     33  O   UNL A   1      38.332  21.516  25.038  1.00  0.00    -0.458 OA
BRANCH  33  34
ATOM     34  C   UNL A   1      39.290  21.271  25.960  1.00  0.00     0.338 C 
ATOM     35  O   UNL A   1      39.864  20.208  26.160  1.00  0.00    -0.246 OA
BRANCH  34  36
ATOM     36  C   UNL A   1      39.666  22.512  26.640  1.00  0.00     0.060 A 
ATOM     37  C   UNL A   1      39.027  23.694  26.259  1.00  0.00     0.016 A 
ATOM     38  C   UNL A   1      40.740  22.539  27.527  1.00  0.00     0.016 A 
ATOM     39  C   UNL A   1      39.486  24.917  26.712  1.00  0.00     0.010 A 
ATOM     40  C   UNL A   1      41.193  23.772  28.002  1.00  0.00     0.010 A 
ATOM     41  C   UNL A   1      40.589  24.966  27.565  1.00  0.00    -0.014 A 
BRANCH  41  42
ATOM     42  C   UNL A   1      41.191  26.280  27.870  1.00  0.00     0.031 A 
ATOM     43  C   UNL A   1      42.568  26.576  27.351  1.00  0.00     0.074 A 
ATOM     44  C   UNL A   1      40.481  27.211  28.530  1.00  0.00     0.049 A 
ATOM     45  N   UNL A   1      43.353  27.589  27.605  1.00  0.00    -0.248 NA
ATOM     46  C   UNL A   1      43.140  25.587  26.422  1.00  0.00     0.031 C 
ATOM     47  C   UNL A   1      39.094  27.055  28.973  1.00  0.00     0.029 A 
ATOM     48  N   UNL A   1      40.822  28.473  28.933  1.00  0.00    -0.354 N 
ATOM     49  C   UNL A   1      44.528  27.340  26.903  1.00  0.00     0.074 A 
ATOM     50  C   UNL A   1      44.354  26.076  26.220  1.00  0.00     0.031 C 
ATOM     51  C   UNL A   1      38.702  28.184  29.585  1.00  0.00     0.029 A 
ATOM     52  C   UNL A   1      39.827  29.110  29.636  1.00  0.00     0.049 A 
ATOM     53  H   UNL A   1      41.695  28.885  28.739  1.00  0.00     0.167 HD
ATOM     54  C   UNL A   1      45.647  28.103  26.846  1.00  0.00     0.034 A 
ATOM     55  C   UNL A   1      39.846  30.292  30.281  1.00  0.00     0.034 A 
ATOM     56  C   UNL A   1      45.774  29.366  27.531  1.00  0.00     0.049 A 
ATOM     57  C   UNL A   1      41.118  31.098  30.251  1.00  0.00     0.074 A 
ATOM     58  C   UNL A   1      46.867  30.211  27.602  1.00  0.00     0.029 A 
ATOM     59  N   UNL A   1      44.756  29.973  28.261  1.00  0.00    -0.354 N 
ATOM     60  N   UNL A   1      42.264  30.813  29.670  1.00  0.00    -0.248 NA
ATOM     61  C   UNL A   1      41.104  32.381  30.961  1.00  0.00     0.031 C 
ATOM     62  C   UNL A   1      46.525  31.302  28.411  1.00  0.00     0.029 A 
ATOM     63  C   UNL A   1      45.198  31.173  28.792  1.00  0.00     0.049 A 
ATOM     64  H   UNL A   1      43.852  29.602  28.383  1.00  0.00     0.167 HD
ATOM     65  C   UNL A   1      43.099  31.894  29.929  1.00  0.00     0.074 A 
ATOM     66  C   UNL A   1      42.318  32.842  30.700  1.00  0.00     0.031 C 
ATOM     67  C   UNL A   1      44.394  32.090  29.567  1.00  0.00     0.034 A 
BRANCH  54  68
ATOM     68  C   UNL A   1      46.829  27.535  26.097  1.00  0.00     0.023 A 
ATOM     69  C   UNL A   1      47.139  27.924  24.780  1.00  0.00     0.031 A 
ATOM     70  C   UNL A   1      47.617  26.532  26.688  1.00  0.00     0.131 A 
ATOM     71  C   UNL A   1      48.158  27.261  24.076  1.00  0.00     0.055 A 
ATOM     72  C   UNL A   1      48.679  25.931  26.009  1.00  0.00     0.041 A 
ATOM     73  F   UNL A   1      47.352  26.098  27.930  1.00  0.00    -0.206 F 
ATOM     74  C   UNL A   1      48.946  26.283  24.690  1.00  0.00     0.022 A 
BRANCH  71  75
ATOM     75  S   UNL A   1      48.348  27.588  22.301  1.00  0.00     0.124 S 
ATOM     76  O   UNL A   1      49.508  28.475  22.287  1.00  0.00    -0.237 OA
ATOM     77  O   UNL A   1      48.556  26.253  21.755  1.00  0.00    -0.237 OA
ATOM     78  O   UNL A   1      47.083  28.222  21.932  1.00  0.00    -0.744 OA
ENDBRANCH  71  75
ENDBRANCH  54  68
BRANCH  55  79
ATOM     79  C   UNL A   1      38.658  30.747  31.057  1.00  0.00     0.023 A 
ATOM     80  C   UNL A   1      37.568  31.371  30.428  1.00  0.00     0.031 A 
ATOM     81  C   UNL A   1      38.611  30.593  32.455  1.00  0.00     0.131 A 
ATOM     82  C   UNL A   1      36.496  31.848  31.198  1.00  0.00     0.055 A 
ATOM     83  C   UNL A   1      37.520  31.025  33.211  1.00  0.00     0.041 A 
ATOM     84  F   UNL A   1      39.627  30.006  33.109  1.00  0.00    -0.206 F 
ATOM     85  C   UNL A   1      36.460  31.668  32.583  1.00  0.00     0.022 A 
BRANCH  82  86
ATOM     86  S   UNL A   1      35.179  32.785  30.372  1.00  0.00     0.124 S 
ATOM     87  O   UNL A   1      34.202  32.938  31.444  1.00  0.00    -0.237 OA
ATOM     88  O   UNL A   1      35.877  34.000  29.963  1.00  0.00    -0.237 OA
ATOM     89  O   UNL A   1      34.771  31.907  29.278  1.00  0.00    -0.744 OA
ENDBRANCH  82  86
ENDBRANCH  55  79
BRANCH  67  90
ATOM     90  C   UNL A   1      45.008  33.406  29.970  1.00  0.00     0.023 A 
ATOM     91  C   UNL A   1      44.956  34.531  29.132  1.00  0.00     0.031 A 
ATOM     92  C   UNL A   1      45.686  33.519  31.197  1.00  0.00     0.131 A 
ATOM     93  C   UNL A   1      45.629  35.705  29.500  1.00  0.00     0.055 A 
ATOM     94  C   UNL A   1      46.303  34.708  31.584  1.00  0.00     0.041 A 
ATOM     95  F   UNL A   1      45.764  32.471  32.034  1.00  0.00    -0.206 F 
ATOM     96  C   UNL A   1      46.291  35.804  30.728  1.00  0.00     0.022 A 
BRANCH  93  97
ATOM     97  S   UNL A   1      45.719  37.067  28.306  1.00  0.00     0.124 S 
ATOM     98  O   UNL A   1      44.393  37.665  28.426  1.00  0.00    -0.237 OA
ATOM     99  O   UNL A   1      46.826  37.864  28.824  1.00  0.00    -0.237 OA
ATOM    100  O   UNL A   1      45.982  36.392  27.036  1.00  0.00    -0.744 OA
ENDBRANCH  93  97
ENDBRANCH  67  90
ENDBRANCH  41  42
ENDBRANCH  34  36
ENDBRANCH  33  34
ENDBRANCH  32  33
ENDBRANCH  31  32
ENDBRANCH   1  31
TORSDOF 20
ENDMDL
