MODEL 1
REMARK VINA RESULT:     -10.8      0.000      0.000
REMARK SMILES CC(C)(C)OC(=O)CSc1ccnc(C(=O)OCCOC(=O)c2ccc(-c3c4nc(c(-c5cc(S(=O)(=O)[O-])ccc5F)c5ccc([nH]5)c(-c5cc(S(=O)(=O)[O-])ccc5F)c5nc(c(-c6cc(S(=O)(=O)[O-])ccc6F)c6ccc3[nH]6)C=C5)C=C4)cc2)c1
REMARK SMILES IDX 18 1 17 2 15 3 16 4 14 5 10 6 11 7 86 8 12 9 13 10 9 11 8 12
REMARK SMILES IDX 6 13 7 14 5 15 2 16 1 17 3 18 4 19 19 20 20 21 21 22 22 23
REMARK SMILES IDX 23 24 24 25 85 26 25 27 84 28 26 29 27 30 28 31 78 32 29 33
REMARK SMILES IDX 83 34 77 35 79 36 30 37 82 38 76 39 75 40 31 42 63 43 43 44
REMARK SMILES IDX 62 45 44 46 47 47 61 48 80 49 45 50 46 51 60 53 81 54 48 55
REMARK SMILES IDX 32 56 33 57 41 58 34 59 40 60 42 61 39 62 35 63 36 64 37 65
REMARK SMILES IDX 38 66 64 67 65 68 73 69 66 70 72 71 74 72 71 73 67 74 68 75
REMARK SMILES IDX 69 76 70 77 49 78 50 79 58 80 51 81 57 82 59 83 56 84 52 85
REMARK SMILES IDX 53 86 54 87 55 88
REMARK H PARENT 79 41 47 52
REMARK Flexibility Score: inf
ROOT
ATOM      1  C   UNL A   1      35.449  22.809  24.409  1.00  0.00     0.275 C 
ENDROOT
BRANCH   1   2
ATOM      2  O   UNL A   1      34.889  22.948  23.087  1.00  0.00    -0.457 OA
BRANCH   2   3
ATOM      3  C   UNL A   1      33.535  22.828  23.009  1.00  0.00     0.357 C 
ATOM      4  O   UNL A   1      32.894  21.826  23.290  1.00  0.00    -0.244 OA
BRANCH   3   5
ATOM      5  C   UNL A   1      32.916  24.131  22.622  1.00  0.00     0.149 A 
ATOM      6  C   UNL A   1      31.534  26.042  23.007  1.00  0.00     0.012 A 
ATOM      7  C   UNL A   1      31.727  26.400  21.674  1.00  0.00     0.035 A 
ATOM      8  C   UNL A   1      32.094  24.849  23.477  1.00  0.00     0.051 A 
ATOM      9  C   UNL A   1      32.598  25.653  20.910  1.00  0.00     0.113 A 
ATOM     10  N   UNL A   1      33.229  24.563  21.376  1.00  0.00    -0.249 NA
BRANCH   6  11
ATOM     11  S   UNL A   1      30.629  27.048  24.178  1.00  0.00    -0.114 SA
BRANCH  11  12
ATOM     12  C   UNL A   1      31.264  28.737  23.882  1.00  0.00     0.197 C 
BRANCH  12  13
ATOM     13  C   UNL A   1      32.706  28.948  24.280  1.00  0.00     0.316 C 
ATOM     14  O   UNL A   1      33.634  28.753  23.502  1.00  0.00    -0.251 OA
BRANCH  13  15
ATOM     15  O   UNL A   1      32.832  29.410  25.551  1.00  0.00    -0.459 OA
BRANCH  15  16
ATOM     16  C   UNL A   1      33.279  28.523  26.612  1.00  0.00     0.104 C 
ATOM     17  C   UNL A   1      32.045  28.330  27.506  1.00  0.00     0.056 C 
ATOM     18  C   UNL A   1      34.394  29.159  27.454  1.00  0.00     0.056 C 
ATOM     19  C   UNL A   1      33.698  27.157  26.053  1.00  0.00     0.056 C 
ENDBRANCH  15  16
ENDBRANCH  13  15
ENDBRANCH  12  13
ENDBRANCH  11  12
ENDBRANCH   6  11
ENDBRANCH   3   5
ENDBRANCH   2   3
ENDBRANCH   1   2
BRANCH   1  20
ATOM     20  C   UNL A   1      36.376  21.593  24.514  1.00  0.00     0.275 C 
BRANCH  20  21
ATOM     21  O   UNL A   1      36.980  21.483  25.817  1.00  0.00    -0.458 OA
BRANCH  21  22
ATOM     22  C   UNL A   1      38.313  21.242  25.809  1.00  0.00     0.338 C 
ATOM     23  O   UNL A   1      38.877  20.275  25.326  1.00  0.00    -0.246 OA
BRANCH  22  24
ATOM     24  C   UNL A   1      39.037  22.392  26.377  1.00  0.00     0.060 A 
ATOM     25  C   UNL A   1      38.524  23.657  26.113  1.00  0.00     0.016 A 
ATOM     26  C   UNL A   1      40.251  22.258  27.050  1.00  0.00     0.016 A 
ATOM     27  C   UNL A   1      39.221  24.802  26.480  1.00  0.00     0.010 A 
ATOM     28  C   UNL A   1      40.942  23.412  27.452  1.00  0.00     0.010 A 
ATOM     29  C   UNL A   1      40.441  24.694  27.152  1.00  0.00    -0.014 A 
BRANCH  29  30
ATOM     30  C   UNL A   1      41.197  25.931  27.480  1.00  0.00     0.031 A 
ATOM     31  C   UNL A   1      40.577  26.978  28.362  1.00  0.00     0.074 A 
ATOM     32  C   UNL A   1      42.461  26.086  27.037  1.00  0.00     0.049 A 
ATOM     33  N   UNL A   1      41.036  28.155  28.703  1.00  0.00    -0.248 NA
ATOM     34  C   UNL A   1      39.261  26.657  28.932  1.00  0.00     0.031 C 
ATOM     35  C   UNL A   1      43.196  25.111  26.229  1.00  0.00     0.029 A 
ATOM     36  N   UNL A   1      43.353  27.115  27.210  1.00  0.00    -0.354 N 
ATOM     37  C   UNL A   1      40.054  28.730  29.504  1.00  0.00     0.074 A 
ATOM     38  C   UNL A   1      38.965  27.776  29.576  1.00  0.00     0.031 C 
ATOM     39  C   UNL A   1      44.430  25.582  25.991  1.00  0.00     0.029 A 
ATOM     40  C   UNL A   1      44.554  26.916  26.569  1.00  0.00     0.049 A 
ATOM     41  H   UNL A   1      43.153  27.919  27.743  1.00  0.00     0.167 HD
ATOM     42  C   UNL A   1      40.063  29.939  30.122  1.00  0.00     0.034 A 
ATOM     43  C   UNL A   1      45.619  27.729  26.429  1.00  0.00     0.034 A 
ATOM     44  C   UNL A   1      41.164  30.870  30.049  1.00  0.00     0.049 A 
ATOM     45  C   UNL A   1      45.580  29.094  27.063  1.00  0.00     0.074 A 
ATOM     46  C   UNL A   1      41.282  32.118  30.637  1.00  0.00     0.029 A 
ATOM     47  N   UNL A   1      42.342  30.657  29.341  1.00  0.00    -0.354 N 
ATOM     48  N   UNL A   1      44.627  29.645  27.780  1.00  0.00    -0.248 NA
ATOM     49  C   UNL A   1      46.756  29.949  26.867  1.00  0.00     0.031 C 
ATOM     50  C   UNL A   1      42.498  32.683  30.235  1.00  0.00     0.029 A 
ATOM     51  C   UNL A   1      43.175  31.760  29.453  1.00  0.00     0.049 A 
ATOM     52  H   UNL A   1      42.554  29.841  28.834  1.00  0.00     0.167 HD
ATOM     53  C   UNL A   1      45.097  30.906  28.132  1.00  0.00     0.074 A 
ATOM     54  C   UNL A   1      46.425  31.027  27.563  1.00  0.00     0.031 C 
ATOM     55  C   UNL A   1      44.488  31.876  28.861  1.00  0.00     0.034 A 
BRANCH  42  56
ATOM     56  C   UNL A   1      38.813  30.339  30.869  1.00  0.00     0.023 A 
ATOM     57  C   UNL A   1      37.777  31.068  30.257  1.00  0.00     0.031 A 
ATOM     58  C   UNL A   1      38.680  30.032  32.236  1.00  0.00     0.131 A 
ATOM     59  C   UNL A   1      36.699  31.533  31.026  1.00  0.00     0.055 A 
ATOM     60  C   UNL A   1      37.564  30.428  32.977  1.00  0.00     0.041 A 
ATOM     61  F   UNL A   1      39.645  29.358  32.881  1.00  0.00    -0.206 F 
ATOM     62  C   UNL A   1      36.574  31.198  32.377  1.00  0.00     0.022 A 
BRANCH  59  63
ATOM     63  S   UNL A   1      35.542  32.712  30.276  1.00  0.00     0.124 S 
ATOM     64  O   UNL A   1      35.445  32.204  28.909  1.00  0.00    -0.237 OA
ATOM     65  O   UNL A   1      34.350  32.554  31.103  1.00  0.00    -0.237 OA
ATOM     66  O   UNL A   1      36.226  33.996  30.407  1.00  0.00    -0.744 OA
ENDBRANCH  59  63
ENDBRANCH  42  56
BRANCH  43  67
ATOM     67  C   UNL A   1      46.784  27.301  25.603  1.00  0.00     0.023 A 
ATOM     68  C   UNL A   1      46.960  27.766  24.292  1.00  0.00     0.031 A 
ATOM     69  C   UNL A   1      47.729  26.393  26.117  1.00  0.00     0.131 A 
ATOM     70  C   UNL A   1      48.043  27.300  23.527  1.00  0.00     0.055 A 
ATOM     71  C   UNL A   1      48.829  25.972  25.370  1.00  0.00     0.041 A 
ATOM     72  F   UNL A   1      47.604  25.916  27.366  1.00  0.00    -0.206 F 
ATOM     73  C   UNL A   1      48.986  26.419  24.062  1.00  0.00     0.022 A 
BRANCH  70  74
ATOM     74  S   UNL A   1      48.171  27.816  21.792  1.00  0.00     0.124 S 
ATOM     75  O   UNL A   1      46.916  28.533  21.601  1.00  0.00    -0.237 OA
ATOM     76  O   UNL A   1      49.380  28.633  21.807  1.00  0.00    -0.237 OA
ATOM     77  O   UNL A   1      48.285  26.553  21.068  1.00  0.00    -0.744 OA
ENDBRANCH  70  74
ENDBRANCH  43  67
BRANCH  55  78
ATOM     78  C   UNL A   1      45.279  33.137  29.108  1.00  0.00     0.023 A 
ATOM     79  C   UNL A   1      45.307  34.186  28.173  1.00  0.00     0.031 A 
ATOM     80  C   UNL A   1      46.028  33.280  30.289  1.00  0.00     0.131 A 
ATOM     81  C   UNL A   1      46.112  35.311  28.410  1.00  0.00     0.055 A 
ATOM     82  C   UNL A   1      46.786  34.424  30.544  1.00  0.00     0.041 A 
ATOM     83  F   UNL A   1      46.038  32.307  31.213  1.00  0.00    -0.206 F 
ATOM     84  C   UNL A   1      46.841  35.443  29.596  1.00  0.00     0.022 A 
BRANCH  81  85
ATOM     85  S   UNL A   1      46.265  36.566  27.109  1.00  0.00     0.124 S 
ATOM     86  O   UNL A   1      45.078  37.384  27.334  1.00  0.00    -0.237 OA
ATOM     87  O   UNL A   1      47.542  37.196  27.431  1.00  0.00    -0.237 OA
ATOM     88  O   UNL A   1      46.256  35.785  25.874  1.00  0.00    -0.744 OA
ENDBRANCH  81  85
ENDBRANCH  55  78
ENDBRANCH  29  30
ENDBRANCH  22  24
ENDBRANCH  21  22
ENDBRANCH  20  21
ENDBRANCH   1  20
TORSDOF 19
ENDMDL
MODEL 2
REMARK VINA RESULT:     -10.7      1.440      2.159
REMARK SMILES CC(C)(C)OC(=O)CSc1ccnc(C(=O)OCCOC(=O)c2ccc(-c3c4nc(c(-c5cc(S(=O)(=O)[O-])ccc5F)c5ccc([nH]5)c(-c5cc(S(=O)(=O)[O-])ccc5F)c5nc(c(-c6cc(S(=O)(=O)[O-])ccc6F)c6ccc3[nH]6)C=C5)C=C4)cc2)c1
REMARK SMILES IDX 18 1 17 2 15 3 16 4 14 5 10 6 11 7 86 8 12 9 13 10 9 11 8 12
REMARK SMILES IDX 6 13 7 14 5 15 2 16 1 17 3 18 4 19 19 20 20 21 21 22 22 23
REMARK SMILES IDX 23 24 24 25 85 26 25 27 84 28 26 29 27 30 28 31 78 32 29 33
REMARK SMILES IDX 83 34 77 35 79 36 30 37 82 38 76 39 75 40 31 42 63 43 43 44
REMARK SMILES IDX 62 45 44 46 47 47 61 48 80 49 45 50 46 51 60 53 81 54 48 55
REMARK SMILES IDX 32 56 33 57 41 58 34 59 40 60 42 61 39 62 35 63 36 64 37 65
REMARK SMILES IDX 38 66 64 67 65 68 73 69 66 70 72 71 74 72 71 73 67 74 68 75
REMARK SMILES IDX 69 76 70 77 49 78 50 79 58 80 51 81 57 82 59 83 56 84 52 85
REMARK SMILES IDX 53 86 54 87 55 88
REMARK H PARENT 79 41 47 52
REMARK Flexibility Score: inf
ROOT
ATOM      1  C   UNL A   1      34.963  20.850  25.501  1.00  0.00     0.275 C 
ENDROOT
BRANCH   1   2
ATOM      2  O   UNL A   1      34.007  20.984  24.428  1.00  0.00    -0.457 OA
BRANCH   2   3
ATOM      3  C   UNL A   1      32.699  20.968  24.804  1.00  0.00     0.357 C 
ATOM      4  O   UNL A   1      32.045  19.966  25.054  1.00  0.00    -0.244 OA
BRANCH   3   5
ATOM      5  C   UNL A   1      32.185  22.360  24.971  1.00  0.00     0.149 A 
ATOM      6  C   UNL A   1      31.642  24.549  24.183  1.00  0.00     0.012 A 
ATOM      7  C   UNL A   1      31.393  24.919  25.504  1.00  0.00     0.035 A 
ATOM      8  C   UNL A   1      32.105  23.256  23.916  1.00  0.00     0.051 A 
ATOM      9  C   UNL A   1      31.453  23.950  26.482  1.00  0.00     0.113 A 
ATOM     10  N   UNL A   1      31.792  22.676  26.229  1.00  0.00    -0.249 NA
BRANCH   6  11
ATOM     11  S   UNL A   1      31.369  25.634  22.786  1.00  0.00    -0.114 SA
BRANCH  11  12
ATOM     12  C   UNL A   1      30.526  27.082  23.518  1.00  0.00     0.197 C 
BRANCH  12  13
ATOM     13  C   UNL A   1      30.669  28.363  22.729  1.00  0.00     0.316 C 
ATOM     14  O   UNL A   1      31.685  29.048  22.773  1.00  0.00    -0.251 OA
BRANCH  13  15
ATOM     15  O   UNL A   1      29.583  28.619  21.955  1.00  0.00    -0.459 OA
BRANCH  15  16
ATOM     16  C   UNL A   1      28.577  29.571  22.398  1.00  0.00     0.104 C 
ATOM     17  C   UNL A   1      29.266  30.380  23.507  1.00  0.00     0.056 C 
ATOM     18  C   UNL A   1      27.354  28.867  23.002  1.00  0.00     0.056 C 
ATOM     19  C   UNL A   1      28.182  30.527  21.266  1.00  0.00     0.056 C 
ENDBRANCH  15  16
ENDBRANCH  13  15
ENDBRANCH  12  13
ENDBRANCH  11  12
ENDBRANCH   6  11
ENDBRANCH   3   5
ENDBRANCH   2   3
ENDBRANCH   1   2
BRANCH   1  20
ATOM     20  C   UNL A   1      36.356  20.474  24.983  1.00  0.00     0.275 C 
BRANCH  20  21
ATOM     21  O   UNL A   1      37.311  21.535  25.178  1.00  0.00    -0.458 OA
BRANCH  21  22
ATOM     22  C   UNL A   1      38.496  21.145  25.707  1.00  0.00     0.338 C 
ATOM     23  O   UNL A   1      39.002  20.039  25.627  1.00  0.00    -0.246 OA
BRANCH  22  24
ATOM     24  C   UNL A   1      39.178  22.298  26.318  1.00  0.00     0.060 A 
ATOM     25  C   UNL A   1      38.678  23.561  26.022  1.00  0.00     0.016 A 
ATOM     26  C   UNL A   1      40.348  22.169  27.067  1.00  0.00     0.016 A 
ATOM     27  C   UNL A   1      39.347  24.709  26.431  1.00  0.00     0.010 A 
ATOM     28  C   UNL A   1      41.008  23.325  27.510  1.00  0.00     0.010 A 
ATOM     29  C   UNL A   1      40.523  24.605  27.179  1.00  0.00    -0.014 A 
BRANCH  29  30
ATOM     30  C   UNL A   1      41.252  25.846  27.552  1.00  0.00     0.031 A 
ATOM     31  C   UNL A   1      40.579  26.885  28.404  1.00  0.00     0.074 A 
ATOM     32  C   UNL A   1      42.537  26.010  27.179  1.00  0.00     0.049 A 
ATOM     33  N   UNL A   1      41.011  28.063  28.775  1.00  0.00    -0.248 NA
ATOM     34  C   UNL A   1      39.236  26.553  28.901  1.00  0.00     0.031 C 
ATOM     35  C   UNL A   1      43.320  25.044  26.407  1.00  0.00     0.029 A 
ATOM     36  N   UNL A   1      43.412  27.044  27.404  1.00  0.00    -0.354 N 
ATOM     37  C   UNL A   1      39.984  28.628  29.524  1.00  0.00     0.074 A 
ATOM     38  C   UNL A   1      38.899  27.667  29.533  1.00  0.00     0.031 C 
ATOM     39  C   UNL A   1      44.562  25.523  26.237  1.00  0.00     0.029 A 
ATOM     40  C   UNL A   1      44.646  26.855  26.827  1.00  0.00     0.049 A 
ATOM     41  H   UNL A   1      43.178  27.844  27.929  1.00  0.00     0.167 HD
ATOM     42  C   UNL A   1      39.953  29.834  30.147  1.00  0.00     0.034 A 
ATOM     43  C   UNL A   1      45.712  27.675  26.749  1.00  0.00     0.034 A 
ATOM     44  C   UNL A   1      41.050  30.772  30.137  1.00  0.00     0.049 A 
ATOM     45  C   UNL A   1      45.631  29.037  27.386  1.00  0.00     0.074 A 
ATOM     46  C   UNL A   1      41.128  32.018  30.737  1.00  0.00     0.029 A 
ATOM     47  N   UNL A   1      42.265  30.570  29.493  1.00  0.00    -0.354 N 
ATOM     48  N   UNL A   1      44.637  29.579  28.052  1.00  0.00    -0.248 NA
ATOM     49  C   UNL A   1      46.811  29.900  27.256  1.00  0.00     0.031 C 
ATOM     50  C   UNL A   1      42.360  32.592  30.403  1.00  0.00     0.029 A 
ATOM     51  C   UNL A   1      43.084  31.677  29.655  1.00  0.00     0.049 A 
ATOM     52  H   UNL A   1      42.509  29.757  28.994  1.00  0.00     0.167 HD
ATOM     53  C   UNL A   1      45.080  30.841  28.435  1.00  0.00     0.074 A 
ATOM     54  C   UNL A   1      46.435  30.973  27.939  1.00  0.00     0.031 C 
ATOM     55  C   UNL A   1      44.426  31.804  29.134  1.00  0.00     0.034 A 
BRANCH  42  56
ATOM     56  C   UNL A   1      38.661  30.223  30.828  1.00  0.00     0.023 A 
ATOM     57  C   UNL A   1      37.623  30.879  30.142  1.00  0.00     0.031 A 
ATOM     58  C   UNL A   1      38.489  29.980  32.204  1.00  0.00     0.131 A 
ATOM     59  C   UNL A   1      36.500  31.340  30.848  1.00  0.00     0.055 A 
ATOM     60  C   UNL A   1      37.333  30.370  32.883  1.00  0.00     0.041 A 
ATOM     61  F   UNL A   1      39.454  29.377  32.916  1.00  0.00    -0.206 F 
ATOM     62  C   UNL A   1      36.338  31.070  32.209  1.00  0.00     0.022 A 
BRANCH  59  63
ATOM     63  S   UNL A   1      35.329  32.435  29.997  1.00  0.00     0.124 S 
ATOM     64  O   UNL A   1      36.187  33.560  29.633  1.00  0.00    -0.237 OA
ATOM     65  O   UNL A   1      34.863  31.602  28.894  1.00  0.00    -0.237 OA
ATOM     66  O   UNL A   1      34.330  32.731  31.022  1.00  0.00    -0.744 OA
ENDBRANCH  59  63
ENDBRANCH  42  56
BRANCH  43  67
ATOM     67  C   UNL A   1      46.922  27.259  25.984  1.00  0.00     0.023 A 
ATOM     68  C   UNL A   1      47.126  27.667  24.658  1.00  0.00     0.031 A 
ATOM     69  C   UNL A   1      47.886  26.418  26.574  1.00  0.00     0.131 A 
ATOM     70  C   UNL A   1      48.254  27.212  23.954  1.00  0.00     0.055 A 
ATOM     71  C   UNL A   1      49.028  26.009  25.887  1.00  0.00     0.041 A 
ATOM     72  F   UNL A   1      47.736  25.997  27.840  1.00  0.00    -0.206 F 
ATOM     73  C   UNL A   1      49.213  26.399  24.564  1.00  0.00     0.022 A 
BRANCH  70  74
ATOM     74  S   UNL A   1      48.422  27.649  22.201  1.00  0.00     0.124 S 
ATOM     75  O   UNL A   1      47.206  28.417  21.968  1.00  0.00    -0.237 OA
ATOM     76  O   UNL A   1      49.670  28.405  22.195  1.00  0.00    -0.237 OA
ATOM     77  O   UNL A   1      48.480  26.352  21.531  1.00  0.00    -0.744 OA
ENDBRANCH  70  74
ENDBRANCH  43  67
BRANCH  55  78
ATOM     78  C   UNL A   1      45.194  33.069  29.429  1.00  0.00     0.023 A 
ATOM     79  C   UNL A   1      45.080  34.209  28.615  1.00  0.00     0.031 A 
ATOM     80  C   UNL A   1      46.067  33.124  30.530  1.00  0.00     0.131 A 
ATOM     81  C   UNL A   1      45.866  35.340  28.884  1.00  0.00     0.055 A 
ATOM     82  C   UNL A   1      46.807  34.269  30.824  1.00  0.00     0.041 A 
ATOM     83  F   UNL A   1      46.215  32.061  31.338  1.00  0.00    -0.206 F 
ATOM     84  C   UNL A   1      46.719  35.383  29.991  1.00  0.00     0.022 A 
BRANCH  81  85
ATOM     85  S   UNL A   1      45.827  36.729  27.718  1.00  0.00     0.124 S 
ATOM     86  O   UNL A   1      45.814  37.879  28.615  1.00  0.00    -0.237 OA
ATOM     87  O   UNL A   1      47.056  36.531  26.955  1.00  0.00    -0.237 OA
ATOM     88  O   UNL A   1      44.592  36.513  26.967  1.00  0.00    -0.744 OA
ENDBRANCH  81  85
ENDBRANCH  55  78
ENDBRANCH  29  30
ENDBRANCH  22  24
ENDBRANCH  21  22
ENDBRANCH  20  21
ENDBRANCH   1  20
TORSDOF 19
ENDMDL
MODEL 3
REMARK VINA RESULT:     -10.5      1.817      2.485
REMARK SMILES CC(C)(C)OC(=O)CSc1ccnc(C(=O)OCCOC(=O)c2ccc(-c3c4nc(c(-c5cc(S(=O)(=O)[O-])ccc5F)c5ccc([nH]5)c(-c5cc(S(=O)(=O)[O-])ccc5F)c5nc(c(-c6cc(S(=O)(=O)[O-])ccc6F)c6ccc3[nH]6)C=C5)C=C4)cc2)c1
REMARK SMILES IDX 18 1 17 2 15 3 16 4 14 5 10 6 11 7 86 8 12 9 13 10 9 11 8 12
REMARK SMILES IDX 6 13 7 14 5 15 2 16 1 17 3 18 4 19 19 20 20 21 21 22 22 23
REMARK SMILES IDX 23 24 24 25 85 26 25 27 84 28 26 29 27 30 28 31 78 32 29 33
REMARK SMILES IDX 83 34 77 35 79 36 30 37 82 38 76 39 75 40 31 42 63 43 43 44
REMARK SMILES IDX 62 45 44 46 47 47 61 48 80 49 45 50 46 51 60 53 81 54 48 55
REMARK SMILES IDX 32 56 33 57 41 58 34 59 40 60 42 61 39 62 35 63 36 64 37 65
REMARK SMILES IDX 38 66 64 67 65 68 73 69 66 70 72 71 74 72 71 73 67 74 68 75
REMARK SMILES IDX 69 76 70 77 49 78 50 79 58 80 51 81 57 82 59 83 56 84 52 85
REMARK SMILES IDX 53 86 54 87 55 88
REMARK H PARENT 79 41 47 52
REMARK Flexibility Score: inf
ROOT
ATOM      1  C   UNL A   1      36.197  22.243  23.675  1.00  0.00     0.275 C 
ENDROOT
BRANCH   1   2
ATOM      2  O   UNL A   1      35.255  22.993  24.469  1.00  0.00    -0.457 OA
BRANCH   2   3
ATOM      3  C   UNL A   1      33.947  22.653  24.302  1.00  0.00     0.357 C 
ATOM      4  O   UNL A   1      33.416  21.641  24.734  1.00  0.00    -0.244 OA
BRANCH   3   5
ATOM      5  C   UNL A   1      33.210  23.742  23.593  1.00  0.00     0.149 A 
ATOM      6  C   UNL A   1      31.450  25.342  23.372  1.00  0.00     0.012 A 
ATOM      7  C   UNL A   1      31.887  25.583  22.071  1.00  0.00     0.035 A 
ATOM      8  C   UNL A   1      32.090  24.356  24.131  1.00  0.00     0.051 A 
ATOM      9  C   UNL A   1      33.037  24.960  21.635  1.00  0.00     0.113 A 
ATOM     10  N   UNL A   1      33.728  24.090  22.390  1.00  0.00    -0.249 NA
BRANCH   6  11
ATOM     11  S   UNL A   1      30.122  26.254  24.152  1.00  0.00    -0.114 SA
BRANCH  11  12
ATOM     12  C   UNL A   1      30.688  27.991  24.083  1.00  0.00     0.197 C 
BRANCH  12  13
ATOM     13  C   UNL A   1      30.185  28.772  22.891  1.00  0.00     0.316 C 
ATOM     14  O   UNL A   1      30.349  28.385  21.739  1.00  0.00    -0.251 OA
BRANCH  13  15
ATOM     15  O   UNL A   1      29.510  29.893  23.254  1.00  0.00    -0.459 OA
BRANCH  15  16
ATOM     16  C   UNL A   1      28.146  30.107  22.797  1.00  0.00     0.104 C 
ATOM     17  C   UNL A   1      27.652  31.321  23.597  1.00  0.00     0.056 C 
ATOM     18  C   UNL A   1      27.241  28.911  23.124  1.00  0.00     0.056 C 
ATOM     19  C   UNL A   1      28.110  30.456  21.304  1.00  0.00     0.056 C 
ENDBRANCH  15  16
ENDBRANCH  13  15
ENDBRANCH  12  13
ENDBRANCH  11  12
ENDBRANCH   6  11
ENDBRANCH   3   5
ENDBRANCH   2   3
ENDBRANCH   1   2
BRANCH   1  20
ATOM     20  C   UNL A   1      36.929  21.182  24.505  1.00  0.00     0.275 C 
BRANCH  20  21
ATOM     21  O   UNL A   1      37.393  21.704  25.765  1.00  0.00    -0.458 OA
BRANCH  21  22
ATOM     22  C   UNL A   1      38.694  21.450  26.043  1.00  0.00     0.338 C 
ATOM     23  O   UNL A   1      39.306  20.424  25.798  1.00  0.00    -0.246 OA
BRANCH  22  24
ATOM     24  C   UNL A   1      39.337  22.653  26.597  1.00  0.00     0.060 A 
ATOM     25  C   UNL A   1      38.901  23.883  26.115  1.00  0.00     0.016 A 
ATOM     26  C   UNL A   1      40.417  22.592  27.476  1.00  0.00     0.016 A 
ATOM     27  C   UNL A   1      39.551  25.060  26.467  1.00  0.00     0.010 A 
ATOM     28  C   UNL A   1      41.055  23.782  27.860  1.00  0.00     0.010 A 
ATOM     29  C   UNL A   1      40.638  25.024  27.343  1.00  0.00    -0.014 A 
BRANCH  29  30
ATOM     30  C   UNL A   1      41.354  26.289  27.658  1.00  0.00     0.031 A 
ATOM     31  C   UNL A   1      40.666  27.364  28.451  1.00  0.00     0.074 A 
ATOM     32  C   UNL A   1      42.640  26.445  27.285  1.00  0.00     0.049 A 
ATOM     33  N   UNL A   1      41.085  28.563  28.763  1.00  0.00    -0.248 NA
ATOM     34  C   UNL A   1      39.322  27.046  28.955  1.00  0.00     0.031 C 
ATOM     35  C   UNL A   1      43.437  25.448  26.570  1.00  0.00     0.029 A 
ATOM     36  N   UNL A   1      43.504  27.497  27.463  1.00  0.00    -0.354 N 
ATOM     37  C   UNL A   1      40.048  29.157  29.475  1.00  0.00     0.074 A 
ATOM     38  C   UNL A   1      38.971  28.188  29.526  1.00  0.00     0.031 C 
ATOM     39  C   UNL A   1      44.677  25.929  26.384  1.00  0.00     0.029 A 
ATOM     40  C   UNL A   1      44.745  27.290  26.905  1.00  0.00     0.049 A 
ATOM     41  H   UNL A   1      43.260  28.321  27.944  1.00  0.00     0.167 HD
ATOM     42  C   UNL A   1      40.001  30.393  30.035  1.00  0.00     0.034 A 
ATOM     43  C   UNL A   1      45.804  28.115  26.792  1.00  0.00     0.034 A 
ATOM     44  C   UNL A   1      41.091  31.339  29.985  1.00  0.00     0.049 A 
ATOM     45  C   UNL A   1      45.706  29.507  27.358  1.00  0.00     0.074 A 
ATOM     46  C   UNL A   1      41.153  32.615  30.520  1.00  0.00     0.029 A 
ATOM     47  N   UNL A   1      42.312  31.115  29.360  1.00  0.00    -0.354 N 
ATOM     48  N   UNL A   1      44.703  30.072  27.989  1.00  0.00    -0.248 NA
ATOM     49  C   UNL A   1      46.880  30.372  27.193  1.00  0.00     0.031 C 
ATOM     50  C   UNL A   1      42.383  33.182  30.165  1.00  0.00     0.029 A 
ATOM     51  C   UNL A   1      43.120  32.237  29.470  1.00  0.00     0.049 A 
ATOM     52  H   UNL A   1      42.567  30.280  28.905  1.00  0.00     0.167 HD
ATOM     53  C   UNL A   1      45.132  31.357  28.309  1.00  0.00     0.074 A 
ATOM     54  C   UNL A   1      46.490  31.475  27.816  1.00  0.00     0.031 C 
ATOM     55  C   UNL A   1      44.465  32.349  28.953  1.00  0.00     0.034 A 
BRANCH  42  56
ATOM     56  C   UNL A   1      38.701  30.805  30.686  1.00  0.00     0.023 A 
ATOM     57  C   UNL A   1      37.655  31.396  29.956  1.00  0.00     0.031 A 
ATOM     58  C   UNL A   1      38.529  30.652  32.074  1.00  0.00     0.131 A 
ATOM     59  C   UNL A   1      36.522  31.884  30.626  1.00  0.00     0.055 A 
ATOM     60  C   UNL A   1      37.365  31.067  32.723  1.00  0.00     0.041 A 
ATOM     61  F   UNL A   1      39.502  30.115  32.828  1.00  0.00    -0.206 F 
ATOM     62  C   UNL A   1      36.360  31.703  32.003  1.00  0.00     0.022 A 
BRANCH  59  63
ATOM     63  S   UNL A   1      35.335  32.899  29.703  1.00  0.00     0.124 S 
ATOM     64  O   UNL A   1      34.288  33.112  30.700  1.00  0.00    -0.237 OA
ATOM     65  O   UNL A   1      36.129  34.070  29.348  1.00  0.00    -0.237 OA
ATOM     66  O   UNL A   1      34.950  32.043  28.582  1.00  0.00    -0.744 OA
ENDBRANCH  59  63
ENDBRANCH  42  56
BRANCH  43  67
ATOM     67  C   UNL A   1      47.024  27.670  26.059  1.00  0.00     0.023 A 
ATOM     68  C   UNL A   1      47.183  27.917  24.687  1.00  0.00     0.031 A 
ATOM     69  C   UNL A   1      48.042  26.964  26.727  1.00  0.00     0.131 A 
ATOM     70  C   UNL A   1      48.323  27.438  24.021  1.00  0.00     0.055 A 
ATOM     71  C   UNL A   1      49.195  26.533  26.071  1.00  0.00     0.041 A 
ATOM     72  F   UNL A   1      47.937  26.699  28.039  1.00  0.00    -0.206 F 
ATOM     73  C   UNL A   1      49.336  26.761  24.706  1.00  0.00     0.022 A 
BRANCH  70  74
ATOM     74  S   UNL A   1      48.438  27.657  22.223  1.00  0.00     0.124 S 
ATOM     75  O   UNL A   1      48.647  26.287  21.769  1.00  0.00    -0.237 OA
ATOM     76  O   UNL A   1      47.143  28.247  21.906  1.00  0.00    -0.237 OA
ATOM     77  O   UNL A   1      49.583  28.549  22.061  1.00  0.00    -0.744 OA
ENDBRANCH  70  74
ENDBRANCH  43  67
BRANCH  55  78
ATOM     78  C   UNL A   1      45.220  33.633  29.188  1.00  0.00     0.023 A 
ATOM     79  C   UNL A   1      45.991  33.836  30.346  1.00  0.00     0.031 A 
ATOM     80  C   UNL A   1      45.151  34.675  28.246  1.00  0.00     0.131 A 
ATOM     81  C   UNL A   1      46.619  35.073  30.558  1.00  0.00     0.055 A 
ATOM     82  C   UNL A   1      45.821  35.883  28.437  1.00  0.00     0.041 A 
ATOM     83  F   UNL A   1      44.427  34.534  27.124  1.00  0.00    -0.206 F 
ATOM     84  C   UNL A   1      46.551  36.093  29.605  1.00  0.00     0.022 A 
BRANCH  81  85
ATOM     85  S   UNL A   1      47.460  35.366  32.138  1.00  0.00     0.124 S 
ATOM     86  O   UNL A   1      48.866  35.287  31.755  1.00  0.00    -0.237 OA
ATOM     87  O   UNL A   1      46.975  36.692  32.509  1.00  0.00    -0.237 OA
ATOM     88  O   UNL A   1      46.986  34.276  32.988  1.00  0.00    -0.744 OA
ENDBRANCH  81  85
ENDBRANCH  55  78
ENDBRANCH  29  30
ENDBRANCH  22  24
ENDBRANCH  21  22
ENDBRANCH  20  21
ENDBRANCH   1  20
TORSDOF 19
ENDMDL
