MODEL 1
REMARK VINA RESULT:      -9.2      0.000      0.000
REMARK SMILES O=C(Cc1ccc(-c2ccn(C(F)F)c(=O)c2)cc1)OCCOC(=O)c1ccc(-c2c3nc(c(-c4cc(S(=O)(=O)[O-])ccc4F)c4ccc([nH]4)c(-c4cc(S(=O)(=O)[O-])ccc4F)c4nc(c(-c5cc(S(=O)(=O)[O-])ccc5F)c5ccc2[nH]5)C=C4)C=C3)cc1
REMARK SMILES IDX 21 1 20 2 2 3 1 4 3 5 4 6 5 7 19 8 6 9 18 10 7 11 8 12 9 13
REMARK SMILES IDX 17 14 10 15 15 16 11 17 16 18 12 19 13 20 14 21 22 22 23 23
REMARK SMILES IDX 24 24 25 25 26 26 27 27 88 28 28 29 87 30 29 31 30 32 31 33
REMARK SMILES IDX 81 34 32 35 86 36 80 37 82 38 33 39 85 40 79 41 78 42 34 44
REMARK SMILES IDX 66 45 46 46 65 47 47 48 50 49 64 50 83 51 48 52 49 53 63 55
REMARK SMILES IDX 84 56 51 57 35 58 36 59 44 60 37 61 43 62 45 63 42 64 38 65
REMARK SMILES IDX 39 66 40 67 41 68 67 69 68 70 76 71 69 72 75 73 77 74 74 75
REMARK SMILES IDX 70 76 71 77 72 78 73 79 52 80 53 81 61 82 54 83 60 84 62 85
REMARK SMILES IDX 59 86 55 87 56 88 57 89 58 90
REMARK H PARENT 82 43 50 54
REMARK Flexibility Score: inf
ROOT
ATOM      1  C   UNL A   1      33.329  36.689  31.679  1.00  0.00     0.274 C 
ENDROOT
BRANCH   1   2
ATOM      2  O   UNL A   1      33.598  35.572  32.556  1.00  0.00    -0.462 OA
BRANCH   2   3
ATOM      3  C   UNL A   1      34.799  35.260  33.097  1.00  0.00     0.310 C 
ATOM      4  O   UNL A   1      35.830  35.700  32.592  1.00  0.00    -0.252 OA
BRANCH   3   5
ATOM      5  C   UNL A   1      34.850  34.395  34.332  1.00  0.00     0.158 C 
BRANCH   5   6
ATOM      6  C   UNL A   1      35.984  33.405  34.422  1.00  0.00    -0.037 A 
ATOM      7  C   UNL A   1      37.037  33.548  35.330  1.00  0.00     0.005 A 
ATOM      8  C   UNL A   1      35.997  32.326  33.523  1.00  0.00     0.005 A 
ATOM      9  C   UNL A   1      38.068  32.608  35.364  1.00  0.00     0.009 A 
ATOM     10  C   UNL A   1      37.029  31.389  33.554  1.00  0.00     0.009 A 
ATOM     11  C   UNL A   1      38.066  31.522  34.480  1.00  0.00    -0.018 A 
BRANCH  11  12
ATOM     12  C   UNL A   1      39.173  30.554  34.490  1.00  0.00    -0.011 A 
ATOM     13  C   UNL A   1      39.434  29.669  33.374  1.00  0.00     0.027 A 
ATOM     14  C   UNL A   1      39.965  30.502  35.574  1.00  0.00     0.080 A 
ATOM     15  C   UNL A   1      40.464  28.817  33.414  1.00  0.00     0.095 A 
ATOM     16  C   UNL A   1      41.114  29.559  35.632  1.00  0.00     0.255 A 
ATOM     17  N   UNL A   1      41.297  28.759  34.515  1.00  0.00    -0.258 N 
ATOM     18  O   UNL A   1      41.816  29.554  36.639  1.00  0.00    -0.269 OA
BRANCH  17  19
ATOM     19  C   UNL A   1      42.410  27.847  34.538  1.00  0.00     0.451 C 
ATOM     20  F   UNL A   1      42.585  27.262  33.327  1.00  0.00    -0.185 F 
ATOM     21  F   UNL A   1      43.561  28.488  34.861  1.00  0.00    -0.185 F 
ENDBRANCH  17  19
ENDBRANCH  11  12
ENDBRANCH   5   6
ENDBRANCH   3   5
ENDBRANCH   2   3
ENDBRANCH   1   2
BRANCH   1  22
ATOM     22  C   UNL A   1      32.950  36.217  30.276  1.00  0.00     0.275 C 
BRANCH  22  23
ATOM     23  O   UNL A   1      32.903  34.780  30.239  1.00  0.00    -0.458 OA
BRANCH  23  24
ATOM     24  C   UNL A   1      33.298  34.206  29.074  1.00  0.00     0.338 C 
ATOM     25  O   UNL A   1      32.733  34.294  27.998  1.00  0.00    -0.246 OA
BRANCH  24  26
ATOM     26  C   UNL A   1      34.655  33.639  29.256  1.00  0.00     0.060 A 
ATOM     27  C   UNL A   1      34.775  32.464  30.009  1.00  0.00     0.016 A 
ATOM     28  C   UNL A   1      35.785  34.201  28.649  1.00  0.00     0.016 A 
ATOM     29  C   UNL A   1      36.023  31.863  30.174  1.00  0.00     0.010 A 
ATOM     30  C   UNL A   1      37.036  33.600  28.820  1.00  0.00     0.010 A 
ATOM     31  C   UNL A   1      37.165  32.438  29.600  1.00  0.00    -0.014 A 
BRANCH  31  32
ATOM     32  C   UNL A   1      38.506  31.902  29.942  1.00  0.00     0.031 A 
ATOM     33  C   UNL A   1      39.294  32.575  31.032  1.00  0.00     0.074 A 
ATOM     34  C   UNL A   1      39.001  30.816  29.319  1.00  0.00     0.049 A 
ATOM     35  N   UNL A   1      40.462  32.258  31.528  1.00  0.00    -0.248 NA
ATOM     36  C   UNL A   1      38.679  33.764  31.643  1.00  0.00     0.031 C 
ATOM     37  C   UNL A   1      38.328  30.069  28.257  1.00  0.00     0.029 A 
ATOM     38  N   UNL A   1      40.191  30.155  29.492  1.00  0.00    -0.354 N 
ATOM     39  C   UNL A   1      40.712  33.191  32.529  1.00  0.00     0.074 A 
ATOM     40  C   UNL A   1      39.600  34.119  32.526  1.00  0.00     0.031 C 
ATOM     41  C   UNL A   1      39.121  29.056  27.867  1.00  0.00     0.029 A 
ATOM     42  C   UNL A   1      40.363  29.090  28.638  1.00  0.00     0.049 A 
ATOM     43  H   UNL A   1      40.859  30.417  30.166  1.00  0.00     0.167 HD
ATOM     44  C   UNL A   1      41.759  33.258  33.386  1.00  0.00     0.034 A 
ATOM     45  C   UNL A   1      41.407  28.248  28.492  1.00  0.00     0.034 A 
ATOM     46  C   UNL A   1      42.880  32.352  33.362  1.00  0.00     0.049 A 
ATOM     47  C   UNL A   1      42.604  28.396  29.405  1.00  0.00     0.074 A 
ATOM     48  C   UNL A   1      43.995  32.335  34.183  1.00  0.00     0.029 A 
ATOM     49  N   UNL A   1      43.038  31.308  32.461  1.00  0.00    -0.354 N 
ATOM     50  N   UNL A   1      42.807  29.260  30.372  1.00  0.00    -0.248 NA
ATOM     51  C   UNL A   1      43.705  27.440  29.213  1.00  0.00     0.031 C 
ATOM     52  C   UNL A   1      44.853  31.324  33.739  1.00  0.00     0.029 A 
ATOM     53  C   UNL A   1      44.244  30.661  32.686  1.00  0.00     0.049 A 
ATOM     54  H   UNL A   1      42.389  31.063  31.762  1.00  0.00     0.167 HD
ATOM     55  C   UNL A   1      44.044  28.927  30.924  1.00  0.00     0.074 A 
ATOM     56  C   UNL A   1      44.526  27.774  30.197  1.00  0.00     0.031 C 
ATOM     57  C   UNL A   1      44.719  29.519  31.944  1.00  0.00     0.034 A 
BRANCH  44  58
ATOM     58  C   UNL A   1      41.747  34.374  34.399  1.00  0.00     0.023 A 
ATOM     59  C   UNL A   1      41.256  34.175  35.701  1.00  0.00     0.031 A 
ATOM     60  C   UNL A   1      42.209  35.655  34.054  1.00  0.00     0.131 A 
ATOM     61  C   UNL A   1      41.184  35.254  36.593  1.00  0.00     0.055 A 
ATOM     62  C   UNL A   1      42.199  36.709  34.970  1.00  0.00     0.041 A 
ATOM     63  F   UNL A   1      42.664  35.908  32.818  1.00  0.00    -0.206 F 
ATOM     64  C   UNL A   1      41.675  36.514  36.245  1.00  0.00     0.022 A 
BRANCH  61  65
ATOM     65  S   UNL A   1      40.333  35.015  38.177  1.00  0.00     0.124 S 
ATOM     66  O   UNL A   1      38.932  35.059  37.767  1.00  0.00    -0.237 OA
ATOM     67  O   UNL A   1      40.832  33.716  38.612  1.00  0.00    -0.237 OA
ATOM     68  O   UNL A   1      40.777  36.155  38.979  1.00  0.00    -0.744 OA
ENDBRANCH  61  65
ENDBRANCH  44  58
BRANCH  45  69
ATOM     69  C   UNL A   1      41.406  27.205  27.425  1.00  0.00     0.023 A 
ATOM     70  C   UNL A   1      41.115  25.863  27.716  1.00  0.00     0.031 A 
ATOM     71  C   UNL A   1      41.795  27.525  26.111  1.00  0.00     0.131 A 
ATOM     72  C   UNL A   1      41.283  24.880  26.727  1.00  0.00     0.055 A 
ATOM     73  C   UNL A   1      41.907  26.551  25.118  1.00  0.00     0.041 A 
ATOM     74  F   UNL A   1      42.083  28.792  25.776  1.00  0.00    -0.206 F 
ATOM     75  C   UNL A   1      41.668  25.216  25.428  1.00  0.00     0.022 A 
BRANCH  72  76
ATOM     76  S   UNL A   1      41.104  23.136  27.197  1.00  0.00     0.124 S 
ATOM     77  O   UNL A   1      41.840  22.464  26.133  1.00  0.00    -0.237 OA
ATOM     78  O   UNL A   1      41.723  23.116  28.519  1.00  0.00    -0.237 OA
ATOM     79  O   UNL A   1      39.657  22.930  27.185  1.00  0.00    -0.744 OA
ENDBRANCH  72  76
ENDBRANCH  45  69
BRANCH  57  80
ATOM     80  C   UNL A   1      46.035  28.896  32.348  1.00  0.00     0.023 A 
ATOM     81  C   UNL A   1      46.094  27.780  33.202  1.00  0.00     0.031 A 
ATOM     82  C   UNL A   1      47.248  29.444  31.893  1.00  0.00     0.131 A 
ATOM     83  C   UNL A   1      47.337  27.288  33.626  1.00  0.00     0.055 A 
ATOM     84  C   UNL A   1      48.482  28.911  32.270  1.00  0.00     0.041 A 
ATOM     85  F   UNL A   1      47.252  30.509  31.076  1.00  0.00    -0.206 F 
ATOM     86  C   UNL A   1      48.532  27.838  33.153  1.00  0.00     0.022 A 
BRANCH  83  87
ATOM     87  S   UNL A   1      47.374  25.985  34.886  1.00  0.00     0.124 S 
ATOM     88  O   UNL A   1      47.612  24.790  34.082  1.00  0.00    -0.237 OA
ATOM     89  O   UNL A   1      48.480  26.407  35.739  1.00  0.00    -0.237 OA
ATOM     90  O   UNL A   1      46.052  26.064  35.503  1.00  0.00    -0.744 OA
ENDBRANCH  83  87
ENDBRANCH  57  80
ENDBRANCH  31  32
ENDBRANCH  24  26
ENDBRANCH  23  24
ENDBRANCH  22  23
ENDBRANCH   1  22
TORSDOF 17
ENDMDL
MODEL 2
REMARK VINA RESULT:      -8.6      5.928     11.863
REMARK SMILES O=C(Cc1ccc(-c2ccn(C(F)F)c(=O)c2)cc1)OCCOC(=O)c1ccc(-c2c3nc(c(-c4cc(S(=O)(=O)[O-])ccc4F)c4ccc([nH]4)c(-c4cc(S(=O)(=O)[O-])ccc4F)c4nc(c(-c5cc(S(=O)(=O)[O-])ccc5F)c5ccc2[nH]5)C=C4)C=C3)cc1
REMARK SMILES IDX 21 1 20 2 2 3 1 4 3 5 4 6 5 7 19 8 6 9 18 10 7 11 8 12 9 13
REMARK SMILES IDX 17 14 10 15 15 16 11 17 16 18 12 19 13 20 14 21 22 22 23 23
REMARK SMILES IDX 24 24 25 25 26 26 27 27 88 28 28 29 87 30 29 31 30 32 31 33
REMARK SMILES IDX 81 34 32 35 86 36 80 37 82 38 33 39 85 40 79 41 78 42 34 44
REMARK SMILES IDX 66 45 46 46 65 47 47 48 50 49 64 50 83 51 48 52 49 53 63 55
REMARK SMILES IDX 84 56 51 57 35 58 36 59 44 60 37 61 43 62 45 63 42 64 38 65
REMARK SMILES IDX 39 66 40 67 41 68 67 69 68 70 76 71 69 72 75 73 77 74 74 75
REMARK SMILES IDX 70 76 71 77 72 78 73 79 52 80 53 81 61 82 54 83 60 84 62 85
REMARK SMILES IDX 59 86 55 87 56 88 57 89 58 90
REMARK H PARENT 82 43 50 54
REMARK Flexibility Score: inf
ROOT
ATOM      1  C   UNL A   1      36.531  21.270  24.773  1.00  0.00     0.274 C 
ENDROOT
BRANCH   1   2
ATOM      2  O   UNL A   1      35.899  21.676  26.008  1.00  0.00    -0.462 OA
BRANCH   2   3
ATOM      3  C   UNL A   1      34.592  21.516  26.320  1.00  0.00     0.310 C 
ATOM      4  O   UNL A   1      33.972  20.550  25.878  1.00  0.00    -0.252 OA
BRANCH   3   5
ATOM      5  C   UNL A   1      33.922  22.515  27.230  1.00  0.00     0.158 C 
BRANCH   5   6
ATOM      6  C   UNL A   1      33.274  23.707  26.571  1.00  0.00    -0.037 A 
ATOM      7  C   UNL A   1      34.005  24.662  25.857  1.00  0.00     0.005 A 
ATOM      8  C   UNL A   1      31.890  23.881  26.725  1.00  0.00     0.005 A 
ATOM      9  C   UNL A   1      33.357  25.752  25.276  1.00  0.00     0.009 A 
ATOM     10  C   UNL A   1      31.242  24.972  26.149  1.00  0.00     0.009 A 
ATOM     11  C   UNL A   1      31.972  25.909  25.415  1.00  0.00    -0.018 A 
BRANCH  11  12
ATOM     12  C   UNL A   1      31.296  27.080  24.836  1.00  0.00    -0.011 A 
ATOM     13  C   UNL A   1      30.286  26.957  23.806  1.00  0.00     0.027 A 
ATOM     14  C   UNL A   1      31.632  28.299  25.289  1.00  0.00     0.080 A 
ATOM     15  C   UNL A   1      29.679  28.045  23.321  1.00  0.00     0.095 A 
ATOM     16  C   UNL A   1      30.966  29.519  24.758  1.00  0.00     0.255 A 
ATOM     17  N   UNL A   1      30.003  29.306  23.784  1.00  0.00    -0.258 N 
ATOM     18  O   UNL A   1      31.299  30.611  25.209  1.00  0.00    -0.269 OA
BRANCH  17  19
ATOM     19  C   UNL A   1      29.332  30.467  23.262  1.00  0.00     0.451 C 
ATOM     20  F   UNL A   1      29.621  30.648  21.949  1.00  0.00    -0.185 F 
ATOM     21  F   UNL A   1      27.986  30.349  23.380  1.00  0.00    -0.185 F 
ENDBRANCH  17  19
ENDBRANCH  11  12
ENDBRANCH   5   6
ENDBRANCH   3   5
ENDBRANCH   2   3
ENDBRANCH   1   2
BRANCH   1  22
ATOM     22  C   UNL A   1      37.921  20.687  25.024  1.00  0.00     0.275 C 
BRANCH  22  23
ATOM     23  O   UNL A   1      38.405  21.110  26.310  1.00  0.00    -0.458 OA
BRANCH  23  24
ATOM     24  C   UNL A   1      39.754  21.098  26.467  1.00  0.00     0.338 C 
ATOM     25  O   UNL A   1      40.515  20.223  26.095  1.00  0.00    -0.246 OA
BRANCH  24  26
ATOM     26  C   UNL A   1      40.189  22.426  26.957  1.00  0.00     0.060 A 
ATOM     27  C   UNL A   1      39.528  23.555  26.457  1.00  0.00     0.016 A 
ATOM     28  C   UNL A   1      41.177  22.571  27.939  1.00  0.00     0.016 A 
ATOM     29  C   UNL A   1      39.868  24.827  26.919  1.00  0.00     0.010 A 
ATOM     30  C   UNL A   1      41.520  23.847  28.397  1.00  0.00     0.010 A 
ATOM     31  C   UNL A   1      40.881  24.984  27.874  1.00  0.00    -0.014 A 
BRANCH  31  32
ATOM     32  C   UNL A   1      41.364  26.346  28.213  1.00  0.00     0.031 A 
ATOM     33  C   UNL A   1      42.776  26.719  27.853  1.00  0.00     0.074 A 
ATOM     34  C   UNL A   1      40.554  27.246  28.799  1.00  0.00     0.049 A 
ATOM     35  N   UNL A   1      43.400  27.857  28.011  1.00  0.00    -0.248 NA
ATOM     36  C   UNL A   1      43.592  25.663  27.232  1.00  0.00     0.031 C 
ATOM     37  C   UNL A   1      39.163  27.010  29.184  1.00  0.00     0.029 A 
ATOM     38  N   UNL A   1      40.789  28.546  29.174  1.00  0.00    -0.354 N 
ATOM     39  C   UNL A   1      44.672  27.666  27.484  1.00  0.00     0.074 A 
ATOM     40  C   UNL A   1      44.748  26.284  27.058  1.00  0.00     0.031 C 
ATOM     41  C   UNL A   1      38.671  28.126  29.749  1.00  0.00     0.029 A 
ATOM     42  C   UNL A   1      39.714  29.151  29.783  1.00  0.00     0.049 A 
ATOM     43  H   UNL A   1      41.648  29.003  29.021  1.00  0.00     0.167 HD
ATOM     44  C   UNL A   1      45.679  28.563  27.347  1.00  0.00     0.034 A 
ATOM     45  C   UNL A   1      39.591  30.386  30.311  1.00  0.00     0.034 A 
ATOM     46  C   UNL A   1      45.611  29.928  27.804  1.00  0.00     0.049 A 
ATOM     47  C   UNL A   1      40.759  31.343  30.222  1.00  0.00     0.074 A 
ATOM     48  C   UNL A   1      46.576  30.917  27.718  1.00  0.00     0.029 A 
ATOM     49  N   UNL A   1      44.520  30.496  28.448  1.00  0.00    -0.354 N 
ATOM     50  N   UNL A   1      41.943  31.158  29.685  1.00  0.00    -0.248 NA
ATOM     51  C   UNL A   1      40.563  32.681  30.798  1.00  0.00     0.031 C 
ATOM     52  C   UNL A   1      46.093  32.060  28.364  1.00  0.00     0.029 A 
ATOM     53  C   UNL A   1      44.798  31.810  28.791  1.00  0.00     0.049 A 
ATOM     54  H   UNL A   1      43.671  30.033  28.634  1.00  0.00     0.167 HD
ATOM     55  C   UNL A   1      42.618  32.370  29.830  1.00  0.00     0.074 A 
ATOM     56  C   UNL A   1      41.702  33.280  30.484  1.00  0.00     0.031 C 
ATOM     57  C   UNL A   1      43.880  32.704  29.454  1.00  0.00     0.034 A 
BRANCH  44  58
ATOM     58  C   UNL A   1      46.950  28.074  26.703  1.00  0.00     0.023 A 
ATOM     59  C   UNL A   1      47.141  28.148  25.312  1.00  0.00     0.031 A 
ATOM     60  C   UNL A   1      47.973  27.508  27.481  1.00  0.00     0.131 A 
ATOM     61  C   UNL A   1      48.302  27.611  24.736  1.00  0.00     0.055 A 
ATOM     62  C   UNL A   1      49.157  27.038  26.909  1.00  0.00     0.041 A 
ATOM     63  F   UNL A   1      47.834  27.389  28.811  1.00  0.00    -0.206 F 
ATOM     64  C   UNL A   1      49.322  27.079  25.527  1.00  0.00     0.022 A 
BRANCH  61  65
ATOM     65  S   UNL A   1      48.408  27.514  22.928  1.00  0.00     0.124 S 
ATOM     66  O   UNL A   1      48.396  26.070  22.710  1.00  0.00    -0.237 OA
ATOM     67  O   UNL A   1      47.215  28.235  22.501  1.00  0.00    -0.237 OA
ATOM     68  O   UNL A   1      49.678  28.173  22.624  1.00  0.00    -0.744 OA
ENDBRANCH  61  65
ENDBRANCH  44  58
BRANCH  45  69
ATOM     69  C   UNL A   1      38.337  30.800  31.006  1.00  0.00     0.023 A 
ATOM     70  C   UNL A   1      37.297  31.442  30.315  1.00  0.00     0.031 A 
ATOM     71  C   UNL A   1      38.206  30.646  32.398  1.00  0.00     0.131 A 
ATOM     72  C   UNL A   1      36.205  31.967  31.025  1.00  0.00     0.055 A 
ATOM     73  C   UNL A   1      37.092  31.120  33.091  1.00  0.00     0.041 A 
ATOM     74  F   UNL A   1      39.169  30.038  33.108  1.00  0.00    -0.206 F 
ATOM     75  C   UNL A   1      36.090  31.802  32.407  1.00  0.00     0.022 A 
BRANCH  72  76
ATOM     76  S   UNL A   1      34.989  32.972  30.129  1.00  0.00     0.124 S 
ATOM     77  O   UNL A   1      34.477  32.020  29.150  1.00  0.00    -0.237 OA
ATOM     78  O   UNL A   1      34.069  33.354  31.196  1.00  0.00    -0.237 OA
ATOM     79  O   UNL A   1      35.791  34.064  29.580  1.00  0.00    -0.744 OA
ENDBRANCH  72  76
ENDBRANCH  45  69
BRANCH  57  80
ATOM     80  C   UNL A   1      44.320  34.126  29.713  1.00  0.00     0.023 A 
ATOM     81  C   UNL A   1      44.061  35.159  28.794  1.00  0.00     0.031 A 
ATOM     82  C   UNL A   1      45.032  34.446  30.882  1.00  0.00     0.131 A 
ATOM     83  C   UNL A   1      44.565  36.446  29.028  1.00  0.00     0.055 A 
ATOM     84  C   UNL A   1      45.478  35.743  31.139  1.00  0.00     0.041 A 
ATOM     85  F   UNL A   1      45.308  33.500  31.795  1.00  0.00    -0.206 F 
ATOM     86  C   UNL A   1      45.260  36.748  30.202  1.00  0.00     0.022 A 
BRANCH  83  87
ATOM     87  S   UNL A   1      44.392  37.699  27.728  1.00  0.00     0.124 S 
ATOM     88  O   UNL A   1      45.719  37.694  27.121  1.00  0.00    -0.237 OA
ATOM     89  O   UNL A   1      43.316  37.151  26.908  1.00  0.00    -0.237 OA
ATOM     90  O   UNL A   1      44.051  38.915  28.464  1.00  0.00    -0.744 OA
ENDBRANCH  83  87
ENDBRANCH  57  80
ENDBRANCH  31  32
ENDBRANCH  24  26
ENDBRANCH  23  24
ENDBRANCH  22  23
ENDBRANCH   1  22
TORSDOF 17
ENDMDL
MODEL 3
REMARK VINA RESULT:      -8.6      4.584      7.068
REMARK SMILES O=C(Cc1ccc(-c2ccn(C(F)F)c(=O)c2)cc1)OCCOC(=O)c1ccc(-c2c3nc(c(-c4cc(S(=O)(=O)[O-])ccc4F)c4ccc([nH]4)c(-c4cc(S(=O)(=O)[O-])ccc4F)c4nc(c(-c5cc(S(=O)(=O)[O-])ccc5F)c5ccc2[nH]5)C=C4)C=C3)cc1
REMARK SMILES IDX 21 1 20 2 2 3 1 4 3 5 4 6 5 7 19 8 6 9 18 10 7 11 8 12 9 13
REMARK SMILES IDX 17 14 10 15 15 16 11 17 16 18 12 19 13 20 14 21 22 22 23 23
REMARK SMILES IDX 24 24 25 25 26 26 27 27 88 28 28 29 87 30 29 31 30 32 31 33
REMARK SMILES IDX 81 34 32 35 86 36 80 37 82 38 33 39 85 40 79 41 78 42 34 44
REMARK SMILES IDX 66 45 46 46 65 47 47 48 50 49 64 50 83 51 48 52 49 53 63 55
REMARK SMILES IDX 84 56 51 57 35 58 36 59 44 60 37 61 43 62 45 63 42 64 38 65
REMARK SMILES IDX 39 66 40 67 41 68 67 69 68 70 76 71 69 72 75 73 77 74 74 75
REMARK SMILES IDX 70 76 71 77 72 78 73 79 52 80 53 81 61 82 54 83 60 84 62 85
REMARK SMILES IDX 59 86 55 87 56 88 57 89 58 90
REMARK H PARENT 82 43 50 54
REMARK Flexibility Score: inf
ROOT
ATOM      1  C   UNL A   1      31.240  31.257  26.045  1.00  0.00     0.274 C 
ENDROOT
BRANCH   1   2
ATOM      2  O   UNL A   1      32.261  30.255  25.845  1.00  0.00    -0.462 OA
BRANCH   2   3
ATOM      3  C   UNL A   1      32.213  29.241  24.950  1.00  0.00     0.310 C 
ATOM      4  O   UNL A   1      31.125  28.833  24.546  1.00  0.00    -0.252 OA
BRANCH   3   5
ATOM      5  C   UNL A   1      33.501  28.643  24.441  1.00  0.00     0.158 C 
BRANCH   5   6
ATOM      6  C   UNL A   1      33.586  27.138  24.408  1.00  0.00    -0.037 A 
ATOM      7  C   UNL A   1      33.549  26.408  23.215  1.00  0.00     0.005 A 
ATOM      8  C   UNL A   1      33.658  26.449  25.629  1.00  0.00     0.005 A 
ATOM      9  C   UNL A   1      33.621  25.015  23.242  1.00  0.00     0.009 A 
ATOM     10  C   UNL A   1      33.725  25.058  25.657  1.00  0.00     0.009 A 
ATOM     11  C   UNL A   1      33.714  24.334  24.462  1.00  0.00    -0.018 A 
BRANCH  11  12
ATOM     12  C   UNL A   1      33.748  22.864  24.491  1.00  0.00    -0.011 A 
ATOM     13  C   UNL A   1      34.627  22.130  25.378  1.00  0.00     0.027 A 
ATOM     14  C   UNL A   1      32.929  22.190  23.667  1.00  0.00     0.080 A 
ATOM     15  C   UNL A   1      34.613  20.793  25.389  1.00  0.00     0.095 A 
ATOM     16  C   UNL A   1      32.904  20.703  23.667  1.00  0.00     0.255 A 
ATOM     17  N   UNL A   1      33.768  20.083  24.556  1.00  0.00    -0.258 N 
ATOM     18  O   UNL A   1      32.133  20.130  22.903  1.00  0.00    -0.269 OA
BRANCH  17  19
ATOM     19  C   UNL A   1      33.754  18.645  24.589  1.00  0.00     0.451 C 
ATOM     20  F   UNL A   1      35.015  18.145  24.586  1.00  0.00    -0.185 F 
ATOM     21  F   UNL A   1      33.127  18.187  25.700  1.00  0.00    -0.185 F 
ENDBRANCH  17  19
ENDBRANCH  11  12
ENDBRANCH   5   6
ENDBRANCH   3   5
ENDBRANCH   2   3
ENDBRANCH   1   2
BRANCH   1  22
ATOM     22  C   UNL A   1      31.769  32.437  26.860  1.00  0.00     0.275 C 
BRANCH  22  23
ATOM     23  O   UNL A   1      32.926  32.033  27.612  1.00  0.00    -0.458 OA
BRANCH  23  24
ATOM     24  C   UNL A   1      33.826  33.012  27.883  1.00  0.00     0.338 C 
ATOM     25  O   UNL A   1      33.603  34.210  27.908  1.00  0.00    -0.246 OA
BRANCH  24  26
ATOM     26  C   UNL A   1      35.078  32.389  28.373  1.00  0.00     0.060 A 
ATOM     27  C   UNL A   1      35.023  31.049  28.777  1.00  0.00     0.016 A 
ATOM     28  C   UNL A   1      36.299  33.073  28.375  1.00  0.00     0.016 A 
ATOM     29  C   UNL A   1      36.182  30.399  29.204  1.00  0.00     0.010 A 
ATOM     30  C   UNL A   1      37.459  32.422  28.807  1.00  0.00     0.010 A 
ATOM     31  C   UNL A   1      37.403  31.087  29.244  1.00  0.00    -0.014 A 
BRANCH  31  32
ATOM     32  C   UNL A   1      38.583  30.449  29.879  1.00  0.00     0.031 A 
ATOM     33  C   UNL A   1      38.983  30.890  31.260  1.00  0.00     0.074 A 
ATOM     34  C   UNL A   1      39.266  29.472  29.255  1.00  0.00     0.049 A 
ATOM     35  N   UNL A   1      39.946  30.447  32.026  1.00  0.00    -0.248 NA
ATOM     36  C   UNL A   1      38.188  31.976  31.855  1.00  0.00     0.031 C 
ATOM     37  C   UNL A   1      38.967  28.948  27.922  1.00  0.00     0.029 A 
ATOM     38  N   UNL A   1      40.357  28.746  29.663  1.00  0.00    -0.354 N 
ATOM     39  C   UNL A   1      39.858  31.180  33.204  1.00  0.00     0.074 A 
ATOM     40  C   UNL A   1      38.785  32.136  33.026  1.00  0.00     0.031 C 
ATOM     41  C   UNL A   1      39.861  27.990  27.620  1.00  0.00     0.029 A 
ATOM     42  C   UNL A   1      40.804  27.842  28.728  1.00  0.00     0.049 A 
ATOM     43  H   UNL A   1      40.780  28.861  30.545  1.00  0.00     0.167 HD
ATOM     44  C   UNL A   1      40.588  31.056  34.339  1.00  0.00     0.034 A 
ATOM     45  C   UNL A   1      41.857  27.000  28.761  1.00  0.00     0.034 A 
ATOM     46  C   UNL A   1      41.679  30.127  34.499  1.00  0.00     0.049 A 
ATOM     47  C   UNL A   1      42.711  26.940  30.008  1.00  0.00     0.074 A 
ATOM     48  C   UNL A   1      42.486  29.925  35.606  1.00  0.00     0.029 A 
ATOM     49  N   UNL A   1      42.127  29.253  33.518  1.00  0.00    -0.354 N 
ATOM     50  N   UNL A   1      42.590  27.613  31.130  1.00  0.00    -0.248 NA
ATOM     51  C   UNL A   1      43.835  25.992  29.997  1.00  0.00     0.031 C 
ATOM     52  C   UNL A   1      43.458  28.975  35.273  1.00  0.00     0.029 A 
ATOM     53  C   UNL A   1      43.216  28.531  33.983  1.00  0.00     0.049 A 
ATOM     54  H   UNL A   1      41.729  29.158  32.622  1.00  0.00     0.167 HD
ATOM     55  C   UNL A   1      43.602  27.142  31.966  1.00  0.00     0.074 A 
ATOM     56  C   UNL A   1      44.306  26.116  31.228  1.00  0.00     0.031 C 
ATOM     57  C   UNL A   1      43.918  27.519  33.231  1.00  0.00     0.034 A 
BRANCH  44  58
ATOM     58  C   UNL A   1      40.243  31.977  35.481  1.00  0.00     0.023 A 
ATOM     59  C   UNL A   1      39.196  31.679  36.370  1.00  0.00     0.031 A 
ATOM     60  C   UNL A   1      40.952  33.175  35.671  1.00  0.00     0.131 A 
ATOM     61  C   UNL A   1      38.849  32.596  37.373  1.00  0.00     0.055 A 
ATOM     62  C   UNL A   1      40.647  34.050  36.715  1.00  0.00     0.041 A 
ATOM     63  F   UNL A   1      41.945  33.521  34.837  1.00  0.00    -0.206 F 
ATOM     64  C   UNL A   1      39.583  33.768  37.567  1.00  0.00     0.022 A 
BRANCH  61  65
ATOM     65  S   UNL A   1      37.351  32.289  38.348  1.00  0.00     0.124 S 
ATOM     66  O   UNL A   1      37.749  32.785  39.663  1.00  0.00    -0.237 OA
ATOM     67  O   UNL A   1      36.347  33.078  37.644  1.00  0.00    -0.237 OA
ATOM     68  O   UNL A   1      37.178  30.839  38.262  1.00  0.00    -0.744 OA
ENDBRANCH  61  65
ENDBRANCH  44  58
BRANCH  45  69
ATOM     69  C   UNL A   1      42.205  26.161  27.577  1.00  0.00     0.023 A 
ATOM     70  C   UNL A   1      41.777  24.828  27.476  1.00  0.00     0.031 A 
ATOM     71  C   UNL A   1      43.057  26.657  26.574  1.00  0.00     0.131 A 
ATOM     72  C   UNL A   1      42.256  24.016  26.435  1.00  0.00     0.055 A 
ATOM     73  C   UNL A   1      43.486  25.862  25.511  1.00  0.00     0.041 A 
ATOM     74  F   UNL A   1      43.496  27.925  26.620  1.00  0.00    -0.206 F 
ATOM     75  C   UNL A   1      43.100  24.526  25.446  1.00  0.00     0.022 A 
BRANCH  72  76
ATOM     76  S   UNL A   1      41.851  22.247  26.456  1.00  0.00     0.124 S 
ATOM     77  O   UNL A   1      40.402  22.271  26.294  1.00  0.00    -0.237 OA
ATOM     78  O   UNL A   1      42.617  21.750  25.318  1.00  0.00    -0.237 OA
ATOM     79  O   UNL A   1      42.328  21.807  27.766  1.00  0.00    -0.744 OA
ENDBRANCH  72  76
ENDBRANCH  45  69
BRANCH  57  80
ATOM     80  C   UNL A   1      45.057  26.786  33.902  1.00  0.00     0.023 A 
ATOM     81  C   UNL A   1      44.833  25.670  34.728  1.00  0.00     0.031 A 
ATOM     82  C   UNL A   1      46.381  27.227  33.732  1.00  0.00     0.131 A 
ATOM     83  C   UNL A   1      45.908  25.074  35.404  1.00  0.00     0.055 A 
ATOM     84  C   UNL A   1      47.454  26.591  34.359  1.00  0.00     0.041 A 
ATOM     85  F   UNL A   1      46.654  28.287  32.954  1.00  0.00    -0.206 F 
ATOM     86  C   UNL A   1      47.219  25.519  35.213  1.00  0.00     0.022 A 
BRANCH  83  87
ATOM     87  S   UNL A   1      45.558  23.774  36.620  1.00  0.00     0.124 S 
ATOM     88  O   UNL A   1      44.793  22.815  35.829  1.00  0.00    -0.237 OA
ATOM     89  O   UNL A   1      46.897  23.348  37.014  1.00  0.00    -0.237 OA
ATOM     90  O   UNL A   1      44.798  24.468  37.658  1.00  0.00    -0.744 OA
ENDBRANCH  83  87
ENDBRANCH  57  80
ENDBRANCH  31  32
ENDBRANCH  24  26
ENDBRANCH  23  24
ENDBRANCH  22  23
ENDBRANCH   1  22
TORSDOF 17
ENDMDL
