MODEL 1
REMARK VINA RESULT:     -12.3      0.000      0.000
REMARK SMILES C[C@@H](C(=O)OCCOC(=O)c1ccc(-c2c3nc(c(-c4cc(S(=O)(=O)[O-])ccc4F)c4ccc([nH]4)c(-c4cc(S(=O)(=O)[O-])ccc4F)c4nc(c(-c5cc(S(=O)(=O)[O-])ccc5F)c5ccc2[nH]5)C=C4)C=C3)cc1)c1ccc(C[C@@H]2CCC[C@@H]2O)cc1F
REMARK SMILES IDX 6 1 5 2 3 3 4 4 2 5 1 6 74 7 75 8 86 9 76 10 85 11 87 12
REMARK SMILES IDX 77 13 78 14 79 15 80 16 83 17 81 18 82 19 84 20 7 22 8 23
REMARK SMILES IDX 9 24 10 25 11 26 12 27 73 28 13 29 72 30 14 31 15 32 16 33
REMARK SMILES IDX 66 34 17 35 71 36 65 37 67 38 18 39 70 40 64 41 63 42 19 44
REMARK SMILES IDX 51 45 31 46 50 47 32 48 35 49 49 50 68 51 33 52 34 53 48 55
REMARK SMILES IDX 69 56 36 57 20 58 21 59 29 60 22 61 28 62 30 63 27 64 23 65
REMARK SMILES IDX 24 66 25 67 26 68 52 69 53 70 61 71 54 72 60 73 62 74 59 75
REMARK SMILES IDX 55 76 56 77 57 78 58 79 37 80 38 81 46 82 39 83 45 84 47 85
REMARK SMILES IDX 44 86 40 87 41 88 42 89 43 90
REMARK H PARENT 84 21 67 43 35 54
REMARK Flexibility Score: inf
ROOT
ATOM      1  C   UNL A   1      30.669  28.338  23.780  1.00  0.00     0.274 C 
ENDROOT
BRANCH   1   2
ATOM      2  O   UNL A   1      31.351  27.311  24.533  1.00  0.00    -0.462 OA
BRANCH   2   3
ATOM      3  C   UNL A   1      31.746  26.201  23.842  1.00  0.00     0.313 C 
ATOM      4  O   UNL A   1      30.970  25.296  23.554  1.00  0.00    -0.252 OA
BRANCH   3   5
ATOM      5  C   UNL A   1      33.264  26.200  23.523  1.00  0.00     0.129 C 
ATOM      6  C   UNL A   1      33.521  26.382  22.022  1.00  0.00     0.025 C 
BRANCH   5   7
ATOM      7  C   UNL A   1      33.973  24.965  24.080  1.00  0.00     0.002 A 
ATOM      8  C   UNL A   1      34.408  23.906  23.258  1.00  0.00     0.008 A 
ATOM      9  C   UNL A   1      34.108  24.813  25.467  1.00  0.00     0.127 A 
ATOM     10  C   UNL A   1      34.761  22.683  23.808  1.00  0.00     0.004 A 
ATOM     11  C   UNL A   1      34.420  23.586  26.026  1.00  0.00     0.043 A 
ATOM     12  F   UNL A   1      33.835  25.834  26.291  1.00  0.00    -0.207 F 
ATOM     13  C   UNL A   1      34.638  22.498  25.181  1.00  0.00    -0.045 A 
BRANCH  13  14
ATOM     14  C   UNL A   1      34.595  21.118  25.727  1.00  0.00     0.041 C 
BRANCH  14  15
ATOM     15  C   UNL A   1      33.974  19.929  24.874  1.00  0.00     0.022 C 
ATOM     16  C   UNL A   1      35.100  18.322  24.462  1.00  0.00     0.007 C 
ATOM     17  C   UNL A   1      32.348  19.863  23.561  1.00  0.00     0.117 C 
ATOM     18  C   UNL A   1      34.012  17.087  23.215  1.00  0.00     0.003 C 
ATOM     19  C   UNL A   1      32.345  18.075  22.645  1.00  0.00     0.032 C 
BRANCH  17  20
ATOM     20  O   UNL A   1      32.141  20.973  22.655  1.00  0.00    -0.393 OA
ATOM     21  H   UNL A   1      32.809  21.655  22.822  1.00  0.00     0.210 HD
ENDBRANCH  17  20
ENDBRANCH  14  15
ENDBRANCH  13  14
ENDBRANCH   5   7
ENDBRANCH   3   5
ENDBRANCH   2   3
ENDBRANCH   1   2
BRANCH   1  22
ATOM     22  C   UNL A   1      30.900  29.716  24.398  1.00  0.00     0.275 C 
BRANCH  22  23
ATOM     23  O   UNL A   1      31.473  29.567  25.701  1.00  0.00    -0.458 OA
BRANCH  23  24
ATOM     24  C   UNL A   1      31.827  30.724  26.307  1.00  0.00     0.338 C 
ATOM     25  O   UNL A   1      31.188  31.758  26.384  1.00  0.00    -0.246 OA
BRANCH  24  26
ATOM     26  C   UNL A   1      33.135  30.525  26.920  1.00  0.00     0.060 A 
ATOM     27  C   UNL A   1      33.844  29.381  26.694  1.00  0.00     0.016 A 
ATOM     28  C   UNL A   1      33.739  31.505  27.646  1.00  0.00     0.016 A 
ATOM     29  C   UNL A   1      35.087  29.142  27.344  1.00  0.00     0.010 A 
ATOM     30  C   UNL A   1      35.045  31.269  28.166  1.00  0.00     0.010 A 
ATOM     31  C   UNL A   1      35.926  29.982  28.272  1.00  0.00    -0.014 A 
BRANCH  31  32
ATOM     32  C   UNL A   1      37.766  29.581  29.285  1.00  0.00     0.031 A 
ATOM     33  C   UNL A   1      39.140  28.473  28.690  1.00  0.00     0.074 A 
ATOM     34  C   UNL A   1      38.538  30.222  30.424  1.00  0.00     0.049 A 
ATOM     35  N   UNL A   1      40.224  28.024  29.322  1.00  0.00    -0.248 NA
ATOM     36  C   UNL A   1      39.097  27.812  27.297  1.00  0.00     0.031 C 
ATOM     37  C   UNL A   1      38.347  31.670  30.940  1.00  0.00     0.029 A 
ATOM     38  N   UNL A   1      39.517  29.839  31.349  1.00  0.00    -0.354 N 
ATOM     39  C   UNL A   1      40.867  27.099  28.453  1.00  0.00     0.074 A 
ATOM     40  C   UNL A   1      40.021  26.890  27.328  1.00  0.00     0.031 C 
ATOM     41  C   UNL A   1      38.847  31.858  32.143  1.00  0.00     0.029 A 
ATOM     42  C   UNL A   1      39.598  30.689  32.476  1.00  0.00     0.049 A 
ATOM     43  H   UNL A   1      40.095  29.051  31.226  1.00  0.00     0.167 HD
ATOM     44  C   UNL A   1      42.066  26.457  28.480  1.00  0.00     0.034 A 
ATOM     45  C   UNL A   1      40.238  30.730  33.665  1.00  0.00     0.034 A 
ATOM     46  C   UNL A   1      42.999  26.560  29.553  1.00  0.00     0.049 A 
ATOM     47  C   UNL A   1      41.459  29.914  33.762  1.00  0.00     0.074 A 
ATOM     48  C   UNL A   1      44.193  25.884  29.718  1.00  0.00     0.029 A 
ATOM     49  N   UNL A   1      42.834  27.383  30.653  1.00  0.00    -0.354 N 
ATOM     50  N   UNL A   1      41.920  29.072  32.876  1.00  0.00    -0.248 NA
ATOM     51  C   UNL A   1      42.328  30.167  34.911  1.00  0.00     0.031 C 
ATOM     52  C   UNL A   1      44.706  26.223  30.969  1.00  0.00     0.029 A 
ATOM     53  C   UNL A   1      43.881  27.182  31.532  1.00  0.00     0.049 A 
ATOM     54  H   UNL A   1      42.088  28.011  30.788  1.00  0.00     0.167 HD
ATOM     55  C   UNL A   1      43.175  28.733  33.329  1.00  0.00     0.074 A 
ATOM     56  C   UNL A   1      43.399  29.474  34.557  1.00  0.00     0.031 C 
ATOM     57  C   UNL A   1      44.064  27.886  32.766  1.00  0.00     0.034 A 
BRANCH  44  58
ATOM     58  C   UNL A   1      42.379  25.502  27.321  1.00  0.00     0.023 A 
ATOM     59  C   UNL A   1      41.833  24.201  27.241  1.00  0.00     0.031 A 
ATOM     60  C   UNL A   1      43.371  25.847  26.383  1.00  0.00     0.131 A 
ATOM     61  C   UNL A   1      42.366  23.269  26.329  1.00  0.00     0.055 A 
ATOM     62  C   UNL A   1      43.826  24.943  25.417  1.00  0.00     0.041 A 
ATOM     63  F   UNL A   1      43.956  27.053  26.424  1.00  0.00    -0.206 F 
ATOM     64  C   UNL A   1      43.341  23.640  25.401  1.00  0.00     0.022 A 
BRANCH  61  65
ATOM     65  S   UNL A   1      41.926  21.511  26.501  1.00  0.00     0.124 S 
ATOM     66  O   UNL A   1      42.352  21.237  27.872  1.00  0.00    -0.237 OA
ATOM     67  O   UNL A   1      40.487  21.516  26.267  1.00  0.00    -0.237 OA
ATOM     68  O   UNL A   1      42.723  20.855  25.466  1.00  0.00    -0.744 OA
ENDBRANCH  61  65
ENDBRANCH  44  58
BRANCH  45  69
ATOM     69  C   UNL A   1      39.843  31.749  34.713  1.00  0.00     0.023 A 
ATOM     70  C   UNL A   1      40.420  33.032  34.792  1.00  0.00     0.031 A 
ATOM     71  C   UNL A   1      38.762  31.476  35.578  1.00  0.00     0.131 A 
ATOM     72  C   UNL A   1      39.929  33.975  35.718  1.00  0.00     0.055 A 
ATOM     73  C   UNL A   1      38.263  32.425  36.480  1.00  0.00     0.041 A 
ATOM     74  F   UNL A   1      38.134  30.290  35.521  1.00  0.00    -0.206 F 
ATOM     75  C   UNL A   1      38.851  33.681  36.557  1.00  0.00     0.022 A 
BRANCH  72  76
ATOM     76  S   UNL A   1      40.729  35.603  35.841  1.00  0.00     0.124 S 
ATOM     77  O   UNL A   1      41.650  35.576  34.711  1.00  0.00    -0.237 OA
ATOM     78  O   UNL A   1      39.588  36.505  35.720  1.00  0.00    -0.237 OA
ATOM     79  O   UNL A   1      41.361  35.575  37.158  1.00  0.00    -0.744 OA
ENDBRANCH  72  76
ENDBRANCH  45  69
BRANCH  57  80
ATOM     80  C   UNL A   1      45.326  27.667  33.523  1.00  0.00     0.023 A 
ATOM     81  C   UNL A   1      45.386  26.653  34.487  1.00  0.00     0.031 A 
ATOM     82  C   UNL A   1      46.455  28.464  33.295  1.00  0.00     0.131 A 
ATOM     83  C   UNL A   1      46.535  26.512  35.259  1.00  0.00     0.055 A 
ATOM     84  C   UNL A   1      47.632  28.259  34.008  1.00  0.00     0.041 A 
ATOM     85  F   UNL A   1      46.429  29.448  32.380  1.00  0.00    -0.206 F 
ATOM     86  C   UNL A   1      47.670  27.288  35.010  1.00  0.00     0.022 A 
BRANCH  83  87
ATOM     87  S   UNL A   1      46.460  25.386  36.670  1.00  0.00     0.124 S 
ATOM     88  O   UNL A   1      46.894  24.127  36.069  1.00  0.00    -0.237 OA
ATOM     89  O   UNL A   1      47.395  25.996  37.609  1.00  0.00    -0.237 OA
ATOM     90  O   UNL A   1      45.055  25.435  37.068  1.00  0.00    -0.744 OA
ENDBRANCH  83  87
ENDBRANCH  57  80
ENDBRANCH  31  32
ENDBRANCH  24  26
ENDBRANCH  23  24
ENDBRANCH  22  23
ENDBRANCH   1  22
TORSDOF 18
ENDMDL
MODEL 2
REMARK VINA RESULT:     -12.2      0.826      7.872
REMARK SMILES C[C@@H](C(=O)OCCOC(=O)c1ccc(-c2c3nc(c(-c4cc(S(=O)(=O)[O-])ccc4F)c4ccc([nH]4)c(-c4cc(S(=O)(=O)[O-])ccc4F)c4nc(c(-c5cc(S(=O)(=O)[O-])ccc5F)c5ccc2[nH]5)C=C4)C=C3)cc1)c1ccc(C[C@@H]2CCC[C@@H]2O)cc1F
REMARK SMILES IDX 6 1 5 2 3 3 4 4 2 5 1 6 74 7 75 8 86 9 76 10 85 11 87 12
REMARK SMILES IDX 77 13 78 14 79 15 80 16 83 17 81 18 82 19 84 20 7 22 8 23
REMARK SMILES IDX 9 24 10 25 11 26 12 27 73 28 13 29 72 30 14 31 15 32 16 33
REMARK SMILES IDX 66 34 17 35 71 36 65 37 67 38 18 39 70 40 64 41 63 42 19 44
REMARK SMILES IDX 51 45 31 46 50 47 32 48 35 49 49 50 68 51 33 52 34 53 48 55
REMARK SMILES IDX 69 56 36 57 20 58 21 59 29 60 22 61 28 62 30 63 27 64 23 65
REMARK SMILES IDX 24 66 25 67 26 68 52 69 53 70 61 71 54 72 60 73 62 74 59 75
REMARK SMILES IDX 55 76 56 77 57 78 58 79 37 80 38 81 46 82 39 83 45 84 47 85
REMARK SMILES IDX 44 86 40 87 41 88 42 89 43 90
REMARK H PARENT 84 21 67 43 35 54
REMARK Flexibility Score: inf
ROOT
ATOM      1  C   UNL A   1      30.387  28.549  23.805  1.00  0.00     0.274 C 
ENDROOT
BRANCH   1   2
ATOM      2  O   UNL A   1      30.912  27.466  24.605  1.00  0.00    -0.462 OA
BRANCH   2   3
ATOM      3  C   UNL A   1      31.460  26.412  23.931  1.00  0.00     0.313 C 
ATOM      4  O   UNL A   1      30.803  25.434  23.596  1.00  0.00    -0.252 OA
BRANCH   3   5
ATOM      5  C   UNL A   1      32.985  26.578  23.695  1.00  0.00     0.129 C 
ATOM      6  C   UNL A   1      33.298  26.843  22.217  1.00  0.00     0.025 C 
BRANCH   5   7
ATOM      7  C   UNL A   1      33.787  25.399  24.248  1.00  0.00     0.002 A 
ATOM      8  C   UNL A   1      34.420  24.455  23.414  1.00  0.00     0.008 A 
ATOM      9  C   UNL A   1      33.817  25.172  25.631  1.00  0.00     0.127 A 
ATOM     10  C   UNL A   1      34.870  23.248  23.926  1.00  0.00     0.004 A 
ATOM     11  C   UNL A   1      34.226  23.955  26.147  1.00  0.00     0.043 A 
ATOM     12  F   UNL A   1      33.349  26.096  26.480  1.00  0.00    -0.207 F 
ATOM     13  C   UNL A   1      34.650  22.959  25.268  1.00  0.00    -0.045 A 
BRANCH  13  14
ATOM     14  C   UNL A   1      34.728  21.550  25.730  1.00  0.00     0.041 C 
BRANCH  14  15
ATOM     15  C   UNL A   1      33.989  20.393  24.927  1.00  0.00     0.022 C 
ATOM     16  C   UNL A   1      34.924  18.642  24.644  1.00  0.00     0.007 C 
ATOM     17  C   UNL A   1      32.401  20.441  23.569  1.00  0.00     0.117 C 
ATOM     18  C   UNL A   1      33.727  17.471  23.436  1.00  0.00     0.003 C 
ATOM     19  C   UNL A   1      32.206  18.614  22.757  1.00  0.00     0.032 C 
BRANCH  17  20
ATOM     20  O   UNL A   1      32.351  21.510  22.594  1.00  0.00    -0.393 OA
ATOM     21  H   UNL A   1      31.619  21.353  21.979  1.00  0.00     0.210 HD
ENDBRANCH  17  20
ENDBRANCH  14  15
ENDBRANCH  13  14
ENDBRANCH   5   7
ENDBRANCH   3   5
ENDBRANCH   2   3
ENDBRANCH   1   2
BRANCH   1  22
ATOM     22  C   UNL A   1      30.759  29.904  24.403  1.00  0.00     0.275 C 
BRANCH  22  23
ATOM     23  O   UNL A   1      31.471  29.707  25.629  1.00  0.00    -0.458 OA
BRANCH  23  24
ATOM     24  C   UNL A   1      31.774  30.840  26.304  1.00  0.00     0.338 C 
ATOM     25  O   UNL A   1      31.119  31.863  26.388  1.00  0.00    -0.246 OA
BRANCH  24  26
ATOM     26  C   UNL A   1      33.047  30.627  26.984  1.00  0.00     0.060 A 
ATOM     27  C   UNL A   1      33.754  29.476  26.796  1.00  0.00     0.016 A 
ATOM     28  C   UNL A   1      33.624  31.602  27.739  1.00  0.00     0.016 A 
ATOM     29  C   UNL A   1      34.959  29.224  27.509  1.00  0.00     0.010 A 
ATOM     30  C   UNL A   1      34.898  31.353  28.325  1.00  0.00     0.010 A 
ATOM     31  C   UNL A   1      35.759  30.056  28.478  1.00  0.00    -0.014 A 
BRANCH  31  32
ATOM     32  C   UNL A   1      37.539  29.637  29.585  1.00  0.00     0.031 A 
ATOM     33  C   UNL A   1      37.973  30.291  31.274  1.00  0.00     0.074 A 
ATOM     34  C   UNL A   1      38.642  28.597  29.511  1.00  0.00     0.049 A 
ATOM     35  N   UNL A   1      39.117  30.237  31.956  1.00  0.00    -0.248 NA
ATOM     36  C   UNL A   1      36.979  31.143  32.089  1.00  0.00     0.031 C 
ATOM     37  C   UNL A   1      38.551  27.238  28.774  1.00  0.00     0.029 A 
ATOM     38  N   UNL A   1      39.968  28.469  29.942  1.00  0.00    -0.354 N 
ATOM     39  C   UNL A   1      38.946  31.015  33.134  1.00  0.00     0.074 A 
ATOM     40  C   UNL A   1      37.690  31.678  33.045  1.00  0.00     0.031 C 
ATOM     41  C   UNL A   1      39.729  26.699  28.539  1.00  0.00     0.029 A 
ATOM     42  C   UNL A   1      40.697  27.473  29.252  1.00  0.00     0.049 A 
ATOM     43  H   UNL A   1      40.357  29.022  30.658  1.00  0.00     0.167 HD
ATOM     44  C   UNL A   1      39.687  31.196  34.260  1.00  0.00     0.034 A 
ATOM     45  C   UNL A   1      41.968  27.025  29.173  1.00  0.00     0.034 A 
ATOM     46  C   UNL A   1      40.969  30.610  34.471  1.00  0.00     0.049 A 
ATOM     47  C   UNL A   1      42.833  27.350  30.320  1.00  0.00     0.074 A 
ATOM     48  C   UNL A   1      41.835  30.803  35.530  1.00  0.00     0.029 A 
ATOM     49  N   UNL A   1      41.576  29.727  33.595  1.00  0.00    -0.354 N 
ATOM     50  N   UNL A   1      42.542  28.115  31.338  1.00  0.00    -0.248 NA
ATOM     51  C   UNL A   1      44.105  26.634  30.406  1.00  0.00     0.031 C 
ATOM     52  C   UNL A   1      43.013  30.113  35.249  1.00  0.00     0.029 A 
ATOM     53  C   UNL A   1      42.836  29.414  34.067  1.00  0.00     0.049 A 
ATOM     54  H   UNL A   1      41.173  29.377  32.768  1.00  0.00     0.167 HD
ATOM     55  C   UNL A   1      43.575  27.929  32.228  1.00  0.00     0.074 A 
ATOM     56  C   UNL A   1      44.484  26.968  31.630  1.00  0.00     0.031 C 
ATOM     57  C   UNL A   1      43.744  28.501  33.439  1.00  0.00     0.034 A 
BRANCH  44  58
ATOM     58  C   UNL A   1      39.135  32.162  35.318  1.00  0.00     0.023 A 
ATOM     59  C   UNL A   1      39.511  33.523  35.372  1.00  0.00     0.031 A 
ATOM     60  C   UNL A   1      38.359  31.660  36.380  1.00  0.00     0.131 A 
ATOM     61  C   UNL A   1      39.212  34.289  36.515  1.00  0.00     0.055 A 
ATOM     62  C   UNL A   1      37.985  32.458  37.467  1.00  0.00     0.041 A 
ATOM     63  F   UNL A   1      37.997  30.369  36.409  1.00  0.00    -0.206 F 
ATOM     64  C   UNL A   1      38.430  33.773  37.550  1.00  0.00     0.022 A 
BRANCH  61  65
ATOM     65  S   UNL A   1      40.026  35.902  36.737  1.00  0.00     0.124 S 
ATOM     66  O   UNL A   1      41.423  35.505  36.892  1.00  0.00    -0.237 OA
ATOM     67  O   UNL A   1      39.693  36.603  35.502  1.00  0.00    -0.237 OA
ATOM     68  O   UNL A   1      39.402  36.439  37.945  1.00  0.00    -0.744 OA
ENDBRANCH  61  65
ENDBRANCH  44  58
BRANCH  45  69
ATOM     69  C   UNL A   1      42.371  26.046  28.090  1.00  0.00     0.023 A 
ATOM     70  C   UNL A   1      41.956  24.700  28.078  1.00  0.00     0.031 A 
ATOM     71  C   UNL A   1      43.084  26.509  26.963  1.00  0.00     0.131 A 
ATOM     72  C   UNL A   1      42.271  23.870  26.983  1.00  0.00     0.055 A 
ATOM     73  C   UNL A   1      43.373  25.686  25.867  1.00  0.00     0.041 A 
ATOM     74  F   UNL A   1      43.466  27.794  26.886  1.00  0.00    -0.206 F 
ATOM     75  C   UNL A   1      42.970  24.356  25.876  1.00  0.00     0.022 A 
BRANCH  72  76
ATOM     76  S   UNL A   1      41.774  22.121  27.020  1.00  0.00     0.124 S 
ATOM     77  O   UNL A   1      40.423  22.199  27.560  1.00  0.00    -0.237 OA
ATOM     78  O   UNL A   1      41.885  21.751  25.613  1.00  0.00    -0.237 OA
ATOM     79  O   UNL A   1      42.762  21.504  27.903  1.00  0.00    -0.744 OA
ENDBRANCH  72  76
ENDBRANCH  45  69
BRANCH  57  80
ATOM     80  C   UNL A   1      45.001  28.152  34.156  1.00  0.00     0.023 A 
ATOM     81  C   UNL A   1      45.010  27.076  35.052  1.00  0.00     0.031 A 
ATOM     82  C   UNL A   1      46.176  28.888  33.957  1.00  0.00     0.131 A 
ATOM     83  C   UNL A   1      46.159  26.812  35.791  1.00  0.00     0.055 A 
ATOM     84  C   UNL A   1      47.348  28.562  34.633  1.00  0.00     0.041 A 
ATOM     85  F   UNL A   1      46.201  29.929  33.107  1.00  0.00    -0.206 F 
ATOM     86  C   UNL A   1      47.338  27.528  35.569  1.00  0.00     0.022 A 
BRANCH  83  87
ATOM     87  S   UNL A   1      46.032  25.604  37.128  1.00  0.00     0.124 S 
ATOM     88  O   UNL A   1      45.568  24.418  36.414  1.00  0.00    -0.237 OA
ATOM     89  O   UNL A   1      47.400  25.547  37.631  1.00  0.00    -0.237 OA
ATOM     90  O   UNL A   1      45.058  26.206  38.037  1.00  0.00    -0.744 OA
ENDBRANCH  83  87
ENDBRANCH  57  80
ENDBRANCH  31  32
ENDBRANCH  24  26
ENDBRANCH  23  24
ENDBRANCH  22  23
ENDBRANCH   1  22
TORSDOF 18
ENDMDL
MODEL 3
REMARK VINA RESULT:     -12.2      4.898      9.822
REMARK SMILES C[C@@H](C(=O)OCCOC(=O)c1ccc(-c2c3nc(c(-c4cc(S(=O)(=O)[O-])ccc4F)c4ccc([nH]4)c(-c4cc(S(=O)(=O)[O-])ccc4F)c4nc(c(-c5cc(S(=O)(=O)[O-])ccc5F)c5ccc2[nH]5)C=C4)C=C3)cc1)c1ccc(C[C@@H]2CCC[C@@H]2O)cc1F
REMARK SMILES IDX 6 1 5 2 3 3 4 4 2 5 1 6 74 7 75 8 86 9 76 10 85 11 87 12
REMARK SMILES IDX 77 13 78 14 79 15 80 16 83 17 81 18 82 19 84 20 7 22 8 23
REMARK SMILES IDX 9 24 10 25 11 26 12 27 73 28 13 29 72 30 14 31 15 32 16 33
REMARK SMILES IDX 66 34 17 35 71 36 65 37 67 38 18 39 70 40 64 41 63 42 19 44
REMARK SMILES IDX 51 45 31 46 50 47 32 48 35 49 49 50 68 51 33 52 34 53 48 55
REMARK SMILES IDX 69 56 36 57 20 58 21 59 29 60 22 61 28 62 30 63 27 64 23 65
REMARK SMILES IDX 24 66 25 67 26 68 52 69 53 70 61 71 54 72 60 73 62 74 59 75
REMARK SMILES IDX 55 76 56 77 57 78 58 79 37 80 38 81 46 82 39 83 45 84 47 85
REMARK SMILES IDX 44 86 40 87 41 88 42 89 43 90
REMARK H PARENT 84 21 67 43 35 54
REMARK Flexibility Score: inf
ROOT
ATOM      1  C   UNL A   1      33.348  20.422  24.746  1.00  0.00     0.274 C 
ENDROOT
BRANCH   1   2
ATOM      2  O   UNL A   1      33.368  21.754  24.187  1.00  0.00    -0.462 OA
BRANCH   2   3
ATOM      3  C   UNL A   1      32.503  22.662  24.728  1.00  0.00     0.313 C 
ATOM      4  O   UNL A   1      31.343  22.771  24.349  1.00  0.00    -0.252 OA
BRANCH   3   5
ATOM      5  C   UNL A   1      33.165  23.550  25.815  1.00  0.00     0.129 C 
ATOM      6  C   UNL A   1      32.593  23.252  27.207  1.00  0.00     0.025 C 
BRANCH   5   7
ATOM      7  C   UNL A   1      33.091  25.038  25.472  1.00  0.00     0.002 A 
ATOM      8  C   UNL A   1      32.192  25.918  26.106  1.00  0.00     0.008 A 
ATOM      9  C   UNL A   1      33.863  25.542  24.415  1.00  0.00     0.127 A 
ATOM     10  C   UNL A   1      31.932  27.170  25.572  1.00  0.00     0.004 A 
ATOM     11  C   UNL A   1      33.584  26.773  23.850  1.00  0.00     0.043 A 
ATOM     12  F   UNL A   1      34.825  24.793  23.861  1.00  0.00    -0.207 F 
ATOM     13  C   UNL A   1      32.538  27.533  24.374  1.00  0.00    -0.045 A 
BRANCH  13  14
ATOM     14  C   UNL A   1      31.967  28.650  23.580  1.00  0.00     0.041 C 
BRANCH  14  15
ATOM     15  C   UNL A   1      30.408  28.959  23.621  1.00  0.00     0.022 C 
ATOM     16  C   UNL A   1      29.101  27.449  23.437  1.00  0.00     0.007 C 
ATOM     17  C   UNL A   1      29.330  30.717  23.276  1.00  0.00     0.117 C 
ATOM     18  C   UNL A   1      27.202  28.256  23.376  1.00  0.00     0.003 C 
ATOM     19  C   UNL A   1      27.374  30.264  23.237  1.00  0.00     0.032 C 
BRANCH  17  20
ATOM     20  O   UNL A   1      29.741  31.582  22.190  1.00  0.00    -0.393 OA
ATOM     21  H   UNL A   1      29.929  31.047  21.404  1.00  0.00     0.210 HD
ENDBRANCH  17  20
ENDBRANCH  14  15
ENDBRANCH  13  14
ENDBRANCH   5   7
ENDBRANCH   3   5
ENDBRANCH   2   3
ENDBRANCH   1   2
BRANCH   1  22
ATOM     22  C   UNL A   1      34.766  19.889  24.944  1.00  0.00     0.275 C 
BRANCH  22  23
ATOM     23  O   UNL A   1      35.650  20.975  25.237  1.00  0.00    -0.458 OA
BRANCH  23  24
ATOM     24  C   UNL A   1      36.965  20.658  25.243  1.00  0.00     0.338 C 
ATOM     25  O   UNL A   1      37.483  19.595  24.952  1.00  0.00    -0.246 OA
BRANCH  24  26
ATOM     26  C   UNL A   1      37.710  21.851  25.630  1.00  0.00     0.060 A 
ATOM     27  C   UNL A   1      39.028  21.769  25.975  1.00  0.00     0.016 A 
ATOM     28  C   UNL A   1      37.157  23.093  25.558  1.00  0.00     0.016 A 
ATOM     29  C   UNL A   1      39.747  22.911  26.424  1.00  0.00     0.010 A 
ATOM     30  C   UNL A   1      37.959  24.223  25.889  1.00  0.00     0.010 A 
ATOM     31  C   UNL A   1      39.367  24.363  26.555  1.00  0.00    -0.014 A 
BRANCH  31  32
ATOM     32  C   UNL A   1      40.445  26.058  27.288  1.00  0.00     0.031 A 
ATOM     33  C   UNL A   1      39.770  27.420  28.365  1.00  0.00     0.074 A 
ATOM     34  C   UNL A   1      41.909  26.434  27.427  1.00  0.00     0.049 A 
ATOM     35  N   UNL A   1      40.303  28.590  28.715  1.00  0.00    -0.248 NA
ATOM     36  C   UNL A   1      38.335  27.367  28.927  1.00  0.00     0.031 C 
ATOM     37  C   UNL A   1      43.100  25.444  27.407  1.00  0.00     0.029 A 
ATOM     38  N   UNL A   1      42.664  27.607  27.550  1.00  0.00    -0.354 N 
ATOM     39  C   UNL A   1      39.308  29.309  29.435  1.00  0.00     0.074 A 
ATOM     40  C   UNL A   1      38.091  28.576  29.356  1.00  0.00     0.031 C 
ATOM     41  C   UNL A   1      44.254  26.030  27.168  1.00  0.00     0.029 A 
ATOM     42  C   UNL A   1      44.030  27.441  27.222  1.00  0.00     0.049 A 
ATOM     43  H   UNL A   1      42.280  28.466  27.837  1.00  0.00     0.167 HD
ATOM     44  C   UNL A   1      39.316  30.459  30.159  1.00  0.00     0.034 A 
ATOM     45  C   UNL A   1      45.129  28.209  27.056  1.00  0.00     0.034 A 
ATOM     46  C   UNL A   1      40.458  31.301  30.304  1.00  0.00     0.049 A 
ATOM     47  C   UNL A   1      45.090  29.528  27.708  1.00  0.00     0.074 A 
ATOM     48  C   UNL A   1      40.545  32.525  30.938  1.00  0.00     0.029 A 
ATOM     49  N   UNL A   1      41.710  31.008  29.793  1.00  0.00    -0.354 N 
ATOM     50  N   UNL A   1      44.076  30.078  28.322  1.00  0.00    -0.248 NA
ATOM     51  C   UNL A   1      46.359  30.250  27.804  1.00  0.00     0.031 C 
ATOM     52  C   UNL A   1      41.829  33.025  30.726  1.00  0.00     0.029 A 
ATOM     53  C   UNL A   1      42.563  32.065  30.049  1.00  0.00     0.049 A 
ATOM     54  H   UNL A   1      41.955  30.179  29.323  1.00  0.00     0.167 HD
ATOM     55  C   UNL A   1      44.597  31.194  28.937  1.00  0.00     0.074 A 
ATOM     56  C   UNL A   1      46.016  31.225  28.631  1.00  0.00     0.031 C 
ATOM     57  C   UNL A   1      43.951  32.104  29.696  1.00  0.00     0.034 A 
BRANCH  44  58
ATOM     58  C   UNL A   1      37.986  30.910  30.780  1.00  0.00     0.023 A 
ATOM     59  C   UNL A   1      36.977  31.551  30.027  1.00  0.00     0.031 A 
ATOM     60  C   UNL A   1      37.813  30.846  32.176  1.00  0.00     0.131 A 
ATOM     61  C   UNL A   1      35.913  32.198  30.685  1.00  0.00     0.055 A 
ATOM     62  C   UNL A   1      36.701  31.408  32.812  1.00  0.00     0.041 A 
ATOM     63  F   UNL A   1      38.748  30.282  32.953  1.00  0.00    -0.206 F 
ATOM     64  C   UNL A   1      35.756  32.108  32.069  1.00  0.00     0.022 A 
BRANCH  61  65
ATOM     65  S   UNL A   1      34.848  33.333  29.742  1.00  0.00     0.124 S 
ATOM     66  O   UNL A   1      34.209  32.418  28.799  1.00  0.00    -0.237 OA
ATOM     67  O   UNL A   1      33.983  33.895  30.773  1.00  0.00    -0.237 OA
ATOM     68  O   UNL A   1      35.793  34.273  29.143  1.00  0.00    -0.744 OA
ENDBRANCH  61  65
ENDBRANCH  44  58
BRANCH  45  69
ATOM     69  C   UNL A   1      46.389  27.624  26.455  1.00  0.00     0.023 A 
ATOM     70  C   UNL A   1      46.738  27.783  25.099  1.00  0.00     0.031 A 
ATOM     71  C   UNL A   1      47.338  27.001  27.295  1.00  0.00     0.131 A 
ATOM     72  C   UNL A   1      47.980  27.312  24.626  1.00  0.00     0.055 A 
ATOM     73  C   UNL A   1      48.580  26.557  26.824  1.00  0.00     0.041 A 
ATOM     74  F   UNL A   1      47.091  26.862  28.607  1.00  0.00    -0.206 F 
ATOM     75  C   UNL A   1      48.904  26.707  25.481  1.00  0.00     0.022 A 
BRANCH  72  76
ATOM     76  S   UNL A   1      48.381  27.476  22.860  1.00  0.00     0.124 S 
ATOM     77  O   UNL A   1      49.675  28.147  22.902  1.00  0.00    -0.237 OA
ATOM     78  O   UNL A   1      48.392  26.083  22.427  1.00  0.00    -0.237 OA
ATOM     79  O   UNL A   1      47.281  28.281  22.334  1.00  0.00    -0.744 OA
ENDBRANCH  72  76
ENDBRANCH  45  69
BRANCH  57  80
ATOM     80  C   UNL A   1      44.769  33.249  30.181  1.00  0.00     0.023 A 
ATOM     81  C   UNL A   1      45.014  34.333  29.328  1.00  0.00     0.031 A 
ATOM     82  C   UNL A   1      45.309  33.258  31.473  1.00  0.00     0.131 A 
ATOM     83  C   UNL A   1      45.858  35.356  29.750  1.00  0.00     0.055 A 
ATOM     84  C   UNL A   1      46.078  34.328  31.920  1.00  0.00     0.041 A 
ATOM     85  F   UNL A   1      45.097  32.232  32.314  1.00  0.00    -0.206 F 
ATOM     86  C   UNL A   1      46.370  35.377  31.049  1.00  0.00     0.022 A 
BRANCH  83  87
ATOM     87  S   UNL A   1      46.364  36.580  28.521  1.00  0.00     0.124 S 
ATOM     88  O   UNL A   1      47.704  36.929  28.984  1.00  0.00    -0.237 OA
ATOM     89  O   UNL A   1      46.301  35.819  27.277  1.00  0.00    -0.237 OA
ATOM     90  O   UNL A   1      45.362  37.633  28.659  1.00  0.00    -0.744 OA
ENDBRANCH  83  87
ENDBRANCH  57  80
ENDBRANCH  31  32
ENDBRANCH  24  26
ENDBRANCH  23  24
ENDBRANCH  22  23
ENDBRANCH   1  22
TORSDOF 18
ENDMDL
