MODEL 1
REMARK VINA RESULT:     -10.9      0.000      0.000
REMARK SMILES CC(C)C[C@@H](C(=O)OCCOC(=O)c1ccc(-c2c3nc(c(-c4cc(S(=O)(=O)[O-])ccc4F)c4ccc([nH]4)c(-c4cc(S(=O)(=O)[O-])ccc4F)c4nc(c(-c5cc(S(=O)(=O)[O-])ccc5F)c5ccc2[nH]5)C=C4)C=C3)cc1)[C@@H]1CCC[C@@H](C)C1
REMARK SMILES IDX 10 1 9 2 8 3 6 4 7 5 5 6 4 7 2 8 1 9 3 10 77 11 78 12 83 13
REMARK SMILES IDX 79 14 81 15 80 16 82 17 11 18 12 19 13 20 14 21 15 22 76 23
REMARK SMILES IDX 16 24 75 25 17 26 18 27 19 28 69 29 20 30 74 31 68 32 70 33
REMARK SMILES IDX 21 34 73 35 67 36 66 37 22 39 54 40 34 41 53 42 35 43 38 44
REMARK SMILES IDX 52 45 71 46 36 47 37 48 51 50 72 51 39 52 23 53 24 54 32 55
REMARK SMILES IDX 25 56 31 57 33 58 30 59 26 60 27 61 28 62 29 63 55 64 56 65
REMARK SMILES IDX 64 66 57 67 63 68 65 69 62 70 58 71 59 72 60 73 61 74 40 75
REMARK SMILES IDX 41 76 49 77 42 78 48 79 50 80 47 81 43 82 44 83 45 84 46 85
REMARK H PARENT 70 38 38 49
REMARK Flexibility Score: inf
ROOT
ATOM      1  C   UNL A   1      36.138  20.739  25.234  1.00  0.00     0.275 C 
ENDROOT
BRANCH   1   2
ATOM      2  C   UNL A   1      34.904  21.406  24.627  1.00  0.00     0.274 C 
BRANCH   2   3
ATOM      3  O   UNL A   1      34.954  22.841  24.764  1.00  0.00    -0.462 OA
BRANCH   3   4
ATOM      4  C   UNL A   1      34.447  23.544  23.731  1.00  0.00     0.309 C 
ATOM      5  O   UNL A   1      34.862  23.455  22.579  1.00  0.00    -0.252 OA
BRANCH   4   6
ATOM      6  C   UNL A   1      33.342  24.532  24.104  1.00  0.00     0.102 C 
BRANCH   6   7
ATOM      7  C   UNL A   1      33.413  25.661  23.037  1.00  0.00     0.018 C 
BRANCH   7   8
ATOM      8  C   UNL A   1      32.092  26.100  22.368  1.00  0.00    -0.017 C 
ATOM      9  C   UNL A   1      31.717  27.565  22.574  1.00  0.00     0.007 C 
ATOM     10  C   UNL A   1      32.190  25.814  20.864  1.00  0.00     0.007 C 
ENDBRANCH   7   8
ENDBRANCH   6   7
BRANCH   6  11
ATOM     11  C   UNL A   1      33.167  25.000  25.587  1.00  0.00     0.003 C 
ATOM     12  C   UNL A   1      31.767  24.911  26.209  1.00  0.00     0.004 C 
ATOM     13  C   UNL A   1      33.895  26.303  25.994  1.00  0.00     0.007 C 
ATOM     14  C   UNL A   1      30.935  26.169  26.053  1.00  0.00     0.001 C 
ATOM     15  C   UNL A   1      33.046  27.585  26.053  1.00  0.00    -0.014 C 
ATOM     16  C   UNL A   1      31.656  27.366  26.655  1.00  0.00     0.003 C 
ATOM     17  C   UNL A   1      33.777  28.686  26.829  1.00  0.00     0.007 C 
ENDBRANCH   6  11
ENDBRANCH   4   6
ENDBRANCH   3   4
ENDBRANCH   2   3
ENDBRANCH   1   2
BRANCH   1  18
ATOM     18  O   UNL A   1      37.035  21.733  25.756  1.00  0.00    -0.458 OA
BRANCH  18  19
ATOM     19  C   UNL A   1      38.347  21.406  25.774  1.00  0.00     0.338 C 
ATOM     20  O   UNL A   1      38.852  20.357  25.417  1.00  0.00    -0.246 OA
BRANCH  19  21
ATOM     21  C   UNL A   1      39.112  22.506  26.380  1.00  0.00     0.060 A 
ATOM     22  C   UNL A   1      40.164  22.255  27.266  1.00  0.00     0.016 A 
ATOM     23  C   UNL A   1      38.738  23.815  26.078  1.00  0.00     0.016 A 
ATOM     24  C   UNL A   1      40.852  23.317  27.850  1.00  0.00     0.010 A 
ATOM     25  C   UNL A   1      39.457  24.876  26.627  1.00  0.00     0.010 A 
ATOM     26  C   UNL A   1      40.520  24.634  27.513  1.00  0.00    -0.014 A 
BRANCH  26  27
ATOM     27  C   UNL A   1      41.303  25.782  28.029  1.00  0.00     0.031 A 
ATOM     28  C   UNL A   1      40.617  26.869  28.800  1.00  0.00     0.074 A 
ATOM     29  C   UNL A   1      42.608  25.877  27.709  1.00  0.00     0.049 A 
ATOM     30  N   UNL A   1      41.058  28.054  29.132  1.00  0.00    -0.248 NA
ATOM     31  C   UNL A   1      39.243  26.587  29.244  1.00  0.00     0.031 C 
ATOM     32  C   UNL A   1      43.372  24.859  26.983  1.00  0.00     0.029 A 
ATOM     33  N   UNL A   1      43.511  26.887  27.916  1.00  0.00    -0.354 N 
ATOM     34  C   UNL A   1      40.007  28.675  29.798  1.00  0.00     0.074 A 
ATOM     35  C   UNL A   1      38.904  27.736  29.812  1.00  0.00     0.031 C 
ATOM     36  C   UNL A   1      44.620  25.307  26.783  1.00  0.00     0.029 A 
ATOM     37  C   UNL A   1      44.724  26.665  27.303  1.00  0.00     0.049 A 
ATOM     38  H   UNL A   1      43.313  27.690  28.449  1.00  0.00     0.167 HD
ATOM     39  C   UNL A   1      39.974  29.921  30.335  1.00  0.00     0.034 A 
ATOM     40  C   UNL A   1      45.776  27.487  27.126  1.00  0.00     0.034 A 
ATOM     41  C   UNL A   1      41.093  30.832  30.299  1.00  0.00     0.049 A 
ATOM     42  C   UNL A   1      45.694  28.887  27.674  1.00  0.00     0.074 A 
ATOM     43  C   UNL A   1      41.195  32.100  30.844  1.00  0.00     0.029 A 
ATOM     44  N   UNL A   1      42.305  30.575  29.667  1.00  0.00    -0.354 N 
ATOM     45  N   UNL A   1      44.699  29.466  28.307  1.00  0.00    -0.248 NA
ATOM     46  C   UNL A   1      46.869  29.744  27.481  1.00  0.00     0.031 C 
ATOM     47  C   UNL A   1      42.439  32.632  30.487  1.00  0.00     0.029 A 
ATOM     48  C   UNL A   1      43.144  31.673  29.776  1.00  0.00     0.049 A 
ATOM     49  H   UNL A   1      42.534  29.735  29.208  1.00  0.00     0.167 HD
ATOM     50  C   UNL A   1      45.135  30.752  28.601  1.00  0.00     0.074 A 
ATOM     51  C   UNL A   1      46.488  30.857  28.090  1.00  0.00     0.031 C 
ATOM     52  C   UNL A   1      44.481  31.758  29.238  1.00  0.00     0.034 A 
BRANCH  39  53
ATOM     53  C   UNL A   1      38.673  30.384  30.945  1.00  0.00     0.023 A 
ATOM     54  C   UNL A   1      37.690  31.050  30.192  1.00  0.00     0.031 A 
ATOM     55  C   UNL A   1      38.423  30.174  32.313  1.00  0.00     0.131 A 
ATOM     56  C   UNL A   1      36.532  31.533  30.822  1.00  0.00     0.055 A 
ATOM     57  C   UNL A   1      37.239  30.597  32.920  1.00  0.00     0.041 A 
ATOM     58  F   UNL A   1      39.334  29.565  33.088  1.00  0.00    -0.206 F 
ATOM     59  C   UNL A   1      36.290  31.292  32.177  1.00  0.00     0.022 A 
BRANCH  56  60
ATOM     60  S   UNL A   1      35.398  32.586  29.874  1.00  0.00     0.124 S 
ATOM     61  O   UNL A   1      36.197  33.797  29.698  1.00  0.00    -0.237 OA
ATOM     62  O   UNL A   1      35.162  31.795  28.672  1.00  0.00    -0.237 OA
ATOM     63  O   UNL A   1      34.244  32.734  30.760  1.00  0.00    -0.744 OA
ENDBRANCH  56  60
ENDBRANCH  39  53
BRANCH  40  64
ATOM     64  C   UNL A   1      46.958  27.033  26.341  1.00  0.00     0.023 A 
ATOM     65  C   UNL A   1      48.046  26.403  26.965  1.00  0.00     0.031 A 
ATOM     66  C   UNL A   1      47.022  27.237  24.950  1.00  0.00     0.131 A 
ATOM     67  C   UNL A   1      49.163  26.024  26.203  1.00  0.00     0.055 A 
ATOM     68  C   UNL A   1      48.114  26.815  24.190  1.00  0.00     0.041 A 
ATOM     69  F   UNL A   1      46.008  27.834  24.304  1.00  0.00    -0.206 F 
ATOM     70  C   UNL A   1      49.198  26.213  24.820  1.00  0.00     0.022 A 
BRANCH  67  71
ATOM     71  S   UNL A   1      50.606  25.339  27.063  1.00  0.00     0.124 S 
ATOM     72  O   UNL A   1      51.466  24.959  25.948  1.00  0.00    -0.237 OA
ATOM     73  O   UNL A   1      51.053  26.477  27.859  1.00  0.00    -0.237 OA
ATOM     74  O   UNL A   1      50.049  24.225  27.828  1.00  0.00    -0.744 OA
ENDBRANCH  67  71
ENDBRANCH  40  64
BRANCH  52  75
ATOM     75  C   UNL A   1      45.249  33.038  29.437  1.00  0.00     0.023 A 
ATOM     76  C   UNL A   1      45.124  34.115  28.544  1.00  0.00     0.031 A 
ATOM     77  C   UNL A   1      46.129  33.171  30.525  1.00  0.00     0.131 A 
ATOM     78  C   UNL A   1      45.906  35.264  28.727  1.00  0.00     0.055 A 
ATOM     79  C   UNL A   1      46.865  34.338  30.732  1.00  0.00     0.041 A 
ATOM     80  F   UNL A   1      46.284  32.169  31.404  1.00  0.00    -0.206 F 
ATOM     81  C   UNL A   1      46.764  35.389  29.824  1.00  0.00     0.022 A 
BRANCH  78  82
ATOM     82  S   UNL A   1      45.842  36.572  27.473  1.00  0.00     0.124 S 
ATOM     83  O   UNL A   1      47.154  36.456  26.847  1.00  0.00    -0.237 OA
ATOM     84  O   UNL A   1      44.706  36.165  26.652  1.00  0.00    -0.237 OA
ATOM     85  O   UNL A   1      45.633  37.789  28.256  1.00  0.00    -0.744 OA
ENDBRANCH  78  82
ENDBRANCH  52  75
ENDBRANCH  26  27
ENDBRANCH  19  21
ENDBRANCH  18  19
ENDBRANCH   1  18
TORSDOF 17
ENDMDL
MODEL 2
REMARK VINA RESULT:     -10.9      5.160      9.976
REMARK SMILES CC(C)C[C@@H](C(=O)OCCOC(=O)c1ccc(-c2c3nc(c(-c4cc(S(=O)(=O)[O-])ccc4F)c4ccc([nH]4)c(-c4cc(S(=O)(=O)[O-])ccc4F)c4nc(c(-c5cc(S(=O)(=O)[O-])ccc5F)c5ccc2[nH]5)C=C4)C=C3)cc1)[C@@H]1CCC[C@@H](C)C1
REMARK SMILES IDX 10 1 9 2 8 3 6 4 7 5 5 6 4 7 2 8 1 9 3 10 77 11 78 12 83 13
REMARK SMILES IDX 79 14 81 15 80 16 82 17 11 18 12 19 13 20 14 21 15 22 76 23
REMARK SMILES IDX 16 24 75 25 17 26 18 27 19 28 69 29 20 30 74 31 68 32 70 33
REMARK SMILES IDX 21 34 73 35 67 36 66 37 22 39 54 40 34 41 53 42 35 43 38 44
REMARK SMILES IDX 52 45 71 46 36 47 37 48 51 50 72 51 39 52 23 53 24 54 32 55
REMARK SMILES IDX 25 56 31 57 33 58 30 59 26 60 27 61 28 62 29 63 55 64 56 65
REMARK SMILES IDX 64 66 57 67 63 68 65 69 62 70 58 71 59 72 60 73 61 74 40 75
REMARK SMILES IDX 41 76 49 77 42 78 48 79 50 80 47 81 43 82 44 83 45 84 46 85
REMARK H PARENT 70 38 38 49
REMARK Flexibility Score: inf
ROOT
ATOM      1  C   UNL A   1      31.760  30.132  26.865  1.00  0.00     0.275 C 
ENDROOT
BRANCH   1   2
ATOM      2  C   UNL A   1      31.787  28.699  27.398  1.00  0.00     0.274 C 
BRANCH   2   3
ATOM      3  O   UNL A   1      32.532  27.822  26.528  1.00  0.00    -0.462 OA
BRANCH   3   4
ATOM      4  C   UNL A   1      31.945  26.640  26.251  1.00  0.00     0.309 C 
ATOM      5  O   UNL A   1      30.935  26.233  26.819  1.00  0.00    -0.252 OA
BRANCH   4   6
ATOM      6  C   UNL A   1      32.670  25.788  25.210  1.00  0.00     0.102 C 
BRANCH   6   7
ATOM      7  C   UNL A   1      31.773  25.824  23.940  1.00  0.00     0.018 C 
BRANCH   7   8
ATOM      8  C   UNL A   1      32.350  26.493  22.674  1.00  0.00    -0.017 C 
ATOM      9  C   UNL A   1      33.645  27.271  22.883  1.00  0.00     0.007 C 
ATOM     10  C   UNL A   1      32.581  25.409  21.613  1.00  0.00     0.007 C 
ENDBRANCH   7   8
ENDBRANCH   6   7
BRANCH   6  11
ATOM     11  C   UNL A   1      33.250  24.387  25.601  1.00  0.00     0.003 C 
ATOM     12  C   UNL A   1      34.774  24.209  25.579  1.00  0.00     0.004 C 
ATOM     13  C   UNL A   1      32.518  23.149  25.029  1.00  0.00     0.007 C 
ATOM     14  C   UNL A   1      35.324  23.708  24.257  1.00  0.00     0.001 C 
ATOM     15  C   UNL A   1      33.151  22.472  23.801  1.00  0.00    -0.014 C 
ATOM     16  C   UNL A   1      34.677  22.387  23.874  1.00  0.00     0.003 C 
ATOM     17  C   UNL A   1      32.564  21.072  23.590  1.00  0.00     0.007 C 
ENDBRANCH   6  11
ENDBRANCH   4   6
ENDBRANCH   3   4
ENDBRANCH   2   3
ENDBRANCH   1   2
BRANCH   1  18
ATOM     18  O   UNL A   1      33.098  30.597  26.622  1.00  0.00    -0.458 OA
BRANCH  18  19
ATOM     19  C   UNL A   1      33.504  31.659  27.355  1.00  0.00     0.338 C 
ATOM     20  O   UNL A   1      32.936  32.728  27.485  1.00  0.00    -0.246 OA
BRANCH  19  21
ATOM     21  C   UNL A   1      34.821  31.367  27.942  1.00  0.00     0.060 A 
ATOM     22  C   UNL A   1      35.817  32.346  28.008  1.00  0.00     0.016 A 
ATOM     23  C   UNL A   1      35.068  30.073  28.398  1.00  0.00     0.016 A 
ATOM     24  C   UNL A   1      37.067  32.033  28.540  1.00  0.00     0.010 A 
ATOM     25  C   UNL A   1      36.303  29.774  28.972  1.00  0.00     0.010 A 
ATOM     26  C   UNL A   1      37.308  30.753  29.051  1.00  0.00    -0.014 A 
BRANCH  26  27
ATOM     27  C   UNL A   1      38.587  30.421  29.723  1.00  0.00     0.031 A 
ATOM     28  C   UNL A   1      39.496  29.387  29.130  1.00  0.00     0.074 A 
ATOM     29  C   UNL A   1      38.861  30.985  30.915  1.00  0.00     0.049 A 
ATOM     30  N   UNL A   1      40.526  28.786  29.666  1.00  0.00    -0.248 NA
ATOM     31  C   UNL A   1      39.196  28.964  27.754  1.00  0.00     0.031 C 
ATOM     32  C   UNL A   1      38.051  32.020  31.563  1.00  0.00     0.029 A 
ATOM     33  N   UNL A   1      39.873  30.746  31.809  1.00  0.00    -0.354 N 
ATOM     34  C   UNL A   1      40.982  27.890  28.705  1.00  0.00     0.074 A 
ATOM     35  C   UNL A   1      40.107  28.021  27.559  1.00  0.00     0.031 C 
ATOM     36  C   UNL A   1      38.581  32.307  32.761  1.00  0.00     0.029 A 
ATOM     37  C   UNL A   1      39.724  31.432  32.993  1.00  0.00     0.049 A 
ATOM     38  H   UNL A   1      40.629  30.145  31.623  1.00  0.00     0.167 HD
ATOM     39  C   UNL A   1      42.031  27.032  28.789  1.00  0.00     0.034 A 
ATOM     40  C   UNL A   1      40.395  31.322  34.156  1.00  0.00     0.034 A 
ATOM     41  C   UNL A   1      42.881  26.926  29.950  1.00  0.00     0.049 A 
ATOM     42  C   UNL A   1      41.513  30.318  34.247  1.00  0.00     0.074 A 
ATOM     43  C   UNL A   1      43.996  26.128  30.138  1.00  0.00     0.029 A 
ATOM     44  N   UNL A   1      42.698  27.634  31.134  1.00  0.00    -0.354 N 
ATOM     45  N   UNL A   1      41.941  29.477  33.334  1.00  0.00    -0.248 NA
ATOM     46  C   UNL A   1      42.234  30.244  35.523  1.00  0.00     0.031 C 
ATOM     47  C   UNL A   1      44.446  26.305  31.451  1.00  0.00     0.029 A 
ATOM     48  C   UNL A   1      43.656  27.264  32.066  1.00  0.00     0.049 A 
ATOM     49  H   UNL A   1      41.992  28.302  31.288  1.00  0.00     0.167 HD
ATOM     50  C   UNL A   1      42.993  28.784  33.921  1.00  0.00     0.074 A 
ATOM     51  C   UNL A   1      43.143  29.317  35.261  1.00  0.00     0.031 C 
ATOM     52  C   UNL A   1      43.769  27.797  33.402  1.00  0.00     0.034 A 
BRANCH  39  53
ATOM     53  C   UNL A   1      42.270  26.106  27.621  1.00  0.00     0.023 A 
ATOM     54  C   UNL A   1      41.731  24.808  27.573  1.00  0.00     0.031 A 
ATOM     55  C   UNL A   1      43.071  26.525  26.544  1.00  0.00     0.131 A 
ATOM     56  C   UNL A   1      42.049  23.956  26.503  1.00  0.00     0.055 A 
ATOM     57  C   UNL A   1      43.328  25.697  25.449  1.00  0.00     0.041 A 
ATOM     58  F   UNL A   1      43.632  27.745  26.543  1.00  0.00    -0.206 F 
ATOM     59  C   UNL A   1      42.826  24.400  25.430  1.00  0.00     0.022 A 
BRANCH  56  60
ATOM     60  S   UNL A   1      41.531  22.219  26.589  1.00  0.00     0.124 S 
ATOM     61  O   UNL A   1      40.075  22.345  26.591  1.00  0.00    -0.237 OA
ATOM     62  O   UNL A   1      42.121  21.653  25.381  1.00  0.00    -0.237 OA
ATOM     63  O   UNL A   1      42.110  21.749  27.846  1.00  0.00    -0.744 OA
ENDBRANCH  56  60
ENDBRANCH  39  53
BRANCH  40  64
ATOM     64  C   UNL A   1      39.981  32.128  35.339  1.00  0.00     0.023 A 
ATOM     65  C   UNL A   1      39.071  31.624  36.280  1.00  0.00     0.031 A 
ATOM     66  C   UNL A   1      40.484  33.428  35.537  1.00  0.00     0.131 A 
ATOM     67  C   UNL A   1      38.669  32.424  37.361  1.00  0.00     0.055 A 
ATOM     68  C   UNL A   1      40.119  34.201  36.640  1.00  0.00     0.041 A 
ATOM     69  F   UNL A   1      41.359  33.958  34.667  1.00  0.00    -0.206 F 
ATOM     70  C   UNL A   1      39.197  33.703  37.555  1.00  0.00     0.022 A 
BRANCH  67  71
ATOM     71  S   UNL A   1      37.388  31.793  38.479  1.00  0.00     0.124 S 
ATOM     72  O   UNL A   1      36.293  32.724  38.235  1.00  0.00    -0.237 OA
ATOM     73  O   UNL A   1      37.198  30.434  37.984  1.00  0.00    -0.237 OA
ATOM     74  O   UNL A   1      38.009  31.893  39.799  1.00  0.00    -0.744 OA
ENDBRANCH  67  71
ENDBRANCH  40  64
BRANCH  52  75
ATOM     75  C   UNL A   1      44.864  27.268  34.289  1.00  0.00     0.023 A 
ATOM     76  C   UNL A   1      44.675  26.127  35.087  1.00  0.00     0.031 A 
ATOM     77  C   UNL A   1      46.104  27.926  34.348  1.00  0.00     0.131 A 
ATOM     78  C   UNL A   1      45.697  25.705  35.950  1.00  0.00     0.055 A 
ATOM     79  C   UNL A   1      47.136  27.470  35.170  1.00  0.00     0.041 A 
ATOM     80  F   UNL A   1      46.332  29.021  33.607  1.00  0.00    -0.206 F 
ATOM     81  C   UNL A   1      46.932  26.360  35.984  1.00  0.00     0.022 A 
BRANCH  78  82
ATOM     82  S   UNL A   1      45.370  24.327  37.082  1.00  0.00     0.124 S 
ATOM     83  O   UNL A   1      44.781  23.335  36.188  1.00  0.00    -0.237 OA
ATOM     84  O   UNL A   1      46.701  24.014  37.591  1.00  0.00    -0.237 OA
ATOM     85  O   UNL A   1      44.452  24.900  38.064  1.00  0.00    -0.744 OA
ENDBRANCH  78  82
ENDBRANCH  52  75
ENDBRANCH  26  27
ENDBRANCH  19  21
ENDBRANCH  18  19
ENDBRANCH   1  18
TORSDOF 17
ENDMDL
MODEL 3
REMARK VINA RESULT:     -10.8      1.318      1.572
REMARK SMILES CC(C)C[C@@H](C(=O)OCCOC(=O)c1ccc(-c2c3nc(c(-c4cc(S(=O)(=O)[O-])ccc4F)c4ccc([nH]4)c(-c4cc(S(=O)(=O)[O-])ccc4F)c4nc(c(-c5cc(S(=O)(=O)[O-])ccc5F)c5ccc2[nH]5)C=C4)C=C3)cc1)[C@@H]1CCC[C@@H](C)C1
REMARK SMILES IDX 10 1 9 2 8 3 6 4 7 5 5 6 4 7 2 8 1 9 3 10 77 11 78 12 83 13
REMARK SMILES IDX 79 14 81 15 80 16 82 17 11 18 12 19 13 20 14 21 15 22 76 23
REMARK SMILES IDX 16 24 75 25 17 26 18 27 19 28 69 29 20 30 74 31 68 32 70 33
REMARK SMILES IDX 21 34 73 35 67 36 66 37 22 39 54 40 34 41 53 42 35 43 38 44
REMARK SMILES IDX 52 45 71 46 36 47 37 48 51 50 72 51 39 52 23 53 24 54 32 55
REMARK SMILES IDX 25 56 31 57 33 58 30 59 26 60 27 61 28 62 29 63 55 64 56 65
REMARK SMILES IDX 64 66 57 67 63 68 65 69 62 70 58 71 59 72 60 73 61 74 40 75
REMARK SMILES IDX 41 76 49 77 42 78 48 79 50 80 47 81 43 82 44 83 45 84 46 85
REMARK H PARENT 70 38 38 49
REMARK Flexibility Score: inf
ROOT
ATOM      1  C   UNL A   1      36.146  20.702  25.273  1.00  0.00     0.275 C 
ENDROOT
BRANCH   1   2
ATOM      2  C   UNL A   1      34.932  21.374  24.631  1.00  0.00     0.274 C 
BRANCH   2   3
ATOM      3  O   UNL A   1      35.035  22.812  24.677  1.00  0.00    -0.462 OA
BRANCH   3   4
ATOM      4  C   UNL A   1      34.475  23.469  23.641  1.00  0.00     0.309 C 
ATOM      5  O   UNL A   1      34.848  23.347  22.477  1.00  0.00    -0.252 OA
BRANCH   4   6
ATOM      6  C   UNL A   1      33.367  24.450  24.021  1.00  0.00     0.102 C 
BRANCH   6   7
ATOM      7  C   UNL A   1      33.394  25.557  22.930  1.00  0.00     0.018 C 
BRANCH   7   8
ATOM      8  C   UNL A   1      32.116  25.766  22.088  1.00  0.00    -0.017 C 
ATOM      9  C   UNL A   1      31.342  27.045  22.389  1.00  0.00     0.007 C 
ATOM     10  C   UNL A   1      32.505  25.752  20.603  1.00  0.00     0.007 C 
ENDBRANCH   7   8
ENDBRANCH   6   7
BRANCH   6  11
ATOM     11  C   UNL A   1      33.224  24.947  25.499  1.00  0.00     0.003 C 
ATOM     12  C   UNL A   1      31.861  24.781  26.185  1.00  0.00     0.004 C 
ATOM     13  C   UNL A   1      33.877  26.308  25.839  1.00  0.00     0.007 C 
ATOM     14  C   UNL A   1      30.939  25.976  26.035  1.00  0.00     0.001 C 
ATOM     15  C   UNL A   1      32.945  27.530  25.904  1.00  0.00    -0.014 C 
ATOM     16  C   UNL A   1      31.601  27.235  26.573  1.00  0.00     0.003 C 
ATOM     17  C   UNL A   1      33.632  28.700  26.618  1.00  0.00     0.007 C 
ENDBRANCH   6  11
ENDBRANCH   4   6
ENDBRANCH   3   4
ENDBRANCH   2   3
ENDBRANCH   1   2
BRANCH   1  18
ATOM     18  O   UNL A   1      37.031  21.693  25.822  1.00  0.00    -0.458 OA
BRANCH  18  19
ATOM     19  C   UNL A   1      38.349  21.390  25.814  1.00  0.00     0.338 C 
ATOM     20  O   UNL A   1      38.866  20.349  25.451  1.00  0.00    -0.246 OA
BRANCH  19  21
ATOM     21  C   UNL A   1      39.106  22.508  26.397  1.00  0.00     0.060 A 
ATOM     22  C   UNL A   1      40.175  22.281  27.270  1.00  0.00     0.016 A 
ATOM     23  C   UNL A   1      38.708  23.808  26.089  1.00  0.00     0.016 A 
ATOM     24  C   UNL A   1      40.855  23.359  27.833  1.00  0.00     0.010 A 
ATOM     25  C   UNL A   1      39.418  24.885  26.616  1.00  0.00     0.010 A 
ATOM     26  C   UNL A   1      40.499  24.668  27.488  1.00  0.00    -0.014 A 
BRANCH  26  27
ATOM     27  C   UNL A   1      41.272  25.832  27.982  1.00  0.00     0.031 A 
ATOM     28  C   UNL A   1      40.577  26.923  28.740  1.00  0.00     0.074 A 
ATOM     29  C   UNL A   1      42.573  25.936  27.652  1.00  0.00     0.049 A 
ATOM     30  N   UNL A   1      41.007  28.118  29.050  1.00  0.00    -0.248 NA
ATOM     31  C   UNL A   1      39.210  26.634  29.196  1.00  0.00     0.031 C 
ATOM     32  C   UNL A   1      43.345  24.915  26.938  1.00  0.00     0.029 A 
ATOM     33  N   UNL A   1      43.467  26.959  27.838  1.00  0.00    -0.354 N 
ATOM     34  C   UNL A   1      39.953  28.739  29.713  1.00  0.00     0.074 A 
ATOM     35  C   UNL A   1      38.861  27.787  29.748  1.00  0.00     0.031 C 
ATOM     36  C   UNL A   1      44.587  25.374  26.724  1.00  0.00     0.029 A 
ATOM     37  C   UNL A   1      44.678  26.741  27.222  1.00  0.00     0.049 A 
ATOM     38  H   UNL A   1      43.263  27.768  28.360  1.00  0.00     0.167 HD
ATOM     39  C   UNL A   1      39.910  29.992  30.230  1.00  0.00     0.034 A 
ATOM     40  C   UNL A   1      45.720  27.572  27.026  1.00  0.00     0.034 A 
ATOM     41  C   UNL A   1      41.019  30.915  30.173  1.00  0.00     0.049 A 
ATOM     42  C   UNL A   1      45.625  28.979  27.552  1.00  0.00     0.074 A 
ATOM     43  C   UNL A   1      41.110  32.192  30.697  1.00  0.00     0.029 A 
ATOM     44  N   UNL A   1      42.230  30.661  29.538  1.00  0.00    -0.354 N 
ATOM     45  N   UNL A   1      44.628  29.557  28.182  1.00  0.00    -0.248 NA
ATOM     46  C   UNL A   1      46.790  29.845  27.339  1.00  0.00     0.031 C 
ATOM     47  C   UNL A   1      42.346  32.733  30.324  1.00  0.00     0.029 A 
ATOM     48  C   UNL A   1      43.057  31.770  29.624  1.00  0.00     0.049 A 
ATOM     49  H   UNL A   1      42.465  29.816  29.091  1.00  0.00     0.167 HD
ATOM     50  C   UNL A   1      45.052  30.852  28.453  1.00  0.00     0.074 A 
ATOM     51  C   UNL A   1      46.400  30.964  27.933  1.00  0.00     0.031 C 
ATOM     52  C   UNL A   1      44.390  31.860  29.078  1.00  0.00     0.034 A 
BRANCH  39  53
ATOM     53  C   UNL A   1      38.608  30.451  30.840  1.00  0.00     0.023 A 
ATOM     54  C   UNL A   1      37.588  31.038  30.071  1.00  0.00     0.031 A 
ATOM     55  C   UNL A   1      38.393  30.316  32.223  1.00  0.00     0.131 A 
ATOM     56  C   UNL A   1      36.428  31.523  30.697  1.00  0.00     0.055 A 
ATOM     57  C   UNL A   1      37.208  30.738  32.831  1.00  0.00     0.041 A 
ATOM     58  F   UNL A   1      39.338  29.784  33.013  1.00  0.00    -0.206 F 
ATOM     59  C   UNL A   1      36.222  31.356  32.069  1.00  0.00     0.022 A 
BRANCH  56  60
ATOM     60  S   UNL A   1      35.241  32.480  29.714  1.00  0.00     0.124 S 
ATOM     61  O   UNL A   1      34.247  32.843  30.721  1.00  0.00    -0.237 OA
ATOM     62  O   UNL A   1      36.062  33.573  29.204  1.00  0.00    -0.237 OA
ATOM     63  O   UNL A   1      34.778  31.526  28.708  1.00  0.00    -0.744 OA
ENDBRANCH  56  60
ENDBRANCH  39  53
BRANCH  40  64
ATOM     64  C   UNL A   1      46.903  27.118  26.241  1.00  0.00     0.023 A 
ATOM     65  C   UNL A   1      47.998  26.505  26.868  1.00  0.00     0.031 A 
ATOM     66  C   UNL A   1      46.959  27.305  24.847  1.00  0.00     0.131 A 
ATOM     67  C   UNL A   1      49.116  26.126  26.106  1.00  0.00     0.055 A 
ATOM     68  C   UNL A   1      48.051  26.883  24.088  1.00  0.00     0.041 A 
ATOM     69  F   UNL A   1      45.936  27.885  24.198  1.00  0.00    -0.206 F 
ATOM     70  C   UNL A   1      49.143  26.298  24.720  1.00  0.00     0.022 A 
BRANCH  67  71
ATOM     71  S   UNL A   1      50.568  25.465  26.967  1.00  0.00     0.124 S 
ATOM     72  O   UNL A   1      51.471  25.181  25.857  1.00  0.00    -0.237 OA
ATOM     73  O   UNL A   1      50.943  26.580  27.830  1.00  0.00    -0.237 OA
ATOM     74  O   UNL A   1      50.046  24.289  27.662  1.00  0.00    -0.744 OA
ENDBRANCH  67  71
ENDBRANCH  40  64
BRANCH  52  75
ATOM     75  C   UNL A   1      45.144  33.152  29.252  1.00  0.00     0.023 A 
ATOM     76  C   UNL A   1      45.950  33.384  30.380  1.00  0.00     0.031 A 
ATOM     77  C   UNL A   1      45.040  34.167  28.286  1.00  0.00     0.131 A 
ATOM     78  C   UNL A   1      46.582  34.626  30.539  1.00  0.00     0.055 A 
ATOM     79  C   UNL A   1      45.715  35.380  28.423  1.00  0.00     0.041 A 
ATOM     80  F   UNL A   1      44.282  33.993  27.192  1.00  0.00    -0.206 F 
ATOM     81  C   UNL A   1      46.483  35.619  29.560  1.00  0.00     0.022 A 
BRANCH  78  82
ATOM     82  S   UNL A   1      47.484  34.955  32.077  1.00  0.00     0.124 S 
ATOM     83  O   UNL A   1      47.429  36.411  32.154  1.00  0.00    -0.237 OA
ATOM     84  O   UNL A   1      46.691  34.234  33.068  1.00  0.00    -0.237 OA
ATOM     85  O   UNL A   1      48.811  34.397  31.824  1.00  0.00    -0.744 OA
ENDBRANCH  78  82
ENDBRANCH  52  75
ENDBRANCH  26  27
ENDBRANCH  19  21
ENDBRANCH  18  19
ENDBRANCH   1  18
TORSDOF 17
ENDMDL
