MODEL 1
REMARK VINA RESULT:     -11.8      0.000      0.000
REMARK SMILES O=C(OCCOC(=O)c1ccccc1C[N@H+]1CCCC[C@@H]1CCn1cccn1)c1ccc(-c2c3nc(c(-c4cc(S(=O)(=O)[O-])ccc4F)c4ccc([nH]4)c(-c4cc(S(=O)(=O)[O-])ccc4F)c4nc(c(-c5cc(S(=O)(=O)[O-])ccc5F)c5ccc2[nH]5)C=C4)C=C3)cc1
REMARK SMILES IDX 5 1 4 2 3 3 2 4 1 5 29 6 30 7 91 8 31 9 90 10 32 11 33 12
REMARK SMILES IDX 34 13 84 14 35 15 89 16 83 17 85 18 36 19 88 20 82 21 81 22
REMARK SMILES IDX 37 24 69 25 49 26 68 27 50 28 53 29 67 30 86 31 51 32 52 33
REMARK SMILES IDX 66 35 87 36 54 37 38 38 39 39 47 40 40 41 46 42 48 43 45 44
REMARK SMILES IDX 41 45 42 46 43 47 44 48 70 49 71 50 79 51 72 52 78 53 80 54
REMARK SMILES IDX 77 55 73 56 74 57 75 58 76 59 55 60 56 61 64 62 57 63 63 64
REMARK SMILES IDX 65 65 62 66 58 67 59 68 60 69 61 70 6 71 7 72 8 73 9 74
REMARK SMILES IDX 10 75 14 76 11 77 13 78 12 79 15 80 16 81 17 82 21 83 18 85
REMARK SMILES IDX 20 86 19 87 22 88 23 89 24 90 25 91 28 92 26 93 27 94
REMARK H PARENT 85 23 53 34 16 84
REMARK Flexibility Score: inf
ROOT
ATOM      1  C   UNL A   1      33.209  28.104  26.940  1.00  0.00     0.275 C 
ENDROOT
BRANCH   1   2
ATOM      2  C   UNL A   1      34.661  28.580  26.900  1.00  0.00     0.275 C 
BRANCH   2   3
ATOM      3  O   UNL A   1      35.177  29.217  28.085  1.00  0.00    -0.458 OA
BRANCH   3   4
ATOM      4  C   UNL A   1      36.258  30.022  27.996  1.00  0.00     0.338 C 
ATOM      5  O   UNL A   1      36.190  31.241  28.061  1.00  0.00    -0.246 OA
BRANCH   4   6
ATOM      6  C   UNL A   1      37.553  29.298  28.032  1.00  0.00     0.060 A 
ATOM      7  C   UNL A   1      37.909  28.403  29.048  1.00  0.00     0.016 A 
ATOM      8  C   UNL A   1      38.451  29.561  26.988  1.00  0.00     0.016 A 
ATOM      9  C   UNL A   1      39.184  27.860  29.080  1.00  0.00     0.010 A 
ATOM     10  C   UNL A   1      39.712  28.995  27.001  1.00  0.00     0.010 A 
ATOM     11  C   UNL A   1      40.097  28.211  28.089  1.00  0.00    -0.014 A 
BRANCH  11  12
ATOM     12  C   UNL A   1      41.474  27.747  28.210  1.00  0.00     0.031 A 
ATOM     13  C   UNL A   1      41.777  26.446  27.551  1.00  0.00     0.074 A 
ATOM     14  C   UNL A   1      42.416  28.542  28.761  1.00  0.00     0.049 A 
ATOM     15  N   UNL A   1      42.274  25.372  28.071  1.00  0.00    -0.248 NA
ATOM     16  C   UNL A   1      41.366  26.282  26.146  1.00  0.00     0.031 C 
ATOM     17  C   UNL A   1      42.260  29.930  29.210  1.00  0.00     0.029 A 
ATOM     18  N   UNL A   1      43.751  28.329  28.911  1.00  0.00    -0.354 N 
ATOM     19  C   UNL A   1      42.454  24.474  27.019  1.00  0.00     0.074 A 
ATOM     20  C   UNL A   1      41.722  25.019  25.908  1.00  0.00     0.031 C 
ATOM     21  C   UNL A   1      43.477  30.507  29.316  1.00  0.00     0.029 A 
ATOM     22  C   UNL A   1      44.494  29.494  29.093  1.00  0.00     0.049 A 
ATOM     23  H   UNL A   1      44.157  27.433  28.893  1.00  0.00     0.167 HD
ATOM     24  C   UNL A   1      43.378  23.474  27.088  1.00  0.00     0.034 A 
ATOM     25  C   UNL A   1      45.843  29.638  28.990  1.00  0.00     0.034 A 
ATOM     26  C   UNL A   1      43.729  23.190  28.461  1.00  0.00     0.049 A 
ATOM     27  C   UNL A   1      46.427  28.284  29.159  1.00  0.00     0.074 A 
ATOM     28  C   UNL A   1      43.019  22.779  29.574  1.00  0.00     0.029 A 
ATOM     29  N   UNL A   1      44.921  23.676  28.952  1.00  0.00    -0.354 N 
ATOM     30  N   UNL A   1      46.330  27.602  30.269  1.00  0.00    -0.248 NA
ATOM     31  C   UNL A   1      46.666  27.487  27.965  1.00  0.00     0.031 C 
ATOM     32  C   UNL A   1      43.577  23.523  30.656  1.00  0.00     0.029 A 
ATOM     33  C   UNL A   1      44.645  24.273  30.158  1.00  0.00     0.049 A 
ATOM     34  H   UNL A   1      45.803  23.607  28.521  1.00  0.00     0.167 HD
ATOM     35  C   UNL A   1      46.056  26.302  29.869  1.00  0.00     0.074 A 
ATOM     36  C   UNL A   1      46.373  26.273  28.440  1.00  0.00     0.031 C 
ATOM     37  C   UNL A   1      45.328  25.452  30.655  1.00  0.00     0.034 A 
BRANCH  24  38
ATOM     38  C   UNL A   1      44.247  23.023  25.926  1.00  0.00     0.023 A 
ATOM     39  C   UNL A   1      44.241  21.645  25.623  1.00  0.00     0.031 A 
ATOM     40  C   UNL A   1      45.285  23.769  25.326  1.00  0.00     0.131 A 
ATOM     41  C   UNL A   1      45.298  21.053  24.909  1.00  0.00     0.055 A 
ATOM     42  C   UNL A   1      46.300  23.185  24.562  1.00  0.00     0.041 A 
ATOM     43  F   UNL A   1      45.433  25.087  25.502  1.00  0.00    -0.206 F 
ATOM     44  C   UNL A   1      46.336  21.814  24.385  1.00  0.00     0.022 A 
BRANCH  41  45
ATOM     45  S   UNL A   1      45.393  19.245  24.867  1.00  0.00     0.124 S 
ATOM     46  O   UNL A   1      44.062  18.873  25.336  1.00  0.00    -0.237 OA
ATOM     47  O   UNL A   1      45.673  18.996  23.457  1.00  0.00    -0.237 OA
ATOM     48  O   UNL A   1      46.487  18.943  25.785  1.00  0.00    -0.744 OA
ENDBRANCH  41  45
ENDBRANCH  24  38
BRANCH  25  49
ATOM     49  C   UNL A   1      46.560  30.793  28.371  1.00  0.00     0.023 A 
ATOM     50  C   UNL A   1      45.977  31.646  27.410  1.00  0.00     0.031 A 
ATOM     51  C   UNL A   1      47.805  31.203  28.905  1.00  0.00     0.131 A 
ATOM     52  C   UNL A   1      46.642  32.834  27.015  1.00  0.00     0.055 A 
ATOM     53  C   UNL A   1      48.458  32.371  28.508  1.00  0.00     0.041 A 
ATOM     54  F   UNL A   1      48.396  30.518  29.896  1.00  0.00    -0.206 F 
ATOM     55  C   UNL A   1      47.874  33.198  27.563  1.00  0.00     0.022 A 
BRANCH  52  56
ATOM     56  S   UNL A   1      45.872  33.981  25.823  1.00  0.00     0.124 S 
ATOM     57  O   UNL A   1      45.222  34.950  26.697  1.00  0.00    -0.237 OA
ATOM     58  O   UNL A   1      47.020  34.461  25.063  1.00  0.00    -0.237 OA
ATOM     59  O   UNL A   1      44.955  33.126  25.067  1.00  0.00    -0.744 OA
ENDBRANCH  52  56
ENDBRANCH  25  49
BRANCH  37  60
ATOM     60  C   UNL A   1      45.023  25.863  32.083  1.00  0.00     0.023 A 
ATOM     61  C   UNL A   1      43.855  26.550  32.493  1.00  0.00     0.031 A 
ATOM     62  C   UNL A   1      45.892  25.402  33.086  1.00  0.00     0.131 A 
ATOM     63  C   UNL A   1      43.603  26.754  33.866  1.00  0.00     0.055 A 
ATOM     64  C   UNL A   1      45.630  25.589  34.441  1.00  0.00     0.041 A 
ATOM     65  F   UNL A   1      46.999  24.712  32.761  1.00  0.00    -0.206 F 
ATOM     66  C   UNL A   1      44.485  26.270  34.838  1.00  0.00     0.022 A 
BRANCH  63  67
ATOM     67  S   UNL A   1      42.117  27.657  34.420  1.00  0.00     0.124 S 
ATOM     68  O   UNL A   1      41.610  28.264  33.196  1.00  0.00    -0.237 OA
ATOM     69  O   UNL A   1      41.297  26.594  34.997  1.00  0.00    -0.237 OA
ATOM     70  O   UNL A   1      42.645  28.610  35.398  1.00  0.00    -0.744 OA
ENDBRANCH  63  67
ENDBRANCH  37  60
ENDBRANCH  11  12
ENDBRANCH   4   6
ENDBRANCH   3   4
ENDBRANCH   2   3
ENDBRANCH   1   2
BRANCH   1  71
ATOM     71  O   UNL A   1      33.090  26.759  26.452  1.00  0.00    -0.458 OA
BRANCH  71  72
ATOM     72  C   UNL A   1      31.854  26.211  26.511  1.00  0.00     0.338 C 
ATOM     73  O   UNL A   1      30.810  26.758  26.854  1.00  0.00    -0.246 OA
BRANCH  72  74
ATOM     74  C   UNL A   1      31.934  24.804  26.087  1.00  0.00     0.068 A 
ATOM     75  C   UNL A   1      32.539  23.897  26.967  1.00  0.00     0.016 A 
ATOM     76  C   UNL A   1      31.484  24.389  24.820  1.00  0.00     0.021 A 
ATOM     77  C   UNL A   1      32.613  22.546  26.639  1.00  0.00     0.001 A 
ATOM     78  C   UNL A   1      31.527  23.016  24.531  1.00  0.00     0.010 A 
ATOM     79  C   UNL A   1      32.086  22.103  25.430  1.00  0.00     0.001 A 
BRANCH  76  80
ATOM     80  C   UNL A   1      31.068  25.381  23.744  1.00  0.00     0.300 C 
BRANCH  80  81
ATOM     81  N   UNL A   1      31.817  26.669  23.709  1.00  0.00    -0.329 N 
ATOM     82  C   UNL A   1      33.146  26.468  23.096  1.00  0.00     0.262 C 
ATOM     83  C   UNL A   1      31.083  27.802  23.083  1.00  0.00     0.186 C 
ATOM     84  H   UNL A   1      31.930  26.955  24.681  1.00  0.00     0.348 HD
ATOM     85  C   UNL A   1      34.031  27.707  23.089  1.00  0.00     0.062 C 
ATOM     86  C   UNL A   1      31.964  29.075  23.093  1.00  0.00     0.065 C 
ATOM     87  C   UNL A   1      33.309  28.857  22.416  1.00  0.00     0.012 C 
BRANCH  83  88
ATOM     88  C   UNL A   1      29.753  28.108  23.824  1.00  0.00     0.088 C 
BRANCH  88  89
ATOM     89  C   UNL A   1      28.538  28.343  22.919  1.00  0.00     0.150 C 
BRANCH  89  90
ATOM     90  N   UNL A   1      28.387  29.727  22.514  1.00  0.00    -0.273 N 
ATOM     91  C   UNL A   1      28.007  30.775  23.300  1.00  0.00     0.108 A 
ATOM     92  N   UNL A   1      28.604  30.076  21.231  1.00  0.00    -0.182 NA
ATOM     93  C   UNL A   1      27.918  31.864  22.463  1.00  0.00     0.042 A 
ATOM     94  C   UNL A   1      28.284  31.371  21.198  1.00  0.00     0.135 A 
ENDBRANCH  89  90
ENDBRANCH  88  89
ENDBRANCH  83  88
ENDBRANCH  80  81
ENDBRANCH  76  80
ENDBRANCH  72  74
ENDBRANCH  71  72
ENDBRANCH   1  71
TORSDOF 19
ENDMDL
MODEL 2
REMARK VINA RESULT:     -11.6      2.112      4.073
REMARK SMILES O=C(OCCOC(=O)c1ccccc1C[N@H+]1CCCC[C@@H]1CCn1cccn1)c1ccc(-c2c3nc(c(-c4cc(S(=O)(=O)[O-])ccc4F)c4ccc([nH]4)c(-c4cc(S(=O)(=O)[O-])ccc4F)c4nc(c(-c5cc(S(=O)(=O)[O-])ccc5F)c5ccc2[nH]5)C=C4)C=C3)cc1
REMARK SMILES IDX 5 1 4 2 3 3 2 4 1 5 29 6 30 7 91 8 31 9 90 10 32 11 33 12
REMARK SMILES IDX 34 13 84 14 35 15 89 16 83 17 85 18 36 19 88 20 82 21 81 22
REMARK SMILES IDX 37 24 69 25 49 26 68 27 50 28 53 29 67 30 86 31 51 32 52 33
REMARK SMILES IDX 66 35 87 36 54 37 38 38 39 39 47 40 40 41 46 42 48 43 45 44
REMARK SMILES IDX 41 45 42 46 43 47 44 48 70 49 71 50 79 51 72 52 78 53 80 54
REMARK SMILES IDX 77 55 73 56 74 57 75 58 76 59 55 60 56 61 64 62 57 63 63 64
REMARK SMILES IDX 65 65 62 66 58 67 59 68 60 69 61 70 6 71 7 72 8 73 9 74
REMARK SMILES IDX 10 75 14 76 11 77 13 78 12 79 15 80 16 81 17 82 21 83 18 85
REMARK SMILES IDX 20 86 19 87 22 88 23 89 24 90 25 91 28 92 26 93 27 94
REMARK H PARENT 85 23 53 34 16 84
REMARK Flexibility Score: inf
ROOT
ATOM      1  C   UNL A   1      33.304  30.062  26.349  1.00  0.00     0.275 C 
ENDROOT
BRANCH   1   2
ATOM      2  C   UNL A   1      34.095  30.118  27.654  1.00  0.00     0.275 C 
BRANCH   2   3
ATOM      3  O   UNL A   1      35.530  30.212  27.551  1.00  0.00    -0.458 OA
BRANCH   3   4
ATOM      4  C   UNL A   1      36.282  30.232  28.672  1.00  0.00     0.338 C 
ATOM      5  O   UNL A   1      35.887  30.693  29.734  1.00  0.00    -0.246 OA
BRANCH   4   6
ATOM      6  C   UNL A   1      37.540  29.451  28.568  1.00  0.00     0.060 A 
ATOM      7  C   UNL A   1      37.975  28.553  29.550  1.00  0.00     0.016 A 
ATOM      8  C   UNL A   1      38.318  29.660  27.421  1.00  0.00     0.016 A 
ATOM      9  C   UNL A   1      39.221  27.953  29.441  1.00  0.00     0.010 A 
ATOM     10  C   UNL A   1      39.547  29.039  27.295  1.00  0.00     0.010 A 
ATOM     11  C   UNL A   1      40.024  28.251  28.343  1.00  0.00    -0.014 A 
BRANCH  11  12
ATOM     12  C   UNL A   1      41.384  27.728  28.310  1.00  0.00     0.031 A 
ATOM     13  C   UNL A   1      41.554  26.416  27.623  1.00  0.00     0.074 A 
ATOM     14  C   UNL A   1      42.416  28.479  28.749  1.00  0.00     0.049 A 
ATOM     15  N   UNL A   1      42.059  25.320  28.086  1.00  0.00    -0.248 NA
ATOM     16  C   UNL A   1      40.980  26.274  26.274  1.00  0.00     0.031 C 
ATOM     17  C   UNL A   1      42.372  29.872  29.209  1.00  0.00     0.029 A 
ATOM     18  N   UNL A   1      43.748  28.208  28.747  1.00  0.00    -0.354 N 
ATOM     19  C   UNL A   1      42.080  24.418  27.023  1.00  0.00     0.074 A 
ATOM     20  C   UNL A   1      41.252  24.998  26.000  1.00  0.00     0.031 C 
ATOM     21  C   UNL A   1      43.617  30.395  29.176  1.00  0.00     0.029 A 
ATOM     22  C   UNL A   1      44.557  29.340  28.842  1.00  0.00     0.049 A 
ATOM     23  H   UNL A   1      44.111  27.295  28.685  1.00  0.00     0.167 HD
ATOM     24  C   UNL A   1      42.961  23.379  26.989  1.00  0.00     0.034 A 
ATOM     25  C   UNL A   1      45.891  29.424  28.586  1.00  0.00     0.034 A 
ATOM     26  C   UNL A   1      43.452  23.076  28.314  1.00  0.00     0.049 A 
ATOM     27  C   UNL A   1      46.431  28.046  28.692  1.00  0.00     0.074 A 
ATOM     28  C   UNL A   1      42.855  22.694  29.501  1.00  0.00     0.029 A 
ATOM     29  N   UNL A   1      44.712  23.508  28.667  1.00  0.00    -0.354 N 
ATOM     30  N   UNL A   1      46.431  27.366  29.807  1.00  0.00    -0.248 NA
ATOM     31  C   UNL A   1      46.499  27.243  27.480  1.00  0.00     0.031 C 
ATOM     32  C   UNL A   1      43.564  23.410  30.512  1.00  0.00     0.029 A 
ATOM     33  C   UNL A   1      44.600  24.114  29.895  1.00  0.00     0.049 A 
ATOM     34  H   UNL A   1      45.536  23.403  28.139  1.00  0.00     0.167 HD
ATOM     35  C   UNL A   1      46.057  26.080  29.443  1.00  0.00     0.074 A 
ATOM     36  C   UNL A   1      46.209  26.041  27.988  1.00  0.00     0.031 C 
ATOM     37  C   UNL A   1      45.386  25.260  30.308  1.00  0.00     0.034 A 
BRANCH  24  38
ATOM     38  C   UNL A   1      43.673  22.893  25.738  1.00  0.00     0.023 A 
ATOM     39  C   UNL A   1      43.734  21.498  25.540  1.00  0.00     0.031 A 
ATOM     40  C   UNL A   1      44.539  23.658  24.925  1.00  0.00     0.131 A 
ATOM     41  C   UNL A   1      44.713  20.924  24.709  1.00  0.00     0.055 A 
ATOM     42  C   UNL A   1      45.468  23.084  24.050  1.00  0.00     0.041 A 
ATOM     43  F   UNL A   1      44.602  24.993  24.979  1.00  0.00    -0.206 F 
ATOM     44  C   UNL A   1      45.590  21.709  23.970  1.00  0.00     0.022 A 
BRANCH  41  45
ATOM     45  S   UNL A   1      44.951  19.130  24.783  1.00  0.00     0.124 S 
ATOM     46  O   UNL A   1      43.701  18.696  25.400  1.00  0.00    -0.237 OA
ATOM     47  O   UNL A   1      45.125  18.796  23.373  1.00  0.00    -0.237 OA
ATOM     48  O   UNL A   1      46.143  18.982  25.613  1.00  0.00    -0.744 OA
ENDBRANCH  41  45
ENDBRANCH  24  38
BRANCH  25  49
ATOM     49  C   UNL A   1      46.583  30.549  27.889  1.00  0.00     0.023 A 
ATOM     50  C   UNL A   1      45.909  31.513  27.108  1.00  0.00     0.031 A 
ATOM     51  C   UNL A   1      47.945  30.809  28.173  1.00  0.00     0.131 A 
ATOM     52  C   UNL A   1      46.598  32.660  26.641  1.00  0.00     0.055 A 
ATOM     53  C   UNL A   1      48.621  31.938  27.705  1.00  0.00     0.041 A 
ATOM     54  F   UNL A   1      48.650  30.009  28.988  1.00  0.00    -0.206 F 
ATOM     55  C   UNL A   1      47.947  32.875  26.940  1.00  0.00     0.022 A 
BRANCH  52  56
ATOM     56  S   UNL A   1      45.726  33.948  25.688  1.00  0.00     0.124 S 
ATOM     57  O   UNL A   1      46.822  34.629  25.008  1.00  0.00    -0.237 OA
ATOM     58  O   UNL A   1      44.829  33.163  24.848  1.00  0.00    -0.237 OA
ATOM     59  O   UNL A   1      45.057  34.744  26.718  1.00  0.00    -0.744 OA
ENDBRANCH  52  56
ENDBRANCH  25  49
BRANCH  37  60
ATOM     60  C   UNL A   1      45.262  25.681  31.761  1.00  0.00     0.023 A 
ATOM     61  C   UNL A   1      46.245  25.455  32.754  1.00  0.00     0.031 A 
ATOM     62  C   UNL A   1      44.157  26.478  32.108  1.00  0.00     0.131 A 
ATOM     63  C   UNL A   1      46.091  26.017  34.039  1.00  0.00     0.055 A 
ATOM     64  C   UNL A   1      44.019  27.047  33.373  1.00  0.00     0.041 A 
ATOM     65  F   UNL A   1      43.209  26.758  31.199  1.00  0.00    -0.206 F 
ATOM     66  C   UNL A   1      44.984  26.815  34.346  1.00  0.00     0.022 A 
BRANCH  63  67
ATOM     67  S   UNL A   1      47.331  25.721  35.343  1.00  0.00     0.124 S 
ATOM     68  O   UNL A   1      47.524  24.276  35.310  1.00  0.00    -0.237 OA
ATOM     69  O   UNL A   1      48.462  26.530  34.895  1.00  0.00    -0.237 OA
ATOM     70  O   UNL A   1      46.676  26.219  36.554  1.00  0.00    -0.744 OA
ENDBRANCH  63  67
ENDBRANCH  37  60
ENDBRANCH  11  12
ENDBRANCH   4   6
ENDBRANCH   3   4
ENDBRANCH   2   3
ENDBRANCH   1   2
BRANCH   1  71
ATOM     71  O   UNL A   1      32.758  28.752  26.129  1.00  0.00    -0.458 OA
BRANCH  71  72
ATOM     72  C   UNL A   1      32.848  28.273  24.865  1.00  0.00     0.338 C 
ATOM     73  O   UNL A   1      33.867  28.109  24.200  1.00  0.00    -0.246 OA
BRANCH  72  74
ATOM     74  C   UNL A   1      31.496  27.961  24.375  1.00  0.00     0.068 A 
ATOM     75  C   UNL A   1      30.760  29.005  23.801  1.00  0.00     0.016 A 
ATOM     76  C   UNL A   1      30.933  26.681  24.533  1.00  0.00     0.021 A 
ATOM     77  C   UNL A   1      29.489  28.765  23.287  1.00  0.00     0.001 A 
ATOM     78  C   UNL A   1      29.669  26.452  23.965  1.00  0.00     0.010 A 
ATOM     79  C   UNL A   1      28.954  27.482  23.348  1.00  0.00     0.001 A 
BRANCH  76  80
ATOM     80  C   UNL A   1      31.594  25.604  25.379  1.00  0.00     0.300 C 
BRANCH  80  81
ATOM     81  N   UNL A   1      32.159  24.439  24.643  1.00  0.00    -0.329 N 
ATOM     82  C   UNL A   1      31.242  24.031  23.559  1.00  0.00     0.262 C 
ATOM     83  C   UNL A   1      33.551  24.623  24.152  1.00  0.00     0.186 C 
ATOM     84  H   UNL A   1      32.235  23.685  25.326  1.00  0.00     0.348 HD
ATOM     85  C   UNL A   1      31.682  22.789  22.796  1.00  0.00     0.062 C 
ATOM     86  C   UNL A   1      34.019  23.355  23.395  1.00  0.00     0.065 C 
ATOM     87  C   UNL A   1      33.084  22.981  22.255  1.00  0.00     0.012 C 
BRANCH  83  88
ATOM     88  C   UNL A   1      34.541  24.905  25.315  1.00  0.00     0.088 C 
BRANCH  88  89
ATOM     89  C   UNL A   1      34.799  23.723  26.256  1.00  0.00     0.150 C 
BRANCH  89  90
ATOM     90  N   UNL A   1      36.103  23.117  26.067  1.00  0.00    -0.273 N 
ATOM     91  C   UNL A   1      37.311  23.753  26.068  1.00  0.00     0.108 A 
ATOM     92  N   UNL A   1      36.200  21.794  25.832  1.00  0.00    -0.182 NA
ATOM     93  C   UNL A   1      38.246  22.791  25.760  1.00  0.00     0.042 A 
ATOM     94  C   UNL A   1      37.503  21.607  25.612  1.00  0.00     0.135 A 
ENDBRANCH  89  90
ENDBRANCH  88  89
ENDBRANCH  83  88
ENDBRANCH  80  81
ENDBRANCH  76  80
ENDBRANCH  72  74
ENDBRANCH  71  72
ENDBRANCH   1  71
TORSDOF 19
ENDMDL
MODEL 3
REMARK VINA RESULT:     -11.6      2.590      7.715
REMARK SMILES O=C(OCCOC(=O)c1ccccc1C[N@H+]1CCCC[C@@H]1CCn1cccn1)c1ccc(-c2c3nc(c(-c4cc(S(=O)(=O)[O-])ccc4F)c4ccc([nH]4)c(-c4cc(S(=O)(=O)[O-])ccc4F)c4nc(c(-c5cc(S(=O)(=O)[O-])ccc5F)c5ccc2[nH]5)C=C4)C=C3)cc1
REMARK SMILES IDX 5 1 4 2 3 3 2 4 1 5 29 6 30 7 91 8 31 9 90 10 32 11 33 12
REMARK SMILES IDX 34 13 84 14 35 15 89 16 83 17 85 18 36 19 88 20 82 21 81 22
REMARK SMILES IDX 37 24 69 25 49 26 68 27 50 28 53 29 67 30 86 31 51 32 52 33
REMARK SMILES IDX 66 35 87 36 54 37 38 38 39 39 47 40 40 41 46 42 48 43 45 44
REMARK SMILES IDX 41 45 42 46 43 47 44 48 70 49 71 50 79 51 72 52 78 53 80 54
REMARK SMILES IDX 77 55 73 56 74 57 75 58 76 59 55 60 56 61 64 62 57 63 63 64
REMARK SMILES IDX 65 65 62 66 58 67 59 68 60 69 61 70 6 71 7 72 8 73 9 74
REMARK SMILES IDX 10 75 14 76 11 77 13 78 12 79 15 80 16 81 17 82 21 83 18 85
REMARK SMILES IDX 20 86 19 87 22 88 23 89 24 90 25 91 28 92 26 93 27 94
REMARK H PARENT 85 23 53 34 16 84
REMARK Flexibility Score: inf
ROOT
ATOM      1  C   UNL A   1      33.244  29.501  26.439  1.00  0.00     0.275 C 
ENDROOT
BRANCH   1   2
ATOM      2  C   UNL A   1      33.552  30.760  27.248  1.00  0.00     0.275 C 
BRANCH   2   3
ATOM      3  O   UNL A   1      34.454  30.621  28.365  1.00  0.00    -0.458 OA
BRANCH   3   4
ATOM      4  C   UNL A   1      35.496  31.469  28.494  1.00  0.00     0.338 C 
ATOM      5  O   UNL A   1      35.360  32.666  28.705  1.00  0.00    -0.246 OA
BRANCH   4   6
ATOM      6  C   UNL A   1      36.815  30.795  28.579  1.00  0.00     0.060 A 
ATOM      7  C   UNL A   1      37.037  29.477  28.163  1.00  0.00     0.016 A 
ATOM      8  C   UNL A   1      37.870  31.540  29.125  1.00  0.00     0.016 A 
ATOM      9  C   UNL A   1      38.266  28.874  28.388  1.00  0.00     0.010 A 
ATOM     10  C   UNL A   1      39.105  30.951  29.321  1.00  0.00     0.010 A 
ATOM     11  C   UNL A   1      39.271  29.598  29.024  1.00  0.00    -0.014 A 
BRANCH  11  12
ATOM     12  C   UNL A   1      40.506  28.913  29.381  1.00  0.00     0.031 A 
ATOM     13  C   UNL A   1      40.756  28.753  30.842  1.00  0.00     0.074 A 
ATOM     14  C   UNL A   1      41.272  28.343  28.426  1.00  0.00     0.049 A 
ATOM     15  N   UNL A   1      41.778  29.138  31.534  1.00  0.00    -0.248 NA
ATOM     16  C   UNL A   1      39.672  28.188  31.661  1.00  0.00     0.031 C 
ATOM     17  C   UNL A   1      40.977  28.236  26.993  1.00  0.00     0.029 A 
ATOM     18  N   UNL A   1      42.413  27.613  28.550  1.00  0.00    -0.354 N 
ATOM     19  C   UNL A   1      41.574  28.664  32.830  1.00  0.00     0.074 A 
ATOM     20  C   UNL A   1      40.199  28.249  32.884  1.00  0.00     0.031 C 
ATOM     21  C   UNL A   1      41.751  27.274  26.446  1.00  0.00     0.029 A 
ATOM     22  C   UNL A   1      42.693  26.808  27.448  1.00  0.00     0.049 A 
ATOM     23  H   UNL A   1      42.990  27.650  29.347  1.00  0.00     0.167 HD
ATOM     24  C   UNL A   1      42.618  28.445  33.679  1.00  0.00     0.034 A 
ATOM     25  C   UNL A   1      43.580  25.777  27.383  1.00  0.00     0.034 A 
ATOM     26  C   UNL A   1      43.784  29.192  33.267  1.00  0.00     0.049 A 
ATOM     27  C   UNL A   1      44.546  25.980  28.490  1.00  0.00     0.074 A 
ATOM     28  C   UNL A   1      44.056  30.535  33.083  1.00  0.00     0.029 A 
ATOM     29  N   UNL A   1      44.798  28.526  32.613  1.00  0.00    -0.354 N 
ATOM     30  N   UNL A   1      45.355  27.004  28.550  1.00  0.00    -0.248 NA
ATOM     31  C   UNL A   1      44.269  25.337  29.766  1.00  0.00     0.031 C 
ATOM     32  C   UNL A   1      44.870  30.584  31.913  1.00  0.00     0.029 A 
ATOM     33  C   UNL A   1      45.119  29.272  31.505  1.00  0.00     0.049 A 
ATOM     34  H   UNL A   1      45.213  27.677  32.888  1.00  0.00     0.167 HD
ATOM     35  C   UNL A   1      45.334  27.400  29.879  1.00  0.00     0.074 A 
ATOM     36  C   UNL A   1      44.727  26.279  30.597  1.00  0.00     0.031 C 
ATOM     37  C   UNL A   1      45.538  28.704  30.238  1.00  0.00     0.034 A 
BRANCH  24  38
ATOM     38  C   UNL A   1      42.712  27.274  34.642  1.00  0.00     0.023 A 
ATOM     39  C   UNL A   1      43.553  26.205  34.267  1.00  0.00     0.031 A 
ATOM     40  C   UNL A   1      41.823  26.998  35.705  1.00  0.00     0.131 A 
ATOM     41  C   UNL A   1      43.384  24.920  34.813  1.00  0.00     0.055 A 
ATOM     42  C   UNL A   1      41.704  25.734  36.291  1.00  0.00     0.041 A 
ATOM     43  F   UNL A   1      40.964  27.901  36.190  1.00  0.00    -0.206 F 
ATOM     44  C   UNL A   1      42.455  24.674  35.816  1.00  0.00     0.022 A 
BRANCH  41  45
ATOM     45  S   UNL A   1      44.257  23.539  34.032  1.00  0.00     0.124 S 
ATOM     46  O   UNL A   1      43.498  23.378  32.795  1.00  0.00    -0.237 OA
ATOM     47  O   UNL A   1      45.606  24.078  33.896  1.00  0.00    -0.237 OA
ATOM     48  O   UNL A   1      44.111  22.456  35.001  1.00  0.00    -0.744 OA
ENDBRANCH  41  45
ENDBRANCH  24  38
BRANCH  25  49
ATOM     49  C   UNL A   1      43.368  24.479  26.676  1.00  0.00     0.023 A 
ATOM     50  C   UNL A   1      42.369  23.549  27.037  1.00  0.00     0.031 A 
ATOM     51  C   UNL A   1      44.043  24.235  25.456  1.00  0.00     0.131 A 
ATOM     52  C   UNL A   1      42.096  22.436  26.203  1.00  0.00     0.055 A 
ATOM     53  C   UNL A   1      43.775  23.133  24.641  1.00  0.00     0.041 A 
ATOM     54  F   UNL A   1      44.938  25.109  24.970  1.00  0.00    -0.206 F 
ATOM     55  C   UNL A   1      42.792  22.230  25.009  1.00  0.00     0.022 A 
BRANCH  52  56
ATOM     56  S   UNL A   1      40.765  21.261  26.623  1.00  0.00     0.124 S 
ATOM     57  O   UNL A   1      41.232  20.026  26.003  1.00  0.00    -0.237 OA
ATOM     58  O   UNL A   1      40.764  21.296  28.080  1.00  0.00    -0.237 OA
ATOM     59  O   UNL A   1      39.579  21.850  25.998  1.00  0.00    -0.744 OA
ENDBRANCH  52  56
ENDBRANCH  25  49
BRANCH  37  60
ATOM     60  C   UNL A   1      46.030  29.680  29.185  1.00  0.00     0.023 A 
ATOM     61  C   UNL A   1      45.194  30.501  28.392  1.00  0.00     0.031 A 
ATOM     62  C   UNL A   1      47.417  29.885  29.096  1.00  0.00     0.131 A 
ATOM     63  C   UNL A   1      45.761  31.478  27.547  1.00  0.00     0.055 A 
ATOM     64  C   UNL A   1      47.972  30.864  28.274  1.00  0.00     0.041 A 
ATOM     65  F   UNL A   1      48.262  29.162  29.850  1.00  0.00    -0.206 F 
ATOM     66  C   UNL A   1      47.146  31.663  27.492  1.00  0.00     0.022 A 
BRANCH  63  67
ATOM     67  S   UNL A   1      44.706  32.532  26.496  1.00  0.00     0.124 S 
ATOM     68  O   UNL A   1      44.057  33.423  27.449  1.00  0.00    -0.237 OA
ATOM     69  O   UNL A   1      45.675  33.152  25.595  1.00  0.00    -0.237 OA
ATOM     70  O   UNL A   1      43.807  31.575  25.849  1.00  0.00    -0.744 OA
ENDBRANCH  63  67
ENDBRANCH  37  60
ENDBRANCH  11  12
ENDBRANCH   4   6
ENDBRANCH   3   4
ENDBRANCH   2   3
ENDBRANCH   1   2
BRANCH   1  71
ATOM     71  O   UNL A   1      32.000  29.630  25.733  1.00  0.00    -0.458 OA
BRANCH  71  72
ATOM     72  C   UNL A   1      32.031  29.332  24.412  1.00  0.00     0.338 C 
ATOM     73  O   UNL A   1      33.017  29.284  23.681  1.00  0.00    -0.246 OA
BRANCH  72  74
ATOM     74  C   UNL A   1      30.661  29.061  23.952  1.00  0.00     0.068 A 
ATOM     75  C   UNL A   1      29.836  30.163  23.693  1.00  0.00     0.016 A 
ATOM     76  C   UNL A   1      30.169  27.747  23.836  1.00  0.00     0.021 A 
ATOM     77  C   UNL A   1      28.540  29.972  23.220  1.00  0.00     0.001 A 
ATOM     78  C   UNL A   1      28.876  27.581  23.314  1.00  0.00     0.010 A 
ATOM     79  C   UNL A   1      28.069  28.681  23.009  1.00  0.00     0.001 A 
BRANCH  76  80
ATOM     80  C   UNL A   1      30.941  26.545  24.356  1.00  0.00     0.300 C 
BRANCH  80  81
ATOM     81  N   UNL A   1      31.374  25.547  23.338  1.00  0.00    -0.329 N 
ATOM     82  C   UNL A   1      32.145  26.214  22.269  1.00  0.00     0.262 C 
ATOM     83  C   UNL A   1      32.093  24.366  23.886  1.00  0.00     0.186 C 
ATOM     84  H   UNL A   1      30.518  25.155  22.947  1.00  0.00     0.348 HD
ATOM     85  C   UNL A   1      32.563  25.297  21.128  1.00  0.00     0.062 C 
ATOM     86  C   UNL A   1      32.502  23.412  22.736  1.00  0.00     0.065 C 
ATOM     87  C   UNL A   1      33.333  24.111  21.670  1.00  0.00     0.012 C 
BRANCH  83  88
ATOM     88  C   UNL A   1      31.221  23.579  24.903  1.00  0.00     0.088 C 
BRANCH  88  89
ATOM     89  C   UNL A   1      31.996  22.864  26.015  1.00  0.00     0.150 C 
BRANCH  89  90
ATOM     90  N   UNL A   1      32.585  21.611  25.584  1.00  0.00    -0.273 N 
ATOM     91  C   UNL A   1      33.913  21.294  25.559  1.00  0.00     0.108 A 
ATOM     92  N   UNL A   1      31.794  20.622  25.123  1.00  0.00    -0.182 NA
ATOM     93  C   UNL A   1      33.993  20.042  24.994  1.00  0.00     0.042 A 
ATOM     94  C   UNL A   1      32.659  19.683  24.732  1.00  0.00     0.135 A 
ENDBRANCH  89  90
ENDBRANCH  88  89
ENDBRANCH  83  88
ENDBRANCH  80  81
ENDBRANCH  76  80
ENDBRANCH  72  74
ENDBRANCH  71  72
ENDBRANCH   1  71
TORSDOF 19
ENDMDL
