MODEL 1
REMARK VINA RESULT:     -12.3      0.000      0.000
REMARK SMILES Nc1c(N2CCCC2)ncnc1N1CCC(C(=O)OCCOC(=O)c2ccc(-c3c4nc(c(-c5cc(S(=O)(=O)[O-])ccc5F)c5ccc([nH]5)c(-c5cc(S(=O)(=O)[O-])ccc5F)c5nc(c(-c6cc(S(=O)(=O)[O-])ccc6F)c6ccc3[nH]6)C=C5)C=C4)cc2)CC1
REMARK SMILES IDX 21 1 20 2 19 3 17 4 18 5 16 6 13 7 14 8 89 9 15 10 88 11
REMARK SMILES IDX 12 12 2 13 3 14 9 15 11 16 10 17 1 18 4 21 5 22 8 23 6 24
REMARK SMILES IDX 7 25 22 26 23 27 24 28 25 29 26 30 87 31 27 32 86 33 28 34
REMARK SMILES IDX 29 35 30 36 80 37 31 38 85 39 79 40 81 41 32 42 84 43 78 44
REMARK SMILES IDX 77 45 33 47 65 48 45 49 64 50 46 51 49 52 63 53 82 54 47 55
REMARK SMILES IDX 48 56 62 58 83 59 50 60 34 61 35 62 43 63 36 64 42 65 44 66
REMARK SMILES IDX 41 67 37 68 38 69 39 70 40 71 66 72 67 73 75 74 68 75 74 76
REMARK SMILES IDX 76 77 73 78 69 79 70 80 71 81 72 82 51 83 52 84 60 85 53 86
REMARK SMILES IDX 59 87 61 88 58 89 54 90 55 91 56 92 57 93
REMARK H PARENT 1 19 1 20 81 46 49 57
REMARK Flexibility Score: inf
ROOT
ATOM      1  C   UNL A   1      37.186  21.012  24.615  1.00  0.00     0.275 C 
ENDROOT
BRANCH   1   2
ATOM      2  C   UNL A   1      36.626  22.220  23.859  1.00  0.00     0.274 C 
BRANCH   2   3
ATOM      3  O   UNL A   1      35.188  22.245  23.920  1.00  0.00    -0.462 OA
BRANCH   3   4
ATOM      4  C   UNL A   1      34.646  23.183  24.737  1.00  0.00     0.309 C 
ATOM      5  O   UNL A   1      34.488  23.047  25.945  1.00  0.00    -0.252 OA
BRANCH   4   6
ATOM      6  C   UNL A   1      34.261  24.456  24.018  1.00  0.00     0.103 C 
ATOM      7  N   UNL A   1      32.790  26.705  23.081  1.00  0.00    -0.355 N 
ATOM      8  C   UNL A   1      33.146  25.653  22.130  1.00  0.00     0.119 C 
ATOM      9  C   UNL A   1      33.574  26.828  24.309  1.00  0.00     0.119 C 
ATOM     10  C   UNL A   1      33.312  24.305  22.827  1.00  0.00     0.037 C 
ATOM     11  C   UNL A   1      33.700  25.477  25.004  1.00  0.00     0.037 C 
BRANCH   7  12
ATOM     12  C   UNL A   1      31.451  27.098  23.145  1.00  0.00     0.157 A 
ATOM     13  C   UNL A   1      31.110  28.433  22.848  1.00  0.00     0.118 A 
ATOM     14  C   UNL A   1      29.758  28.779  22.986  1.00  0.00     0.157 A 
ATOM     15  N   UNL A   1      28.850  27.900  23.448  1.00  0.00    -0.217 NA
ATOM     16  N   UNL A   1      30.534  26.194  23.529  1.00  0.00    -0.217 NA
ATOM     17  C   UNL A   1      29.284  26.651  23.664  1.00  0.00     0.226 A 
BRANCH  13  18
ATOM     18  N   UNL A   1      32.084  29.335  22.393  1.00  0.00    -0.393 N 
ATOM     19  H   UNL A   1      32.931  29.436  22.886  1.00  0.00     0.156 HD
ATOM     20  H   UNL A   1      31.922  29.868  21.581  1.00  0.00     0.156 HD
ENDBRANCH  13  18
BRANCH  14  21
ATOM     21  N   UNL A   1      29.296  30.041  22.706  1.00  0.00    -0.355 N 
ATOM     22  C   UNL A   1      29.084  31.095  23.678  1.00  0.00     0.118 C 
ATOM     23  C   UNL A   1      28.650  30.299  21.434  1.00  0.00     0.118 C 
ATOM     24  C   UNL A   1      27.825  31.775  23.146  1.00  0.00     0.023 C 
ATOM     25  C   UNL A   1      28.004  31.673  21.634  1.00  0.00     0.023 C 
ENDBRANCH  14  21
ENDBRANCH   7  12
ENDBRANCH   4   6
ENDBRANCH   3   4
ENDBRANCH   2   3
ENDBRANCH   1   2
BRANCH   1  26
ATOM     26  O   UNL A   1      37.643  21.370  25.934  1.00  0.00    -0.458 OA
BRANCH  26  27
ATOM     27  C   UNL A   1      38.965  21.177  26.155  1.00  0.00     0.338 C 
ATOM     28  O   UNL A   1      39.614  20.174  25.920  1.00  0.00    -0.246 OA
BRANCH  27  29
ATOM     29  C   UNL A   1      39.572  22.424  26.646  1.00  0.00     0.060 A 
ATOM     30  C   UNL A   1      39.084  23.632  26.148  1.00  0.00     0.016 A 
ATOM     31  C   UNL A   1      40.675  22.403  27.499  1.00  0.00     0.016 A 
ATOM     32  C   UNL A   1      39.702  24.831  26.487  1.00  0.00     0.010 A 
ATOM     33  C   UNL A   1      41.290  23.611  27.850  1.00  0.00     0.010 A 
ATOM     34  C   UNL A   1      40.815  24.831  27.336  1.00  0.00    -0.014 A 
BRANCH  34  35
ATOM     35  C   UNL A   1      41.498  26.111  27.639  1.00  0.00     0.031 A 
ATOM     36  C   UNL A   1      40.812  27.143  28.490  1.00  0.00     0.074 A 
ATOM     37  C   UNL A   1      42.754  26.318  27.202  1.00  0.00     0.049 A 
ATOM     38  N   UNL A   1      41.214  28.343  28.816  1.00  0.00    -0.248 NA
ATOM     39  C   UNL A   1      39.505  26.769  29.052  1.00  0.00     0.031 C 
ATOM     40  C   UNL A   1      43.547  25.358  26.433  1.00  0.00     0.029 A 
ATOM     41  N   UNL A   1      43.590  27.395  27.354  1.00  0.00    -0.354 N 
ATOM     42  C   UNL A   1      40.209  28.876  29.614  1.00  0.00     0.074 A 
ATOM     43  C   UNL A   1      39.168  27.873  29.704  1.00  0.00     0.031 C 
ATOM     44  C   UNL A   1      44.763  25.881  26.201  1.00  0.00     0.029 A 
ATOM     45  C   UNL A   1      44.816  27.230  26.755  1.00  0.00     0.049 A 
ATOM     46  H   UNL A   1      43.336  28.208  27.848  1.00  0.00     0.167 HD
ATOM     47  C   UNL A   1      40.162  30.088  30.217  1.00  0.00     0.034 A 
ATOM     48  C   UNL A   1      45.854  28.081  26.641  1.00  0.00     0.034 A 
ATOM     49  C   UNL A   1      41.206  31.077  30.120  1.00  0.00     0.049 A 
ATOM     50  C   UNL A   1      45.738  29.460  27.233  1.00  0.00     0.074 A 
ATOM     51  C   UNL A   1      41.247  32.346  30.673  1.00  0.00     0.029 A 
ATOM     52  N   UNL A   1      42.395  30.909  29.424  1.00  0.00    -0.354 N 
ATOM     53  N   UNL A   1      44.746  29.980  27.917  1.00  0.00    -0.248 NA
ATOM     54  C   UNL A   1      46.870  30.371  27.023  1.00  0.00     0.031 C 
ATOM     55  C   UNL A   1      42.438  32.961  30.272  1.00  0.00     0.029 A 
ATOM     56  C   UNL A   1      43.166  32.057  29.515  1.00  0.00     0.049 A 
ATOM     57  H   UNL A   1      42.653  30.094  28.937  1.00  0.00     0.167 HD
ATOM     58  C   UNL A   1      45.141  31.277  28.228  1.00  0.00     0.074 A 
ATOM     59  C   UNL A   1      46.462  31.459  27.663  1.00  0.00     0.031 C 
ATOM     60  C   UNL A   1      44.470  32.229  28.925  1.00  0.00     0.034 A 
BRANCH  47  61
ATOM     61  C   UNL A   1      38.918  30.428  30.992  1.00  0.00     0.023 A 
ATOM     62  C   UNL A   1      37.845  31.116  30.400  1.00  0.00     0.031 A 
ATOM     63  C   UNL A   1      38.805  30.058  32.344  1.00  0.00     0.131 A 
ATOM     64  C   UNL A   1      36.723  31.454  31.173  1.00  0.00     0.055 A 
ATOM     65  C   UNL A   1      37.662  30.344  33.091  1.00  0.00     0.041 A 
ATOM     66  F   UNL A   1      39.810  29.416  32.961  1.00  0.00    -0.206 F 
ATOM     67  C   UNL A   1      36.616  31.054  32.508  1.00  0.00     0.022 A 
BRANCH  64  68
ATOM     68  S   UNL A   1      35.436  32.493  30.433  1.00  0.00     0.124 S 
ATOM     69  O   UNL A   1      36.118  33.781  30.335  1.00  0.00    -0.237 OA
ATOM     70  O   UNL A   1      35.166  31.817  29.170  1.00  0.00    -0.237 OA
ATOM     71  O   UNL A   1      34.351  32.442  31.411  1.00  0.00    -0.744 OA
ENDBRANCH  64  68
ENDBRANCH  47  61
BRANCH  48  72
ATOM     72  C   UNL A   1      47.073  27.672  25.892  1.00  0.00     0.023 A 
ATOM     73  C   UNL A   1      47.175  27.878  24.508  1.00  0.00     0.031 A 
ATOM     74  C   UNL A   1      48.155  27.066  26.557  1.00  0.00     0.131 A 
ATOM     75  C   UNL A   1      48.331  27.466  23.828  1.00  0.00     0.055 A 
ATOM     76  C   UNL A   1      49.316  26.691  25.882  1.00  0.00     0.041 A 
ATOM     77  F   UNL A   1      48.103  26.854  27.882  1.00  0.00    -0.206 F 
ATOM     78  C   UNL A   1      49.406  26.885  24.506  1.00  0.00     0.022 A 
BRANCH  75  79
ATOM     79  S   UNL A   1      48.408  27.681  22.029  1.00  0.00     0.124 S 
ATOM     80  O   UNL A   1      48.619  26.311  21.574  1.00  0.00    -0.237 OA
ATOM     81  O   UNL A   1      47.103  28.262  21.733  1.00  0.00    -0.237 OA
ATOM     82  O   UNL A   1      49.544  28.583  21.842  1.00  0.00    -0.744 OA
ENDBRANCH  75  79
ENDBRANCH  48  72
BRANCH  60  83
ATOM     83  C   UNL A   1      45.166  33.547  29.130  1.00  0.00     0.023 A 
ATOM     84  C   UNL A   1      44.973  34.620  28.244  1.00  0.00     0.031 A 
ATOM     85  C   UNL A   1      46.001  33.737  30.244  1.00  0.00     0.131 A 
ATOM     86  C   UNL A   1      45.634  35.836  28.475  1.00  0.00     0.055 A 
ATOM     87  C   UNL A   1      46.623  34.961  30.489  1.00  0.00     0.041 A 
ATOM     88  F   UNL A   1      46.210  32.740  31.117  1.00  0.00    -0.206 F 
ATOM     89  C   UNL A   1      46.444  36.018  29.600  1.00  0.00     0.022 A 
BRANCH  86  90
ATOM     90  S   UNL A   1      45.434  37.181  27.275  1.00  0.00     0.124 S 
ATOM     91  O   UNL A   1      45.828  38.346  28.061  1.00  0.00    -0.237 OA
ATOM     92  O   UNL A   1      46.351  36.794  26.207  1.00  0.00    -0.237 OA
ATOM     93  O   UNL A   1      44.017  37.119  26.924  1.00  0.00    -0.744 OA
ENDBRANCH  86  90
ENDBRANCH  60  83
ENDBRANCH  34  35
ENDBRANCH  27  29
ENDBRANCH  26  27
ENDBRANCH   1  26
TORSDOF 17
ENDMDL
MODEL 2
REMARK VINA RESULT:     -12.1      5.418     10.695
REMARK SMILES Nc1c(N2CCCC2)ncnc1N1CCC(C(=O)OCCOC(=O)c2ccc(-c3c4nc(c(-c5cc(S(=O)(=O)[O-])ccc5F)c5ccc([nH]5)c(-c5cc(S(=O)(=O)[O-])ccc5F)c5nc(c(-c6cc(S(=O)(=O)[O-])ccc6F)c6ccc3[nH]6)C=C5)C=C4)cc2)CC1
REMARK SMILES IDX 21 1 20 2 19 3 17 4 18 5 16 6 13 7 14 8 89 9 15 10 88 11
REMARK SMILES IDX 12 12 2 13 3 14 9 15 11 16 10 17 1 18 4 21 5 22 8 23 6 24
REMARK SMILES IDX 7 25 22 26 23 27 24 28 25 29 26 30 87 31 27 32 86 33 28 34
REMARK SMILES IDX 29 35 30 36 80 37 31 38 85 39 79 40 81 41 32 42 84 43 78 44
REMARK SMILES IDX 77 45 33 47 65 48 45 49 64 50 46 51 49 52 63 53 82 54 47 55
REMARK SMILES IDX 48 56 62 58 83 59 50 60 34 61 35 62 43 63 36 64 42 65 44 66
REMARK SMILES IDX 41 67 37 68 38 69 39 70 40 71 66 72 67 73 75 74 68 75 74 76
REMARK SMILES IDX 76 77 73 78 69 79 70 80 71 81 72 82 51 83 52 84 60 85 53 86
REMARK SMILES IDX 59 87 61 88 58 89 54 90 55 91 56 92 57 93
REMARK H PARENT 1 19 1 20 81 46 49 57
REMARK Flexibility Score: inf
ROOT
ATOM      1  C   UNL A   1      31.668  30.530  25.756  1.00  0.00     0.275 C 
ENDROOT
BRANCH   1   2
ATOM      2  C   UNL A   1      31.409  29.150  25.145  1.00  0.00     0.274 C 
BRANCH   2   3
ATOM      3  O   UNL A   1      31.876  28.104  26.016  1.00  0.00    -0.462 OA
BRANCH   3   4
ATOM      4  C   UNL A   1      32.930  27.381  25.562  1.00  0.00     0.309 C 
ATOM      5  O   UNL A   1      33.810  27.818  24.828  1.00  0.00    -0.252 OA
BRANCH   4   6
ATOM      6  C   UNL A   1      32.945  25.957  26.068  1.00  0.00     0.103 C 
ATOM      7  N   UNL A   1      32.958  23.112  26.169  1.00  0.00    -0.355 N 
ATOM      8  C   UNL A   1      31.776  23.826  26.648  1.00  0.00     0.119 C 
ATOM      9  C   UNL A   1      34.232  23.829  26.119  1.00  0.00     0.119 C 
ATOM     10  C   UNL A   1      31.629  25.183  25.963  1.00  0.00     0.037 C 
ATOM     11  C   UNL A   1      34.068  25.165  25.403  1.00  0.00     0.037 C 
BRANCH   7  12
ATOM     12  C   UNL A   1      32.768  22.096  25.230  1.00  0.00     0.157 A 
ATOM     13  C   UNL A   1      33.177  20.784  25.543  1.00  0.00     0.118 A 
ATOM     14  C   UNL A   1      33.013  19.820  24.537  1.00  0.00     0.157 A 
ATOM     15  N   UNL A   1      32.556  20.150  23.315  1.00  0.00    -0.217 NA
ATOM     16  N   UNL A   1      32.236  22.414  24.038  1.00  0.00    -0.217 NA
ATOM     17  C   UNL A   1      32.166  21.421  23.145  1.00  0.00     0.226 A 
BRANCH  13  18
ATOM     18  N   UNL A   1      33.675  20.475  26.819  1.00  0.00    -0.393 N 
ATOM     19  H   UNL A   1      33.988  19.563  27.018  1.00  0.00     0.156 HD
ATOM     20  H   UNL A   1      33.712  21.170  27.515  1.00  0.00     0.156 HD
ENDBRANCH  13  18
BRANCH  14  21
ATOM     21  N   UNL A   1      33.352  18.504  24.726  1.00  0.00    -0.355 N 
ATOM     22  C   UNL A   1      34.606  17.893  24.333  1.00  0.00     0.118 C 
ATOM     23  C   UNL A   1      32.317  17.536  25.030  1.00  0.00     0.118 C 
ATOM     24  C   UNL A   1      34.160  16.506  23.877  1.00  0.00     0.023 C 
ATOM     25  C   UNL A   1      33.021  16.189  24.840  1.00  0.00     0.023 C 
ENDBRANCH  14  21
ENDBRANCH   7  12
ENDBRANCH   4   6
ENDBRANCH   3   4
ENDBRANCH   2   3
ENDBRANCH   1   2
BRANCH   1  26
ATOM     26  O   UNL A   1      32.506  30.450  26.926  1.00  0.00    -0.458 OA
BRANCH  26  27
ATOM     27  C   UNL A   1      33.165  31.591  27.238  1.00  0.00     0.338 C 
ATOM     28  O   UNL A   1      32.747  32.731  27.154  1.00  0.00    -0.246 OA
BRANCH  27  29
ATOM     29  C   UNL A   1      34.478  31.262  27.813  1.00  0.00     0.060 A 
ATOM     30  C   UNL A   1      34.763  29.922  28.078  1.00  0.00     0.016 A 
ATOM     31  C   UNL A   1      35.375  32.264  28.186  1.00  0.00     0.016 A 
ATOM     32  C   UNL A   1      35.939  29.572  28.731  1.00  0.00     0.010 A 
ATOM     33  C   UNL A   1      36.565  31.910  28.833  1.00  0.00     0.010 A 
ATOM     34  C   UNL A   1      36.848  30.562  29.121  1.00  0.00    -0.014 A 
BRANCH  34  35
ATOM     35  C   UNL A   1      38.068  30.176  29.870  1.00  0.00     0.031 A 
ATOM     36  C   UNL A   1      39.077  29.261  29.235  1.00  0.00     0.074 A 
ATOM     37  C   UNL A   1      38.295  30.696  31.090  1.00  0.00     0.049 A 
ATOM     38  N   UNL A   1      40.172  28.760  29.745  1.00  0.00    -0.248 NA
ATOM     39  C   UNL A   1      38.822  28.865  27.842  1.00  0.00     0.031 C 
ATOM     40  C   UNL A   1      37.424  31.653  31.774  1.00  0.00     0.029 A 
ATOM     41  N   UNL A   1      39.334  30.507  31.965  1.00  0.00    -0.354 N 
ATOM     42  C   UNL A   1      40.735  27.981  28.741  1.00  0.00     0.074 A 
ATOM     43  C   UNL A   1      39.848  28.060  27.599  1.00  0.00     0.031 C 
ATOM     44  C   UNL A   1      37.978  31.984  32.952  1.00  0.00     0.029 A 
ATOM     45  C   UNL A   1      39.210  31.223  33.131  1.00  0.00     0.049 A 
ATOM     46  H   UNL A   1      40.098  29.915  31.775  1.00  0.00     0.167 HD
ATOM     47  C   UNL A   1      41.887  27.270  28.771  1.00  0.00     0.034 A 
ATOM     48  C   UNL A   1      39.988  31.244  34.231  1.00  0.00     0.034 A 
ATOM     49  C   UNL A   1      42.762  27.199  29.914  1.00  0.00     0.049 A 
ATOM     50  C   UNL A   1      41.210  30.366  34.279  1.00  0.00     0.074 A 
ATOM     51  C   UNL A   1      43.942  26.489  30.056  1.00  0.00     0.029 A 
ATOM     52  N   UNL A   1      42.554  27.866  31.113  1.00  0.00    -0.354 N 
ATOM     53  N   UNL A   1      41.688  29.570  33.351  1.00  0.00    -0.248 NA
ATOM     54  C   UNL A   1      41.986  30.374  35.526  1.00  0.00     0.031 C 
ATOM     55  C   UNL A   1      44.421  26.687  31.356  1.00  0.00     0.029 A 
ATOM     56  C   UNL A   1      43.570  27.567  32.007  1.00  0.00     0.049 A 
ATOM     57  H   UNL A   1      41.796  28.465  31.302  1.00  0.00     0.167 HD
ATOM     58  C   UNL A   1      42.827  28.991  33.900  1.00  0.00     0.074 A 
ATOM     59  C   UNL A   1      42.969  29.532  35.236  1.00  0.00     0.031 C 
ATOM     60  C   UNL A   1      43.682  28.096  33.344  1.00  0.00     0.034 A 
BRANCH  47  61
ATOM     61  C   UNL A   1      42.238  26.469  27.545  1.00  0.00     0.023 A 
ATOM     62  C   UNL A   1      41.909  25.108  27.435  1.00  0.00     0.031 A 
ATOM     63  C   UNL A   1      42.913  27.079  26.474  1.00  0.00     0.131 A 
ATOM     64  C   UNL A   1      42.297  24.388  26.294  1.00  0.00     0.055 A 
ATOM     65  C   UNL A   1      43.243  26.373  25.316  1.00  0.00     0.041 A 
ATOM     66  F   UNL A   1      43.267  28.373  26.538  1.00  0.00    -0.206 F 
ATOM     67  C   UNL A   1      42.943  25.016  25.226  1.00  0.00     0.022 A 
BRANCH  64  68
ATOM     68  S   UNL A   1      42.017  22.597  26.256  1.00  0.00     0.124 S 
ATOM     69  O   UNL A   1      42.810  22.201  25.094  1.00  0.00    -0.237 OA
ATOM     70  O   UNL A   1      42.526  22.167  27.552  1.00  0.00    -0.237 OA
ATOM     71  O   UNL A   1      40.570  22.481  26.085  1.00  0.00    -0.744 OA
ENDBRANCH  64  68
ENDBRANCH  47  61
BRANCH  48  72
ATOM     72  C   UNL A   1      39.606  32.085  35.397  1.00  0.00     0.023 A 
ATOM     73  C   UNL A   1      38.747  31.595  36.393  1.00  0.00     0.031 A 
ATOM     74  C   UNL A   1      40.099  33.396  35.529  1.00  0.00     0.131 A 
ATOM     75  C   UNL A   1      38.392  32.419  37.471  1.00  0.00     0.055 A 
ATOM     76  C   UNL A   1      39.772  34.198  36.622  1.00  0.00     0.041 A 
ATOM     77  F   UNL A   1      40.928  33.904  34.603  1.00  0.00    -0.206 F 
ATOM     78  C   UNL A   1      38.908  33.712  37.599  1.00  0.00     0.022 A 
BRANCH  75  79
ATOM     79  S   UNL A   1      37.226  31.785  38.707  1.00  0.00     0.124 S 
ATOM     80  O   UNL A   1      37.030  30.412  38.253  1.00  0.00    -0.237 OA
ATOM     81  O   UNL A   1      37.973  31.950  39.948  1.00  0.00    -0.237 OA
ATOM     82  O   UNL A   1      36.066  32.662  38.561  1.00  0.00    -0.744 OA
ENDBRANCH  75  79
ENDBRANCH  48  72
BRANCH  60  83
ATOM     83  C   UNL A   1      44.858  27.662  34.175  1.00  0.00     0.023 A 
ATOM     84  C   UNL A   1      44.793  26.520  34.991  1.00  0.00     0.031 A 
ATOM     85  C   UNL A   1      46.064  28.381  34.119  1.00  0.00     0.131 A 
ATOM     86  C   UNL A   1      45.915  26.143  35.745  1.00  0.00     0.055 A 
ATOM     87  C   UNL A   1      47.187  27.977  34.841  1.00  0.00     0.041 A 
ATOM     88  F   UNL A   1      46.171  29.475  33.350  1.00  0.00    -0.206 F 
ATOM     89  C   UNL A   1      47.115  26.855  35.662  1.00  0.00     0.022 A 
BRANCH  86  90
ATOM     90  S   UNL A   1      45.784  24.714  36.853  1.00  0.00     0.124 S 
ATOM     91  O   UNL A   1      44.995  25.258  37.953  1.00  0.00    -0.237 OA
ATOM     92  O   UNL A   1      45.113  23.723  36.017  1.00  0.00    -0.237 OA
ATOM     93  O   UNL A   1      47.175  24.405  37.180  1.00  0.00    -0.744 OA
ENDBRANCH  86  90
ENDBRANCH  60  83
ENDBRANCH  34  35
ENDBRANCH  27  29
ENDBRANCH  26  27
ENDBRANCH   1  26
TORSDOF 17
ENDMDL
MODEL 3
REMARK VINA RESULT:     -12.0      5.328     10.638
REMARK SMILES Nc1c(N2CCCC2)ncnc1N1CCC(C(=O)OCCOC(=O)c2ccc(-c3c4nc(c(-c5cc(S(=O)(=O)[O-])ccc5F)c5ccc([nH]5)c(-c5cc(S(=O)(=O)[O-])ccc5F)c5nc(c(-c6cc(S(=O)(=O)[O-])ccc6F)c6ccc3[nH]6)C=C5)C=C4)cc2)CC1
REMARK SMILES IDX 21 1 20 2 19 3 17 4 18 5 16 6 13 7 14 8 89 9 15 10 88 11
REMARK SMILES IDX 12 12 2 13 3 14 9 15 11 16 10 17 1 18 4 21 5 22 8 23 6 24
REMARK SMILES IDX 7 25 22 26 23 27 24 28 25 29 26 30 87 31 27 32 86 33 28 34
REMARK SMILES IDX 29 35 30 36 80 37 31 38 85 39 79 40 81 41 32 42 84 43 78 44
REMARK SMILES IDX 77 45 33 47 65 48 45 49 64 50 46 51 49 52 63 53 82 54 47 55
REMARK SMILES IDX 48 56 62 58 83 59 50 60 34 61 35 62 43 63 36 64 42 65 44 66
REMARK SMILES IDX 41 67 37 68 38 69 39 70 40 71 66 72 67 73 75 74 68 75 74 76
REMARK SMILES IDX 76 77 73 78 69 79 70 80 71 81 72 82 51 83 52 84 60 85 53 86
REMARK SMILES IDX 59 87 61 88 58 89 54 90 55 91 56 92 57 93
REMARK H PARENT 1 19 1 20 81 46 49 57
REMARK Flexibility Score: inf
ROOT
ATOM      1  C   UNL A   1      31.663  30.377  26.140  1.00  0.00     0.275 C 
ENDROOT
BRANCH   1   2
ATOM      2  C   UNL A   1      31.425  29.284  25.096  1.00  0.00     0.274 C 
BRANCH   2   3
ATOM      3  O   UNL A   1      31.589  27.975  25.672  1.00  0.00    -0.462 OA
BRANCH   3   4
ATOM      4  C   UNL A   1      32.796  27.388  25.475  1.00  0.00     0.309 C 
ATOM      5  O   UNL A   1      33.759  27.935  24.949  1.00  0.00    -0.252 OA
BRANCH   4   6
ATOM      6  C   UNL A   1      32.867  25.970  25.993  1.00  0.00     0.103 C 
ATOM      7  N   UNL A   1      32.952  23.127  26.120  1.00  0.00    -0.355 N 
ATOM      8  C   UNL A   1      31.775  23.818  26.641  1.00  0.00     0.119 C 
ATOM      9  C   UNL A   1      34.205  23.874  26.009  1.00  0.00     0.119 C 
ATOM     10  C   UNL A   1      31.567  25.164  25.950  1.00  0.00     0.037 C 
ATOM     11  C   UNL A   1      33.979  25.199  25.288  1.00  0.00     0.037 C 
BRANCH   7  12
ATOM     12  C   UNL A   1      32.748  22.097  25.198  1.00  0.00     0.157 A 
ATOM     13  C   UNL A   1      33.153  20.788  25.529  1.00  0.00     0.118 A 
ATOM     14  C   UNL A   1      32.973  19.810  24.540  1.00  0.00     0.157 A 
ATOM     15  N   UNL A   1      32.507  20.123  23.317  1.00  0.00    -0.217 NA
ATOM     16  N   UNL A   1      32.206  22.400  24.007  1.00  0.00    -0.217 NA
ATOM     17  C   UNL A   1      32.122  21.393  23.131  1.00  0.00     0.226 A 
BRANCH  13  18
ATOM     18  N   UNL A   1      33.661  20.497  26.804  1.00  0.00    -0.393 N 
ATOM     19  H   UNL A   1      33.527  21.133  27.545  1.00  0.00     0.156 HD
ATOM     20  H   UNL A   1      34.151  19.658  26.960  1.00  0.00     0.156 HD
ENDBRANCH  13  18
BRANCH  14  21
ATOM     21  N   UNL A   1      33.307  18.494  24.747  1.00  0.00    -0.355 N 
ATOM     22  C   UNL A   1      34.598  17.900  24.465  1.00  0.00     0.118 C 
ATOM     23  C   UNL A   1      32.257  17.514  24.945  1.00  0.00     0.118 C 
ATOM     24  C   UNL A   1      34.210  16.514  23.957  1.00  0.00     0.023 C 
ATOM     25  C   UNL A   1      32.989  16.176  24.807  1.00  0.00     0.023 C 
ENDBRANCH  14  21
ENDBRANCH   7  12
ENDBRANCH   4   6
ENDBRANCH   3   4
ENDBRANCH   2   3
ENDBRANCH   1   2
BRANCH   1  26
ATOM     26  O   UNL A   1      33.017  30.868  26.103  1.00  0.00    -0.458 OA
BRANCH  26  27
ATOM     27  C   UNL A   1      33.325  31.773  27.062  1.00  0.00     0.338 C 
ATOM     28  O   UNL A   1      32.644  32.708  27.440  1.00  0.00    -0.246 OA
BRANCH  27  29
ATOM     29  C   UNL A   1      34.604  31.412  27.691  1.00  0.00     0.060 A 
ATOM     30  C   UNL A   1      34.803  30.082  28.060  1.00  0.00     0.016 A 
ATOM     31  C   UNL A   1      35.552  32.385  28.012  1.00  0.00     0.016 A 
ATOM     32  C   UNL A   1      35.943  29.712  28.766  1.00  0.00     0.010 A 
ATOM     33  C   UNL A   1      36.706  32.011  28.712  1.00  0.00     0.010 A 
ATOM     34  C   UNL A   1      36.901  30.674  29.104  1.00  0.00    -0.014 A 
BRANCH  34  35
ATOM     35  C   UNL A   1      38.080  30.274  29.908  1.00  0.00     0.031 A 
ATOM     36  C   UNL A   1      39.107  29.347  29.321  1.00  0.00     0.074 A 
ATOM     37  C   UNL A   1      38.258  30.792  31.138  1.00  0.00     0.049 A 
ATOM     38  N   UNL A   1      40.171  28.833  29.881  1.00  0.00    -0.248 NA
ATOM     39  C   UNL A   1      38.913  28.953  27.918  1.00  0.00     0.031 C 
ATOM     40  C   UNL A   1      37.367  31.760  31.781  1.00  0.00     0.029 A 
ATOM     41  N   UNL A   1      39.253  30.591  32.060  1.00  0.00    -0.354 N 
ATOM     42  C   UNL A   1      40.771  28.047  28.904  1.00  0.00     0.074 A 
ATOM     43  C   UNL A   1      39.939  28.136  27.723  1.00  0.00     0.031 C 
ATOM     44  C   UNL A   1      37.869  32.085  32.983  1.00  0.00     0.029 A 
ATOM     45  C   UNL A   1      39.084  31.309  33.219  1.00  0.00     0.049 A 
ATOM     46  H   UNL A   1      40.017  29.990  31.905  1.00  0.00     0.167 HD
ATOM     47  C   UNL A   1      41.912  27.322  28.988  1.00  0.00     0.034 A 
ATOM     48  C   UNL A   1      39.810  31.321  34.354  1.00  0.00     0.034 A 
ATOM     49  C   UNL A   1      42.732  27.242  30.170  1.00  0.00     0.049 A 
ATOM     50  C   UNL A   1      41.018  30.429  34.458  1.00  0.00     0.074 A 
ATOM     51  C   UNL A   1      43.896  26.518  30.366  1.00  0.00     0.029 A 
ATOM     52  N   UNL A   1      42.477  27.912  31.358  1.00  0.00    -0.354 N 
ATOM     53  N   UNL A   1      41.528  29.628  33.553  1.00  0.00    -0.248 NA
ATOM     54  C   UNL A   1      41.735  30.429  35.740  1.00  0.00     0.031 C 
ATOM     55  C   UNL A   1      44.316  26.711  31.687  1.00  0.00     0.029 A 
ATOM     56  C   UNL A   1      43.447  27.601  32.297  1.00  0.00     0.049 A 
ATOM     57  H   UNL A   1      41.718  28.520  31.511  1.00  0.00     0.167 HD
ATOM     58  C   UNL A   1      42.634  29.035  34.154  1.00  0.00     0.074 A 
ATOM     59  C   UNL A   1      42.720  29.575  35.496  1.00  0.00     0.031 C 
ATOM     60  C   UNL A   1      43.503  28.130  33.638  1.00  0.00     0.034 A 
BRANCH  47  61
ATOM     61  C   UNL A   1      42.310  26.516  27.779  1.00  0.00     0.023 A 
ATOM     62  C   UNL A   1      41.887  25.188  27.607  1.00  0.00     0.031 A 
ATOM     63  C   UNL A   1      43.126  27.088  26.788  1.00  0.00     0.131 A 
ATOM     64  C   UNL A   1      42.319  24.459  26.489  1.00  0.00     0.055 A 
ATOM     65  C   UNL A   1      43.504  26.378  25.648  1.00  0.00     0.041 A 
ATOM     66  F   UNL A   1      43.573  28.349  26.915  1.00  0.00    -0.206 F 
ATOM     67  C   UNL A   1      43.108  25.052  25.498  1.00  0.00     0.022 A 
BRANCH  64  68
ATOM     68  S   UNL A   1      41.905  22.698  26.382  1.00  0.00     0.124 S 
ATOM     69  O   UNL A   1      42.499  22.181  27.612  1.00  0.00    -0.237 OA
ATOM     70  O   UNL A   1      40.448  22.715  26.335  1.00  0.00    -0.237 OA
ATOM     71  O   UNL A   1      42.562  22.266  25.150  1.00  0.00    -0.744 OA
ENDBRANCH  64  68
ENDBRANCH  47  61
BRANCH  48  72
ATOM     72  C   UNL A   1      39.384  32.168  35.501  1.00  0.00     0.023 A 
ATOM     73  C   UNL A   1      39.820  33.495  35.622  1.00  0.00     0.031 A 
ATOM     74  C   UNL A   1      38.531  31.653  36.495  1.00  0.00     0.131 A 
ATOM     75  C   UNL A   1      39.415  34.262  36.725  1.00  0.00     0.055 A 
ATOM     76  C   UNL A   1      38.102  32.431  37.570  1.00  0.00     0.041 A 
ATOM     77  F   UNL A   1      38.085  30.389  36.417  1.00  0.00    -0.206 F 
ATOM     78  C   UNL A   1      38.549  33.744  37.692  1.00  0.00     0.022 A 
BRANCH  75  79
ATOM     79  S   UNL A   1      40.049  35.953  36.892  1.00  0.00     0.124 S 
ATOM     80  O   UNL A   1      41.454  35.713  37.205  1.00  0.00    -0.237 OA
ATOM     81  O   UNL A   1      39.772  36.517  35.576  1.00  0.00    -0.237 OA
ATOM     82  O   UNL A   1      39.252  36.509  37.985  1.00  0.00    -0.744 OA
ENDBRANCH  75  79
ENDBRANCH  48  72
BRANCH  60  83
ATOM     83  C   UNL A   1      44.634  27.682  34.523  1.00  0.00     0.023 A 
ATOM     84  C   UNL A   1      44.551  26.496  35.271  1.00  0.00     0.031 A 
ATOM     85  C   UNL A   1      45.819  28.435  34.587  1.00  0.00     0.131 A 
ATOM     86  C   UNL A   1      45.631  26.109  36.078  1.00  0.00     0.055 A 
ATOM     87  C   UNL A   1      46.904  28.023  35.361  1.00  0.00     0.041 A 
ATOM     88  F   UNL A   1      45.943  29.572  33.886  1.00  0.00    -0.206 F 
ATOM     89  C   UNL A   1      46.812  26.856  36.115  1.00  0.00     0.022 A 
BRANCH  86  90
ATOM     90  S   UNL A   1      45.470  24.617  37.098  1.00  0.00     0.124 S 
ATOM     91  O   UNL A   1      46.835  24.432  37.578  1.00  0.00    -0.237 OA
ATOM     92  O   UNL A   1      44.491  25.022  38.101  1.00  0.00    -0.237 OA
ATOM     93  O   UNL A   1      45.001  23.605  36.152  1.00  0.00    -0.744 OA
ENDBRANCH  86  90
ENDBRANCH  60  83
ENDBRANCH  34  35
ENDBRANCH  27  29
ENDBRANCH  26  27
ENDBRANCH   1  26
TORSDOF 17
ENDMDL
