MODEL 1
REMARK VINA RESULT:     -12.0      0.000      0.000
REMARK SMILES C[C@H]1OCC[C@@H]1C(=O)Nc1ccc(Cl)c(C(=O)OCCOC(=O)c2ccc(-c3c4nc(c(-c5cc(S(=O)(=O)[O-])ccc5F)c5ccc([nH]5)c(-c5cc(S(=O)(=O)[O-])ccc5F)c5nc(c(-c6cc(S(=O)(=O)[O-])ccc6F)c6ccc3[nH]6)C=C5)C=C4)cc2)c1
REMARK SMILES IDX 20 1 19 2 18 3 16 4 17 5 15 6 10 7 11 8 87 9 12 10 13 11
REMARK SMILES IDX 14 12 9 13 7 14 8 15 6 17 1 18 2 19 3 20 4 21 5 22 21 23
REMARK SMILES IDX 22 24 23 25 24 26 25 27 86 28 26 29 85 30 27 31 28 32 29 33
REMARK SMILES IDX 79 34 30 35 84 36 78 37 80 38 31 39 83 40 77 41 76 42 32 44
REMARK SMILES IDX 64 45 44 46 63 47 45 48 48 49 62 50 81 51 46 52 47 53 61 55
REMARK SMILES IDX 82 56 49 57 33 58 34 59 42 60 35 61 41 62 43 63 40 64 36 65
REMARK SMILES IDX 37 66 38 67 39 68 65 69 66 70 74 71 67 72 73 73 75 74 72 75
REMARK SMILES IDX 68 76 69 77 70 78 71 79 50 80 51 81 59 82 52 83 58 84 60 85
REMARK SMILES IDX 57 86 53 87 54 88 55 89 56 90
REMARK H PARENT 9 16 80 43 48 54
REMARK Flexibility Score: inf
ROOT
ATOM      1  C   UNL A   1      31.739  29.675  26.865  1.00  0.00     0.275 C 
ENDROOT
BRANCH   1   2
ATOM      2  C   UNL A   1      31.800  28.340  27.607  1.00  0.00     0.275 C 
BRANCH   2   3
ATOM      3  O   UNL A   1      32.532  27.382  26.820  1.00  0.00    -0.458 OA
BRANCH   3   4
ATOM      4  C   UNL A   1      31.844  26.314  26.347  1.00  0.00     0.339 C 
ATOM      5  O   UNL A   1      31.462  25.354  26.989  1.00  0.00    -0.246 OA
BRANCH   4   6
ATOM      6  C   UNL A   1      31.433  26.567  24.949  1.00  0.00     0.080 A 
ATOM      7  C   UNL A   1      29.597  27.167  23.472  1.00  0.00     0.042 A 
ATOM      8  C   UNL A   1      30.489  27.277  22.411  1.00  0.00     0.028 A 
ATOM      9  C   UNL A   1      30.068  26.819  24.734  1.00  0.00     0.043 A 
ATOM     10  C   UNL A   1      31.838  26.962  22.599  1.00  0.00     0.023 A 
ATOM     11  C   UNL A   1      32.315  26.599  23.865  1.00  0.00     0.055 A 
ATOM     12  Cl  UNL A   1      33.979  26.151  23.986  1.00  0.00    -0.083 Cl
BRANCH   7  13
ATOM     13  N   UNL A   1      28.265  27.556  23.332  1.00  0.00    -0.326 N 
ATOM     14  C   UNL A   1      27.736  28.784  23.067  1.00  0.00     0.230 C 
ATOM     15  O   UNL A   1      26.505  28.878  23.047  1.00  0.00    -0.274 OA
ATOM     16  H   UNL A   1      27.606  26.832  23.440  1.00  0.00     0.169 HD
BRANCH  14  17
ATOM     17  C   UNL A   1      28.577  30.015  22.757  1.00  0.00     0.110 C 
ATOM     18  C   UNL A   1      29.431  31.861  24.274  1.00  0.00     0.039 C 
ATOM     19  C   UNL A   1      28.215  31.221  23.613  1.00  0.00     0.127 C 
ATOM     20  O   UNL A   1      27.609  32.183  22.733  1.00  0.00    -0.378 OA
ATOM     21  C   UNL A   1      28.074  31.936  21.405  1.00  0.00     0.161 C 
ATOM     22  C   UNL A   1      28.504  30.486  21.323  1.00  0.00     0.044 C 
ENDBRANCH  14  17
ENDBRANCH   7  13
ENDBRANCH   4   6
ENDBRANCH   3   4
ENDBRANCH   2   3
ENDBRANCH   1   2
BRANCH   1  23
ATOM     23  O   UNL A   1      33.073  30.107  26.540  1.00  0.00    -0.458 OA
BRANCH  23  24
ATOM     24  C   UNL A   1      33.503  31.214  27.189  1.00  0.00     0.338 C 
ATOM     25  O   UNL A   1      32.882  32.237  27.413  1.00  0.00    -0.246 OA
BRANCH  24  26
ATOM     26  C   UNL A   1      34.855  30.962  27.706  1.00  0.00     0.060 A 
ATOM     27  C   UNL A   1      35.177  29.660  28.072  1.00  0.00     0.016 A 
ATOM     28  C   UNL A   1      35.755  31.998  27.935  1.00  0.00     0.016 A 
ATOM     29  C   UNL A   1      36.361  29.390  28.752  1.00  0.00     0.010 A 
ATOM     30  C   UNL A   1      36.993  31.710  28.526  1.00  0.00     0.010 A 
ATOM     31  C   UNL A   1      37.301  30.407  28.969  1.00  0.00    -0.014 A 
BRANCH  31  32
ATOM     32  C   UNL A   1      38.589  30.114  29.666  1.00  0.00     0.031 A 
ATOM     33  C   UNL A   1      39.599  29.186  29.036  1.00  0.00     0.074 A 
ATOM     34  C   UNL A   1      38.864  30.677  30.861  1.00  0.00     0.049 A 
ATOM     35  N   UNL A   1      40.677  28.656  29.554  1.00  0.00    -0.248 NA
ATOM     36  C   UNL A   1      39.349  28.794  27.642  1.00  0.00     0.031 C 
ATOM     37  C   UNL A   1      38.006  31.633  31.566  1.00  0.00     0.029 A 
ATOM     38  N   UNL A   1      39.945  30.532  31.698  1.00  0.00    -0.354 N 
ATOM     39  C   UNL A   1      41.210  27.830  28.568  1.00  0.00     0.074 A 
ATOM     40  C   UNL A   1      40.321  27.918  27.428  1.00  0.00     0.031 C 
ATOM     41  C   UNL A   1      38.607  32.013  32.703  1.00  0.00     0.029 A 
ATOM     42  C   UNL A   1      39.841  31.254  32.865  1.00  0.00     0.049 A 
ATOM     43  H   UNL A   1      40.720  29.965  31.482  1.00  0.00     0.167 HD
ATOM     44  C   UNL A   1      42.332  27.067  28.615  1.00  0.00     0.034 A 
ATOM     45  C   UNL A   1      40.614  31.267  33.970  1.00  0.00     0.034 A 
ATOM     46  C   UNL A   1      43.227  27.018  29.748  1.00  0.00     0.049 A 
ATOM     47  C   UNL A   1      41.818  30.364  34.024  1.00  0.00     0.074 A 
ATOM     48  C   UNL A   1      44.397  26.293  29.894  1.00  0.00     0.029 A 
ATOM     49  N   UNL A   1      43.055  27.727  30.931  1.00  0.00    -0.354 N 
ATOM     50  N   UNL A   1      42.272  29.537  33.111  1.00  0.00    -0.248 NA
ATOM     51  C   UNL A   1      42.603  30.384  35.265  1.00  0.00     0.031 C 
ATOM     52  C   UNL A   1      44.896  26.512  31.183  1.00  0.00     0.029 A 
ATOM     53  C   UNL A   1      44.079  27.432  31.819  1.00  0.00     0.049 A 
ATOM     54  H   UNL A   1      42.314  28.350  31.112  1.00  0.00     0.167 HD
ATOM     55  C   UNL A   1      43.404  28.946  33.665  1.00  0.00     0.074 A 
ATOM     56  C   UNL A   1      43.576  29.531  34.980  1.00  0.00     0.031 C 
ATOM     57  C   UNL A   1      44.226  28.004  33.137  1.00  0.00     0.034 A 
BRANCH  44  58
ATOM     58  C   UNL A   1      42.618  26.173  27.429  1.00  0.00     0.023 A 
ATOM     59  C   UNL A   1      42.135  24.855  27.347  1.00  0.00     0.031 A 
ATOM     60  C   UNL A   1      43.416  26.647  26.371  1.00  0.00     0.131 A 
ATOM     61  C   UNL A   1      42.512  24.037  26.269  1.00  0.00     0.055 A 
ATOM     62  C   UNL A   1      43.721  25.853  25.263  1.00  0.00     0.041 A 
ATOM     63  F   UNL A   1      43.926  27.888  26.401  1.00  0.00    -0.206 F 
ATOM     64  C   UNL A   1      43.281  24.535  25.215  1.00  0.00     0.022 A 
BRANCH  61  65
ATOM     65  S   UNL A   1      42.104  22.270  26.334  1.00  0.00     0.124 S 
ATOM     66  O   UNL A   1      40.643  22.301  26.276  1.00  0.00    -0.237 OA
ATOM     67  O   UNL A   1      42.780  21.747  25.153  1.00  0.00    -0.237 OA
ATOM     68  O   UNL A   1      42.658  21.837  27.615  1.00  0.00    -0.744 OA
ENDBRANCH  61  65
ENDBRANCH  44  58
BRANCH  45  69
ATOM     69  C   UNL A   1      40.232  32.100  35.149  1.00  0.00     0.023 A 
ATOM     70  C   UNL A   1      39.303  31.640  36.094  1.00  0.00     0.031 A 
ATOM     71  C   UNL A   1      40.765  33.391  35.323  1.00  0.00     0.131 A 
ATOM     72  C   UNL A   1      38.910  32.477  37.152  1.00  0.00     0.055 A 
ATOM     73  C   UNL A   1      40.416  34.196  36.406  1.00  0.00     0.041 A 
ATOM     74  F   UNL A   1      41.652  33.884  34.443  1.00  0.00    -0.206 F 
ATOM     75  C   UNL A   1      39.474  33.744  37.324  1.00  0.00     0.022 A 
BRANCH  72  76
ATOM     76  S   UNL A   1      37.586  31.918  38.259  1.00  0.00     0.124 S 
ATOM     77  O   UNL A   1      38.230  32.014  39.565  1.00  0.00    -0.237 OA
ATOM     78  O   UNL A   1      36.533  32.891  37.988  1.00  0.00    -0.237 OA
ATOM     79  O   UNL A   1      37.310  30.559  37.799  1.00  0.00    -0.744 OA
ENDBRANCH  72  76
ENDBRANCH  45  69
BRANCH  57  80
ATOM     80  C   UNL A   1      45.401  27.578  33.982  1.00  0.00     0.023 A 
ATOM     81  C   UNL A   1      46.640  28.239  33.906  1.00  0.00     0.031 A 
ATOM     82  C   UNL A   1      45.288  26.478  34.850  1.00  0.00     0.131 A 
ATOM     83  C   UNL A   1      47.733  27.758  34.643  1.00  0.00     0.055 A 
ATOM     84  C   UNL A   1      46.363  26.040  35.624  1.00  0.00     0.041 A 
ATOM     85  F   UNL A   1      44.129  25.808  34.957  1.00  0.00    -0.206 F 
ATOM     86  C   UNL A   1      47.599  26.672  35.512  1.00  0.00     0.022 A 
BRANCH  83  87
ATOM     87  S   UNL A   1      49.362  28.512  34.379  1.00  0.00     0.124 S 
ATOM     88  O   UNL A   1      49.166  29.854  34.916  1.00  0.00    -0.237 OA
ATOM     89  O   UNL A   1      50.240  27.638  35.150  1.00  0.00    -0.237 OA
ATOM     90  O   UNL A   1      49.541  28.444  32.930  1.00  0.00    -0.744 OA
ENDBRANCH  83  87
ENDBRANCH  57  80
ENDBRANCH  31  32
ENDBRANCH  24  26
ENDBRANCH  23  24
ENDBRANCH   1  23
TORSDOF 16
ENDMDL
MODEL 2
REMARK VINA RESULT:     -12.0      5.616     10.424
REMARK SMILES C[C@H]1OCC[C@@H]1C(=O)Nc1ccc(Cl)c(C(=O)OCCOC(=O)c2ccc(-c3c4nc(c(-c5cc(S(=O)(=O)[O-])ccc5F)c5ccc([nH]5)c(-c5cc(S(=O)(=O)[O-])ccc5F)c5nc(c(-c6cc(S(=O)(=O)[O-])ccc6F)c6ccc3[nH]6)C=C5)C=C4)cc2)c1
REMARK SMILES IDX 20 1 19 2 18 3 16 4 17 5 15 6 10 7 11 8 87 9 12 10 13 11
REMARK SMILES IDX 14 12 9 13 7 14 8 15 6 17 1 18 2 19 3 20 4 21 5 22 21 23
REMARK SMILES IDX 22 24 23 25 24 26 25 27 86 28 26 29 85 30 27 31 28 32 29 33
REMARK SMILES IDX 79 34 30 35 84 36 78 37 80 38 31 39 83 40 77 41 76 42 32 44
REMARK SMILES IDX 64 45 44 46 63 47 45 48 48 49 62 50 81 51 46 52 47 53 61 55
REMARK SMILES IDX 82 56 49 57 33 58 34 59 42 60 35 61 41 62 43 63 40 64 36 65
REMARK SMILES IDX 37 66 38 67 39 68 65 69 66 70 74 71 67 72 73 73 75 74 72 75
REMARK SMILES IDX 68 76 69 77 70 78 71 79 50 80 51 81 59 82 52 83 58 84 60 85
REMARK SMILES IDX 57 86 53 87 54 88 55 89 56 90
REMARK H PARENT 9 16 80 43 48 54
REMARK Flexibility Score: inf
ROOT
ATOM      1  C   UNL A   1      36.590  21.439  24.266  1.00  0.00     0.275 C 
ENDROOT
BRANCH   1   2
ATOM      2  C   UNL A   1      36.640  22.761  23.501  1.00  0.00     0.275 C 
BRANCH   2   3
ATOM      3  O   UNL A   1      35.733  23.703  24.103  1.00  0.00    -0.458 OA
BRANCH   3   4
ATOM      4  C   UNL A   1      34.552  23.917  23.471  1.00  0.00     0.339 C 
ATOM      5  O   UNL A   1      34.364  24.638  22.510  1.00  0.00    -0.246 OA
BRANCH   4   6
ATOM      6  C   UNL A   1      33.532  22.981  23.992  1.00  0.00     0.080 A 
ATOM      7  C   UNL A   1      32.282  20.937  23.575  1.00  0.00     0.042 A 
ATOM      8  C   UNL A   1      31.778  20.983  24.870  1.00  0.00     0.028 A 
ATOM      9  C   UNL A   1      33.158  21.927  23.141  1.00  0.00     0.043 A 
ATOM     10  C   UNL A   1      32.091  22.063  25.701  1.00  0.00     0.023 A 
ATOM     11  C   UNL A   1      32.962  23.070  25.264  1.00  0.00     0.055 A 
ATOM     12  Cl  UNL A   1      33.228  24.404  26.329  1.00  0.00    -0.083 Cl
BRANCH   7  13
ATOM     13  N   UNL A   1      32.054  19.832  22.756  1.00  0.00    -0.326 N 
ATOM     14  C   UNL A   1      32.435  18.533  22.916  1.00  0.00     0.230 C 
ATOM     15  O   UNL A   1      32.152  17.744  22.008  1.00  0.00    -0.274 OA
ATOM     16  H   UNL A   1      31.539  20.018  21.938  1.00  0.00     0.169 HD
BRANCH  14  17
ATOM     17  C   UNL A   1      33.143  18.008  24.158  1.00  0.00     0.110 C 
ATOM     18  C   UNL A   1      35.611  17.663  24.636  1.00  0.00     0.039 C 
ATOM     19  C   UNL A   1      34.394  17.200  23.841  1.00  0.00     0.127 C 
ATOM     20  O   UNL A   1      34.104  15.838  24.192  1.00  0.00    -0.378 OA
ATOM     21  C   UNL A   1      33.072  15.836  25.180  1.00  0.00     0.161 C 
ATOM     22  C   UNL A   1      32.294  17.127  25.045  1.00  0.00     0.044 C 
ENDBRANCH  14  17
ENDBRANCH   7  13
ENDBRANCH   4   6
ENDBRANCH   3   4
ENDBRANCH   2   3
ENDBRANCH   1   2
BRANCH   1  23
ATOM     23  O   UNL A   1      37.076  21.639  25.606  1.00  0.00    -0.458 OA
BRANCH  23  24
ATOM     24  C   UNL A   1      38.367  21.291  25.818  1.00  0.00     0.338 C 
ATOM     25  O   UNL A   1      38.921  20.253  25.504  1.00  0.00    -0.246 OA
BRANCH  24  26
ATOM     26  C   UNL A   1      39.072  22.434  26.414  1.00  0.00     0.060 A 
ATOM     27  C   UNL A   1      38.590  23.709  26.139  1.00  0.00     0.016 A 
ATOM     28  C   UNL A   1      40.249  22.270  27.136  1.00  0.00     0.016 A 
ATOM     29  C   UNL A   1      39.322  24.835  26.502  1.00  0.00     0.010 A 
ATOM     30  C   UNL A   1      40.934  23.405  27.593  1.00  0.00     0.010 A 
ATOM     31  C   UNL A   1      40.496  24.702  27.258  1.00  0.00    -0.014 A 
BRANCH  31  32
ATOM     32  C   UNL A   1      41.265  25.910  27.681  1.00  0.00     0.031 A 
ATOM     33  C   UNL A   1      40.607  26.971  28.527  1.00  0.00     0.074 A 
ATOM     34  C   UNL A   1      42.556  26.061  27.316  1.00  0.00     0.049 A 
ATOM     35  N   UNL A   1      41.032  28.170  28.837  1.00  0.00    -0.248 NA
ATOM     36  C   UNL A   1      39.287  26.641  29.085  1.00  0.00     0.031 C 
ATOM     37  C   UNL A   1      43.338  25.093  26.542  1.00  0.00     0.029 A 
ATOM     38  N   UNL A   1      43.443  27.086  27.546  1.00  0.00    -0.354 N 
ATOM     39  C   UNL A   1      40.014  28.756  29.584  1.00  0.00     0.074 A 
ATOM     40  C   UNL A   1      38.944  27.784  29.663  1.00  0.00     0.031 C 
ATOM     41  C   UNL A   1      44.590  25.552  26.396  1.00  0.00     0.029 A 
ATOM     42  C   UNL A   1      44.677  26.889  26.969  1.00  0.00     0.049 A 
ATOM     43  H   UNL A   1      43.216  27.885  28.075  1.00  0.00     0.167 HD
ATOM     44  C   UNL A   1      39.977  29.992  30.146  1.00  0.00     0.034 A 
ATOM     45  C   UNL A   1      45.743  27.708  26.858  1.00  0.00     0.034 A 
ATOM     46  C   UNL A   1      41.068  30.937  30.087  1.00  0.00     0.049 A 
ATOM     47  C   UNL A   1      45.655  29.097  27.432  1.00  0.00     0.074 A 
ATOM     48  C   UNL A   1      41.142  32.207  30.635  1.00  0.00     0.029 A 
ATOM     49  N   UNL A   1      42.282  30.715  29.447  1.00  0.00    -0.354 N 
ATOM     50  N   UNL A   1      44.661  29.662  28.077  1.00  0.00    -0.248 NA
ATOM     51  C   UNL A   1      46.825  29.963  27.248  1.00  0.00     0.031 C 
ATOM     52  C   UNL A   1      42.368  32.775  30.271  1.00  0.00     0.029 A 
ATOM     53  C   UNL A   1      43.094  31.834  29.560  1.00  0.00     0.049 A 
ATOM     54  H   UNL A   1      42.529  29.883  28.982  1.00  0.00     0.167 HD
ATOM     55  C   UNL A   1      45.093  30.949  28.386  1.00  0.00     0.074 A 
ATOM     56  C   UNL A   1      46.446  31.066  27.878  1.00  0.00     0.031 C 
ATOM     57  C   UNL A   1      44.432  31.946  29.027  1.00  0.00     0.034 A 
BRANCH  44  58
ATOM     58  C   UNL A   1      38.689  30.415  30.816  1.00  0.00     0.023 A 
ATOM     59  C   UNL A   1      37.648  31.046  30.113  1.00  0.00     0.031 A 
ATOM     60  C   UNL A   1      38.516  30.207  32.197  1.00  0.00     0.131 A 
ATOM     61  C   UNL A   1      36.515  31.506  30.804  1.00  0.00     0.055 A 
ATOM     62  C   UNL A   1      37.352  30.596  32.863  1.00  0.00     0.041 A 
ATOM     63  F   UNL A   1      39.483  29.630  32.928  1.00  0.00    -0.206 F 
ATOM     64  C   UNL A   1      36.349  31.263  32.169  1.00  0.00     0.022 A 
BRANCH  61  65
ATOM     65  S   UNL A   1      35.325  32.554  29.921  1.00  0.00     0.124 S 
ATOM     66  O   UNL A   1      34.358  32.856  30.975  1.00  0.00    -0.237 OA
ATOM     67  O   UNL A   1      36.155  33.667  29.476  1.00  0.00    -0.237 OA
ATOM     68  O   UNL A   1      34.823  31.685  28.859  1.00  0.00    -0.744 OA
ENDBRANCH  61  65
ENDBRANCH  44  58
BRANCH  45  69
ATOM     69  C   UNL A   1      46.955  27.270  26.104  1.00  0.00     0.023 A 
ATOM     70  C   UNL A   1      48.020  26.623  26.749  1.00  0.00     0.031 A 
ATOM     71  C   UNL A   1      47.080  27.531  24.726  1.00  0.00     0.131 A 
ATOM     72  C   UNL A   1      49.176  26.289  26.025  1.00  0.00     0.055 A 
ATOM     73  C   UNL A   1      48.205  27.145  23.999  1.00  0.00     0.041 A 
ATOM     74  F   UNL A   1      46.093  28.154  24.060  1.00  0.00    -0.206 F 
ATOM     75  C   UNL A   1      49.268  26.530  24.651  1.00  0.00     0.022 A 
BRANCH  72  76
ATOM     76  S   UNL A   1      50.598  25.608  26.921  1.00  0.00     0.124 S 
ATOM     77  O   UNL A   1      51.514  25.292  25.830  1.00  0.00    -0.237 OA
ATOM     78  O   UNL A   1      50.980  26.724  27.779  1.00  0.00    -0.237 OA
ATOM     79  O   UNL A   1      50.038  24.452  27.619  1.00  0.00    -0.744 OA
ENDBRANCH  72  76
ENDBRANCH  45  69
BRANCH  57  80
ATOM     80  C   UNL A   1      45.187  33.235  29.238  1.00  0.00     0.023 A 
ATOM     81  C   UNL A   1      45.090  34.303  28.329  1.00  0.00     0.031 A 
ATOM     82  C   UNL A   1      46.039  33.384  30.347  1.00  0.00     0.131 A 
ATOM     83  C   UNL A   1      45.874  35.451  28.515  1.00  0.00     0.055 A 
ATOM     84  C   UNL A   1      46.773  34.552  30.558  1.00  0.00     0.041 A 
ATOM     85  F   UNL A   1      46.173  32.393  31.244  1.00  0.00    -0.206 F 
ATOM     86  C   UNL A   1      46.705  35.588  29.631  1.00  0.00     0.022 A 
BRANCH  83  87
ATOM     87  S   UNL A   1      45.870  36.728  27.226  1.00  0.00     0.124 S 
ATOM     88  O   UNL A   1      46.435  37.874  27.931  1.00  0.00    -0.237 OA
ATOM     89  O   UNL A   1      46.714  36.134  26.194  1.00  0.00    -0.237 OA
ATOM     90  O   UNL A   1      44.457  36.854  26.872  1.00  0.00    -0.744 OA
ENDBRANCH  83  87
ENDBRANCH  57  80
ENDBRANCH  31  32
ENDBRANCH  24  26
ENDBRANCH  23  24
ENDBRANCH   1  23
TORSDOF 16
ENDMDL
MODEL 3
REMARK VINA RESULT:     -11.8      4.722      9.533
REMARK SMILES C[C@H]1OCC[C@@H]1C(=O)Nc1ccc(Cl)c(C(=O)OCCOC(=O)c2ccc(-c3c4nc(c(-c5cc(S(=O)(=O)[O-])ccc5F)c5ccc([nH]5)c(-c5cc(S(=O)(=O)[O-])ccc5F)c5nc(c(-c6cc(S(=O)(=O)[O-])ccc6F)c6ccc3[nH]6)C=C5)C=C4)cc2)c1
REMARK SMILES IDX 20 1 19 2 18 3 16 4 17 5 15 6 10 7 11 8 87 9 12 10 13 11
REMARK SMILES IDX 14 12 9 13 7 14 8 15 6 17 1 18 2 19 3 20 4 21 5 22 21 23
REMARK SMILES IDX 22 24 23 25 24 26 25 27 86 28 26 29 85 30 27 31 28 32 29 33
REMARK SMILES IDX 79 34 30 35 84 36 78 37 80 38 31 39 83 40 77 41 76 42 32 44
REMARK SMILES IDX 64 45 44 46 63 47 45 48 48 49 62 50 81 51 46 52 47 53 61 55
REMARK SMILES IDX 82 56 49 57 33 58 34 59 42 60 35 61 41 62 43 63 40 64 36 65
REMARK SMILES IDX 37 66 38 67 39 68 65 69 66 70 74 71 67 72 73 73 75 74 72 75
REMARK SMILES IDX 68 76 69 77 70 78 71 79 50 80 51 81 59 82 52 83 58 84 60 85
REMARK SMILES IDX 57 86 53 87 54 88 55 89 56 90
REMARK H PARENT 9 16 80 43 48 54
REMARK Flexibility Score: inf
ROOT
ATOM      1  C   UNL A   1      36.265  20.465  25.001  1.00  0.00     0.275 C 
ENDROOT
BRANCH   1   2
ATOM      2  C   UNL A   1      34.794  20.874  25.063  1.00  0.00     0.275 C 
BRANCH   2   3
ATOM      3  O   UNL A   1      34.686  22.222  25.558  1.00  0.00    -0.458 OA
BRANCH   3   4
ATOM      4  C   UNL A   1      34.499  23.204  24.643  1.00  0.00     0.339 C 
ATOM      5  O   UNL A   1      35.296  23.573  23.800  1.00  0.00    -0.246 OA
BRANCH   4   6
ATOM      6  C   UNL A   1      33.089  23.649  24.672  1.00  0.00     0.080 A 
ATOM      7  C   UNL A   1      31.433  25.000  25.833  1.00  0.00     0.042 A 
ATOM      8  C   UNL A   1      30.526  24.769  24.804  1.00  0.00     0.028 A 
ATOM      9  C   UNL A   1      32.708  24.448  25.763  1.00  0.00     0.043 A 
ATOM     10  C   UNL A   1      30.872  23.921  23.748  1.00  0.00     0.023 A 
ATOM     11  C   UNL A   1      32.151  23.351  23.681  1.00  0.00     0.055 A 
ATOM     12  Cl  UNL A   1      32.463  22.255  22.382  1.00  0.00    -0.083 Cl
BRANCH   7  13
ATOM     13  N   UNL A   1      31.144  25.906  26.852  1.00  0.00    -0.326 N 
ATOM     14  C   UNL A   1      31.363  27.250  26.915  1.00  0.00     0.230 C 
ATOM     15  O   UNL A   1      31.062  27.825  27.966  1.00  0.00    -0.274 OA
ATOM     16  H   UNL A   1      30.716  25.516  27.648  1.00  0.00     0.169 HD
BRANCH  14  17
ATOM     17  C   UNL A   1      31.912  28.070  25.754  1.00  0.00     0.110 C 
ATOM     18  C   UNL A   1      33.826  27.604  24.157  1.00  0.00     0.039 C 
ATOM     19  C   UNL A   1      33.420  27.941  25.587  1.00  0.00     0.127 C 
ATOM     20  O   UNL A   1      33.983  29.215  25.939  1.00  0.00    -0.378 OA
ATOM     21  C   UNL A   1      32.985  30.219  25.747  1.00  0.00     0.161 C 
ATOM     22  C   UNL A   1      31.629  29.552  25.839  1.00  0.00     0.044 C 
ENDBRANCH  14  17
ENDBRANCH   7  13
ENDBRANCH   4   6
ENDBRANCH   3   4
ENDBRANCH   2   3
ENDBRANCH   1   2
BRANCH   1  23
ATOM     23  O   UNL A   1      37.063  21.428  25.714  1.00  0.00    -0.458 OA
BRANCH  23  24
ATOM     24  C   UNL A   1      38.381  21.138  25.810  1.00  0.00     0.338 C 
ATOM     25  O   UNL A   1      38.959  20.143  25.410  1.00  0.00    -0.246 OA
BRANCH  24  26
ATOM     26  C   UNL A   1      39.076  22.290  26.400  1.00  0.00     0.060 A 
ATOM     27  C   UNL A   1      38.652  23.562  26.030  1.00  0.00     0.016 A 
ATOM     28  C   UNL A   1      40.194  22.132  27.213  1.00  0.00     0.016 A 
ATOM     29  C   UNL A   1      39.391  24.685  26.391  1.00  0.00     0.010 A 
ATOM     30  C   UNL A   1      40.878  23.270  27.663  1.00  0.00     0.010 A 
ATOM     31  C   UNL A   1      40.503  24.560  27.235  1.00  0.00    -0.014 A 
BRANCH  31  32
ATOM     32  C   UNL A   1      41.276  25.767  27.654  1.00  0.00     0.031 A 
ATOM     33  C   UNL A   1      40.608  26.854  28.459  1.00  0.00     0.074 A 
ATOM     34  C   UNL A   1      42.578  25.895  27.322  1.00  0.00     0.049 A 
ATOM     35  N   UNL A   1      41.040  28.054  28.755  1.00  0.00    -0.248 NA
ATOM     36  C   UNL A   1      39.269  26.552  28.986  1.00  0.00     0.031 C 
ATOM     37  C   UNL A   1      43.368  24.901  26.591  1.00  0.00     0.029 A 
ATOM     38  N   UNL A   1      43.471  26.914  27.556  1.00  0.00    -0.354 N 
ATOM     39  C   UNL A   1      40.009  28.669  29.461  1.00  0.00     0.074 A 
ATOM     40  C   UNL A   1      38.925  27.711  29.531  1.00  0.00     0.031 C 
ATOM     41  C   UNL A   1      44.630  25.342  26.470  1.00  0.00     0.029 A 
ATOM     42  C   UNL A   1      44.718  26.690  27.018  1.00  0.00     0.049 A 
ATOM     43  H   UNL A   1      43.240  27.727  28.061  1.00  0.00     0.167 HD
ATOM     44  C   UNL A   1      39.972  29.916  29.996  1.00  0.00     0.034 A 
ATOM     45  C   UNL A   1      45.797  27.492  26.919  1.00  0.00     0.034 A 
ATOM     46  C   UNL A   1      41.077  30.846  29.948  1.00  0.00     0.049 A 
ATOM     47  C   UNL A   1      45.711  28.895  27.462  1.00  0.00     0.074 A 
ATOM     48  C   UNL A   1      41.151  32.127  30.470  1.00  0.00     0.029 A 
ATOM     49  N   UNL A   1      42.304  30.596  29.347  1.00  0.00    -0.354 N 
ATOM     50  N   UNL A   1      44.707  29.486  28.066  1.00  0.00    -0.248 NA
ATOM     51  C   UNL A   1      46.897  29.742  27.292  1.00  0.00     0.031 C 
ATOM     52  C   UNL A   1      42.394  32.672  30.130  1.00  0.00     0.029 A 
ATOM     53  C   UNL A   1      43.128  31.707  29.458  1.00  0.00     0.049 A 
ATOM     54  H   UNL A   1      42.554  29.752  28.906  1.00  0.00     0.167 HD
ATOM     55  C   UNL A   1      45.147  30.773  28.360  1.00  0.00     0.074 A 
ATOM     56  C   UNL A   1      46.514  30.862  27.887  1.00  0.00     0.031 C 
ATOM     57  C   UNL A   1      44.481  31.791  28.962  1.00  0.00     0.034 A 
BRANCH  44  58
ATOM     58  C   UNL A   1      38.672  30.370  30.621  1.00  0.00     0.023 A 
ATOM     59  C   UNL A   1      37.742  31.165  29.928  1.00  0.00     0.031 A 
ATOM     60  C   UNL A   1      38.374  30.019  31.950  1.00  0.00     0.131 A 
ATOM     61  C   UNL A   1      36.596  31.638  30.588  1.00  0.00     0.055 A 
ATOM     62  C   UNL A   1      37.193  30.428  32.576  1.00  0.00     0.041 A 
ATOM     63  F   UNL A   1      39.232  29.281  32.672  1.00  0.00    -0.206 F 
ATOM     64  C   UNL A   1      36.304  31.255  31.899  1.00  0.00     0.022 A 
BRANCH  61  65
ATOM     65  S   UNL A   1      35.566  32.880  29.758  1.00  0.00     0.124 S 
ATOM     66  O   UNL A   1      34.465  32.062  29.253  1.00  0.00    -0.237 OA
ATOM     67  O   UNL A   1      35.237  33.794  30.846  1.00  0.00    -0.237 OA
ATOM     68  O   UNL A   1      36.448  33.426  28.729  1.00  0.00    -0.744 OA
ENDBRANCH  61  65
ENDBRANCH  44  58
BRANCH  45  69
ATOM     69  C   UNL A   1      47.024  27.024  26.208  1.00  0.00     0.023 A 
ATOM     70  C   UNL A   1      48.061  26.375  26.896  1.00  0.00     0.031 A 
ATOM     71  C   UNL A   1      47.192  27.256  24.830  1.00  0.00     0.131 A 
ATOM     72  C   UNL A   1      49.233  26.011  26.212  1.00  0.00     0.055 A 
ATOM     73  C   UNL A   1      48.332  26.841  24.144  1.00  0.00     0.041 A 
ATOM     74  F   UNL A   1      46.233  27.880  24.125  1.00  0.00    -0.206 F 
ATOM     75  C   UNL A   1      49.367  26.224  24.838  1.00  0.00     0.022 A 
BRANCH  72  76
ATOM     76  S   UNL A   1      50.619  25.329  27.162  1.00  0.00     0.124 S 
ATOM     77  O   UNL A   1      49.979  24.225  27.869  1.00  0.00    -0.237 OA
ATOM     78  O   UNL A   1      51.557  24.959  26.107  1.00  0.00    -0.237 OA
ATOM     79  O   UNL A   1      51.039  26.448  28.002  1.00  0.00    -0.744 OA
ENDBRANCH  72  76
ENDBRANCH  45  69
BRANCH  57  80
ATOM     80  C   UNL A   1      45.247  33.076  29.167  1.00  0.00     0.023 A 
ATOM     81  C   UNL A   1      45.208  34.115  28.221  1.00  0.00     0.031 A 
ATOM     82  C   UNL A   1      46.049  33.247  30.308  1.00  0.00     0.131 A 
ATOM     83  C   UNL A   1      46.002  35.257  28.406  1.00  0.00     0.055 A 
ATOM     84  C   UNL A   1      46.792  34.410  30.515  1.00  0.00     0.041 A 
ATOM     85  F   UNL A   1      46.126  32.284  31.241  1.00  0.00    -0.206 F 
ATOM     86  C   UNL A   1      46.782  35.418  29.554  1.00  0.00     0.022 A 
BRANCH  83  87
ATOM     87  S   UNL A   1      46.076  36.491  27.080  1.00  0.00     0.124 S 
ATOM     88  O   UNL A   1      46.561  35.699  25.954  1.00  0.00    -0.237 OA
ATOM     89  O   UNL A   1      44.691  36.942  26.992  1.00  0.00    -0.237 OA
ATOM     90  O   UNL A   1      47.019  37.487  27.589  1.00  0.00    -0.744 OA
ENDBRANCH  83  87
ENDBRANCH  57  80
ENDBRANCH  31  32
ENDBRANCH  24  26
ENDBRANCH  23  24
ENDBRANCH   1  23
TORSDOF 16
ENDMDL
