MODEL 1
REMARK VINA RESULT:     -10.6      0.000      0.000
REMARK SMILES C[C@H]([NH2+][C@@H]1CCOC2(CCC2)C1)C(=O)OCCOC(=O)c1ccc(-c2c3nc(c(-c4cc(S(=O)(=O)[O-])ccc4F)c4ccc([nH]4)c(-c4cc(S(=O)(=O)[O-])ccc4F)c4nc(c(-c5cc(S(=O)(=O)[O-])ccc5F)c5ccc2[nH]5)C=C4)C=C3)cc1
REMARK SMILES IDX 17 1 16 2 15 3 13 4 14 5 2 6 1 7 3 8 4 11 5 12 12 13 6 14
REMARK SMILES IDX 8 15 7 16 9 17 11 18 10 19 18 20 19 21 20 22 21 23 22 24
REMARK SMILES IDX 83 25 23 26 82 27 24 28 25 29 26 30 76 31 27 32 81 33 75 34
REMARK SMILES IDX 77 35 28 36 80 37 74 38 73 39 29 41 61 42 41 43 60 44 42 45
REMARK SMILES IDX 45 46 59 47 78 48 43 49 44 50 58 52 79 53 46 54 30 55 31 56
REMARK SMILES IDX 39 57 32 58 38 59 40 60 37 61 33 62 34 63 35 64 36 65 62 66
REMARK SMILES IDX 63 67 71 68 64 69 70 70 72 71 69 72 65 73 66 74 67 75 68 76
REMARK SMILES IDX 47 77 48 78 56 79 49 80 55 81 57 82 54 83 50 84 51 85 52 86
REMARK SMILES IDX 53 87
REMARK H PARENT 3 9 3 10 77 40 45 51
REMARK Flexibility Score: inf
ROOT
ATOM      1  C   UNL A   1      40.550  19.870  25.932  1.00  0.00     0.275 C 
ENDROOT
BRANCH   1   2
ATOM      2  C   UNL A   1      41.921  19.239  26.189  1.00  0.00     0.274 C 
BRANCH   2   3
ATOM      3  O   UNL A   1      42.767  19.279  25.026  1.00  0.00    -0.458 OA
BRANCH   3   4
ATOM      4  C   UNL A   1      44.069  18.920  25.226  1.00  0.00     0.364 C 
ATOM      5  O   UNL A   1      44.444  18.100  26.058  1.00  0.00    -0.245 OA
BRANCH   4   6
ATOM      6  C   UNL A   1      45.043  19.731  24.355  1.00  0.00     0.290 C 
ATOM      7  C   UNL A   1      46.416  19.530  24.993  1.00  0.00     0.088 C 
BRANCH   6   8
ATOM      8  N   UNL A   1      44.706  21.169  24.308  1.00  0.00    -0.332 N 
ATOM      9  H   UNL A   1      43.985  21.287  23.597  1.00  0.00     0.347 HD
ATOM     10  H   UNL A   1      45.596  21.630  24.121  1.00  0.00     0.347 HD
BRANCH   8  11
ATOM     11  C   UNL A   1      44.213  21.813  25.544  1.00  0.00     0.188 C 
ATOM     12  C   UNL A   1      43.033  22.794  25.476  1.00  0.00     0.093 C 
ATOM     13  C   UNL A   1      45.381  22.567  26.207  1.00  0.00     0.100 C 
ATOM     14  C   UNL A   1      43.365  24.103  24.781  1.00  0.00     0.167 C 
ATOM     15  C   UNL A   1      45.757  23.790  25.369  1.00  0.00     0.074 C 
ATOM     16  O   UNL A   1      44.608  24.662  25.188  1.00  0.00    -0.375 OA
ATOM     17  C   UNL A   1      46.991  24.576  25.918  1.00  0.00     0.036 C 
ATOM     18  C   UNL A   1      46.645  23.476  24.124  1.00  0.00     0.036 C 
ATOM     19  C   UNL A   1      47.495  24.704  24.470  1.00  0.00     0.006 C 
ENDBRANCH   8  11
ENDBRANCH   6   8
ENDBRANCH   4   6
ENDBRANCH   3   4
ENDBRANCH   2   3
ENDBRANCH   1   2
BRANCH   1  20
ATOM     20  O   UNL A   1      40.211  20.866  26.914  1.00  0.00    -0.458 OA
BRANCH  20  21
ATOM     21  C   UNL A   1      39.426  21.869  26.448  1.00  0.00     0.338 C 
ATOM     22  O   UNL A   1      38.430  21.750  25.752  1.00  0.00    -0.246 OA
BRANCH  21  23
ATOM     23  C   UNL A   1      39.831  23.154  27.046  1.00  0.00     0.060 A 
ATOM     24  C   UNL A   1      39.255  24.311  26.515  1.00  0.00     0.016 A 
ATOM     25  C   UNL A   1      40.788  23.245  28.060  1.00  0.00     0.016 A 
ATOM     26  C   UNL A   1      39.640  25.564  26.976  1.00  0.00     0.010 A 
ATOM     27  C   UNL A   1      41.174  24.510  28.526  1.00  0.00     0.010 A 
ATOM     28  C   UNL A   1      40.611  25.675  27.977  1.00  0.00    -0.014 A 
BRANCH  28  29
ATOM     29  C   UNL A   1      41.058  27.027  28.390  1.00  0.00     0.031 A 
ATOM     30  C   UNL A   1      42.506  27.406  28.256  1.00  0.00     0.074 A 
ATOM     31  C   UNL A   1      40.154  27.931  28.811  1.00  0.00     0.049 A 
ATOM     32  N   UNL A   1      43.099  28.532  28.559  1.00  0.00    -0.248 NA
ATOM     33  C   UNL A   1      43.404  26.381  27.703  1.00  0.00     0.031 C 
ATOM     34  C   UNL A   1      38.715  27.687  28.933  1.00  0.00     0.029 A 
ATOM     35  N   UNL A   1      40.306  29.236  29.204  1.00  0.00    -0.354 N 
ATOM     36  C   UNL A   1      44.440  28.355  28.235  1.00  0.00     0.074 A 
ATOM     37  C   UNL A   1      44.576  27.000  27.742  1.00  0.00     0.031 C 
ATOM     38  C   UNL A   1      38.117  28.808  29.369  1.00  0.00     0.029 A 
ATOM     39  C   UNL A   1      39.131  29.835  29.596  1.00  0.00     0.049 A 
ATOM     40  H   UNL A   1      41.174  29.701  29.204  1.00  0.00     0.167 HD
ATOM     41  C   UNL A   1      45.459  29.245  28.332  1.00  0.00     0.034 A 
ATOM     42  C   UNL A   1      38.903  31.062  30.104  1.00  0.00     0.034 A 
ATOM     43  C   UNL A   1      45.309  30.589  28.838  1.00  0.00     0.049 A 
ATOM     44  C   UNL A   1      40.068  32.007  30.267  1.00  0.00     0.074 A 
ATOM     45  C   UNL A   1      46.279  31.564  28.998  1.00  0.00     0.029 A 
ATOM     46  N   UNL A   1      44.113  31.148  29.269  1.00  0.00    -0.354 N 
ATOM     47  N   UNL A   1      41.335  31.819  29.973  1.00  0.00    -0.248 NA
ATOM     48  C   UNL A   1      39.769  33.335  30.820  1.00  0.00     0.031 C 
ATOM     49  C   UNL A   1      45.681  32.690  29.577  1.00  0.00     0.029 A 
ATOM     50  C   UNL A   1      44.325  32.444  29.716  1.00  0.00     0.049 A 
ATOM     51  H   UNL A   1      43.241  30.691  29.259  1.00  0.00     0.167 HD
ATOM     52  C   UNL A   1      41.978  33.012  30.293  1.00  0.00     0.074 A 
ATOM     53  C   UNL A   1      40.956  33.920  30.768  1.00  0.00     0.031 C 
ATOM     54  C   UNL A   1      43.296  33.330  30.207  1.00  0.00     0.034 A 
BRANCH  41  55
ATOM     55  C   UNL A   1      46.832  28.769  27.928  1.00  0.00     0.023 A 
ATOM     56  C   UNL A   1      47.719  28.194  28.854  1.00  0.00     0.031 A 
ATOM     57  C   UNL A   1      47.266  28.908  26.597  1.00  0.00     0.131 A 
ATOM     58  C   UNL A   1      49.013  27.831  28.452  1.00  0.00     0.055 A 
ATOM     59  C   UNL A   1      48.530  28.480  26.186  1.00  0.00     0.041 A 
ATOM     60  F   UNL A   1      46.470  29.470  25.675  1.00  0.00    -0.206 F 
ATOM     61  C   UNL A   1      49.416  27.948  27.119  1.00  0.00     0.022 A 
BRANCH  58  62
ATOM     62  S   UNL A   1      50.204  27.308  29.716  1.00  0.00     0.124 S 
ATOM     63  O   UNL A   1      49.683  25.995  30.086  1.00  0.00    -0.237 OA
ATOM     64  O   UNL A   1      51.465  27.312  28.983  1.00  0.00    -0.237 OA
ATOM     65  O   UNL A   1      50.081  28.335  30.749  1.00  0.00    -0.744 OA
ENDBRANCH  58  62
ENDBRANCH  41  55
BRANCH  42  66
ATOM     66  C   UNL A   1      37.537  31.459  30.551  1.00  0.00     0.023 A 
ATOM     67  C   UNL A   1      36.651  32.125  29.690  1.00  0.00     0.031 A 
ATOM     68  C   UNL A   1      37.126  31.237  31.878  1.00  0.00     0.131 A 
ATOM     69  C   UNL A   1      35.423  32.597  30.180  1.00  0.00     0.055 A 
ATOM     70  C   UNL A   1      35.879  31.657  32.345  1.00  0.00     0.041 A 
ATOM     71  F   UNL A   1      37.935  30.605  32.744  1.00  0.00    -0.206 F 
ATOM     72  C   UNL A   1      35.026  32.356  31.498  1.00  0.00     0.022 A 
BRANCH  69  73
ATOM     73  S   UNL A   1      34.394  33.627  29.098  1.00  0.00     0.124 S 
ATOM     74  O   UNL A   1      33.828  32.634  28.191  1.00  0.00    -0.237 OA
ATOM     75  O   UNL A   1      33.467  34.231  30.048  1.00  0.00    -0.237 OA
ATOM     76  O   UNL A   1      35.353  34.549  28.493  1.00  0.00    -0.744 OA
ENDBRANCH  69  73
ENDBRANCH  42  66
BRANCH  54  77
ATOM     77  C   UNL A   1      43.682  34.731  30.615  1.00  0.00     0.023 A 
ATOM     78  C   UNL A   1      43.870  35.079  31.965  1.00  0.00     0.031 A 
ATOM     79  C   UNL A   1      43.820  35.741  29.647  1.00  0.00     0.131 A 
ATOM     80  C   UNL A   1      44.114  36.414  32.315  1.00  0.00     0.055 A 
ATOM     81  C   UNL A   1      44.124  37.058  29.997  1.00  0.00     0.041 A 
ATOM     82  F   UNL A   1      43.651  35.466  28.343  1.00  0.00    -0.206 F 
ATOM     83  C   UNL A   1      44.256  37.404  31.339  1.00  0.00     0.022 A 
BRANCH  80  84
ATOM     84  S   UNL A   1      44.130  36.864  34.073  1.00  0.00     0.124 S 
ATOM     85  O   UNL A   1      45.021  38.020  34.084  1.00  0.00    -0.237 OA
ATOM     86  O   UNL A   1      42.722  37.142  34.336  1.00  0.00    -0.237 OA
ATOM     87  O   UNL A   1      44.657  35.668  34.729  1.00  0.00    -0.744 OA
ENDBRANCH  80  84
ENDBRANCH  54  77
ENDBRANCH  28  29
ENDBRANCH  21  23
ENDBRANCH  20  21
ENDBRANCH   1  20
TORSDOF 16
ENDMDL
MODEL 2
REMARK VINA RESULT:     -10.6      3.960      6.231
REMARK SMILES C[C@H]([NH2+][C@@H]1CCOC2(CCC2)C1)C(=O)OCCOC(=O)c1ccc(-c2c3nc(c(-c4cc(S(=O)(=O)[O-])ccc4F)c4ccc([nH]4)c(-c4cc(S(=O)(=O)[O-])ccc4F)c4nc(c(-c5cc(S(=O)(=O)[O-])ccc5F)c5ccc2[nH]5)C=C4)C=C3)cc1
REMARK SMILES IDX 17 1 16 2 15 3 13 4 14 5 2 6 1 7 3 8 4 11 5 12 12 13 6 14
REMARK SMILES IDX 8 15 7 16 9 17 11 18 10 19 18 20 19 21 20 22 21 23 22 24
REMARK SMILES IDX 83 25 23 26 82 27 24 28 25 29 26 30 76 31 27 32 81 33 75 34
REMARK SMILES IDX 77 35 28 36 80 37 74 38 73 39 29 41 61 42 41 43 60 44 42 45
REMARK SMILES IDX 45 46 59 47 78 48 43 49 44 50 58 52 79 53 46 54 30 55 31 56
REMARK SMILES IDX 39 57 32 58 38 59 40 60 37 61 33 62 34 63 35 64 36 65 62 66
REMARK SMILES IDX 63 67 71 68 64 69 70 70 72 71 69 72 65 73 66 74 67 75 68 76
REMARK SMILES IDX 47 77 48 78 56 79 49 80 55 81 57 82 54 83 50 84 51 85 52 86
REMARK SMILES IDX 53 87
REMARK H PARENT 3 9 3 10 77 40 45 51
REMARK Flexibility Score: inf
ROOT
ATOM      1  C   UNL A   1      38.071  19.865  25.006  1.00  0.00     0.275 C 
ENDROOT
BRANCH   1   2
ATOM      2  C   UNL A   1      36.546  19.807  24.882  1.00  0.00     0.274 C 
BRANCH   2   3
ATOM      3  O   UNL A   1      35.946  21.113  24.922  1.00  0.00    -0.458 OA
BRANCH   3   4
ATOM      4  C   UNL A   1      34.613  21.164  24.628  1.00  0.00     0.364 C 
ATOM      5  O   UNL A   1      33.819  20.254  24.844  1.00  0.00    -0.245 OA
BRANCH   4   6
ATOM      6  C   UNL A   1      34.221  22.459  23.899  1.00  0.00     0.290 C 
ATOM      7  C   UNL A   1      35.459  23.351  23.966  1.00  0.00     0.088 C 
BRANCH   6   8
ATOM      8  N   UNL A   1      33.066  23.139  24.522  1.00  0.00    -0.332 N 
ATOM      9  H   UNL A   1      32.262  22.519  24.426  1.00  0.00     0.347 HD
ATOM     10  H   UNL A   1      33.002  24.030  24.029  1.00  0.00     0.347 HD
BRANCH   8  11
ATOM     11  C   UNL A   1      33.162  23.517  25.948  1.00  0.00     0.188 C 
ATOM     12  C   UNL A   1      32.284  22.805  26.988  1.00  0.00     0.093 C 
ATOM     13  C   UNL A   1      32.876  25.024  26.080  1.00  0.00     0.100 C 
ATOM     14  C   UNL A   1      30.808  23.140  26.873  1.00  0.00     0.167 C 
ATOM     15  C   UNL A   1      31.397  25.302  25.803  1.00  0.00     0.074 C 
ATOM     16  O   UNL A   1      30.552  24.529  26.699  1.00  0.00    -0.375 OA
ATOM     17  C   UNL A   1      31.024  26.818  25.832  1.00  0.00     0.036 C 
ATOM     18  C   UNL A   1      31.017  25.346  24.290  1.00  0.00     0.036 C 
ATOM     19  C   UNL A   1      30.159  26.581  24.582  1.00  0.00     0.006 C 
ENDBRANCH   8  11
ENDBRANCH   6   8
ENDBRANCH   4   6
ENDBRANCH   3   4
ENDBRANCH   2   3
ENDBRANCH   1   2
BRANCH   1  20
ATOM     20  O   UNL A   1      38.523  21.057  25.674  1.00  0.00    -0.458 OA
BRANCH  20  21
ATOM     21  C   UNL A   1      39.684  20.910  26.358  1.00  0.00     0.338 C 
ATOM     22  O   UNL A   1      40.352  19.892  26.451  1.00  0.00    -0.246 OA
BRANCH  21  23
ATOM     23  C   UNL A   1      40.155  22.218  26.852  1.00  0.00     0.060 A 
ATOM     24  C   UNL A   1      39.616  23.355  26.245  1.00  0.00     0.016 A 
ATOM     25  C   UNL A   1      41.136  22.343  27.838  1.00  0.00     0.016 A 
ATOM     26  C   UNL A   1      40.062  24.621  26.604  1.00  0.00     0.010 A 
ATOM     27  C   UNL A   1      41.584  23.620  28.201  1.00  0.00     0.010 A 
ATOM     28  C   UNL A   1      41.057  24.765  27.577  1.00  0.00    -0.014 A 
BRANCH  28  29
ATOM     29  C   UNL A   1      41.569  26.123  27.878  1.00  0.00     0.031 A 
ATOM     30  C   UNL A   1      42.941  26.524  27.414  1.00  0.00     0.074 A 
ATOM     31  C   UNL A   1      40.774  27.014  28.501  1.00  0.00     0.049 A 
ATOM     32  N   UNL A   1      43.572  27.658  27.575  1.00  0.00    -0.248 NA
ATOM     33  C   UNL A   1      43.701  25.511  26.665  1.00  0.00     0.031 C 
ATOM     34  C   UNL A   1      39.407  26.749  28.953  1.00  0.00     0.029 A 
ATOM     35  N   UNL A   1      40.995  28.321  28.852  1.00  0.00    -0.354 N 
ATOM     36  C   UNL A   1      44.803  27.500  26.948  1.00  0.00     0.074 A 
ATOM     37  C   UNL A   1      44.840  26.147  26.433  1.00  0.00     0.031 C 
ATOM     38  C   UNL A   1      38.911  27.861  29.519  1.00  0.00     0.029 A 
ATOM     39  C   UNL A   1      39.935  28.902  29.509  1.00  0.00     0.049 A 
ATOM     40  H   UNL A   1      41.833  28.799  28.653  1.00  0.00     0.167 HD
ATOM     41  C   UNL A   1      45.804  28.405  26.810  1.00  0.00     0.034 A 
ATOM     42  C   UNL A   1      39.814  30.126  30.060  1.00  0.00     0.034 A 
ATOM     43  C   UNL A   1      45.757  29.747  27.340  1.00  0.00     0.049 A 
ATOM     44  C   UNL A   1      40.970  31.089  29.950  1.00  0.00     0.074 A 
ATOM     45  C   UNL A   1      46.724  30.736  27.275  1.00  0.00     0.029 A 
ATOM     46  N   UNL A   1      44.685  30.288  28.040  1.00  0.00    -0.354 N 
ATOM     47  N   UNL A   1      42.137  30.919  29.371  1.00  0.00    -0.248 NA
ATOM     48  C   UNL A   1      40.789  32.411  30.562  1.00  0.00     0.031 C 
ATOM     49  C   UNL A   1      46.260  31.853  27.981  1.00  0.00     0.029 A 
ATOM     50  C   UNL A   1      44.977  31.587  28.429  1.00  0.00     0.049 A 
ATOM     51  H   UNL A   1      43.842  29.819  28.230  1.00  0.00     0.167 HD
ATOM     52  C   UNL A   1      42.820  32.121  29.537  1.00  0.00     0.074 A 
ATOM     53  C   UNL A   1      41.923  33.015  30.239  1.00  0.00     0.031 C 
ATOM     54  C   UNL A   1      44.078  32.458  29.148  1.00  0.00     0.034 A 
BRANCH  41  55
ATOM     55  C   UNL A   1      47.053  27.949  26.096  1.00  0.00     0.023 A 
ATOM     56  C   UNL A   1      47.223  28.131  24.713  1.00  0.00     0.031 A 
ATOM     57  C   UNL A   1      48.082  27.308  26.809  1.00  0.00     0.131 A 
ATOM     58  C   UNL A   1      48.368  27.628  24.076  1.00  0.00     0.055 A 
ATOM     59  C   UNL A   1      49.250  26.871  26.182  1.00  0.00     0.041 A 
ATOM     60  F   UNL A   1      47.964  27.086  28.127  1.00  0.00    -0.206 F 
ATOM     61  C   UNL A   1      49.393  27.020  24.805  1.00  0.00     0.022 A 
BRANCH  58  62
ATOM     62  S   UNL A   1      48.450  27.676  22.265  1.00  0.00     0.124 S 
ATOM     63  O   UNL A   1      48.655  26.267  21.943  1.00  0.00    -0.237 OA
ATOM     64  O   UNL A   1      47.150  28.232  21.904  1.00  0.00    -0.237 OA
ATOM     65  O   UNL A   1      49.595  28.544  21.996  1.00  0.00    -0.744 OA
ENDBRANCH  58  62
ENDBRANCH  41  55
BRANCH  42  66
ATOM     66  C   UNL A   1      38.583  30.503  30.812  1.00  0.00     0.023 A 
ATOM     67  C   UNL A   1      37.529  31.193  30.193  1.00  0.00     0.031 A 
ATOM     68  C   UNL A   1      38.477  30.237  32.189  1.00  0.00     0.131 A 
ATOM     69  C   UNL A   1      36.443  31.644  30.959  1.00  0.00     0.055 A 
ATOM     70  C   UNL A   1      37.368  30.637  32.936  1.00  0.00     0.041 A 
ATOM     71  F   UNL A   1      39.457  29.581  32.833  1.00  0.00    -0.206 F 
ATOM     72  C   UNL A   1      36.349  31.360  32.323  1.00  0.00     0.022 A 
BRANCH  69  73
ATOM     73  S   UNL A   1      35.202  32.704  30.167  1.00  0.00     0.124 S 
ATOM     74  O   UNL A   1      36.008  33.844  29.745  1.00  0.00    -0.237 OA
ATOM     75  O   UNL A   1      34.704  31.841  29.101  1.00  0.00    -0.237 OA
ATOM     76  O   UNL A   1      34.250  32.976  31.242  1.00  0.00    -0.744 OA
ENDBRANCH  69  73
ENDBRANCH  42  66
BRANCH  54  77
ATOM     77  C   UNL A   1      44.528  33.865  29.460  1.00  0.00     0.023 A 
ATOM     78  C   UNL A   1      44.277  34.930  28.578  1.00  0.00     0.031 A 
ATOM     79  C   UNL A   1      45.254  34.135  30.634  1.00  0.00     0.131 A 
ATOM     80  C   UNL A   1      44.809  36.200  28.845  1.00  0.00     0.055 A 
ATOM     81  C   UNL A   1      45.729  35.415  30.925  1.00  0.00     0.041 A 
ATOM     82  F   UNL A   1      45.523  33.155  31.512  1.00  0.00    -0.206 F 
ATOM     83  C   UNL A   1      45.522  36.452  30.021  1.00  0.00     0.022 A 
BRANCH  80  84
ATOM     84  S   UNL A   1      44.655  37.492  27.581  1.00  0.00     0.124 S 
ATOM     85  O   UNL A   1      44.579  38.704  28.391  1.00  0.00    -0.237 OA
ATOM     86  O   UNL A   1      45.881  37.318  26.808  1.00  0.00    -0.237 OA
ATOM     87  O   UNL A   1      43.425  37.139  26.876  1.00  0.00    -0.744 OA
ENDBRANCH  80  84
ENDBRANCH  54  77
ENDBRANCH  28  29
ENDBRANCH  21  23
ENDBRANCH  20  21
ENDBRANCH   1  20
TORSDOF 16
ENDMDL
MODEL 3
REMARK VINA RESULT:     -10.4      1.454      7.925
REMARK SMILES C[C@H]([NH2+][C@@H]1CCOC2(CCC2)C1)C(=O)OCCOC(=O)c1ccc(-c2c3nc(c(-c4cc(S(=O)(=O)[O-])ccc4F)c4ccc([nH]4)c(-c4cc(S(=O)(=O)[O-])ccc4F)c4nc(c(-c5cc(S(=O)(=O)[O-])ccc5F)c5ccc2[nH]5)C=C4)C=C3)cc1
REMARK SMILES IDX 17 1 16 2 15 3 13 4 14 5 2 6 1 7 3 8 4 11 5 12 12 13 6 14
REMARK SMILES IDX 8 15 7 16 9 17 11 18 10 19 18 20 19 21 20 22 21 23 22 24
REMARK SMILES IDX 83 25 23 26 82 27 24 28 25 29 26 30 76 31 27 32 81 33 75 34
REMARK SMILES IDX 77 35 28 36 80 37 74 38 73 39 29 41 61 42 41 43 60 44 42 45
REMARK SMILES IDX 45 46 59 47 78 48 43 49 44 50 58 52 79 53 46 54 30 55 31 56
REMARK SMILES IDX 39 57 32 58 38 59 40 60 37 61 33 62 34 63 35 64 36 65 62 66
REMARK SMILES IDX 63 67 71 68 64 69 70 70 72 71 69 72 65 73 66 74 67 75 68 76
REMARK SMILES IDX 47 77 48 78 56 79 49 80 55 81 57 82 54 83 50 84 51 85 52 86
REMARK SMILES IDX 53 87
REMARK H PARENT 3 9 3 10 77 40 45 51
REMARK Flexibility Score: inf
ROOT
ATOM      1  C   UNL A   1      40.567  19.610  26.125  1.00  0.00     0.275 C 
ENDROOT
BRANCH   1   2
ATOM      2  C   UNL A   1      42.042  19.251  26.328  1.00  0.00     0.274 C 
BRANCH   2   3
ATOM      3  O   UNL A   1      42.782  19.268  25.095  1.00  0.00    -0.458 OA
BRANCH   3   4
ATOM      4  C   UNL A   1      44.081  18.854  25.176  1.00  0.00     0.364 C 
ATOM      5  O   UNL A   1      44.481  17.961  25.917  1.00  0.00    -0.245 OA
BRANCH   4   6
ATOM      6  C   UNL A   1      45.023  19.698  24.302  1.00  0.00     0.290 C 
ATOM      7  C   UNL A   1      46.392  19.599  24.973  1.00  0.00     0.088 C 
BRANCH   6   8
ATOM      8  N   UNL A   1      44.601  21.111  24.206  1.00  0.00    -0.332 N 
ATOM      9  H   UNL A   1      43.827  21.151  23.546  1.00  0.00     0.347 HD
ATOM     10  H   UNL A   1      45.448  21.609  23.932  1.00  0.00     0.347 HD
BRANCH   8  11
ATOM     11  C   UNL A   1      44.161  21.795  25.442  1.00  0.00     0.188 C 
ATOM     12  C   UNL A   1      43.015  22.816  25.383  1.00  0.00     0.093 C 
ATOM     13  C   UNL A   1      45.370  22.518  26.063  1.00  0.00     0.100 C 
ATOM     14  C   UNL A   1      43.376  24.099  24.655  1.00  0.00     0.167 C 
ATOM     15  C   UNL A   1      45.769  23.712  25.193  1.00  0.00     0.074 C 
ATOM     16  O   UNL A   1      44.648  24.621  25.022  1.00  0.00    -0.375 OA
ATOM     17  C   UNL A   1      47.042  24.463  25.699  1.00  0.00     0.036 C 
ATOM     18  C   UNL A   1      46.616  23.344  23.935  1.00  0.00     0.036 C 
ATOM     19  C   UNL A   1      47.516  24.547  24.237  1.00  0.00     0.006 C 
ENDBRANCH   8  11
ENDBRANCH   6   8
ENDBRANCH   4   6
ENDBRANCH   3   4
ENDBRANCH   2   3
ENDBRANCH   1   2
BRANCH   1  20
ATOM     20  O   UNL A   1      40.120  20.628  27.039  1.00  0.00    -0.458 OA
BRANCH  20  21
ATOM     21  C   UNL A   1      39.502  21.681  26.447  1.00  0.00     0.338 C 
ATOM     22  O   UNL A   1      38.574  21.629  25.655  1.00  0.00    -0.246 OA
BRANCH  21  23
ATOM     23  C   UNL A   1      39.986  22.947  27.026  1.00  0.00     0.060 A 
ATOM     24  C   UNL A   1      39.557  24.129  26.416  1.00  0.00     0.016 A 
ATOM     25  C   UNL A   1      40.880  22.993  28.098  1.00  0.00     0.016 A 
ATOM     26  C   UNL A   1      40.026  25.359  26.858  1.00  0.00     0.010 A 
ATOM     27  C   UNL A   1      41.352  24.235  28.544  1.00  0.00     0.010 A 
ATOM     28  C   UNL A   1      40.936  25.423  27.918  1.00  0.00    -0.014 A 
BRANCH  28  29
ATOM     29  C   UNL A   1      41.481  26.745  28.312  1.00  0.00     0.031 A 
ATOM     30  C   UNL A   1      40.551  27.821  28.797  1.00  0.00     0.074 A 
ATOM     31  C   UNL A   1      42.812  26.949  28.303  1.00  0.00     0.049 A 
ATOM     32  N   UNL A   1      40.824  29.039  29.185  1.00  0.00    -0.248 NA
ATOM     33  C   UNL A   1      39.123  27.475  28.855  1.00  0.00     0.031 C 
ATOM     34  C   UNL A   1      43.812  25.959  27.898  1.00  0.00     0.029 A 
ATOM     35  N   UNL A   1      43.553  28.048  28.653  1.00  0.00    -0.354 N 
ATOM     36  C   UNL A   1      39.605  29.609  29.536  1.00  0.00     0.074 A 
ATOM     37  C   UNL A   1      38.587  28.610  29.281  1.00  0.00     0.031 C 
ATOM     38  C   UNL A   1      45.036  26.496  28.025  1.00  0.00     0.029 A 
ATOM     39  C   UNL A   1      44.907  27.878  28.480  1.00  0.00     0.049 A 
ATOM     40  H   UNL A   1      43.154  28.880  28.997  1.00  0.00     0.167 HD
ATOM     41  C   UNL A   1      39.361  30.847  30.032  1.00  0.00     0.034 A 
ATOM     42  C   UNL A   1      45.925  28.747  28.646  1.00  0.00     0.034 A 
ATOM     43  C   UNL A   1      40.386  31.836  30.269  1.00  0.00     0.049 A 
ATOM     44  C   UNL A   1      45.616  30.141  29.133  1.00  0.00     0.074 A 
ATOM     45  C   UNL A   1      40.245  33.128  30.750  1.00  0.00     0.029 A 
ATOM     46  N   UNL A   1      41.743  31.646  30.040  1.00  0.00    -0.354 N 
ATOM     47  N   UNL A   1      44.455  30.672  29.442  1.00  0.00    -0.248 NA
ATOM     48  C   UNL A   1      46.758  31.049  29.303  1.00  0.00     0.031 C 
ATOM     49  C   UNL A   1      41.507  33.735  30.758  1.00  0.00     0.029 A 
ATOM     50  C   UNL A   1      42.445  32.803  30.348  1.00  0.00     0.049 A 
ATOM     51  H   UNL A   1      42.147  30.813  29.709  1.00  0.00     0.167 HD
ATOM     52  C   UNL A   1      44.733  31.972  29.858  1.00  0.00     0.074 A 
ATOM     53  C   UNL A   1      46.170  32.131  29.791  1.00  0.00     0.031 C 
ATOM     54  C   UNL A   1      43.878  32.951  30.255  1.00  0.00     0.034 A 
BRANCH  41  55
ATOM     55  C   UNL A   1      37.923  31.212  30.303  1.00  0.00     0.023 A 
ATOM     56  C   UNL A   1      37.069  31.664  29.281  1.00  0.00     0.031 A 
ATOM     57  C   UNL A   1      37.402  31.121  31.606  1.00  0.00     0.131 A 
ATOM     58  C   UNL A   1      35.759  32.060  29.589  1.00  0.00     0.055 A 
ATOM     59  C   UNL A   1      36.076  31.452  31.894  1.00  0.00     0.041 A 
ATOM     60  F   UNL A   1      38.177  30.718  32.624  1.00  0.00    -0.206 F 
ATOM     61  C   UNL A   1      35.249  31.935  30.884  1.00  0.00     0.022 A 
BRANCH  58  62
ATOM     62  S   UNL A   1      34.762  32.851  28.296  1.00  0.00     0.124 S 
ATOM     63  O   UNL A   1      35.791  33.489  27.479  1.00  0.00    -0.237 OA
ATOM     64  O   UNL A   1      34.075  31.716  27.689  1.00  0.00    -0.237 OA
ATOM     65  O   UNL A   1      33.905  33.773  29.039  1.00  0.00    -0.744 OA
ENDBRANCH  58  62
ENDBRANCH  41  55
BRANCH  42  66
ATOM     66  C   UNL A   1      47.321  28.356  28.301  1.00  0.00     0.023 A 
ATOM     67  C   UNL A   1      47.790  28.408  26.979  1.00  0.00     0.031 A 
ATOM     68  C   UNL A   1      48.189  27.854  29.287  1.00  0.00     0.131 A 
ATOM     69  C   UNL A   1      49.067  27.913  26.670  1.00  0.00     0.055 A 
ATOM     70  C   UNL A   1      49.479  27.416  28.985  1.00  0.00     0.041 A 
ATOM     71  F   UNL A   1      47.791  27.780  30.569  1.00  0.00    -0.206 F 
ATOM     72  C   UNL A   1      49.919  27.430  27.665  1.00  0.00     0.022 A 
BRANCH  69  73
ATOM     73  S   UNL A   1      49.560  27.810  24.927  1.00  0.00     0.124 S 
ATOM     74  O   UNL A   1      48.285  28.004  24.244  1.00  0.00    -0.237 OA
ATOM     75  O   UNL A   1      50.518  28.905  24.819  1.00  0.00    -0.237 OA
ATOM     76  O   UNL A   1      50.131  26.470  24.813  1.00  0.00    -0.744 OA
ENDBRANCH  69  73
ENDBRANCH  42  66
BRANCH  54  77
ATOM     77  C   UNL A   1      44.499  34.263  30.670  1.00  0.00     0.023 A 
ATOM     78  C   UNL A   1      44.849  34.521  32.007  1.00  0.00     0.031 A 
ATOM     79  C   UNL A   1      44.702  35.283  29.724  1.00  0.00     0.131 A 
ATOM     80  C   UNL A   1      45.315  35.791  32.375  1.00  0.00     0.055 A 
ATOM     81  C   UNL A   1      45.225  36.526  30.086  1.00  0.00     0.041 A 
ATOM     82  F   UNL A   1      44.385  35.092  28.433  1.00  0.00    -0.206 F 
ATOM     83  C   UNL A   1      45.519  36.791  31.420  1.00  0.00     0.022 A 
BRANCH  80  84
ATOM     84  S   UNL A   1      45.546  36.157  34.137  1.00  0.00     0.124 S 
ATOM     85  O   UNL A   1      46.996  36.293  34.233  1.00  0.00    -0.237 OA
ATOM     86  O   UNL A   1      44.778  37.387  34.302  1.00  0.00    -0.237 OA
ATOM     87  O   UNL A   1      44.987  34.985  34.807  1.00  0.00    -0.744 OA
ENDBRANCH  80  84
ENDBRANCH  54  77
ENDBRANCH  28  29
ENDBRANCH  21  23
ENDBRANCH  20  21
ENDBRANCH   1  20
TORSDOF 16
ENDMDL
