MODEL 1
REMARK VINA RESULT:     -11.9      0.000      0.000
REMARK SMILES O=C(OCCOC(=O)[C@]1(CCc2cccnc2)CCC[NH2+]C1)c1ccc(-c2c3nc(c(-c4cc(S(=O)(=O)[O-])ccc4F)c4ccc([nH]4)c(-c4cc(S(=O)(=O)[O-])ccc4F)c4nc(c(-c5cc(S(=O)(=O)[O-])ccc5F)c5ccc2[nH]5)C=C4)C=C3)cc1
REMARK SMILES IDX 4 1 3 2 2 3 1 4 23 5 24 6 85 7 25 8 84 9 26 10 27 11 28 12
REMARK SMILES IDX 78 13 29 14 83 15 77 16 79 17 30 18 82 19 76 20 75 21 31 23
REMARK SMILES IDX 63 24 43 25 62 26 44 27 47 28 61 29 80 30 45 31 46 32 60 34
REMARK SMILES IDX 81 35 48 36 32 37 33 38 41 39 34 40 40 41 42 42 39 43 35 44
REMARK SMILES IDX 36 45 37 46 38 47 64 48 65 49 73 50 66 51 72 52 74 53 71 54
REMARK SMILES IDX 67 55 68 56 69 57 70 58 49 59 50 60 58 61 51 62 57 63 59 64
REMARK SMILES IDX 56 65 52 66 53 67 54 68 55 69 5 70 6 71 7 72 8 73 9 74 18 75
REMARK SMILES IDX 22 76 19 77 21 78 20 79 10 82 11 83 12 84 13 85 17 86 14 87
REMARK SMILES IDX 16 88 15 89
REMARK H PARENT 79 22 47 33 21 80 21 81
REMARK Flexibility Score: inf
ROOT
ATOM      1  C   UNL A   1      37.716  20.763  24.992  1.00  0.00     0.275 C 
ENDROOT
BRANCH   1   2
ATOM      2  O   UNL A   1      38.143  21.935  25.713  1.00  0.00    -0.458 OA
BRANCH   2   3
ATOM      3  C   UNL A   1      39.316  22.188  26.345  1.00  0.00     0.338 C 
ATOM      4  O   UNL A   1      40.055  21.240  26.607  1.00  0.00    -0.246 OA
BRANCH   3   5
ATOM      5  C   UNL A   1      39.702  23.529  26.902  1.00  0.00     0.060 A 
ATOM      6  C   UNL A   1      39.078  24.745  26.618  1.00  0.00     0.016 A 
ATOM      7  C   UNL A   1      40.768  23.543  27.833  1.00  0.00     0.016 A 
ATOM      8  C   UNL A   1      39.416  25.907  27.319  1.00  0.00     0.010 A 
ATOM      9  C   UNL A   1      41.129  24.710  28.526  1.00  0.00     0.010 A 
ATOM     10  C   UNL A   1      40.433  25.900  28.285  1.00  0.00    -0.014 A 
BRANCH  10  11
ATOM     11  C   UNL A   1      40.897  27.222  28.768  1.00  0.00     0.031 A 
ATOM     12  C   UNL A   1      42.275  27.603  28.356  1.00  0.00     0.074 A 
ATOM     13  C   UNL A   1      40.077  28.101  29.375  1.00  0.00     0.049 A 
ATOM     14  N   UNL A   1      42.875  28.750  28.462  1.00  0.00    -0.248 NA
ATOM     15  C   UNL A   1      43.099  26.522  27.791  1.00  0.00     0.031 C 
ATOM     16  C   UNL A   1      38.782  27.761  29.925  1.00  0.00     0.029 A 
ATOM     17  N   UNL A   1      40.156  29.452  29.593  1.00  0.00    -0.354 N 
ATOM     18  C   UNL A   1      44.163  28.525  28.004  1.00  0.00     0.074 A 
ATOM     19  C   UNL A   1      44.263  27.127  27.653  1.00  0.00     0.031 C 
ATOM     20  C   UNL A   1      38.094  28.871  30.225  1.00  0.00     0.029 A 
ATOM     21  C   UNL A   1      38.969  30.016  30.037  1.00  0.00     0.049 A 
ATOM     22  H   UNL A   1      40.979  29.974  29.447  1.00  0.00     0.167 HD
ATOM     23  C   UNL A   1      45.170  29.419  27.906  1.00  0.00     0.034 A 
ATOM     24  C   UNL A   1      38.654  31.305  30.289  1.00  0.00     0.034 A 
ATOM     25  C   UNL A   1      45.022  30.785  28.330  1.00  0.00     0.049 A 
ATOM     26  C   UNL A   1      39.796  32.284  30.166  1.00  0.00     0.074 A 
ATOM     27  C   UNL A   1      45.967  31.788  28.373  1.00  0.00     0.029 A 
ATOM     28  N   UNL A   1      43.831  31.332  28.810  1.00  0.00    -0.354 N 
ATOM     29  N   UNL A   1      41.025  32.061  29.750  1.00  0.00    -0.248 NA
ATOM     30  C   UNL A   1      39.542  33.661  30.593  1.00  0.00     0.031 C 
ATOM     31  C   UNL A   1      45.366  32.920  28.935  1.00  0.00     0.029 A 
ATOM     32  C   UNL A   1      44.022  32.655  29.161  1.00  0.00     0.049 A 
ATOM     33  H   UNL A   1      42.980  30.845  28.889  1.00  0.00     0.167 HD
ATOM     34  C   UNL A   1      41.695  33.269  29.875  1.00  0.00     0.074 A 
ATOM     35  C   UNL A   1      40.716  34.228  30.357  1.00  0.00     0.031 C 
ATOM     36  C   UNL A   1      43.001  33.563  29.639  1.00  0.00     0.034 A 
BRANCH  23  37
ATOM     37  C   UNL A   1      46.491  28.863  27.445  1.00  0.00     0.023 A 
ATOM     38  C   UNL A   1      46.757  28.645  26.080  1.00  0.00     0.031 A 
ATOM     39  C   UNL A   1      47.402  28.354  28.386  1.00  0.00     0.131 A 
ATOM     40  C   UNL A   1      47.826  27.819  25.703  1.00  0.00     0.055 A 
ATOM     41  C   UNL A   1      48.526  27.625  27.996  1.00  0.00     0.041 A 
ATOM     42  F   UNL A   1      47.176  28.492  29.701  1.00  0.00    -0.206 F 
ATOM     43  C   UNL A   1      48.729  27.330  26.649  1.00  0.00     0.022 A 
BRANCH  40  44
ATOM     44  S   UNL A   1      47.879  27.201  23.996  1.00  0.00     0.124 S 
ATOM     45  O   UNL A   1      47.250  25.891  24.142  1.00  0.00    -0.237 OA
ATOM     46  O   UNL A   1      47.105  28.202  23.272  1.00  0.00    -0.237 OA
ATOM     47  O   UNL A   1      49.307  27.170  23.688  1.00  0.00    -0.744 OA
ENDBRANCH  40  44
ENDBRANCH  23  37
BRANCH  24  48
ATOM     48  C   UNL A   1      37.292  31.744  30.753  1.00  0.00     0.023 A 
ATOM     49  C   UNL A   1      36.401  32.414  29.891  1.00  0.00     0.031 A 
ATOM     50  C   UNL A   1      36.878  31.575  32.088  1.00  0.00     0.131 A 
ATOM     51  C   UNL A   1      35.177  32.917  30.379  1.00  0.00     0.055 A 
ATOM     52  C   UNL A   1      35.632  32.010  32.551  1.00  0.00     0.041 A 
ATOM     53  F   UNL A   1      37.684  30.981  32.983  1.00  0.00    -0.206 F 
ATOM     54  C   UNL A   1      34.778  32.699  31.699  1.00  0.00     0.022 A 
BRANCH  51  55
ATOM     55  S   UNL A   1      34.157  33.969  29.302  1.00  0.00     0.124 S 
ATOM     56  O   UNL A   1      33.241  34.575  30.260  1.00  0.00    -0.237 OA
ATOM     57  O   UNL A   1      35.153  34.855  28.712  1.00  0.00    -0.237 OA
ATOM     58  O   UNL A   1      33.548  33.017  28.374  1.00  0.00    -0.744 OA
ENDBRANCH  51  55
ENDBRANCH  24  48
BRANCH  36  59
ATOM     59  C   UNL A   1      43.400  34.997  29.849  1.00  0.00     0.023 A 
ATOM     60  C   UNL A   1      43.245  35.963  28.843  1.00  0.00     0.031 A 
ATOM     61  C   UNL A   1      43.966  35.388  31.075  1.00  0.00     0.131 A 
ATOM     62  C   UNL A   1      43.722  37.262  29.054  1.00  0.00     0.055 A 
ATOM     63  C   UNL A   1      44.364  36.701  31.308  1.00  0.00     0.041 A 
ATOM     64  F   UNL A   1      44.141  34.495  32.062  1.00  0.00    -0.206 F 
ATOM     65  C   UNL A   1      44.257  37.644  30.288  1.00  0.00     0.022 A 
BRANCH  62  66
ATOM     66  S   UNL A   1      43.752  38.410  27.653  1.00  0.00     0.124 S 
ATOM     67  O   UNL A   1      42.767  37.815  26.755  1.00  0.00    -0.237 OA
ATOM     68  O   UNL A   1      43.366  39.673  28.275  1.00  0.00    -0.237 OA
ATOM     69  O   UNL A   1      45.136  38.345  27.188  1.00  0.00    -0.744 OA
ENDBRANCH  62  66
ENDBRANCH  36  59
ENDBRANCH  10  11
ENDBRANCH   3   5
ENDBRANCH   2   3
ENDBRANCH   1   2
BRANCH   1  70
ATOM     70  C   UNL A   1      36.206  20.540  25.001  1.00  0.00     0.274 C 
BRANCH  70  71
ATOM     71  O   UNL A   1      35.525  21.631  24.371  1.00  0.00    -0.461 OA
BRANCH  71  72
ATOM     72  C   UNL A   1      34.534  22.225  25.082  1.00  0.00     0.317 C 
ATOM     73  O   UNL A   1      34.730  22.736  26.182  1.00  0.00    -0.251 OA
BRANCH  72  74
ATOM     74  C   UNL A   1      33.140  22.136  24.425  1.00  0.00     0.117 C 
ATOM     75  C   UNL A   1      33.245  22.553  22.942  1.00  0.00     0.030 C 
ATOM     76  C   UNL A   1      32.187  23.148  25.072  1.00  0.00     0.279 C 
ATOM     77  C   UNL A   1      33.545  24.055  22.765  1.00  0.00     0.063 C 
ATOM     78  N   UNL A   1      32.655  24.525  24.957  1.00  0.00    -0.345 N 
ATOM     79  C   UNL A   1      32.612  24.952  23.573  1.00  0.00     0.260 C 
ATOM     80  H   UNL A   1      32.057  25.133  25.517  1.00  0.00     0.346 HD
ATOM     81  H   UNL A   1      33.616  24.580  25.294  1.00  0.00     0.346 HD
BRANCH  74  82
ATOM     82  C   UNL A   1      32.483  20.725  24.623  1.00  0.00     0.029 C 
BRANCH  82  83
ATOM     83  C   UNL A   1      32.528  19.695  23.481  1.00  0.00     0.038 C 
BRANCH  83  84
ATOM     84  C   UNL A   1      32.819  18.299  23.944  1.00  0.00    -0.030 A 
ATOM     85  C   UNL A   1      33.518  17.410  23.127  1.00  0.00     0.007 A 
ATOM     86  C   UNL A   1      32.528  17.885  25.241  1.00  0.00     0.114 A 
ATOM     87  C   UNL A   1      34.028  16.237  23.673  1.00  0.00     0.020 A 
ATOM     88  N   UNL A   1      32.949  16.716  25.774  1.00  0.00    -0.264 NA
ATOM     89  C   UNL A   1      33.740  15.952  24.995  1.00  0.00     0.111 A 
ENDBRANCH  83  84
ENDBRANCH  82  83
ENDBRANCH  74  82
ENDBRANCH  72  74
ENDBRANCH  71  72
ENDBRANCH  70  71
ENDBRANCH   1  70
TORSDOF 17
ENDMDL
MODEL 2
REMARK VINA RESULT:     -11.8      5.339     10.799
REMARK SMILES O=C(OCCOC(=O)[C@]1(CCc2cccnc2)CCC[NH2+]C1)c1ccc(-c2c3nc(c(-c4cc(S(=O)(=O)[O-])ccc4F)c4ccc([nH]4)c(-c4cc(S(=O)(=O)[O-])ccc4F)c4nc(c(-c5cc(S(=O)(=O)[O-])ccc5F)c5ccc2[nH]5)C=C4)C=C3)cc1
REMARK SMILES IDX 4 1 3 2 2 3 1 4 23 5 24 6 85 7 25 8 84 9 26 10 27 11 28 12
REMARK SMILES IDX 78 13 29 14 83 15 77 16 79 17 30 18 82 19 76 20 75 21 31 23
REMARK SMILES IDX 63 24 43 25 62 26 44 27 47 28 61 29 80 30 45 31 46 32 60 34
REMARK SMILES IDX 81 35 48 36 32 37 33 38 41 39 34 40 40 41 42 42 39 43 35 44
REMARK SMILES IDX 36 45 37 46 38 47 64 48 65 49 73 50 66 51 72 52 74 53 71 54
REMARK SMILES IDX 67 55 68 56 69 57 70 58 49 59 50 60 58 61 51 62 57 63 59 64
REMARK SMILES IDX 56 65 52 66 53 67 54 68 55 69 5 70 6 71 7 72 8 73 9 74 18 75
REMARK SMILES IDX 22 76 19 77 21 78 20 79 10 82 11 83 12 84 13 85 17 86 14 87
REMARK SMILES IDX 16 88 15 89
REMARK H PARENT 79 22 47 33 21 80 21 81
REMARK Flexibility Score: inf
ROOT
ATOM      1  C   UNL A   1      31.668  29.596  26.863  1.00  0.00     0.275 C 
ENDROOT
BRANCH   1   2
ATOM      2  O   UNL A   1      32.435  30.760  26.501  1.00  0.00    -0.458 OA
BRANCH   2   3
ATOM      3  C   UNL A   1      33.187  31.583  27.274  1.00  0.00     0.338 C 
ATOM      4  O   UNL A   1      32.836  32.757  27.390  1.00  0.00    -0.246 OA
BRANCH   3   5
ATOM      5  C   UNL A   1      34.515  31.205  27.865  1.00  0.00     0.060 A 
ATOM      6  C   UNL A   1      34.923  29.914  28.206  1.00  0.00     0.016 A 
ATOM      7  C   UNL A   1      35.447  32.254  28.044  1.00  0.00     0.016 A 
ATOM      8  C   UNL A   1      36.242  29.656  28.595  1.00  0.00     0.010 A 
ATOM      9  C   UNL A   1      36.768  32.008  28.456  1.00  0.00     0.010 A 
ATOM     10  C   UNL A   1      37.177  30.695  28.713  1.00  0.00    -0.014 A 
BRANCH  10  11
ATOM     11  C   UNL A   1      38.455  30.362  29.389  1.00  0.00     0.031 A 
ATOM     12  C   UNL A   1      38.532  30.738  30.826  1.00  0.00     0.074 A 
ATOM     13  C   UNL A   1      39.407  29.608  28.807  1.00  0.00     0.049 A 
ATOM     14  N   UNL A   1      39.425  30.414  31.711  1.00  0.00    -0.248 NA
ATOM     15  C   UNL A   1      37.477  31.644  31.311  1.00  0.00     0.031 C 
ATOM     16  C   UNL A   1      39.468  29.322  27.389  1.00  0.00     0.029 A 
ATOM     17  N   UNL A   1      40.468  28.898  29.308  1.00  0.00    -0.354 N 
ATOM     18  C   UNL A   1      39.060  31.102  32.857  1.00  0.00     0.074 A 
ATOM     19  C   UNL A   1      37.887  31.883  32.542  1.00  0.00     0.031 C 
ATOM     20  C   UNL A   1      40.356  28.349  27.145  1.00  0.00     0.029 A 
ATOM     21  C   UNL A   1      41.055  28.048  28.383  1.00  0.00     0.049 A 
ATOM     22  H   UNL A   1      40.783  28.984  30.237  1.00  0.00     0.167 HD
ATOM     23  C   UNL A   1      39.675  31.083  34.060  1.00  0.00     0.034 A 
ATOM     24  C   UNL A   1      42.063  27.160  28.529  1.00  0.00     0.034 A 
ATOM     25  C   UNL A   1      40.876  30.329  34.291  1.00  0.00     0.049 A 
ATOM     26  C   UNL A   1      42.727  27.154  29.884  1.00  0.00     0.074 A 
ATOM     27  C   UNL A   1      41.661  30.272  35.423  1.00  0.00     0.029 A 
ATOM     28  N   UNL A   1      41.480  29.505  33.340  1.00  0.00    -0.354 N 
ATOM     29  N   UNL A   1      42.389  27.826  30.965  1.00  0.00    -0.248 NA
ATOM     30  C   UNL A   1      43.929  26.332  30.033  1.00  0.00     0.031 C 
ATOM     31  C   UNL A   1      42.769  29.465  35.138  1.00  0.00     0.029 A 
ATOM     32  C   UNL A   1      42.632  28.944  33.858  1.00  0.00     0.049 A 
ATOM     33  H   UNL A   1      41.135  29.347  32.432  1.00  0.00     0.167 HD
ATOM     34  C   UNL A   1      43.343  27.514  31.922  1.00  0.00     0.074 A 
ATOM     35  C   UNL A   1      44.240  26.554  31.302  1.00  0.00     0.031 C 
ATOM     36  C   UNL A   1      43.489  27.989  33.187  1.00  0.00     0.034 A 
BRANCH  23  37
ATOM     37  C   UNL A   1      39.092  32.000  35.102  1.00  0.00     0.023 A 
ATOM     38  C   UNL A   1      39.482  33.350  35.190  1.00  0.00     0.031 A 
ATOM     39  C   UNL A   1      38.309  31.469  36.141  1.00  0.00     0.131 A 
ATOM     40  C   UNL A   1      39.204  34.080  36.355  1.00  0.00     0.055 A 
ATOM     41  C   UNL A   1      37.943  32.237  37.247  1.00  0.00     0.041 A 
ATOM     42  F   UNL A   1      37.947  30.177  36.133  1.00  0.00    -0.206 F 
ATOM     43  C   UNL A   1      38.414  33.542  37.372  1.00  0.00     0.022 A 
BRANCH  40  44
ATOM     44  S   UNL A   1      40.086  35.644  36.623  1.00  0.00     0.124 S 
ATOM     45  O   UNL A   1      41.479  35.208  36.556  1.00  0.00    -0.237 OA
ATOM     46  O   UNL A   1      39.622  36.466  35.512  1.00  0.00    -0.237 OA
ATOM     47  O   UNL A   1      39.635  36.069  37.947  1.00  0.00    -0.744 OA
ENDBRANCH  40  44
ENDBRANCH  23  37
BRANCH  24  48
ATOM     48  C   UNL A   1      42.567  26.295  27.406  1.00  0.00     0.023 A 
ATOM     49  C   UNL A   1      42.122  24.967  27.242  1.00  0.00     0.031 A 
ATOM     50  C   UNL A   1      43.560  26.746  26.515  1.00  0.00     0.131 A 
ATOM     51  C   UNL A   1      42.693  24.139  26.254  1.00  0.00     0.055 A 
ATOM     52  C   UNL A   1      44.071  25.945  25.488  1.00  0.00     0.041 A 
ATOM     53  F   UNL A   1      44.065  27.985  26.627  1.00  0.00    -0.206 F 
ATOM     54  C   UNL A   1      43.648  24.628  25.362  1.00  0.00     0.022 A 
BRANCH  51  55
ATOM     55  S   UNL A   1      42.261  22.373  26.218  1.00  0.00     0.124 S 
ATOM     56  O   UNL A   1      42.915  21.932  24.992  1.00  0.00    -0.237 OA
ATOM     57  O   UNL A   1      42.841  21.893  27.466  1.00  0.00    -0.237 OA
ATOM     58  O   UNL A   1      40.799  22.381  26.176  1.00  0.00    -0.744 OA
ENDBRANCH  51  55
ENDBRANCH  24  48
BRANCH  36  59
ATOM     59  C   UNL A   1      44.629  27.413  33.979  1.00  0.00     0.023 A 
ATOM     60  C   UNL A   1      44.510  26.198  34.671  1.00  0.00     0.031 A 
ATOM     61  C   UNL A   1      45.845  28.113  34.053  1.00  0.00     0.131 A 
ATOM     62  C   UNL A   1      45.568  25.755  35.472  1.00  0.00     0.055 A 
ATOM     63  C   UNL A   1      46.923  27.625  34.787  1.00  0.00     0.041 A 
ATOM     64  F   UNL A   1      46.001  29.283  33.413  1.00  0.00    -0.206 F 
ATOM     65  C   UNL A   1      46.782  26.447  35.515  1.00  0.00     0.022 A 
BRANCH  62  66
ATOM     66  S   UNL A   1      45.291  24.332  36.559  1.00  0.00     0.124 S 
ATOM     67  O   UNL A   1      44.041  23.790  36.033  1.00  0.00    -0.237 OA
ATOM     68  O   UNL A   1      46.484  23.523  36.326  1.00  0.00    -0.237 OA
ATOM     69  O   UNL A   1      45.197  24.931  37.889  1.00  0.00    -0.744 OA
ENDBRANCH  62  66
ENDBRANCH  36  59
ENDBRANCH  10  11
ENDBRANCH   3   5
ENDBRANCH   2   3
ENDBRANCH   1   2
BRANCH   1  70
ATOM     70  C   UNL A   1      32.072  28.325  26.120  1.00  0.00     0.274 C 
BRANCH  70  71
ATOM     71  O   UNL A   1      32.277  28.591  24.728  1.00  0.00    -0.461 OA
BRANCH  71  72
ATOM     72  C   UNL A   1      32.430  27.515  23.916  1.00  0.00     0.317 C 
ATOM     73  O   UNL A   1      33.522  26.986  23.725  1.00  0.00    -0.251 OA
BRANCH  72  74
ATOM     74  C   UNL A   1      31.136  27.068  23.204  1.00  0.00     0.117 C 
ATOM     75  C   UNL A   1      30.250  26.282  24.196  1.00  0.00     0.030 C 
ATOM     76  C   UNL A   1      31.468  26.082  22.078  1.00  0.00     0.279 C 
ATOM     77  C   UNL A   1      30.850  24.915  24.577  1.00  0.00     0.063 C 
ATOM     78  N   UNL A   1      32.161  24.889  22.552  1.00  0.00    -0.345 N 
ATOM     79  C   UNL A   1      31.270  24.086  23.366  1.00  0.00     0.260 C 
ATOM     80  H   UNL A   1      32.473  24.339  21.751  1.00  0.00     0.346 HD
ATOM     81  H   UNL A   1      32.964  25.170  23.113  1.00  0.00     0.346 HD
BRANCH  74  82
ATOM     82  C   UNL A   1      30.387  28.270  22.529  1.00  0.00     0.029 C 
BRANCH  82  83
ATOM     83  C   UNL A   1      28.974  28.653  23.003  1.00  0.00     0.038 C 
BRANCH  83  84
ATOM     84  C   UNL A   1      28.556  30.032  22.590  1.00  0.00    -0.030 A 
ATOM     85  C   UNL A   1      28.613  31.093  23.494  1.00  0.00     0.007 A 
ATOM     86  C   UNL A   1      28.230  30.331  21.269  1.00  0.00     0.114 A 
ATOM     87  C   UNL A   1      28.505  32.397  23.024  1.00  0.00     0.020 A 
ATOM     88  N   UNL A   1      28.047  31.586  20.801  1.00  0.00    -0.264 NA
ATOM     89  C   UNL A   1      28.250  32.589  21.678  1.00  0.00     0.111 A 
ENDBRANCH  83  84
ENDBRANCH  82  83
ENDBRANCH  74  82
ENDBRANCH  72  74
ENDBRANCH  71  72
ENDBRANCH  70  71
ENDBRANCH   1  70
TORSDOF 17
ENDMDL
MODEL 3
REMARK VINA RESULT:     -11.8      4.879      9.975
REMARK SMILES O=C(OCCOC(=O)[C@]1(CCc2cccnc2)CCC[NH2+]C1)c1ccc(-c2c3nc(c(-c4cc(S(=O)(=O)[O-])ccc4F)c4ccc([nH]4)c(-c4cc(S(=O)(=O)[O-])ccc4F)c4nc(c(-c5cc(S(=O)(=O)[O-])ccc5F)c5ccc2[nH]5)C=C4)C=C3)cc1
REMARK SMILES IDX 4 1 3 2 2 3 1 4 23 5 24 6 85 7 25 8 84 9 26 10 27 11 28 12
REMARK SMILES IDX 78 13 29 14 83 15 77 16 79 17 30 18 82 19 76 20 75 21 31 23
REMARK SMILES IDX 63 24 43 25 62 26 44 27 47 28 61 29 80 30 45 31 46 32 60 34
REMARK SMILES IDX 81 35 48 36 32 37 33 38 41 39 34 40 40 41 42 42 39 43 35 44
REMARK SMILES IDX 36 45 37 46 38 47 64 48 65 49 73 50 66 51 72 52 74 53 71 54
REMARK SMILES IDX 67 55 68 56 69 57 70 58 49 59 50 60 58 61 51 62 57 63 59 64
REMARK SMILES IDX 56 65 52 66 53 67 54 68 55 69 5 70 6 71 7 72 8 73 9 74 18 75
REMARK SMILES IDX 22 76 19 77 21 78 20 79 10 82 11 83 12 84 13 85 17 86 14 87
REMARK SMILES IDX 16 88 15 89
REMARK H PARENT 79 22 47 33 21 80 21 81
REMARK Flexibility Score: inf
ROOT
ATOM      1  C   UNL A   1      32.390  29.989  25.467  1.00  0.00     0.275 C 
ENDROOT
BRANCH   1   2
ATOM      2  O   UNL A   1      32.224  30.702  26.708  1.00  0.00    -0.458 OA
BRANCH   2   3
ATOM      3  C   UNL A   1      33.064  31.564  27.335  1.00  0.00     0.338 C 
ATOM      4  O   UNL A   1      32.778  32.761  27.336  1.00  0.00    -0.246 OA
BRANCH   3   5
ATOM      5  C   UNL A   1      34.409  31.182  27.884  1.00  0.00     0.060 A 
ATOM      6  C   UNL A   1      34.816  29.892  28.232  1.00  0.00     0.016 A 
ATOM      7  C   UNL A   1      35.357  32.224  28.014  1.00  0.00     0.016 A 
ATOM      8  C   UNL A   1      36.145  29.628  28.578  1.00  0.00     0.010 A 
ATOM      9  C   UNL A   1      36.688  31.971  28.382  1.00  0.00     0.010 A 
ATOM     10  C   UNL A   1      37.094  30.658  28.646  1.00  0.00    -0.014 A 
BRANCH  10  11
ATOM     11  C   UNL A   1      38.391  30.323  29.281  1.00  0.00     0.031 A 
ATOM     12  C   UNL A   1      38.531  30.741  30.702  1.00  0.00     0.074 A 
ATOM     13  C   UNL A   1      39.307  29.536  28.686  1.00  0.00     0.049 A 
ATOM     14  N   UNL A   1      39.453  30.427  31.562  1.00  0.00    -0.248 NA
ATOM     15  C   UNL A   1      37.512  31.679  31.200  1.00  0.00     0.031 C 
ATOM     16  C   UNL A   1      39.308  29.207  27.276  1.00  0.00     0.029 A 
ATOM     17  N   UNL A   1      40.375  28.822  29.167  1.00  0.00    -0.354 N 
ATOM     18  C   UNL A   1      39.145  31.155  32.699  1.00  0.00     0.074 A 
ATOM     19  C   UNL A   1      37.973  31.947  32.406  1.00  0.00     0.031 C 
ATOM     20  C   UNL A   1      40.170  28.211  27.028  1.00  0.00     0.029 A 
ATOM     21  C   UNL A   1      40.912  27.935  28.246  1.00  0.00     0.049 A 
ATOM     22  H   UNL A   1      40.728  28.930  30.080  1.00  0.00     0.167 HD
ATOM     23  C   UNL A   1      39.806  31.161  33.878  1.00  0.00     0.034 A 
ATOM     24  C   UNL A   1      41.910  27.034  28.379  1.00  0.00     0.034 A 
ATOM     25  C   UNL A   1      41.003  30.393  34.084  1.00  0.00     0.049 A 
ATOM     26  C   UNL A   1      42.627  27.057  29.707  1.00  0.00     0.074 A 
ATOM     27  C   UNL A   1      41.831  30.356  35.186  1.00  0.00     0.029 A 
ATOM     28  N   UNL A   1      41.555  29.530  33.136  1.00  0.00    -0.354 N 
ATOM     29  N   UNL A   1      42.342  27.766  30.779  1.00  0.00    -0.248 NA
ATOM     30  C   UNL A   1      43.820  26.218  29.835  1.00  0.00     0.031 C 
ATOM     31  C   UNL A   1      42.913  29.521  34.883  1.00  0.00     0.029 A 
ATOM     32  C   UNL A   1      42.717  28.965  33.626  1.00  0.00     0.049 A 
ATOM     33  H   UNL A   1      41.172  29.352  32.248  1.00  0.00     0.167 HD
ATOM     34  C   UNL A   1      43.328  27.466  31.708  1.00  0.00     0.074 A 
ATOM     35  C   UNL A   1      44.184  26.473  31.083  1.00  0.00     0.031 C 
ATOM     36  C   UNL A   1      43.531  27.976  32.951  1.00  0.00     0.034 A 
BRANCH  23  37
ATOM     37  C   UNL A   1      39.280  32.118  34.913  1.00  0.00     0.023 A 
ATOM     38  C   UNL A   1      39.775  33.433  35.015  1.00  0.00     0.031 A 
ATOM     39  C   UNL A   1      38.437  31.649  35.935  1.00  0.00     0.131 A 
ATOM     40  C   UNL A   1      39.536  34.178  36.178  1.00  0.00     0.055 A 
ATOM     41  C   UNL A   1      38.114  32.441  37.038  1.00  0.00     0.041 A 
ATOM     42  F   UNL A   1      37.972  30.391  35.914  1.00  0.00    -0.206 F 
ATOM     43  C   UNL A   1      38.686  33.703  37.178  1.00  0.00     0.022 A 
BRANCH  40  44
ATOM     44  S   UNL A   1      40.537  35.665  36.470  1.00  0.00     0.124 S 
ATOM     45  O   UNL A   1      39.744  36.687  35.789  1.00  0.00    -0.237 OA
ATOM     46  O   UNL A   1      40.568  35.748  37.925  1.00  0.00    -0.237 OA
ATOM     47  O   UNL A   1      41.814  35.349  35.834  1.00  0.00    -0.744 OA
ENDBRANCH  40  44
ENDBRANCH  23  37
BRANCH  24  48
ATOM     48  C   UNL A   1      42.355  26.127  27.264  1.00  0.00     0.023 A 
ATOM     49  C   UNL A   1      41.932  24.784  27.194  1.00  0.00     0.031 A 
ATOM     50  C   UNL A   1      43.273  26.556  26.286  1.00  0.00     0.131 A 
ATOM     51  C   UNL A   1      42.452  23.922  26.206  1.00  0.00     0.055 A 
ATOM     52  C   UNL A   1      43.729  25.718  25.264  1.00  0.00     0.041 A 
ATOM     53  F   UNL A   1      43.754  27.809  26.305  1.00  0.00    -0.206 F 
ATOM     54  C   UNL A   1      43.331  24.388  25.228  1.00  0.00     0.022 A 
BRANCH  51  55
ATOM     55  S   UNL A   1      42.061  22.148  26.283  1.00  0.00     0.124 S 
ATOM     56  O   UNL A   1      40.619  22.152  26.072  1.00  0.00    -0.237 OA
ATOM     57  O   UNL A   1      42.871  21.612  25.195  1.00  0.00    -0.237 OA
ATOM     58  O   UNL A   1      42.493  21.761  27.625  1.00  0.00    -0.744 OA
ENDBRANCH  51  55
ENDBRANCH  24  48
BRANCH  36  59
ATOM     59  C   UNL A   1      44.692  27.404  33.715  1.00  0.00     0.023 A 
ATOM     60  C   UNL A   1      44.549  26.284  34.550  1.00  0.00     0.031 A 
ATOM     61  C   UNL A   1      45.955  28.012  33.617  1.00  0.00     0.131 A 
ATOM     62  C   UNL A   1      45.638  25.850  35.314  1.00  0.00     0.055 A 
ATOM     63  C   UNL A   1      47.055  27.525  34.318  1.00  0.00     0.041 A 
ATOM     64  F   UNL A   1      46.136  29.089  32.836  1.00  0.00    -0.206 F 
ATOM     65  C   UNL A   1      46.896  26.447  35.185  1.00  0.00     0.022 A 
BRANCH  62  66
ATOM     66  S   UNL A   1      45.357  24.580  36.575  1.00  0.00     0.124 S 
ATOM     67  O   UNL A   1      46.300  24.977  37.617  1.00  0.00    -0.237 OA
ATOM     68  O   UNL A   1      43.945  24.761  36.892  1.00  0.00    -0.237 OA
ATOM     69  O   UNL A   1      45.684  23.335  35.884  1.00  0.00    -0.744 OA
ENDBRANCH  62  66
ENDBRANCH  36  59
ENDBRANCH  10  11
ENDBRANCH   3   5
ENDBRANCH   2   3
ENDBRANCH   1   2
BRANCH   1  70
ATOM     70  C   UNL A   1      31.318  28.935  25.205  1.00  0.00     0.274 C 
BRANCH  70  71
ATOM     71  O   UNL A   1      31.831  27.617  25.430  1.00  0.00    -0.461 OA
BRANCH  71  72
ATOM     72  C   UNL A   1      31.505  26.670  24.515  1.00  0.00     0.317 C 
ATOM     73  O   UNL A   1      30.368  26.556  24.064  1.00  0.00    -0.251 OA
BRANCH  72  74
ATOM     74  C   UNL A   1      32.660  25.712  24.154  1.00  0.00     0.117 C 
ATOM     75  C   UNL A   1      33.755  26.493  23.394  1.00  0.00     0.030 C 
ATOM     76  C   UNL A   1      32.168  24.637  23.177  1.00  0.00     0.279 C 
ATOM     77  C   UNL A   1      33.304  26.936  21.988  1.00  0.00     0.063 C 
ATOM     78  N   UNL A   1      31.635  25.194  21.938  1.00  0.00    -0.345 N 
ATOM     79  C   UNL A   1      32.702  25.800  21.166  1.00  0.00     0.260 C 
ATOM     80  H   UNL A   1      31.203  24.450  21.391  1.00  0.00     0.346 HD
ATOM     81  H   UNL A   1      30.941  25.906  22.164  1.00  0.00     0.346 HD
BRANCH  74  82
ATOM     82  C   UNL A   1      33.209  24.947  25.409  1.00  0.00     0.029 C 
BRANCH  82  83
ATOM     83  C   UNL A   1      34.723  24.905  25.676  1.00  0.00     0.038 C 
BRANCH  83  84
ATOM     84  C   UNL A   1      35.383  23.650  25.187  1.00  0.00    -0.030 A 
ATOM     85  C   UNL A   1      35.867  23.564  23.881  1.00  0.00     0.007 A 
ATOM     86  C   UNL A   1      35.656  22.588  26.044  1.00  0.00     0.114 A 
ATOM     87  C   UNL A   1      36.721  22.522  23.537  1.00  0.00     0.020 A 
ATOM     88  N   UNL A   1      36.424  21.526  25.711  1.00  0.00    -0.264 NA
ATOM     89  C   UNL A   1      36.987  21.553  24.487  1.00  0.00     0.111 A 
ENDBRANCH  83  84
ENDBRANCH  82  83
ENDBRANCH  74  82
ENDBRANCH  72  74
ENDBRANCH  71  72
ENDBRANCH  70  71
ENDBRANCH   1  70
TORSDOF 17
ENDMDL
