MODEL 1
REMARK VINA RESULT:     -12.4      0.000      0.000
REMARK SMILES Cc1c(C(=O)OCCOC(=O)c2ccc(-c3c4nc(c(-c5cc(S(=O)(=O)[O-])ccc5F)c5ccc([nH]5)c(-c5cc(S(=O)(=O)[O-])ccc5F)c5nc(c(-c6cc(S(=O)(=O)[O-])ccc6F)c6ccc3[nH]6)C=C5)C=C4)cc2)sc2ncnc(NCc3cn4c(n3)SCC4)c12
REMARK SMILES IDX 7 1 6 2 4 3 5 4 3 5 1 6 2 7 91 8 75 9 76 10 80 11 77 12
REMARK SMILES IDX 79 13 78 14 81 15 82 17 83 18 84 19 87 20 85 21 86 22 90 23
REMARK SMILES IDX 88 24 89 25 8 26 9 27 10 28 11 29 12 30 13 31 74 32 14 33
REMARK SMILES IDX 73 34 15 35 16 36 17 37 67 38 18 39 72 40 66 41 68 42 19 43
REMARK SMILES IDX 71 44 65 45 64 46 20 48 52 49 32 50 51 51 33 52 36 53 50 54
REMARK SMILES IDX 69 55 34 56 35 57 49 59 70 60 37 61 21 62 22 63 30 64 23 65
REMARK SMILES IDX 29 66 31 67 28 68 24 69 25 70 26 71 27 72 53 73 54 74 62 75
REMARK SMILES IDX 55 76 61 77 63 78 60 79 56 80 57 81 58 82 59 83 38 84 39 85
REMARK SMILES IDX 47 86 40 87 46 88 48 89 45 90 41 91 42 92 43 93 44 94
REMARK H PARENT 81 16 68 47 36 58
REMARK Flexibility Score: inf
ROOT
ATOM      1  C   UNL A   1      33.579  31.397  27.703  1.00  0.00     0.275 C 
ENDROOT
BRANCH   1   2
ATOM      2  O   UNL A   1      33.332  30.454  26.645  1.00  0.00    -0.458 OA
BRANCH   2   3
ATOM      3  C   UNL A   1      32.055  30.434  26.159  1.00  0.00     0.348 C 
ATOM      4  O   UNL A   1      31.332  31.427  26.112  1.00  0.00    -0.245 OA
BRANCH   3   5
ATOM      5  C   UNL A   1      31.674  29.119  25.655  1.00  0.00     0.118 A 
ATOM      6  C   UNL A   1      31.456  28.008  27.899  1.00  0.00     0.047 C 
ATOM      7  C   UNL A   1      31.481  27.959  26.409  1.00  0.00    -0.012 A 
ATOM      8  C   UNL A   1      31.282  26.776  25.571  1.00  0.00     0.058 A 
ATOM      9  S   UNL A   1      31.394  28.856  24.003  1.00  0.00    -0.108 S 
ATOM     10  C   UNL A   1      31.146  27.192  24.246  1.00  0.00     0.129 A 
ATOM     11  C   UNL A   1      31.194  25.364  25.758  1.00  0.00     0.138 A 
ATOM     12  N   UNL A   1      30.885  26.436  23.166  1.00  0.00    -0.225 NA
ATOM     13  N   UNL A   1      30.929  24.592  24.669  1.00  0.00    -0.219 NA
ATOM     14  C   UNL A   1      30.754  25.154  23.472  1.00  0.00     0.225 A 
BRANCH  11  15
ATOM     15  N   UNL A   1      31.417  24.563  26.849  1.00  0.00    -0.364 N 
ATOM     16  H   UNL A   1      31.232  25.001  27.711  1.00  0.00     0.162 HD
BRANCH  15  17
ATOM     17  C   UNL A   1      31.872  23.201  26.969  1.00  0.00     0.172 C 
BRANCH  17  18
ATOM     18  C   UNL A   1      33.304  22.919  26.619  1.00  0.00     0.079 A 
ATOM     19  C   UNL A   1      34.357  23.814  26.455  1.00  0.00     0.113 A 
ATOM     20  N   UNL A   1      33.708  21.623  26.320  1.00  0.00    -0.226 NA
ATOM     21  N   UNL A   1      35.378  23.040  26.011  1.00  0.00    -0.325 N 
ATOM     22  C   UNL A   1      34.946  21.755  25.941  1.00  0.00     0.168 A 
ATOM     23  C   UNL A   1      36.652  23.329  25.383  1.00  0.00     0.135 C 
ATOM     24  S   UNL A   1      36.007  20.741  25.052  1.00  0.00    -0.086 SA
ATOM     25  C   UNL A   1      36.847  22.217  24.345  1.00  0.00     0.100 C 
ENDBRANCH  17  18
ENDBRANCH  15  17
ENDBRANCH  11  15
ENDBRANCH   3   5
ENDBRANCH   2   3
ENDBRANCH   1   2
BRANCH   1  26
ATOM     26  C   UNL A   1      35.069  31.592  27.975  1.00  0.00     0.275 C 
BRANCH  26  27
ATOM     27  O   UNL A   1      35.836  30.395  27.810  1.00  0.00    -0.458 OA
BRANCH  27  28
ATOM     28  C   UNL A   1      36.394  29.957  28.962  1.00  0.00     0.338 C 
ATOM     29  O   UNL A   1      36.065  30.265  30.094  1.00  0.00    -0.246 OA
BRANCH  28  30
ATOM     30  C   UNL A   1      37.604  29.182  28.694  1.00  0.00     0.060 A 
ATOM     31  C   UNL A   1      38.119  28.421  29.748  1.00  0.00     0.016 A 
ATOM     32  C   UNL A   1      38.346  29.442  27.535  1.00  0.00     0.016 A 
ATOM     33  C   UNL A   1      39.436  28.021  29.695  1.00  0.00     0.010 A 
ATOM     34  C   UNL A   1      39.662  29.039  27.484  1.00  0.00     0.010 A 
ATOM     35  C   UNL A   1      40.213  28.390  28.593  1.00  0.00    -0.014 A 
BRANCH  35  36
ATOM     36  C   UNL A   1      41.604  27.964  28.581  1.00  0.00     0.031 A 
ATOM     37  C   UNL A   1      41.792  26.608  27.986  1.00  0.00     0.074 A 
ATOM     38  C   UNL A   1      42.594  28.809  28.936  1.00  0.00     0.049 A 
ATOM     39  N   UNL A   1      42.392  25.574  28.479  1.00  0.00    -0.248 NA
ATOM     40  C   UNL A   1      41.074  26.325  26.724  1.00  0.00     0.031 C 
ATOM     41  C   UNL A   1      42.473  30.231  29.282  1.00  0.00     0.029 A 
ATOM     42  N   UNL A   1      43.941  28.623  28.930  1.00  0.00    -0.354 N 
ATOM     43  C   UNL A   1      42.330  24.595  27.489  1.00  0.00     0.074 A 
ATOM     44  C   UNL A   1      41.360  25.040  26.528  1.00  0.00     0.031 C 
ATOM     45  C   UNL A   1      43.685  30.819  29.177  1.00  0.00     0.029 A 
ATOM     46  C   UNL A   1      44.678  29.804  28.867  1.00  0.00     0.049 A 
ATOM     47  H   UNL A   1      44.358  27.732  28.966  1.00  0.00     0.167 HD
ATOM     48  C   UNL A   1      43.255  23.605  27.396  1.00  0.00     0.034 A 
ATOM     49  C   UNL A   1      45.974  29.934  28.471  1.00  0.00     0.034 A 
ATOM     50  C   UNL A   1      43.928  23.385  28.648  1.00  0.00     0.049 A 
ATOM     51  C   UNL A   1      46.582  28.581  28.589  1.00  0.00     0.074 A 
ATOM     52  C   UNL A   1      43.516  22.994  29.906  1.00  0.00     0.029 A 
ATOM     53  N   UNL A   1      45.177  23.931  28.820  1.00  0.00    -0.354 N 
ATOM     54  N   UNL A   1      46.712  27.935  29.719  1.00  0.00    -0.248 NA
ATOM     55  C   UNL A   1      46.596  27.750  27.394  1.00  0.00     0.031 C 
ATOM     56  C   UNL A   1      44.284  23.790  30.803  1.00  0.00     0.029 A 
ATOM     57  C   UNL A   1      45.180  24.548  30.046  1.00  0.00     0.049 A 
ATOM     58  H   UNL A   1      45.927  23.888  28.184  1.00  0.00     0.167 HD
ATOM     59  C   UNL A   1      46.417  26.614  29.414  1.00  0.00     0.074 A 
ATOM     60  C   UNL A   1      46.417  26.550  27.954  1.00  0.00     0.031 C 
ATOM     61  C   UNL A   1      45.924  25.754  30.354  1.00  0.00     0.034 A 
BRANCH  48  62
ATOM     62  C   UNL A   1      43.783  23.087  26.082  1.00  0.00     0.023 A 
ATOM     63  C   UNL A   1      43.668  21.714  25.813  1.00  0.00     0.031 A 
ATOM     64  C   UNL A   1      44.634  23.821  25.219  1.00  0.00     0.131 A 
ATOM     65  C   UNL A   1      44.413  21.121  24.777  1.00  0.00     0.055 A 
ATOM     66  C   UNL A   1      45.321  23.239  24.153  1.00  0.00     0.041 A 
ATOM     67  F   UNL A   1      44.924  25.113  25.419  1.00  0.00    -0.206 F 
ATOM     68  C   UNL A   1      45.233  21.876  23.941  1.00  0.00     0.022 A 
BRANCH  65  69
ATOM     69  S   UNL A   1      44.399  19.317  24.628  1.00  0.00     0.124 S 
ATOM     70  O   UNL A   1      45.524  18.941  25.476  1.00  0.00    -0.237 OA
ATOM     71  O   UNL A   1      43.071  18.985  25.133  1.00  0.00    -0.237 OA
ATOM     72  O   UNL A   1      44.592  19.094  23.197  1.00  0.00    -0.744 OA
ENDBRANCH  65  69
ENDBRANCH  48  62
BRANCH  49  73
ATOM     73  C   UNL A   1      46.558  31.031  27.631  1.00  0.00     0.023 A 
ATOM     74  C   UNL A   1      45.753  32.013  27.011  1.00  0.00     0.031 A 
ATOM     75  C   UNL A   1      47.953  31.274  27.617  1.00  0.00     0.131 A 
ATOM     76  C   UNL A   1      46.341  33.160  26.420  1.00  0.00     0.055 A 
ATOM     77  C   UNL A   1      48.528  32.400  27.020  1.00  0.00     0.041 A 
ATOM     78  F   UNL A   1      48.813  30.473  28.263  1.00  0.00    -0.206 F 
ATOM     79  C   UNL A   1      47.722  33.355  26.428  1.00  0.00     0.022 A 
BRANCH  76  80
ATOM     80  S   UNL A   1      45.300  34.491  25.734  1.00  0.00     0.124 S 
ATOM     81  O   UNL A   1      46.042  35.685  26.121  1.00  0.00    -0.237 OA
ATOM     82  O   UNL A   1      45.276  34.174  24.312  1.00  0.00    -0.237 OA
ATOM     83  O   UNL A   1      44.022  34.309  26.423  1.00  0.00    -0.744 OA
ENDBRANCH  76  80
ENDBRANCH  49  73
BRANCH  61  84
ATOM     84  C   UNL A   1      45.968  26.144  31.815  1.00  0.00     0.023 A 
ATOM     85  C   UNL A   1      44.857  26.579  32.573  1.00  0.00     0.031 A 
ATOM     86  C   UNL A   1      47.160  25.851  32.501  1.00  0.00     0.131 A 
ATOM     87  C   UNL A   1      44.973  26.692  33.976  1.00  0.00     0.055 A 
ATOM     88  C   UNL A   1      47.261  25.941  33.887  1.00  0.00     0.041 A 
ATOM     89  F   UNL A   1      48.234  25.400  31.830  1.00  0.00    -0.206 F 
ATOM     90  C   UNL A   1      46.164  26.358  34.630  1.00  0.00     0.022 A 
BRANCH  87  91
ATOM     91  S   UNL A   1      43.550  27.221  34.988  1.00  0.00     0.124 S 
ATOM     92  O   UNL A   1      43.517  28.663  34.774  1.00  0.00    -0.237 OA
ATOM     93  O   UNL A   1      42.446  26.458  34.415  1.00  0.00    -0.237 OA
ATOM     94  O   UNL A   1      43.927  26.816  36.345  1.00  0.00    -0.744 OA
ENDBRANCH  87  91
ENDBRANCH  61  84
ENDBRANCH  35  36
ENDBRANCH  28  30
ENDBRANCH  27  28
ENDBRANCH  26  27
ENDBRANCH   1  26
TORSDOF 17
ENDMDL
MODEL 2
REMARK VINA RESULT:     -12.3      3.851      9.016
REMARK SMILES Cc1c(C(=O)OCCOC(=O)c2ccc(-c3c4nc(c(-c5cc(S(=O)(=O)[O-])ccc5F)c5ccc([nH]5)c(-c5cc(S(=O)(=O)[O-])ccc5F)c5nc(c(-c6cc(S(=O)(=O)[O-])ccc6F)c6ccc3[nH]6)C=C5)C=C4)cc2)sc2ncnc(NCc3cn4c(n3)SCC4)c12
REMARK SMILES IDX 7 1 6 2 4 3 5 4 3 5 1 6 2 7 91 8 75 9 76 10 80 11 77 12
REMARK SMILES IDX 79 13 78 14 81 15 82 17 83 18 84 19 87 20 85 21 86 22 90 23
REMARK SMILES IDX 88 24 89 25 8 26 9 27 10 28 11 29 12 30 13 31 74 32 14 33
REMARK SMILES IDX 73 34 15 35 16 36 17 37 67 38 18 39 72 40 66 41 68 42 19 43
REMARK SMILES IDX 71 44 65 45 64 46 20 48 52 49 32 50 51 51 33 52 36 53 50 54
REMARK SMILES IDX 69 55 34 56 35 57 49 59 70 60 37 61 21 62 22 63 30 64 23 65
REMARK SMILES IDX 29 66 31 67 28 68 24 69 25 70 26 71 27 72 53 73 54 74 62 75
REMARK SMILES IDX 55 76 61 77 63 78 60 79 56 80 57 81 58 82 59 83 38 84 39 85
REMARK SMILES IDX 47 86 40 87 46 88 48 89 45 90 41 91 42 92 43 93 44 94
REMARK H PARENT 81 16 68 47 36 58
REMARK Flexibility Score: inf
ROOT
ATOM      1  C   UNL A   1      37.828  21.486  25.049  1.00  0.00     0.275 C 
ENDROOT
BRANCH   1   2
ATOM      2  O   UNL A   1      36.592  21.868  25.678  1.00  0.00    -0.458 OA
BRANCH   2   3
ATOM      3  C   UNL A   1      35.499  21.123  25.335  1.00  0.00     0.348 C 
ATOM      4  O   UNL A   1      35.566  19.951  24.970  1.00  0.00    -0.245 OA
BRANCH   3   5
ATOM      5  C   UNL A   1      34.251  21.857  25.506  1.00  0.00     0.118 A 
ATOM      6  C   UNL A   1      34.075  22.671  23.135  1.00  0.00     0.047 C 
ATOM      7  C   UNL A   1      33.613  22.654  24.553  1.00  0.00    -0.012 A 
ATOM      8  C   UNL A   1      32.476  23.388  25.110  1.00  0.00     0.058 A 
ATOM      9  S   UNL A   1      33.386  21.798  26.965  1.00  0.00    -0.108 S 
ATOM     10  C   UNL A   1      32.240  22.920  26.403  1.00  0.00     0.129 A 
ATOM     11  C   UNL A   1      31.585  24.418  24.683  1.00  0.00     0.138 A 
ATOM     12  N   UNL A   1      31.253  23.277  27.242  1.00  0.00    -0.225 NA
ATOM     13  N   UNL A   1      30.583  24.785  25.528  1.00  0.00    -0.219 NA
ATOM     14  C   UNL A   1      30.449  24.186  26.712  1.00  0.00     0.225 A 
BRANCH  11  15
ATOM     15  N   UNL A   1      31.573  25.225  23.574  1.00  0.00    -0.364 N 
ATOM     16  H   UNL A   1      31.263  24.776  22.755  1.00  0.00     0.162 HD
BRANCH  15  17
ATOM     17  C   UNL A   1      31.931  26.609  23.383  1.00  0.00     0.172 C 
BRANCH  17  18
ATOM     18  C   UNL A   1      30.812  27.606  23.306  1.00  0.00     0.079 A 
ATOM     19  C   UNL A   1      29.446  27.403  23.479  1.00  0.00     0.113 A 
ATOM     20  N   UNL A   1      31.072  28.920  22.938  1.00  0.00    -0.226 NA
ATOM     21  N   UNL A   1      28.895  28.600  23.163  1.00  0.00    -0.325 N 
ATOM     22  C   UNL A   1      29.893  29.464  22.844  1.00  0.00     0.168 A 
ATOM     23  C   UNL A   1      27.546  29.031  22.855  1.00  0.00     0.135 C 
ATOM     24  S   UNL A   1      29.324  30.888  22.075  1.00  0.00    -0.086 SA
ATOM     25  C   UNL A   1      27.703  30.082  21.750  1.00  0.00     0.100 C 
ENDBRANCH  17  18
ENDBRANCH  15  17
ENDBRANCH  11  15
ENDBRANCH   3   5
ENDBRANCH   2   3
ENDBRANCH   1   2
BRANCH   1  26
ATOM     26  C   UNL A   1      39.028  21.640  25.980  1.00  0.00     0.275 C 
BRANCH  26  27
ATOM     27  O   UNL A   1      39.144  22.950  26.544  1.00  0.00    -0.458 OA
BRANCH  27  28
ATOM     28  C   UNL A   1      40.253  23.107  27.302  1.00  0.00     0.338 C 
ATOM     29  O   UNL A   1      40.863  22.232  27.890  1.00  0.00    -0.246 OA
BRANCH  28  30
ATOM     30  C   UNL A   1      40.552  24.524  27.500  1.00  0.00     0.060 A 
ATOM     31  C   UNL A   1      41.629  24.836  28.335  1.00  0.00     0.016 A 
ATOM     32  C   UNL A   1      39.616  25.488  27.105  1.00  0.00     0.016 A 
ATOM     33  C   UNL A   1      41.700  26.098  28.883  1.00  0.00     0.010 A 
ATOM     34  C   UNL A   1      39.690  26.750  27.653  1.00  0.00     0.010 A 
ATOM     35  C   UNL A   1      40.693  27.022  28.588  1.00  0.00    -0.014 A 
BRANCH  35  36
ATOM     36  C   UNL A   1      40.792  28.339  29.198  1.00  0.00     0.031 A 
ATOM     37  C   UNL A   1      41.946  29.134  28.683  1.00  0.00     0.074 A 
ATOM     38  C   UNL A   1      39.826  28.800  30.020  1.00  0.00     0.049 A 
ATOM     39  N   UNL A   1      42.893  29.723  29.340  1.00  0.00    -0.248 NA
ATOM     40  C   UNL A   1      42.153  29.142  27.219  1.00  0.00     0.031 C 
ATOM     41  C   UNL A   1      38.551  28.152  30.349  1.00  0.00     0.029 A 
ATOM     42  N   UNL A   1      39.706  30.010  30.629  1.00  0.00    -0.354 N 
ATOM     43  C   UNL A   1      43.670  30.369  28.380  1.00  0.00     0.074 A 
ATOM     44  C   UNL A   1      43.287  29.829  27.106  1.00  0.00     0.031 C 
ATOM     45  C   UNL A   1      37.700  29.075  30.852  1.00  0.00     0.029 A 
ATOM     46  C   UNL A   1      38.399  30.342  30.982  1.00  0.00     0.049 A 
ATOM     47  H   UNL A   1      40.475  30.600  30.804  1.00  0.00     0.167 HD
ATOM     48  C   UNL A   1      44.399  31.478  28.671  1.00  0.00     0.034 A 
ATOM     49  C   UNL A   1      37.918  31.589  31.240  1.00  0.00     0.034 A 
ATOM     50  C   UNL A   1      44.682  31.574  30.078  1.00  0.00     0.049 A 
ATOM     51  C   UNL A   1      39.103  32.435  31.551  1.00  0.00     0.074 A 
ATOM     52  C   UNL A   1      45.371  30.785  30.977  1.00  0.00     0.029 A 
ATOM     53  N   UNL A   1      43.913  32.420  30.840  1.00  0.00    -0.354 N 
ATOM     54  N   UNL A   1      39.894  32.237  32.573  1.00  0.00    -0.248 NA
ATOM     55  C   UNL A   1      39.685  33.194  30.453  1.00  0.00     0.031 C 
ATOM     56  C   UNL A   1      44.598  30.835  32.171  1.00  0.00     0.029 A 
ATOM     57  C   UNL A   1      43.538  31.721  31.961  1.00  0.00     0.049 A 
ATOM     58  H   UNL A   1      43.676  33.351  30.623  1.00  0.00     0.167 HD
ATOM     59  C   UNL A   1      41.172  32.482  32.092  1.00  0.00     0.074 A 
ATOM     60  C   UNL A   1      40.974  33.132  30.798  1.00  0.00     0.031 C 
ATOM     61  C   UNL A   1      42.271  31.892  32.646  1.00  0.00     0.034 A 
BRANCH  48  62
ATOM     62  C   UNL A   1      44.546  32.642  27.725  1.00  0.00     0.023 A 
ATOM     63  C   UNL A   1      43.880  33.840  28.035  1.00  0.00     0.031 A 
ATOM     64  C   UNL A   1      45.068  32.542  26.412  1.00  0.00     0.131 A 
ATOM     65  C   UNL A   1      43.708  34.837  27.058  1.00  0.00     0.055 A 
ATOM     66  C   UNL A   1      44.950  33.562  25.467  1.00  0.00     0.041 A 
ATOM     67  F   UNL A   1      45.630  31.421  25.943  1.00  0.00    -0.206 F 
ATOM     68  C   UNL A   1      44.245  34.710  25.778  1.00  0.00     0.022 A 
BRANCH  65  69
ATOM     69  S   UNL A   1      42.647  36.252  27.447  1.00  0.00     0.124 S 
ATOM     70  O   UNL A   1      43.135  37.255  26.508  1.00  0.00    -0.237 OA
ATOM     71  O   UNL A   1      41.318  35.712  27.182  1.00  0.00    -0.237 OA
ATOM     72  O   UNL A   1      42.940  36.518  28.854  1.00  0.00    -0.744 OA
ENDBRANCH  65  69
ENDBRANCH  48  62
BRANCH  49  73
ATOM     73  C   UNL A   1      36.588  32.149  30.830  1.00  0.00     0.023 A 
ATOM     74  C   UNL A   1      35.771  32.876  31.725  1.00  0.00     0.031 A 
ATOM     75  C   UNL A   1      36.201  32.185  29.469  1.00  0.00     0.131 A 
ATOM     76  C   UNL A   1      34.638  33.585  31.254  1.00  0.00     0.055 A 
ATOM     77  C   UNL A   1      35.074  32.875  29.012  1.00  0.00     0.041 A 
ATOM     78  F   UNL A   1      36.951  31.625  28.509  1.00  0.00    -0.206 F 
ATOM     79  C   UNL A   1      34.292  33.588  29.902  1.00  0.00     0.022 A 
BRANCH  76  80
ATOM     80  S   UNL A   1      33.656  34.627  32.383  1.00  0.00     0.124 S 
ATOM     81  O   UNL A   1      32.705  35.251  31.469  1.00  0.00    -0.237 OA
ATOM     82  O   UNL A   1      33.113  33.654  33.322  1.00  0.00    -0.237 OA
ATOM     83  O   UNL A   1      34.651  35.537  32.953  1.00  0.00    -0.744 OA
ENDBRANCH  76  80
ENDBRANCH  49  73
BRANCH  61  84
ATOM     84  C   UNL A   1      42.147  31.189  33.980  1.00  0.00     0.023 A 
ATOM     85  C   UNL A   1      41.909  29.807  34.150  1.00  0.00     0.031 A 
ATOM     86  C   UNL A   1      42.499  31.942  35.114  1.00  0.00     0.131 A 
ATOM     87  C   UNL A   1      42.042  29.230  35.432  1.00  0.00     0.055 A 
ATOM     88  C   UNL A   1      42.653  31.363  36.371  1.00  0.00     0.041 A 
ATOM     89  F   UNL A   1      42.771  33.253  34.999  1.00  0.00    -0.206 F 
ATOM     90  C   UNL A   1      42.428  30.002  36.534  1.00  0.00     0.022 A 
BRANCH  87  91
ATOM     91  S   UNL A   1      41.771  27.443  35.682  1.00  0.00     0.124 S 
ATOM     92  O   UNL A   1      41.095  27.394  36.973  1.00  0.00    -0.237 OA
ATOM     93  O   UNL A   1      40.971  27.073  34.520  1.00  0.00    -0.237 OA
ATOM     94  O   UNL A   1      43.128  26.889  35.685  1.00  0.00    -0.744 OA
ENDBRANCH  87  91
ENDBRANCH  61  84
ENDBRANCH  35  36
ENDBRANCH  28  30
ENDBRANCH  27  28
ENDBRANCH  26  27
ENDBRANCH   1  26
TORSDOF 17
ENDMDL
MODEL 3
REMARK VINA RESULT:     -12.1      4.353     10.310
REMARK SMILES Cc1c(C(=O)OCCOC(=O)c2ccc(-c3c4nc(c(-c5cc(S(=O)(=O)[O-])ccc5F)c5ccc([nH]5)c(-c5cc(S(=O)(=O)[O-])ccc5F)c5nc(c(-c6cc(S(=O)(=O)[O-])ccc6F)c6ccc3[nH]6)C=C5)C=C4)cc2)sc2ncnc(NCc3cn4c(n3)SCC4)c12
REMARK SMILES IDX 7 1 6 2 4 3 5 4 3 5 1 6 2 7 91 8 75 9 76 10 80 11 77 12
REMARK SMILES IDX 79 13 78 14 81 15 82 17 83 18 84 19 87 20 85 21 86 22 90 23
REMARK SMILES IDX 88 24 89 25 8 26 9 27 10 28 11 29 12 30 13 31 74 32 14 33
REMARK SMILES IDX 73 34 15 35 16 36 17 37 67 38 18 39 72 40 66 41 68 42 19 43
REMARK SMILES IDX 71 44 65 45 64 46 20 48 52 49 32 50 51 51 33 52 36 53 50 54
REMARK SMILES IDX 69 55 34 56 35 57 49 59 70 60 37 61 21 62 22 63 30 64 23 65
REMARK SMILES IDX 29 66 31 67 28 68 24 69 25 70 26 71 27 72 53 73 54 74 62 75
REMARK SMILES IDX 55 76 61 77 63 78 60 79 56 80 57 81 58 82 59 83 38 84 39 85
REMARK SMILES IDX 47 86 40 87 46 88 48 89 45 90 41 91 42 92 43 93 44 94
REMARK H PARENT 81 16 68 47 36 58
REMARK Flexibility Score: inf
ROOT
ATOM      1  C   UNL A   1      38.215  21.980  25.695  1.00  0.00     0.275 C 
ENDROOT
BRANCH   1   2
ATOM      2  O   UNL A   1      36.885  22.525  25.742  1.00  0.00    -0.458 OA
BRANCH   2   3
ATOM      3  C   UNL A   1      35.875  21.640  25.488  1.00  0.00     0.348 C 
ATOM      4  O   UNL A   1      36.064  20.454  25.224  1.00  0.00    -0.245 OA
BRANCH   3   5
ATOM      5  C   UNL A   1      34.557  22.248  25.622  1.00  0.00     0.118 A 
ATOM      6  C   UNL A   1      34.402  23.110  23.266  1.00  0.00     0.047 C 
ATOM      7  C   UNL A   1      33.886  23.009  24.662  1.00  0.00    -0.012 A 
ATOM      8  C   UNL A   1      32.662  23.617  25.186  1.00  0.00     0.058 A 
ATOM      9  S   UNL A   1      33.642  22.067  27.040  1.00  0.00    -0.108 S 
ATOM     10  C   UNL A   1      32.418  23.092  26.456  1.00  0.00     0.129 A 
ATOM     11  C   UNL A   1      31.696  24.570  24.746  1.00  0.00     0.138 A 
ATOM     12  N   UNL A   1      31.368  23.331  27.260  1.00  0.00    -0.225 NA
ATOM     13  N   UNL A   1      30.629  24.818  25.555  1.00  0.00    -0.219 NA
ATOM     14  C   UNL A   1      30.504  24.176  26.717  1.00  0.00     0.225 A 
BRANCH  11  15
ATOM     15  N   UNL A   1      31.653  25.404  23.658  1.00  0.00    -0.364 N 
ATOM     16  H   UNL A   1      31.205  25.015  22.873  1.00  0.00     0.162 HD
BRANCH  15  17
ATOM     17  C   UNL A   1      32.144  26.744  23.448  1.00  0.00     0.172 C 
BRANCH  17  18
ATOM     18  C   UNL A   1      32.393  27.585  24.666  1.00  0.00     0.079 A 
ATOM     19  C   UNL A   1      31.606  28.600  25.204  1.00  0.00     0.113 A 
ATOM     20  N   UNL A   1      33.584  27.461  25.369  1.00  0.00    -0.226 NA
ATOM     21  N   UNL A   1      32.366  29.106  26.206  1.00  0.00    -0.325 N 
ATOM     22  C   UNL A   1      33.528  28.405  26.262  1.00  0.00     0.168 A 
ATOM     23  C   UNL A   1      32.309  30.325  26.987  1.00  0.00     0.135 C 
ATOM     24  S   UNL A   1      34.724  29.170  27.227  1.00  0.00    -0.086 SA
ATOM     25  C   UNL A   1      33.771  30.743  27.185  1.00  0.00     0.100 C 
ENDBRANCH  17  18
ENDBRANCH  15  17
ENDBRANCH  11  15
ENDBRANCH   3   5
ENDBRANCH   2   3
ENDBRANCH   1   2
BRANCH   1  26
ATOM     26  C   UNL A   1      39.196  22.763  26.565  1.00  0.00     0.275 C 
BRANCH  26  27
ATOM     27  O   UNL A   1      38.905  24.163  26.629  1.00  0.00    -0.458 OA
BRANCH  27  28
ATOM     28  C   UNL A   1      40.013  24.935  26.702  1.00  0.00     0.338 C 
ATOM     29  O   UNL A   1      41.130  24.645  26.311  1.00  0.00    -0.246 OA
BRANCH  28  30
ATOM     30  C   UNL A   1      39.761  26.134  27.499  1.00  0.00     0.060 A 
ATOM     31  C   UNL A   1      40.180  27.355  26.961  1.00  0.00     0.016 A 
ATOM     32  C   UNL A   1      39.393  26.003  28.844  1.00  0.00     0.016 A 
ATOM     33  C   UNL A   1      40.352  28.428  27.807  1.00  0.00     0.010 A 
ATOM     34  C   UNL A   1      39.565  27.079  29.688  1.00  0.00     0.010 A 
ATOM     35  C   UNL A   1      40.105  28.261  29.173  1.00  0.00    -0.014 A 
BRANCH  35  36
ATOM     36  C   UNL A   1      40.315  29.412  30.037  1.00  0.00     0.031 A 
ATOM     37  C   UNL A   1      39.100  30.270  30.169  1.00  0.00     0.074 A 
ATOM     38  C   UNL A   1      41.456  29.554  30.744  1.00  0.00     0.049 A 
ATOM     39  N   UNL A   1      38.971  31.543  29.974  1.00  0.00    -0.248 NA
ATOM     40  C   UNL A   1      37.814  29.578  30.404  1.00  0.00     0.031 C 
ATOM     41  C   UNL A   1      42.570  28.603  30.840  1.00  0.00     0.029 A 
ATOM     42  N   UNL A   1      41.809  30.512  31.642  1.00  0.00    -0.354 N 
ATOM     43  C   UNL A   1      37.648  31.840  30.295  1.00  0.00     0.074 A 
ATOM     44  C   UNL A   1      36.948  30.588  30.365  1.00  0.00     0.031 C 
ATOM     45  C   UNL A   1      43.313  28.898  31.929  1.00  0.00     0.029 A 
ATOM     46  C   UNL A   1      42.799  30.112  32.539  1.00  0.00     0.049 A 
ATOM     47  H   UNL A   1      41.402  31.408  31.658  1.00  0.00     0.167 HD
ATOM     48  C   UNL A   1      37.270  33.072  30.724  1.00  0.00     0.034 A 
ATOM     49  C   UNL A   1      43.078  30.676  33.746  1.00  0.00     0.034 A 
ATOM     50  C   UNL A   1      38.206  34.086  30.319  1.00  0.00     0.049 A 
ATOM     51  C   UNL A   1      42.494  32.045  33.710  1.00  0.00     0.074 A 
ATOM     52  C   UNL A   1      38.649  34.556  29.099  1.00  0.00     0.029 A 
ATOM     53  N   UNL A   1      39.121  34.532  31.242  1.00  0.00    -0.354 N 
ATOM     54  N   UNL A   1      42.876  32.981  32.881  1.00  0.00    -0.248 NA
ATOM     55  C   UNL A   1      41.156  32.212  34.259  1.00  0.00     0.031 C 
ATOM     56  C   UNL A   1      40.041  34.789  29.283  1.00  0.00     0.029 A 
ATOM     57  C   UNL A   1      40.347  34.537  30.623  1.00  0.00     0.049 A 
ATOM     58  H   UNL A   1      38.934  34.797  32.171  1.00  0.00     0.167 HD
ATOM     59  C   UNL A   1      41.707  33.620  32.494  1.00  0.00     0.074 A 
ATOM     60  C   UNL A   1      40.687  33.145  33.427  1.00  0.00     0.031 C 
ATOM     61  C   UNL A   1      41.603  34.256  31.291  1.00  0.00     0.034 A 
BRANCH  48  62
ATOM     62  C   UNL A   1      36.240  33.293  31.802  1.00  0.00     0.023 A 
ATOM     63  C   UNL A   1      35.160  34.148  31.526  1.00  0.00     0.031 A 
ATOM     64  C   UNL A   1      36.417  32.933  33.161  1.00  0.00     0.131 A 
ATOM     65  C   UNL A   1      34.357  34.646  32.568  1.00  0.00     0.055 A 
ATOM     66  C   UNL A   1      35.578  33.380  34.182  1.00  0.00     0.041 A 
ATOM     67  F   UNL A   1      37.465  32.215  33.586  1.00  0.00    -0.206 F 
ATOM     68  C   UNL A   1      34.554  34.263  33.893  1.00  0.00     0.022 A 
BRANCH  65  69
ATOM     69  S   UNL A   1      33.131  35.920  32.177  1.00  0.00     0.124 S 
ATOM     70  O   UNL A   1      31.880  35.188  32.347  1.00  0.00    -0.237 OA
ATOM     71  O   UNL A   1      33.425  36.937  33.180  1.00  0.00    -0.237 OA
ATOM     72  O   UNL A   1      33.455  36.291  30.801  1.00  0.00    -0.744 OA
ENDBRANCH  65  69
ENDBRANCH  48  62
BRANCH  49  73
ATOM     73  C   UNL A   1      43.437  29.966  35.017  1.00  0.00     0.023 A 
ATOM     74  C   UNL A   1      42.774  28.789  35.433  1.00  0.00     0.031 A 
ATOM     75  C   UNL A   1      44.611  30.301  35.734  1.00  0.00     0.131 A 
ATOM     76  C   UNL A   1      43.282  28.016  36.507  1.00  0.00     0.055 A 
ATOM     77  C   UNL A   1      45.099  29.544  36.802  1.00  0.00     0.041 A 
ATOM     78  F   UNL A   1      45.387  31.333  35.370  1.00  0.00    -0.206 F 
ATOM     79  C   UNL A   1      44.441  28.389  37.188  1.00  0.00     0.022 A 
BRANCH  76  80
ATOM     80  S   UNL A   1      42.504  26.431  36.963  1.00  0.00     0.124 S 
ATOM     81  O   UNL A   1      41.087  26.774  36.948  1.00  0.00    -0.237 OA
ATOM     82  O   UNL A   1      42.968  25.536  35.910  1.00  0.00    -0.237 OA
ATOM     83  O   UNL A   1      43.057  26.153  38.289  1.00  0.00    -0.744 OA
ENDBRANCH  76  80
ENDBRANCH  49  73
BRANCH  61  84
ATOM     84  C   UNL A   1      42.851  34.530  30.482  1.00  0.00     0.023 A 
ATOM     85  C   UNL A   1      43.269  33.784  29.356  1.00  0.00     0.031 A 
ATOM     86  C   UNL A   1      43.520  35.735  30.759  1.00  0.00     0.131 A 
ATOM     87  C   UNL A   1      44.320  34.272  28.549  1.00  0.00     0.055 A 
ATOM     88  C   UNL A   1      44.540  36.223  29.945  1.00  0.00     0.041 A 
ATOM     89  F   UNL A   1      43.137  36.499  31.797  1.00  0.00    -0.206 F 
ATOM     90  C   UNL A   1      44.941  35.494  28.834  1.00  0.00     0.022 A 
BRANCH  87  91
ATOM     91  S   UNL A   1      44.864  33.350  27.071  1.00  0.00     0.124 S 
ATOM     92  O   UNL A   1      44.837  31.964  27.524  1.00  0.00    -0.237 OA
ATOM     93  O   UNL A   1      43.867  33.723  26.075  1.00  0.00    -0.237 OA
ATOM     94  O   UNL A   1      46.206  33.879  26.814  1.00  0.00    -0.744 OA
ENDBRANCH  87  91
ENDBRANCH  61  84
ENDBRANCH  35  36
ENDBRANCH  28  30
ENDBRANCH  27  28
ENDBRANCH  26  27
ENDBRANCH   1  26
TORSDOF 17
ENDMDL
