MODEL 1
REMARK VINA RESULT:     -10.4      0.000      0.000
REMARK SMILES C[C@@H]1Oc2ccccc2N(CC(=O)OCCOC(=O)c2ccc(-c3c4nc(c(-c5cc(S(=O)(=O)[O-])ccc5F)c5ccc([nH]5)c(-c5cc(S(=O)(=O)[O-])ccc5F)c5nc(c(-c6cc(S(=O)(=O)[O-])ccc6F)c6ccc3[nH]6)C=C5)C=C4)cc2)C1=O
REMARK SMILES IDX 16 1 15 2 14 3 12 4 13 5 11 6 10 7 1 8 2 9 3 10 83 11 4 12
REMARK SMILES IDX 84 13 5 14 9 15 6 16 8 17 7 18 17 19 18 20 19 21 20 22 21 23
REMARK SMILES IDX 82 24 22 25 81 26 23 27 24 28 25 29 75 30 26 31 80 32 74 33
REMARK SMILES IDX 76 34 27 35 79 36 73 37 72 38 28 40 60 41 40 42 59 43 41 44
REMARK SMILES IDX 44 45 58 46 77 47 42 48 43 49 57 51 78 52 45 53 29 54 30 55
REMARK SMILES IDX 38 56 31 57 37 58 39 59 36 60 32 61 33 62 34 63 35 64 61 65
REMARK SMILES IDX 62 66 70 67 63 68 69 69 71 70 68 71 64 72 65 73 66 74 67 75
REMARK SMILES IDX 46 76 47 77 55 78 48 79 54 80 56 81 53 82 49 83 50 84 51 85
REMARK SMILES IDX 52 86
REMARK H PARENT 76 39 44 50
REMARK Flexibility Score: inf
ROOT
ATOM      1  C   UNL A   1      33.817  33.933  28.173  1.00  0.00     0.275 C 
ENDROOT
BRANCH   1   2
ATOM      2  C   UNL A   1      34.324  34.585  29.456  1.00  0.00     0.274 C 
BRANCH   2   3
ATOM      3  O   UNL A   1      33.502  34.193  30.573  1.00  0.00    -0.461 OA
BRANCH   3   4
ATOM      4  C   UNL A   1      34.140  33.671  31.659  1.00  0.00     0.326 C 
ATOM      5  O   UNL A   1      33.569  33.196  32.636  1.00  0.00    -0.250 OA
BRANCH   4   6
ATOM      6  C   UNL A   1      35.670  33.726  31.547  1.00  0.00     0.248 C 
BRANCH   6   7
ATOM      7  N   UNL A   1      36.350  33.268  32.753  1.00  0.00    -0.294 N 
ATOM      8  C   UNL A   1      39.050  34.459  34.222  1.00  0.00     0.064 C 
ATOM      9  C   UNL A   1      37.728  33.859  34.705  1.00  0.00     0.259 C 
ATOM     10  O   UNL A   1      37.941  32.499  35.026  1.00  0.00    -0.479 OA
ATOM     11  C   UNL A   1      36.646  34.238  33.698  1.00  0.00     0.268 C 
ATOM     12  C   UNL A   1      37.623  31.619  34.029  1.00  0.00     0.144 A 
ATOM     13  O   UNL A   1      36.180  35.379  33.663  1.00  0.00    -0.270 OA
ATOM     14  C   UNL A   1      38.132  30.327  34.206  1.00  0.00     0.049 A 
ATOM     15  C   UNL A   1      36.833  31.938  32.915  1.00  0.00     0.087 A 
ATOM     16  C   UNL A   1      37.856  29.329  33.279  1.00  0.00     0.004 A 
ATOM     17  C   UNL A   1      36.526  30.906  32.018  1.00  0.00     0.030 A 
ATOM     18  C   UNL A   1      37.043  29.615  32.191  1.00  0.00     0.002 A 
ENDBRANCH   6   7
ENDBRANCH   4   6
ENDBRANCH   3   4
ENDBRANCH   2   3
ENDBRANCH   1   2
BRANCH   1  19
ATOM     19  O   UNL A   1      34.885  33.173  27.586  1.00  0.00    -0.458 OA
BRANCH  19  20
ATOM     20  C   UNL A   1      34.776  31.830  27.693  1.00  0.00     0.338 C 
ATOM     21  O   UNL A   1      33.787  31.145  27.512  1.00  0.00    -0.246 OA
BRANCH  20  22
ATOM     22  C   UNL A   1      36.082  31.291  28.100  1.00  0.00     0.060 A 
ATOM     23  C   UNL A   1      37.082  32.170  28.499  1.00  0.00     0.016 A 
ATOM     24  C   UNL A   1      36.291  29.911  28.146  1.00  0.00     0.016 A 
ATOM     25  C   UNL A   1      38.313  31.656  28.907  1.00  0.00     0.010 A 
ATOM     26  C   UNL A   1      37.483  29.399  28.650  1.00  0.00     0.010 A 
ATOM     27  C   UNL A   1      38.524  30.267  28.999  1.00  0.00    -0.014 A 
BRANCH  27  28
ATOM     28  C   UNL A   1      39.840  29.745  29.451  1.00  0.00     0.031 A 
ATOM     29  C   UNL A   1      40.523  30.322  30.661  1.00  0.00     0.074 A 
ATOM     30  C   UNL A   1      40.400  28.716  28.784  1.00  0.00     0.049 A 
ATOM     31  N   UNL A   1      41.562  29.863  31.310  1.00  0.00    -0.248 NA
ATOM     32  C   UNL A   1      39.990  31.581  31.207  1.00  0.00     0.031 C 
ATOM     33  C   UNL A   1      39.874  28.135  27.549  1.00  0.00     0.029 A 
ATOM     34  N   UNL A   1      41.509  27.957  29.063  1.00  0.00    -0.354 N 
ATOM     35  C   UNL A   1      41.789  30.760  32.348  1.00  0.00     0.074 A 
ATOM     36  C   UNL A   1      40.838  31.836  32.192  1.00  0.00     0.031 C 
ATOM     37  C   UNL A   1      40.612  27.066  27.218  1.00  0.00     0.029 A 
ATOM     38  C   UNL A   1      41.676  26.894  28.205  1.00  0.00     0.049 A 
ATOM     39  H   UNL A   1      42.125  28.153  29.806  1.00  0.00     0.167 HD
ATOM     40  C   UNL A   1      42.679  30.670  33.365  1.00  0.00     0.034 A 
ATOM     41  C   UNL A   1      42.557  25.872  28.232  1.00  0.00     0.034 A 
ATOM     42  C   UNL A   1      43.617  29.588  33.508  1.00  0.00     0.049 A 
ATOM     43  C   UNL A   1      43.522  25.777  29.389  1.00  0.00     0.074 A 
ATOM     44  C   UNL A   1      44.538  29.383  34.519  1.00  0.00     0.029 A 
ATOM     45  N   UNL A   1      43.749  28.527  32.624  1.00  0.00    -0.354 N 
ATOM     46  N   UNL A   1      43.643  26.567  30.430  1.00  0.00    -0.248 NA
ATOM     47  C   UNL A   1      44.453  24.641  29.391  1.00  0.00     0.031 C 
ATOM     48  C   UNL A   1      45.261  28.228  34.221  1.00  0.00     0.029 A 
ATOM     49  C   UNL A   1      44.746  27.672  33.060  1.00  0.00     0.049 A 
ATOM     50  H   UNL A   1      43.214  28.401  31.808  1.00  0.00     0.167 HD
ATOM     51  C   UNL A   1      44.636  26.003  31.227  1.00  0.00     0.074 A 
ATOM     52  C   UNL A   1      45.065  24.793  30.559  1.00  0.00     0.031 C 
ATOM     53  C   UNL A   1      45.146  26.450  32.403  1.00  0.00     0.034 A 
BRANCH  40  54
ATOM     54  C   UNL A   1      42.658  31.733  34.435  1.00  0.00     0.023 A 
ATOM     55  C   UNL A   1      41.760  31.643  35.514  1.00  0.00     0.031 A 
ATOM     56  C   UNL A   1      43.438  32.899  34.313  1.00  0.00     0.131 A 
ATOM     57  C   UNL A   1      41.641  32.715  36.409  1.00  0.00     0.055 A 
ATOM     58  C   UNL A   1      43.348  33.944  35.233  1.00  0.00     0.041 A 
ATOM     59  F   UNL A   1      44.309  33.034  33.300  1.00  0.00    -0.206 F 
ATOM     60  C   UNL A   1      42.435  33.859  36.280  1.00  0.00     0.022 A 
BRANCH  57  61
ATOM     61  S   UNL A   1      40.411  32.693  37.742  1.00  0.00     0.124 S 
ATOM     62  O   UNL A   1      39.509  31.632  37.301  1.00  0.00    -0.237 OA
ATOM     63  O   UNL A   1      41.230  32.372  38.906  1.00  0.00    -0.237 OA
ATOM     64  O   UNL A   1      39.845  34.037  37.719  1.00  0.00    -0.744 OA
ENDBRANCH  57  61
ENDBRANCH  40  54
BRANCH  41  65
ATOM     65  C   UNL A   1      42.465  24.800  27.197  1.00  0.00     0.023 A 
ATOM     66  C   UNL A   1      41.520  23.765  27.300  1.00  0.00     0.031 A 
ATOM     67  C   UNL A   1      43.393  24.744  26.142  1.00  0.00     0.131 A 
ATOM     68  C   UNL A   1      41.560  22.692  26.398  1.00  0.00     0.055 A 
ATOM     69  C   UNL A   1      43.386  23.709  25.206  1.00  0.00     0.041 A 
ATOM     70  F   UNL A   1      44.329  25.698  26.014  1.00  0.00    -0.206 F 
ATOM     71  C   UNL A   1      42.476  22.667  25.341  1.00  0.00     0.022 A 
BRANCH  68  72
ATOM     72  S   UNL A   1      40.512  21.231  26.643  1.00  0.00     0.124 S 
ATOM     73  O   UNL A   1      41.087  20.282  25.696  1.00  0.00    -0.237 OA
ATOM     74  O   UNL A   1      40.743  20.932  28.055  1.00  0.00    -0.237 OA
ATOM     75  O   UNL A   1      39.173  21.711  26.324  1.00  0.00    -0.744 OA
ENDBRANCH  68  72
ENDBRANCH  41  65
BRANCH  53  76
ATOM     76  C   UNL A   1      46.222  25.638  33.083  1.00  0.00     0.023 A 
ATOM     77  C   UNL A   1      45.869  24.698  34.072  1.00  0.00     0.031 A 
ATOM     78  C   UNL A   1      47.585  25.904  32.875  1.00  0.00     0.131 A 
ATOM     79  C   UNL A   1      46.867  24.088  34.843  1.00  0.00     0.055 A 
ATOM     80  C   UNL A   1      48.579  25.258  33.613  1.00  0.00     0.041 A 
ATOM     81  F   UNL A   1      47.972  26.804  31.956  1.00  0.00    -0.206 F 
ATOM     82  C   UNL A   1      48.221  24.358  34.612  1.00  0.00     0.022 A 
BRANCH  79  83
ATOM     83  S   UNL A   1      46.446  23.004  36.235  1.00  0.00     0.124 S 
ATOM     84  O   UNL A   1      47.505  22.000  36.165  1.00  0.00    -0.237 OA
ATOM     85  O   UNL A   1      46.525  23.917  37.372  1.00  0.00    -0.237 OA
ATOM     86  O   UNL A   1      45.107  22.521  35.912  1.00  0.00    -0.744 OA
ENDBRANCH  79  83
ENDBRANCH  53  76
ENDBRANCH  27  28
ENDBRANCH  20  22
ENDBRANCH  19  20
ENDBRANCH   1  19
TORSDOF 15
ENDMDL
MODEL 2
REMARK VINA RESULT:     -10.4      3.781      5.951
REMARK SMILES C[C@@H]1Oc2ccccc2N(CC(=O)OCCOC(=O)c2ccc(-c3c4nc(c(-c5cc(S(=O)(=O)[O-])ccc5F)c5ccc([nH]5)c(-c5cc(S(=O)(=O)[O-])ccc5F)c5nc(c(-c6cc(S(=O)(=O)[O-])ccc6F)c6ccc3[nH]6)C=C5)C=C4)cc2)C1=O
REMARK SMILES IDX 16 1 15 2 14 3 12 4 13 5 11 6 10 7 1 8 2 9 3 10 83 11 4 12
REMARK SMILES IDX 84 13 5 14 9 15 6 16 8 17 7 18 17 19 18 20 19 21 20 22 21 23
REMARK SMILES IDX 82 24 22 25 81 26 23 27 24 28 25 29 75 30 26 31 80 32 74 33
REMARK SMILES IDX 76 34 27 35 79 36 73 37 72 38 28 40 60 41 40 42 59 43 41 44
REMARK SMILES IDX 44 45 58 46 77 47 42 48 43 49 57 51 78 52 45 53 29 54 30 55
REMARK SMILES IDX 38 56 31 57 37 58 39 59 36 60 32 61 33 62 34 63 35 64 61 65
REMARK SMILES IDX 62 66 70 67 63 68 69 69 71 70 68 71 64 72 65 73 66 74 67 75
REMARK SMILES IDX 46 76 47 77 55 78 48 79 54 80 56 81 53 82 49 83 50 84 51 85
REMARK SMILES IDX 52 86
REMARK H PARENT 76 39 44 50
REMARK Flexibility Score: inf
ROOT
ATOM      1  C   UNL A   1      31.649  30.467  25.842  1.00  0.00     0.275 C 
ENDROOT
BRANCH   1   2
ATOM      2  C   UNL A   1      31.409  29.205  25.019  1.00  0.00     0.274 C 
BRANCH   2   3
ATOM      3  O   UNL A   1      32.080  28.081  25.622  1.00  0.00    -0.461 OA
BRANCH   3   4
ATOM      4  C   UNL A   1      31.360  27.330  26.505  1.00  0.00     0.326 C 
ATOM      5  O   UNL A   1      31.382  27.481  27.722  1.00  0.00    -0.250 OA
BRANCH   4   6
ATOM      6  C   UNL A   1      30.496  26.259  25.824  1.00  0.00     0.248 C 
BRANCH   6   7
ATOM      7  N   UNL A   1      31.279  25.167  25.257  1.00  0.00    -0.294 N 
ATOM      8  C   UNL A   1      34.146  23.893  26.266  1.00  0.00     0.064 C 
ATOM      9  C   UNL A   1      32.861  23.325  25.661  1.00  0.00     0.259 C 
ATOM     10  O   UNL A   1      33.062  23.131  24.275  1.00  0.00    -0.479 OA
ATOM     11  C   UNL A   1      31.696  24.186  26.142  1.00  0.00     0.268 C 
ATOM     12  C   UNL A   1      32.620  24.156  23.484  1.00  0.00     0.144 A 
ATOM     13  O   UNL A   1      31.265  24.086  27.294  1.00  0.00    -0.270 OA
ATOM     14  C   UNL A   1      33.104  24.129  22.171  1.00  0.00     0.049 A 
ATOM     15  C   UNL A   1      31.733  25.156  23.908  1.00  0.00     0.087 A 
ATOM     16  C   UNL A   1      32.706  25.097  21.255  1.00  0.00     0.004 A 
ATOM     17  C   UNL A   1      31.307  26.093  22.957  1.00  0.00     0.030 A 
ATOM     18  C   UNL A   1      31.798  26.073  21.644  1.00  0.00     0.002 A 
ENDBRANCH   6   7
ENDBRANCH   4   6
ENDBRANCH   3   4
ENDBRANCH   2   3
ENDBRANCH   1   2
BRANCH   1  19
ATOM     19  O   UNL A   1      33.024  30.495  26.256  1.00  0.00    -0.458 OA
BRANCH  19  20
ATOM     20  C   UNL A   1      33.355  31.477  27.124  1.00  0.00     0.338 C 
ATOM     21  O   UNL A   1      32.723  32.482  27.389  1.00  0.00    -0.246 OA
BRANCH  20  22
ATOM     22  C   UNL A   1      34.662  31.151  27.715  1.00  0.00     0.060 A 
ATOM     23  C   UNL A   1      35.582  32.172  27.927  1.00  0.00     0.016 A 
ATOM     24  C   UNL A   1      34.947  29.845  28.116  1.00  0.00     0.016 A 
ATOM     25  C   UNL A   1      36.812  31.866  28.508  1.00  0.00     0.010 A 
ATOM     26  C   UNL A   1      36.132  29.562  28.788  1.00  0.00     0.010 A 
ATOM     27  C   UNL A   1      37.097  30.562  28.956  1.00  0.00    -0.014 A 
BRANCH  27  28
ATOM     28  C   UNL A   1      38.409  30.264  29.586  1.00  0.00     0.031 A 
ATOM     29  C   UNL A   1      38.741  30.787  30.958  1.00  0.00     0.074 A 
ATOM     30  C   UNL A   1      39.289  29.484  28.929  1.00  0.00     0.049 A 
ATOM     31  N   UNL A   1      39.742  30.464  31.736  1.00  0.00    -0.248 NA
ATOM     32  C   UNL A   1      37.853  31.814  31.527  1.00  0.00     0.031 C 
ATOM     33  C   UNL A   1      39.113  28.993  27.562  1.00  0.00     0.029 A 
ATOM     34  N   UNL A   1      40.485  28.939  29.326  1.00  0.00    -0.354 N 
ATOM     35  C   UNL A   1      39.589  31.226  32.889  1.00  0.00     0.074 A 
ATOM     36  C   UNL A   1      38.453  32.092  32.675  1.00  0.00     0.031 C 
ATOM     37  C   UNL A   1      40.120  28.161  27.261  1.00  0.00     0.029 A 
ATOM     38  C   UNL A   1      41.026  28.072  28.404  1.00  0.00     0.049 A 
ATOM     39  H   UNL A   1      40.914  29.148  30.187  1.00  0.00     0.167 HD
ATOM     40  C   UNL A   1      40.305  31.176  34.038  1.00  0.00     0.034 A 
ATOM     41  C   UNL A   1      42.103  27.263  28.485  1.00  0.00     0.034 A 
ATOM     42  C   UNL A   1      41.432  30.303  34.235  1.00  0.00     0.049 A 
ATOM     43  C   UNL A   1      42.869  27.202  29.784  1.00  0.00     0.074 A 
ATOM     44  C   UNL A   1      42.204  30.149  35.372  1.00  0.00     0.029 A 
ATOM     45  N   UNL A   1      41.943  29.434  33.282  1.00  0.00    -0.354 N 
ATOM     46  N   UNL A   1      42.639  27.838  30.909  1.00  0.00    -0.248 NA
ATOM     47  C   UNL A   1      44.024  26.296  29.838  1.00  0.00     0.031 C 
ATOM     48  C   UNL A   1      43.212  29.226  35.091  1.00  0.00     0.029 A 
ATOM     49  C   UNL A   1      43.028  28.751  33.802  1.00  0.00     0.049 A 
ATOM     50  H   UNL A   1      41.587  29.321  32.372  1.00  0.00     0.167 HD
ATOM     51  C   UNL A   1      43.596  27.383  31.812  1.00  0.00     0.074 A 
ATOM     52  C   UNL A   1      44.393  26.400  31.108  1.00  0.00     0.031 C 
ATOM     53  C   UNL A   1      43.798  27.749  33.103  1.00  0.00     0.034 A 
BRANCH  40  54
ATOM     54  C   UNL A   1      39.871  32.043  35.193  1.00  0.00     0.023 A 
ATOM     55  C   UNL A   1      39.065  31.516  36.219  1.00  0.00     0.031 A 
ATOM     56  C   UNL A   1      40.148  33.423  35.208  1.00  0.00     0.131 A 
ATOM     57  C   UNL A   1      38.539  32.371  37.197  1.00  0.00     0.055 A 
ATOM     58  C   UNL A   1      39.659  34.261  36.210  1.00  0.00     0.041 A 
ATOM     59  F   UNL A   1      40.911  33.975  34.251  1.00  0.00    -0.206 F 
ATOM     60  C   UNL A   1      38.838  33.737  37.203  1.00  0.00     0.022 A 
BRANCH  57  61
ATOM     61  S   UNL A   1      37.398  31.756  38.466  1.00  0.00     0.124 S 
ATOM     62  O   UNL A   1      36.273  32.679  38.332  1.00  0.00    -0.237 OA
ATOM     63  O   UNL A   1      37.143  30.392  38.010  1.00  0.00    -0.237 OA
ATOM     64  O   UNL A   1      38.155  31.876  39.707  1.00  0.00    -0.744 OA
ENDBRANCH  57  61
ENDBRANCH  40  54
BRANCH  41  65
ATOM     65  C   UNL A   1      42.425  26.359  27.341  1.00  0.00     0.023 A 
ATOM     66  C   UNL A   1      41.988  25.022  27.321  1.00  0.00     0.031 A 
ATOM     67  C   UNL A   1      43.264  26.794  26.300  1.00  0.00     0.131 A 
ATOM     68  C   UNL A   1      42.435  24.158  26.312  1.00  0.00     0.055 A 
ATOM     69  C   UNL A   1      43.651  25.948  25.260  1.00  0.00     0.041 A 
ATOM     70  F   UNL A   1      43.725  28.055  26.287  1.00  0.00    -0.206 F 
ATOM     71  C   UNL A   1      43.249  24.618  25.271  1.00  0.00     0.022 A 
BRANCH  68  72
ATOM     72  S   UNL A   1      42.082  22.380  26.386  1.00  0.00     0.124 S 
ATOM     73  O   UNL A   1      40.627  22.354  26.275  1.00  0.00    -0.237 OA
ATOM     74  O   UNL A   1      42.813  21.881  25.223  1.00  0.00    -0.237 OA
ATOM     75  O   UNL A   1      42.625  21.975  27.678  1.00  0.00    -0.744 OA
ENDBRANCH  68  72
ENDBRANCH  41  65
BRANCH  53  76
ATOM     76  C   UNL A   1      44.910  27.088  33.880  1.00  0.00     0.023 A 
ATOM     77  C   UNL A   1      44.653  25.905  34.603  1.00  0.00     0.031 A 
ATOM     78  C   UNL A   1      46.163  27.704  34.038  1.00  0.00     0.131 A 
ATOM     79  C   UNL A   1      45.620  25.399  35.480  1.00  0.00     0.055 A 
ATOM     80  C   UNL A   1      47.142  27.169  34.877  1.00  0.00     0.041 A 
ATOM     81  F   UNL A   1      46.451  28.841  33.384  1.00  0.00    -0.206 F 
ATOM     82  C   UNL A   1      46.867  26.021  35.614  1.00  0.00     0.022 A 
BRANCH  79  83
ATOM     83  S   UNL A   1      45.263  23.979  36.552  1.00  0.00     0.124 S 
ATOM     84  O   UNL A   1      44.977  24.631  37.828  1.00  0.00    -0.237 OA
ATOM     85  O   UNL A   1      44.111  23.375  35.888  1.00  0.00    -0.237 OA
ATOM     86  O   UNL A   1      46.491  23.193  36.515  1.00  0.00    -0.744 OA
ENDBRANCH  79  83
ENDBRANCH  53  76
ENDBRANCH  27  28
ENDBRANCH  20  22
ENDBRANCH  19  20
ENDBRANCH   1  19
TORSDOF 15
ENDMDL
MODEL 3
REMARK VINA RESULT:     -10.3      3.578      6.191
REMARK SMILES C[C@@H]1Oc2ccccc2N(CC(=O)OCCOC(=O)c2ccc(-c3c4nc(c(-c5cc(S(=O)(=O)[O-])ccc5F)c5ccc([nH]5)c(-c5cc(S(=O)(=O)[O-])ccc5F)c5nc(c(-c6cc(S(=O)(=O)[O-])ccc6F)c6ccc3[nH]6)C=C5)C=C4)cc2)C1=O
REMARK SMILES IDX 16 1 15 2 14 3 12 4 13 5 11 6 10 7 1 8 2 9 3 10 83 11 4 12
REMARK SMILES IDX 84 13 5 14 9 15 6 16 8 17 7 18 17 19 18 20 19 21 20 22 21 23
REMARK SMILES IDX 82 24 22 25 81 26 23 27 24 28 25 29 75 30 26 31 80 32 74 33
REMARK SMILES IDX 76 34 27 35 79 36 73 37 72 38 28 40 60 41 40 42 59 43 41 44
REMARK SMILES IDX 44 45 58 46 77 47 42 48 43 49 57 51 78 52 45 53 29 54 30 55
REMARK SMILES IDX 38 56 31 57 37 58 39 59 36 60 32 61 33 62 34 63 35 64 61 65
REMARK SMILES IDX 62 66 70 67 63 68 69 69 71 70 68 71 64 72 65 73 66 74 67 75
REMARK SMILES IDX 46 76 47 77 55 78 48 79 54 80 56 81 53 82 49 83 50 84 51 85
REMARK SMILES IDX 52 86
REMARK H PARENT 76 39 44 50
REMARK Flexibility Score: inf
ROOT
ATOM      1  C   UNL A   1      31.635  29.878  25.785  1.00  0.00     0.275 C 
ENDROOT
BRANCH   1   2
ATOM      2  C   UNL A   1      31.719  28.537  25.063  1.00  0.00     0.274 C 
BRANCH   2   3
ATOM      3  O   UNL A   1      31.900  27.469  26.015  1.00  0.00    -0.461 OA
BRANCH   3   4
ATOM      4  C   UNL A   1      33.058  26.755  25.932  1.00  0.00     0.326 C 
ATOM      5  O   UNL A   1      34.181  27.248  25.968  1.00  0.00    -0.250 OA
BRANCH   4   6
ATOM      6  C   UNL A   1      32.829  25.244  25.792  1.00  0.00     0.248 C 
BRANCH   6   7
ATOM      7  N   UNL A   1      33.450  24.677  24.599  1.00  0.00    -0.294 N 
ATOM      8  C   UNL A   1      32.340  22.335  22.564  1.00  0.00     0.064 C 
ATOM      9  C   UNL A   1      33.130  23.634  22.394  1.00  0.00     0.259 C 
ATOM     10  O   UNL A   1      34.503  23.317  22.291  1.00  0.00    -0.479 OA
ATOM     11  C   UNL A   1      32.658  24.613  23.465  1.00  0.00     0.268 C 
ATOM     12  C   UNL A   1      35.200  23.406  23.465  1.00  0.00     0.144 A 
ATOM     13  O   UNL A   1      31.573  25.193  23.364  1.00  0.00    -0.270 OA
ATOM     14  C   UNL A   1      36.455  22.786  23.447  1.00  0.00     0.049 A 
ATOM     15  C   UNL A   1      34.741  24.077  24.608  1.00  0.00     0.087 A 
ATOM     16  C   UNL A   1      37.277  22.830  24.567  1.00  0.00     0.004 A 
ATOM     17  C   UNL A   1      35.605  24.151  25.708  1.00  0.00     0.030 A 
ATOM     18  C   UNL A   1      36.858  23.523  25.695  1.00  0.00     0.002 A 
ENDBRANCH   6   7
ENDBRANCH   4   6
ENDBRANCH   3   4
ENDBRANCH   2   3
ENDBRANCH   1   2
BRANCH   1  19
ATOM     19  O   UNL A   1      32.960  30.412  25.927  1.00  0.00    -0.458 OA
BRANCH  19  20
ATOM     20  C   UNL A   1      33.131  31.295  26.936  1.00  0.00     0.338 C 
ATOM     21  O   UNL A   1      32.377  32.183  27.287  1.00  0.00    -0.246 OA
BRANCH  20  22
ATOM     22  C   UNL A   1      34.434  31.031  27.566  1.00  0.00     0.060 A 
ATOM     23  C   UNL A   1      35.311  32.088  27.777  1.00  0.00     0.016 A 
ATOM     24  C   UNL A   1      34.754  29.745  28.006  1.00  0.00     0.016 A 
ATOM     25  C   UNL A   1      36.537  31.840  28.395  1.00  0.00     0.010 A 
ATOM     26  C   UNL A   1      35.932  29.520  28.714  1.00  0.00     0.010 A 
ATOM     27  C   UNL A   1      36.856  30.558  28.881  1.00  0.00    -0.014 A 
BRANCH  27  28
ATOM     28  C   UNL A   1      38.161  30.322  29.551  1.00  0.00     0.031 A 
ATOM     29  C   UNL A   1      38.428  30.860  30.930  1.00  0.00     0.074 A 
ATOM     30  C   UNL A   1      39.096  29.584  28.921  1.00  0.00     0.049 A 
ATOM     31  N   UNL A   1      39.419  30.586  31.738  1.00  0.00    -0.248 NA
ATOM     32  C   UNL A   1      37.475  31.845  31.471  1.00  0.00     0.031 C 
ATOM     33  C   UNL A   1      38.983  29.084  27.550  1.00  0.00     0.029 A 
ATOM     34  N   UNL A   1      40.303  29.096  29.355  1.00  0.00    -0.354 N 
ATOM     35  C   UNL A   1      39.197  31.340  32.885  1.00  0.00     0.074 A 
ATOM     36  C   UNL A   1      38.028  32.152  32.636  1.00  0.00     0.031 C 
ATOM     37  C   UNL A   1      40.037  28.300  27.281  1.00  0.00     0.029 A 
ATOM     38  C   UNL A   1      40.912  28.255  28.451  1.00  0.00     0.049 A 
ATOM     39  H   UNL A   1      40.697  29.325  30.228  1.00  0.00     0.167 HD
ATOM     40  C   UNL A   1      39.879  31.324  34.055  1.00  0.00     0.034 A 
ATOM     41  C   UNL A   1      42.022  27.497  28.565  1.00  0.00     0.034 A 
ATOM     42  C   UNL A   1      41.040  30.505  34.287  1.00  0.00     0.049 A 
ATOM     43  C   UNL A   1      42.752  27.472  29.887  1.00  0.00     0.074 A 
ATOM     44  C   UNL A   1      41.784  30.388  35.446  1.00  0.00     0.029 A 
ATOM     45  N   UNL A   1      41.619  29.661  33.351  1.00  0.00    -0.354 N 
ATOM     46  N   UNL A   1      42.459  28.098  31.003  1.00  0.00    -0.248 NA
ATOM     47  C   UNL A   1      43.946  26.622  29.975  1.00  0.00     0.031 C 
ATOM     48  C   UNL A   1      42.842  29.513  35.197  1.00  0.00     0.029 A 
ATOM     49  C   UNL A   1      42.719  29.030  33.904  1.00  0.00     0.049 A 
ATOM     50  H   UNL A   1      41.295  29.531  32.431  1.00  0.00     0.167 HD
ATOM     51  C   UNL A   1      43.409  27.688  31.934  1.00  0.00     0.074 A 
ATOM     52  C   UNL A   1      44.272  26.743  31.256  1.00  0.00     0.031 C 
ATOM     53  C   UNL A   1      43.555  28.064  33.230  1.00  0.00     0.034 A 
BRANCH  40  54
ATOM     54  C   UNL A   1      39.371  32.171  35.195  1.00  0.00     0.023 A 
ATOM     55  C   UNL A   1      39.862  33.475  35.391  1.00  0.00     0.031 A 
ATOM     56  C   UNL A   1      38.498  31.636  36.161  1.00  0.00     0.131 A 
ATOM     57  C   UNL A   1      39.502  34.186  36.543  1.00  0.00     0.055 A 
ATOM     58  C   UNL A   1      38.107  32.366  37.284  1.00  0.00     0.041 A 
ATOM     59  F   UNL A   1      38.003  30.396  36.021  1.00  0.00    -0.206 F 
ATOM     60  C   UNL A   1      38.621  33.643  37.485  1.00  0.00     0.022 A 
BRANCH  57  61
ATOM     61  S   UNL A   1      40.206  35.820  36.897  1.00  0.00     0.124 S 
ATOM     62  O   UNL A   1      39.650  36.108  38.217  1.00  0.00    -0.237 OA
ATOM     63  O   UNL A   1      41.640  35.544  36.871  1.00  0.00    -0.237 OA
ATOM     64  O   UNL A   1      39.704  36.660  35.816  1.00  0.00    -0.744 OA
ENDBRANCH  57  61
ENDBRANCH  40  54
BRANCH  41  65
ATOM     65  C   UNL A   1      42.421  26.608  27.433  1.00  0.00     0.023 A 
ATOM     66  C   UNL A   1      41.946  25.288  27.338  1.00  0.00     0.031 A 
ATOM     67  C   UNL A   1      43.365  27.039  26.484  1.00  0.00     0.131 A 
ATOM     68  C   UNL A   1      42.457  24.432  26.353  1.00  0.00     0.055 A 
ATOM     69  C   UNL A   1      43.820  26.204  25.463  1.00  0.00     0.041 A 
ATOM     70  F   UNL A   1      43.865  28.283  26.545  1.00  0.00    -0.206 F 
ATOM     71  C   UNL A   1      43.377  24.888  25.404  1.00  0.00     0.022 A 
BRANCH  68  72
ATOM     72  S   UNL A   1      42.042  22.665  26.350  1.00  0.00     0.124 S 
ATOM     73  O   UNL A   1      40.584  22.695  26.377  1.00  0.00    -0.237 OA
ATOM     74  O   UNL A   1      42.641  22.221  25.093  1.00  0.00    -0.237 OA
ATOM     75  O   UNL A   1      42.688  22.158  27.555  1.00  0.00    -0.744 OA
ENDBRANCH  68  72
ENDBRANCH  41  65
BRANCH  53  76
ATOM     76  C   UNL A   1      44.674  27.456  34.041  1.00  0.00     0.023 A 
ATOM     77  C   UNL A   1      44.436  26.293  34.800  1.00  0.00     0.031 A 
ATOM     78  C   UNL A   1      45.909  28.107  34.192  1.00  0.00     0.131 A 
ATOM     79  C   UNL A   1      45.405  25.839  35.704  1.00  0.00     0.055 A 
ATOM     80  C   UNL A   1      46.891  27.624  35.059  1.00  0.00     0.041 A 
ATOM     81  F   UNL A   1      46.178  29.228  33.503  1.00  0.00    -0.206 F 
ATOM     82  C   UNL A   1      46.634  26.495  35.831  1.00  0.00     0.022 A 
BRANCH  79  83
ATOM     83  S   UNL A   1      45.068  24.448  36.819  1.00  0.00     0.124 S 
ATOM     84  O   UNL A   1      44.336  25.101  37.902  1.00  0.00    -0.237 OA
ATOM     85  O   UNL A   1      44.273  23.561  35.974  1.00  0.00    -0.237 OA
ATOM     86  O   UNL A   1      46.394  23.953  37.174  1.00  0.00    -0.744 OA
ENDBRANCH  79  83
ENDBRANCH  53  76
ENDBRANCH  27  28
ENDBRANCH  20  22
ENDBRANCH  19  20
ENDBRANCH   1  19
TORSDOF 15
ENDMDL
