MODEL 1
REMARK VINA RESULT:     -10.7      0.000      0.000
REMARK SMILES O=C(N[C@@H](Cc1c[nH]c2ccccc12)C(=O)N[C@@H](CS)C(=O)N[C@@H](CO)C(=O)OCCOC(=O)c1ccc(-c2c3nc(c(-c4cc(S(=O)(=O)[O-])ccc4F)c4ccc([nH]4)c(-c4cc(S(=O)(=O)[O-])ccc4F)c4nc(c(-c5cc(S(=O)(=O)[O-])ccc5F)c5ccc2[nH]5)C=C4)C=C3)cc1)c1ccc(F)cc1
REMARK SMILES IDX 29 1 27 2 28 3 24 4 23 5 21 6 22 7 18 9 17 10 15 11 16 12
REMARK SMILES IDX 4 14 3 15 1 16 2 17 98 19 99 20 104 21 100 22 103 23 101 24
REMARK SMILES IDX 102 25 5 26 6 27 7 28 14 29 8 30 9 31 13 32 10 34 12 35
REMARK SMILES IDX 11 36 19 37 20 38 25 40 26 41 30 43 31 44 32 45 33 46 34 47
REMARK SMILES IDX 35 48 36 49 97 50 37 51 96 52 38 53 39 54 40 55 90 56 41 57
REMARK SMILES IDX 95 58 89 59 91 60 42 61 94 62 88 63 87 64 43 66 75 67 55 68
REMARK SMILES IDX 74 69 56 70 59 71 73 72 92 73 57 74 58 75 72 77 93 78 60 79
REMARK SMILES IDX 44 80 45 81 53 82 46 83 52 84 54 85 51 86 47 87 48 88 49 89
REMARK SMILES IDX 50 90 76 91 77 92 85 93 78 94 84 95 86 96 83 97 79 98 80 99
REMARK SMILES IDX 81 100 82 101 61 102 62 103 70 104 63 105 69 106 71 107
REMARK SMILES IDX 68 108 64 109 65 110 66 111 67 112
REMARK H PARENT 23 8 17 13 3 18 8 33 20 39 26 42 91 65 59 76
REMARK Flexibility Score: inf
ROOT
ATOM      1  O   UNL A   1      29.881  31.320  25.110  1.00  0.00    -0.460 OA
ENDROOT
BRANCH   1   2
ATOM      2  C   UNL A   1      29.441  31.756  23.898  1.00  0.00     0.331 C 
ATOM      3  O   UNL A   1      29.238  32.937  23.624  1.00  0.00    -0.250 OA
BRANCH   2   4
ATOM      4  C   UNL A   1      29.137  30.619  22.916  1.00  0.00     0.218 C 
BRANCH   4   5
ATOM      5  N   UNL A   1      29.599  29.258  23.272  1.00  0.00    -0.339 N 
ATOM      6  C   UNL A   1      30.816  28.815  22.796  1.00  0.00     0.244 C 
ATOM      7  O   UNL A   1      31.265  29.258  21.733  1.00  0.00    -0.273 OA
ATOM      8  H   UNL A   1      29.046  28.677  23.841  1.00  0.00     0.164 HD
BRANCH   6   9
ATOM      9  C   UNL A   1      31.658  27.810  23.642  1.00  0.00     0.181 C 
BRANCH   9  10
ATOM     10  N   UNL A   1      32.255  26.913  22.629  1.00  0.00    -0.342 N 
ATOM     11  C   UNL A   1      32.350  25.579  22.436  1.00  0.00     0.243 C 
ATOM     12  O   UNL A   1      32.636  25.220  21.285  1.00  0.00    -0.273 OA
ATOM     13  H   UNL A   1      32.698  27.418  21.909  1.00  0.00     0.164 HD
BRANCH  11  14
ATOM     14  C   UNL A   1      32.025  24.511  23.490  1.00  0.00     0.176 C 
BRANCH  14  15
ATOM     15  N   UNL A   1      30.903  24.864  24.352  1.00  0.00    -0.340 N 
ATOM     16  O   UNL A   1      29.820  25.093  26.316  1.00  0.00    -0.269 OA
ATOM     17  C   UNL A   1      30.810  24.697  25.715  1.00  0.00     0.251 C 
ATOM     18  H   UNL A   1      30.124  25.270  23.908  1.00  0.00     0.164 HD
BRANCH  17  19
ATOM     19  C   UNL A   1      31.895  23.990  26.434  1.00  0.00     0.040 A 
ATOM     20  C   UNL A   1      33.224  24.423  26.339  1.00  0.00     0.017 A 
ATOM     21  C   UNL A   1      31.575  22.837  27.162  1.00  0.00     0.017 A 
ATOM     22  C   UNL A   1      34.240  23.662  26.920  1.00  0.00     0.040 A 
ATOM     23  C   UNL A   1      32.596  22.085  27.748  1.00  0.00     0.040 A 
ATOM     24  C   UNL A   1      33.919  22.496  27.610  1.00  0.00     0.123 A 
ATOM     25  F   UNL A   1      34.900  21.751  28.137  1.00  0.00    -0.207 F 
ENDBRANCH  17  19
ENDBRANCH  14  15
BRANCH  14  26
ATOM     26  C   UNL A   1      31.977  23.090  22.917  1.00  0.00     0.072 C 
BRANCH  26  27
ATOM     27  C   UNL A   1      32.843  22.078  23.591  1.00  0.00    -0.020 A 
ATOM     28  C   UNL A   1      32.420  20.887  24.149  1.00  0.00     0.087 A 
ATOM     29  C   UNL A   1      34.257  22.157  23.804  1.00  0.00     0.003 A 
ATOM     30  N   UNL A   1      33.508  20.246  24.675  1.00  0.00    -0.361 N 
ATOM     31  C   UNL A   1      34.647  20.987  24.455  1.00  0.00     0.046 A 
ATOM     32  C   UNL A   1      35.248  23.102  23.464  1.00  0.00     0.010 A 
ATOM     33  H   UNL A   1      33.480  19.380  25.142  1.00  0.00     0.166 HD
ATOM     34  C   UNL A   1      35.980  20.711  24.778  1.00  0.00     0.026 A 
ATOM     35  C   UNL A   1      36.587  22.838  23.773  1.00  0.00     0.001 A 
ATOM     36  C   UNL A   1      36.945  21.658  24.420  1.00  0.00     0.002 A 
ENDBRANCH  26  27
ENDBRANCH  14  26
ENDBRANCH  11  14
ENDBRANCH   9  10
BRANCH   9  37
ATOM     37  C   UNL A   1      32.697  28.557  24.482  1.00  0.00     0.101 C 
BRANCH  37  38
ATOM     38  S   UNL A   1      34.119  27.519  24.972  1.00  0.00    -0.177 SA
ATOM     39  H   UNL A   1      34.010  26.296  24.387  1.00  0.00     0.102 HD
ENDBRANCH  37  38
ENDBRANCH   9  37
ENDBRANCH   6   9
ENDBRANCH   4   5
BRANCH   4  40
ATOM     40  C   UNL A   1      27.632  30.736  22.594  1.00  0.00     0.193 C 
BRANCH  40  41
ATOM     41  O   UNL A   1      26.849  30.801  23.787  1.00  0.00    -0.394 OA
ATOM     42  H   UNL A   1      27.094  30.069  24.374  1.00  0.00     0.210 HD
ENDBRANCH  40  41
ENDBRANCH   4  40
ENDBRANCH   2   4
ENDBRANCH   1   2
BRANCH   1  43
ATOM     43  C   UNL A   1      31.260  31.635  25.388  1.00  0.00     0.274 C 
BRANCH  43  44
ATOM     44  C   UNL A   1      31.556  31.482  26.877  1.00  0.00     0.275 C 
BRANCH  44  45
ATOM     45  O   UNL A   1      32.907  31.021  27.059  1.00  0.00    -0.458 OA
BRANCH  45  46
ATOM     46  C   UNL A   1      33.729  31.934  27.620  1.00  0.00     0.338 C 
ATOM     47  O   UNL A   1      33.436  33.052  28.026  1.00  0.00    -0.246 OA
BRANCH  46  48
ATOM     48  C   UNL A   1      35.065  31.369  27.824  1.00  0.00     0.060 A 
ATOM     49  C   UNL A   1      35.176  29.990  27.963  1.00  0.00     0.016 A 
ATOM     50  C   UNL A   1      36.134  32.201  28.150  1.00  0.00     0.016 A 
ATOM     51  C   UNL A   1      36.316  29.460  28.571  1.00  0.00     0.010 A 
ATOM     52  C   UNL A   1      37.306  31.642  28.683  1.00  0.00     0.010 A 
ATOM     53  C   UNL A   1      37.385  30.270  28.990  1.00  0.00    -0.014 A 
BRANCH  53  54
ATOM     54  C   UNL A   1      38.485  29.739  29.874  1.00  0.00     0.031 A 
ATOM     55  C   UNL A   1      38.469  30.051  31.362  1.00  0.00     0.074 A 
ATOM     56  C   UNL A   1      39.468  28.923  29.434  1.00  0.00     0.049 A 
ATOM     57  N   UNL A   1      39.453  30.039  32.226  1.00  0.00    -0.248 NA
ATOM     58  C   UNL A   1      37.183  30.474  31.933  1.00  0.00     0.031 C 
ATOM     59  C   UNL A   1      39.623  28.414  28.073  1.00  0.00     0.029 A 
ATOM     60  N   UNL A   1      40.525  28.354  30.112  1.00  0.00    -0.354 N 
ATOM     61  C   UNL A   1      38.930  30.557  33.409  1.00  0.00     0.074 A 
ATOM     62  C   UNL A   1      37.537  30.860  33.150  1.00  0.00     0.031 C 
ATOM     63  C   UNL A   1      40.646  27.548  28.036  1.00  0.00     0.029 A 
ATOM     64  C   UNL A   1      41.323  27.551  29.329  1.00  0.00     0.049 A 
ATOM     65  H   UNL A   1      40.694  28.507  31.070  1.00  0.00     0.167 HD
ATOM     66  C   UNL A   1      39.557  30.775  34.592  1.00  0.00     0.034 A 
ATOM     67  C   UNL A   1      42.499  26.941  29.582  1.00  0.00     0.034 A 
ATOM     68  C   UNL A   1      40.896  30.324  34.892  1.00  0.00     0.049 A 
ATOM     69  C   UNL A   1      43.172  27.151  30.914  1.00  0.00     0.074 A 
ATOM     70  C   UNL A   1      41.640  30.515  36.046  1.00  0.00     0.029 A 
ATOM     71  N   UNL A   1      41.665  29.526  34.057  1.00  0.00    -0.354 N 
ATOM     72  N   UNL A   1      42.770  27.864  31.940  1.00  0.00    -0.248 NA
ATOM     73  C   UNL A   1      44.478  26.505  31.107  1.00  0.00     0.031 C 
ATOM     74  C   UNL A   1      42.866  29.856  35.899  1.00  0.00     0.029 A 
ATOM     75  C   UNL A   1      42.866  29.210  34.674  1.00  0.00     0.049 A 
ATOM     76  H   UNL A   1      41.398  29.228  33.158  1.00  0.00     0.167 HD
ATOM     77  C   UNL A   1      43.779  27.758  32.893  1.00  0.00     0.074 A 
ATOM     78  C   UNL A   1      44.790  26.883  32.338  1.00  0.00     0.031 C 
ATOM     79  C   UNL A   1      43.873  28.347  34.111  1.00  0.00     0.034 A 
BRANCH  66  80
ATOM     80  C   UNL A   1      38.840  31.607  35.627  1.00  0.00     0.023 A 
ATOM     81  C   UNL A   1      38.281  31.064  36.794  1.00  0.00     0.031 A 
ATOM     82  C   UNL A   1      38.720  32.997  35.423  1.00  0.00     0.131 A 
ATOM     83  C   UNL A   1      37.583  31.896  37.685  1.00  0.00     0.055 A 
ATOM     84  C   UNL A   1      38.092  33.829  36.349  1.00  0.00     0.041 A 
ATOM     85  F   UNL A   1      39.215  33.569  34.313  1.00  0.00    -0.206 F 
ATOM     86  C   UNL A   1      37.509  33.279  37.484  1.00  0.00     0.022 A 
BRANCH  83  87
ATOM     87  S   UNL A   1      36.673  31.137  39.059  1.00  0.00     0.124 S 
ATOM     88  O   UNL A   1      35.495  31.998  39.149  1.00  0.00    -0.237 OA
ATOM     89  O   UNL A   1      36.437  29.783  38.576  1.00  0.00    -0.237 OA
ATOM     90  O   UNL A   1      37.599  31.245  40.185  1.00  0.00    -0.744 OA
ENDBRANCH  83  87
ENDBRANCH  66  80
BRANCH  67  91
ATOM     91  C   UNL A   1      43.193  26.167  28.510  1.00  0.00     0.023 A 
ATOM     92  C   UNL A   1      44.145  26.770  27.673  1.00  0.00     0.031 A 
ATOM     93  C   UNL A   1      42.869  24.818  28.274  1.00  0.00     0.131 A 
ATOM     94  C   UNL A   1      44.712  26.036  26.618  1.00  0.00     0.055 A 
ATOM     95  C   UNL A   1      43.483  24.075  27.266  1.00  0.00     0.041 A 
ATOM     96  F   UNL A   1      41.955  24.196  29.036  1.00  0.00    -0.206 F 
ATOM     97  C   UNL A   1      44.402  24.688  26.423  1.00  0.00     0.022 A 
BRANCH  94  98
ATOM     98  S   UNL A   1      45.789  26.894  25.438  1.00  0.00     0.124 S 
ATOM     99  O   UNL A   1      46.882  27.332  26.298  1.00  0.00    -0.237 OA
ATOM    100  O   UNL A   1      46.106  25.833  24.488  1.00  0.00    -0.237 OA
ATOM    101  O   UNL A   1      44.939  27.962  24.915  1.00  0.00    -0.744 OA
ENDBRANCH  94  98
ENDBRANCH  67  91
BRANCH  79 102
ATOM    102  C   UNL A   1      45.097  28.029  34.930  1.00  0.00     0.023 A 
ATOM    103  C   UNL A   1      45.121  26.944  35.824  1.00  0.00     0.031 A 
ATOM    104  C   UNL A   1      46.238  28.844  34.841  1.00  0.00     0.131 A 
ATOM    105  C   UNL A   1      46.246  26.735  36.637  1.00  0.00     0.055 A 
ATOM    106  C   UNL A   1      47.370  28.606  35.621  1.00  0.00     0.041 A 
ATOM    107  F   UNL A   1      46.266  29.893  34.003  1.00  0.00    -0.206 F 
ATOM    108  C   UNL A   1      47.373  27.554  36.535  1.00  0.00     0.022 A 
BRANCH 105 109
ATOM    109  S   UNL A   1      46.182  25.430  37.896  1.00  0.00     0.124 S 
ATOM    110  O   UNL A   1      47.009  25.989  38.960  1.00  0.00    -0.237 OA
ATOM    111  O   UNL A   1      44.753  25.341  38.179  1.00  0.00    -0.237 OA
ATOM    112  O   UNL A   1      46.751  24.268  37.216  1.00  0.00    -0.744 OA
ENDBRANCH 105 109
ENDBRANCH  79 102
ENDBRANCH  53  54
ENDBRANCH  46  48
ENDBRANCH  45  46
ENDBRANCH  44  45
ENDBRANCH  43  44
ENDBRANCH   1  43
TORSDOF 26
ENDMDL
MODEL 2
REMARK VINA RESULT:     -10.7      2.266      3.500
REMARK SMILES O=C(N[C@@H](Cc1c[nH]c2ccccc12)C(=O)N[C@@H](CS)C(=O)N[C@@H](CO)C(=O)OCCOC(=O)c1ccc(-c2c3nc(c(-c4cc(S(=O)(=O)[O-])ccc4F)c4ccc([nH]4)c(-c4cc(S(=O)(=O)[O-])ccc4F)c4nc(c(-c5cc(S(=O)(=O)[O-])ccc5F)c5ccc2[nH]5)C=C4)C=C3)cc1)c1ccc(F)cc1
REMARK SMILES IDX 29 1 27 2 28 3 24 4 23 5 21 6 22 7 18 9 17 10 15 11 16 12
REMARK SMILES IDX 4 14 3 15 1 16 2 17 98 19 99 20 104 21 100 22 103 23 101 24
REMARK SMILES IDX 102 25 5 26 6 27 7 28 14 29 8 30 9 31 13 32 10 34 12 35
REMARK SMILES IDX 11 36 19 37 20 38 25 40 26 41 30 43 31 44 32 45 33 46 34 47
REMARK SMILES IDX 35 48 36 49 97 50 37 51 96 52 38 53 39 54 40 55 90 56 41 57
REMARK SMILES IDX 95 58 89 59 91 60 42 61 94 62 88 63 87 64 43 66 75 67 55 68
REMARK SMILES IDX 74 69 56 70 59 71 73 72 92 73 57 74 58 75 72 77 93 78 60 79
REMARK SMILES IDX 44 80 45 81 53 82 46 83 52 84 54 85 51 86 47 87 48 88 49 89
REMARK SMILES IDX 50 90 76 91 77 92 85 93 78 94 84 95 86 96 83 97 79 98 80 99
REMARK SMILES IDX 81 100 82 101 61 102 62 103 70 104 63 105 69 106 71 107
REMARK SMILES IDX 68 108 64 109 65 110 66 111 67 112
REMARK H PARENT 23 8 17 13 3 18 8 33 20 39 26 42 91 65 59 76
REMARK Flexibility Score: inf
ROOT
ATOM      1  O   UNL A   1      32.353  30.739  27.070  1.00  0.00    -0.460 OA
ENDROOT
BRANCH   1   2
ATOM      2  C   UNL A   1      32.825  29.772  26.236  1.00  0.00     0.331 C 
ATOM      3  O   UNL A   1      32.632  29.756  25.023  1.00  0.00    -0.250 OA
BRANCH   2   4
ATOM      4  C   UNL A   1      33.560  28.644  26.968  1.00  0.00     0.218 C 
BRANCH   4   5
ATOM      5  N   UNL A   1      33.678  27.338  26.281  1.00  0.00    -0.339 N 
ATOM      6  C   UNL A   1      32.583  26.502  26.232  1.00  0.00     0.244 C 
ATOM      7  O   UNL A   1      31.727  26.548  27.122  1.00  0.00    -0.273 OA
ATOM      8  H   UNL A   1      34.528  27.070  25.864  1.00  0.00     0.164 HD
BRANCH   6   9
ATOM      9  C   UNL A   1      32.389  25.551  25.009  1.00  0.00     0.181 C 
BRANCH   9  10
ATOM     10  N   UNL A   1      31.205  24.745  25.376  1.00  0.00    -0.342 N 
ATOM     11  C   UNL A   1      30.978  23.532  25.926  1.00  0.00     0.243 C 
ATOM     12  O   UNL A   1      29.842  23.353  26.387  1.00  0.00    -0.273 OA
ATOM     13  H   UNL A   1      30.365  25.212  25.165  1.00  0.00     0.164 HD
BRANCH  11  14
ATOM     14  C   UNL A   1      32.039  22.437  26.112  1.00  0.00     0.176 C 
BRANCH  14  15
ATOM     15  N   UNL A   1      32.834  22.595  27.324  1.00  0.00    -0.340 N 
ATOM     16  O   UNL A   1      34.721  22.949  28.505  1.00  0.00    -0.269 OA
ATOM     17  C   UNL A   1      34.195  22.777  27.413  1.00  0.00     0.251 C 
ATOM     18  H   UNL A   1      32.341  22.569  28.175  1.00  0.00     0.164 HD
BRANCH  17  19
ATOM     19  C   UNL A   1      35.018  22.713  26.183  1.00  0.00     0.040 A 
ATOM     20  C   UNL A   1      35.333  23.875  25.466  1.00  0.00     0.017 A 
ATOM     21  C   UNL A   1      35.420  21.457  25.711  1.00  0.00     0.017 A 
ATOM     22  C   UNL A   1      35.997  23.771  24.242  1.00  0.00     0.040 A 
ATOM     23  C   UNL A   1      36.091  21.361  24.490  1.00  0.00     0.040 A 
ATOM     24  C   UNL A   1      36.361  22.516  23.760  1.00  0.00     0.123 A 
ATOM     25  F   UNL A   1      36.967  22.418  22.570  1.00  0.00    -0.207 F 
ENDBRANCH  17  19
ENDBRANCH  14  15
BRANCH  14  26
ATOM     26  C   UNL A   1      31.497  21.023  25.875  1.00  0.00     0.072 C 
BRANCH  26  27
ATOM     27  C   UNL A   1      32.093  20.272  24.730  1.00  0.00    -0.020 A 
ATOM     28  C   UNL A   1      32.267  20.750  23.446  1.00  0.00     0.087 A 
ATOM     29  C   UNL A   1      32.571  18.922  24.740  1.00  0.00     0.003 A 
ATOM     30  N   UNL A   1      32.834  19.761  22.691  1.00  0.00    -0.361 N 
ATOM     31  C   UNL A   1      33.055  18.643  23.461  1.00  0.00     0.046 A 
ATOM     32  C   UNL A   1      32.674  17.926  25.733  1.00  0.00     0.010 A 
ATOM     33  H   UNL A   1      33.054  19.838  21.734  1.00  0.00     0.166 HD
ATOM     34  C   UNL A   1      33.643  17.417  23.129  1.00  0.00     0.026 A 
ATOM     35  C   UNL A   1      33.266  16.698  25.418  1.00  0.00     0.001 A 
ATOM     36  C   UNL A   1      33.743  16.450  24.134  1.00  0.00     0.002 A 
ENDBRANCH  26  27
ENDBRANCH  14  26
ENDBRANCH  11  14
ENDBRANCH   9  10
BRANCH   9  37
ATOM     37  C   UNL A   1      32.198  26.364  23.725  1.00  0.00     0.101 C 
BRANCH  37  38
ATOM     38  S   UNL A   1      33.326  25.867  22.376  1.00  0.00    -0.177 SA
ATOM     39  H   UNL A   1      34.595  25.772  22.858  1.00  0.00     0.102 HD
ENDBRANCH  37  38
ENDBRANCH   9  37
ENDBRANCH   6   9
ENDBRANCH   4   5
BRANCH   4  40
ATOM     40  C   UNL A   1      34.894  29.256  27.446  1.00  0.00     0.193 C 
BRANCH  40  41
ATOM     41  O   UNL A   1      34.674  30.347  28.341  1.00  0.00    -0.394 OA
ATOM     42  H   UNL A   1      34.642  31.176  27.839  1.00  0.00     0.210 HD
ENDBRANCH  40  41
ENDBRANCH   4  40
ENDBRANCH   2   4
ENDBRANCH   1   2
BRANCH   1  43
ATOM     43  C   UNL A   1      31.539  31.736  26.420  1.00  0.00     0.274 C 
BRANCH  43  44
ATOM     44  C   UNL A   1      31.846  33.124  26.974  1.00  0.00     0.275 C 
BRANCH  44  45
ATOM     45  O   UNL A   1      33.089  33.094  27.698  1.00  0.00    -0.458 OA
BRANCH  45  46
ATOM     46  C   UNL A   1      33.329  34.205  28.426  1.00  0.00     0.338 C 
ATOM     47  O   UNL A   1      32.731  35.275  28.376  1.00  0.00    -0.246 OA
BRANCH  46  48
ATOM     48  C   UNL A   1      34.358  33.950  29.437  1.00  0.00     0.060 A 
ATOM     49  C   UNL A   1      35.670  34.297  29.134  1.00  0.00     0.016 A 
ATOM     50  C   UNL A   1      34.077  33.136  30.532  1.00  0.00     0.016 A 
ATOM     51  C   UNL A   1      36.711  33.701  29.849  1.00  0.00     0.010 A 
ATOM     52  C   UNL A   1      35.133  32.613  31.293  1.00  0.00     0.010 A 
ATOM     53  C   UNL A   1      36.475  32.811  30.910  1.00  0.00    -0.014 A 
BRANCH  53  54
ATOM     54  C   UNL A   1      37.579  31.972  31.505  1.00  0.00     0.031 A 
ATOM     55  C   UNL A   1      37.957  32.155  32.965  1.00  0.00     0.074 A 
ATOM     56  C   UNL A   1      38.219  30.994  30.827  1.00  0.00     0.049 A 
ATOM     57  N   UNL A   1      39.071  31.847  33.582  1.00  0.00    -0.248 NA
ATOM     58  C   UNL A   1      36.962  32.809  33.827  1.00  0.00     0.031 C 
ATOM     59  C   UNL A   1      37.953  30.579  29.452  1.00  0.00     0.029 A 
ATOM     60  N   UNL A   1      39.229  30.145  31.230  1.00  0.00    -0.354 N 
ATOM     61  C   UNL A   1      38.953  32.371  34.868  1.00  0.00     0.074 A 
ATOM     62  C   UNL A   1      37.651  33.002  34.942  1.00  0.00     0.031 C 
ATOM     63  C   UNL A   1      38.706  29.509  29.157  1.00  0.00     0.029 A 
ATOM     64  C   UNL A   1      39.624  29.250  30.261  1.00  0.00     0.049 A 
ATOM     65  H   UNL A   1      39.630  30.175  32.128  1.00  0.00     0.167 HD
ATOM     66  C   UNL A   1      39.852  32.341  35.883  1.00  0.00     0.034 A 
ATOM     67  C   UNL A   1      40.645  28.370  30.221  1.00  0.00     0.034 A 
ATOM     68  C   UNL A   1      41.076  31.574  35.857  1.00  0.00     0.049 A 
ATOM     69  C   UNL A   1      41.618  28.309  31.371  1.00  0.00     0.074 A 
ATOM     70  C   UNL A   1      42.073  31.495  36.816  1.00  0.00     0.029 A 
ATOM     71  N   UNL A   1      41.434  30.695  34.845  1.00  0.00    -0.354 N 
ATOM     72  N   UNL A   1      41.628  29.007  32.482  1.00  0.00    -0.248 NA
ATOM     73  C   UNL A   1      42.741  27.370  31.241  1.00  0.00     0.031 C 
ATOM     74  C   UNL A   1      43.044  30.589  36.374  1.00  0.00     0.029 A 
ATOM     75  C   UNL A   1      42.628  30.063  35.162  1.00  0.00     0.049 A 
ATOM     76  H   UNL A   1      40.917  30.541  34.021  1.00  0.00     0.167 HD
ATOM     77  C   UNL A   1      42.762  28.596  33.177  1.00  0.00     0.074 A 
ATOM     78  C   UNL A   1      43.390  27.563  32.380  1.00  0.00     0.031 C 
ATOM     79  C   UNL A   1      43.253  29.045  34.358  1.00  0.00     0.034 A 
BRANCH  66  80
ATOM     80  C   UNL A   1      39.595  33.225  37.079  1.00  0.00     0.023 A 
ATOM     81  C   UNL A   1      39.090  32.740  38.296  1.00  0.00     0.031 A 
ATOM     82  C   UNL A   1      39.870  34.604  36.981  1.00  0.00     0.131 A 
ATOM     83  C   UNL A   1      38.828  33.635  39.347  1.00  0.00     0.055 A 
ATOM     84  C   UNL A   1      39.678  35.475  38.053  1.00  0.00     0.041 A 
ATOM     85  F   UNL A   1      40.332  35.128  35.834  1.00  0.00    -0.206 F 
ATOM     86  C   UNL A   1      39.145  34.994  39.243  1.00  0.00     0.022 A 
BRANCH  83  87
ATOM     87  S   UNL A   1      37.962  33.023  40.819  1.00  0.00     0.124 S 
ATOM     88  O   UNL A   1      37.193  34.199  41.223  1.00  0.00    -0.237 OA
ATOM     89  O   UNL A   1      37.187  31.906  40.293  1.00  0.00    -0.237 OA
ATOM     90  O   UNL A   1      39.046  32.657  41.728  1.00  0.00    -0.744 OA
ENDBRANCH  83  87
ENDBRANCH  66  80
BRANCH  67  91
ATOM     91  C   UNL A   1      40.887  27.551  28.996  1.00  0.00     0.023 A 
ATOM     92  C   UNL A   1      41.865  27.913  28.056  1.00  0.00     0.031 A 
ATOM     93  C   UNL A   1      40.099  26.417  28.723  1.00  0.00     0.131 A 
ATOM     94  C   UNL A   1      42.003  27.170  26.872  1.00  0.00     0.055 A 
ATOM     95  C   UNL A   1      40.286  25.644  27.578  1.00  0.00     0.041 A 
ATOM     96  F   UNL A   1      39.140  26.033  29.582  1.00  0.00    -0.206 F 
ATOM     97  C   UNL A   1      41.234  26.027  26.638  1.00  0.00     0.022 A 
BRANCH  94  98
ATOM     98  S   UNL A   1      43.137  27.774  25.591  1.00  0.00     0.124 S 
ATOM     99  O   UNL A   1      42.215  28.385  24.641  1.00  0.00    -0.237 OA
ATOM    100  O   UNL A   1      43.986  28.691  26.344  1.00  0.00    -0.237 OA
ATOM    101  O   UNL A   1      43.800  26.558  25.124  1.00  0.00    -0.744 OA
ENDBRANCH  94  98
ENDBRANCH  67  91
BRANCH  79 102
ATOM    102  C   UNL A   1      44.511  28.390  34.867  1.00  0.00     0.023 A 
ATOM    103  C   UNL A   1      44.468  27.208  35.627  1.00  0.00     0.031 A 
ATOM    104  C   UNL A   1      45.763  28.977  34.619  1.00  0.00     0.131 A 
ATOM    105  C   UNL A   1      45.653  26.679  36.162  1.00  0.00     0.055 A 
ATOM    106  C   UNL A   1      46.943  28.422  35.117  1.00  0.00     0.041 A 
ATOM    107  F   UNL A   1      45.859  30.106  33.899  1.00  0.00    -0.206 F 
ATOM    108  C   UNL A   1      46.890  27.274  35.905  1.00  0.00     0.022 A 
BRANCH 105 109
ATOM    109  S   UNL A   1      45.547  25.249  37.275  1.00  0.00     0.124 S 
ATOM    110  O   UNL A   1      44.620  25.724  38.297  1.00  0.00    -0.237 OA
ATOM    111  O   UNL A   1      45.040  24.204  36.391  1.00  0.00    -0.237 OA
ATOM    112  O   UNL A   1      46.924  25.063  37.726  1.00  0.00    -0.744 OA
ENDBRANCH 105 109
ENDBRANCH  79 102
ENDBRANCH  53  54
ENDBRANCH  46  48
ENDBRANCH  45  46
ENDBRANCH  44  45
ENDBRANCH  43  44
ENDBRANCH   1  43
TORSDOF 26
ENDMDL
MODEL 3
REMARK VINA RESULT:     -10.6      2.502      3.324
REMARK SMILES O=C(N[C@@H](Cc1c[nH]c2ccccc12)C(=O)N[C@@H](CS)C(=O)N[C@@H](CO)C(=O)OCCOC(=O)c1ccc(-c2c3nc(c(-c4cc(S(=O)(=O)[O-])ccc4F)c4ccc([nH]4)c(-c4cc(S(=O)(=O)[O-])ccc4F)c4nc(c(-c5cc(S(=O)(=O)[O-])ccc5F)c5ccc2[nH]5)C=C4)C=C3)cc1)c1ccc(F)cc1
REMARK SMILES IDX 29 1 27 2 28 3 24 4 23 5 21 6 22 7 18 9 17 10 15 11 16 12
REMARK SMILES IDX 4 14 3 15 1 16 2 17 98 19 99 20 104 21 100 22 103 23 101 24
REMARK SMILES IDX 102 25 5 26 6 27 7 28 14 29 8 30 9 31 13 32 10 34 12 35
REMARK SMILES IDX 11 36 19 37 20 38 25 40 26 41 30 43 31 44 32 45 33 46 34 47
REMARK SMILES IDX 35 48 36 49 97 50 37 51 96 52 38 53 39 54 40 55 90 56 41 57
REMARK SMILES IDX 95 58 89 59 91 60 42 61 94 62 88 63 87 64 43 66 75 67 55 68
REMARK SMILES IDX 74 69 56 70 59 71 73 72 92 73 57 74 58 75 72 77 93 78 60 79
REMARK SMILES IDX 44 80 45 81 53 82 46 83 52 84 54 85 51 86 47 87 48 88 49 89
REMARK SMILES IDX 50 90 76 91 77 92 85 93 78 94 84 95 86 96 83 97 79 98 80 99
REMARK SMILES IDX 81 100 82 101 61 102 62 103 70 104 63 105 69 106 71 107
REMARK SMILES IDX 68 108 64 109 65 110 66 111 67 112
REMARK H PARENT 23 8 17 13 3 18 8 33 20 39 26 42 91 65 59 76
REMARK Flexibility Score: inf
ROOT
ATOM      1  O   UNL A   1      30.575  29.339  24.768  1.00  0.00    -0.460 OA
ENDROOT
BRANCH   1   2
ATOM      2  C   UNL A   1      30.376  29.017  23.461  1.00  0.00     0.331 C 
ATOM      3  O   UNL A   1      30.482  29.815  22.532  1.00  0.00    -0.250 OA
BRANCH   2   4
ATOM      4  C   UNL A   1      29.920  27.569  23.254  1.00  0.00     0.218 C 
BRANCH   4   5
ATOM      5  N   UNL A   1      30.610  26.511  24.026  1.00  0.00    -0.339 N 
ATOM      6  C   UNL A   1      31.679  25.850  23.457  1.00  0.00     0.244 C 
ATOM      7  O   UNL A   1      31.752  25.732  22.228  1.00  0.00    -0.273 OA
ATOM      8  H   UNL A   1      30.311  26.281  24.935  1.00  0.00     0.164 HD
BRANCH   6   9
ATOM      9  C   UNL A   1      32.833  25.319  24.363  1.00  0.00     0.181 C 
BRANCH   9  10
ATOM     10  N   UNL A   1      33.767  24.686  23.407  1.00  0.00    -0.342 N 
ATOM     11  C   UNL A   1      34.674  23.684  23.442  1.00  0.00     0.243 C 
ATOM     12  O   UNL A   1      35.013  23.227  22.341  1.00  0.00    -0.273 OA
ATOM     13  H   UNL A   1      33.714  25.100  22.516  1.00  0.00     0.164 HD
BRANCH  11  14
ATOM     14  C   UNL A   1      35.206  23.022  24.721  1.00  0.00     0.176 C 
BRANCH  14  15
ATOM     15  N   UNL A   1      34.227  22.964  25.800  1.00  0.00    -0.340 N 
ATOM     16  O   UNL A   1      32.513  22.079  26.966  1.00  0.00    -0.269 OA
ATOM     17  C   UNL A   1      33.232  22.031  25.976  1.00  0.00     0.251 C 
ATOM     18  H   UNL A   1      34.286  23.673  26.479  1.00  0.00     0.164 HD
BRANCH  17  19
ATOM     19  C   UNL A   1      33.009  21.002  24.935  1.00  0.00     0.040 A 
ATOM     20  C   UNL A   1      32.390  21.327  23.720  1.00  0.00     0.017 A 
ATOM     21  C   UNL A   1      33.369  19.678  25.215  1.00  0.00     0.017 A 
ATOM     22  C   UNL A   1      32.074  20.313  22.814  1.00  0.00     0.040 A 
ATOM     23  C   UNL A   1      33.058  18.669  24.299  1.00  0.00     0.040 A 
ATOM     24  C   UNL A   1      32.402  18.993  23.115  1.00  0.00     0.123 A 
ATOM     25  F   UNL A   1      32.067  18.020  22.258  1.00  0.00    -0.207 F 
ENDBRANCH  17  19
ENDBRANCH  14  15
BRANCH  14  26
ATOM     26  C   UNL A   1      35.955  21.711  24.456  1.00  0.00     0.072 C 
BRANCH  26  27
ATOM     27  C   UNL A   1      37.293  21.573  25.105  1.00  0.00    -0.020 A 
ATOM     28  C   UNL A   1      38.071  20.432  25.129  1.00  0.00     0.087 A 
ATOM     29  C   UNL A   1      38.004  22.577  25.836  1.00  0.00     0.003 A 
ATOM     30  N   UNL A   1      39.216  20.705  25.826  1.00  0.00    -0.361 N 
ATOM     31  C   UNL A   1      39.213  22.015  26.248  1.00  0.00     0.046 A 
ATOM     32  C   UNL A   1      37.747  23.928  26.151  1.00  0.00     0.010 A 
ATOM     33  H   UNL A   1      39.937  20.058  26.001  1.00  0.00     0.166 HD
ATOM     34  C   UNL A   1      40.181  22.740  26.953  1.00  0.00     0.026 A 
ATOM     35  C   UNL A   1      38.708  24.668  26.848  1.00  0.00     0.001 A 
ATOM     36  C   UNL A   1      39.907  24.080  27.241  1.00  0.00     0.002 A 
ENDBRANCH  26  27
ENDBRANCH  14  26
ENDBRANCH  11  14
ENDBRANCH   9  10
BRANCH   9  37
ATOM     37  C   UNL A   1      33.461  26.468  25.157  1.00  0.00     0.101 C 
BRANCH  37  38
ATOM     38  S   UNL A   1      32.600  26.821  26.729  1.00  0.00    -0.177 SA
ATOM     39  H   UNL A   1      31.447  26.101  26.788  1.00  0.00     0.102 HD
ENDBRANCH  37  38
ENDBRANCH   9  37
ENDBRANCH   6   9
ENDBRANCH   4   5
BRANCH   4  40
ATOM     40  C   UNL A   1      28.384  27.590  23.400  1.00  0.00     0.193 C 
BRANCH  40  41
ATOM     41  O   UNL A   1      27.880  26.306  23.770  1.00  0.00    -0.394 OA
ATOM     42  H   UNL A   1      27.178  26.044  23.153  1.00  0.00     0.210 HD
ENDBRANCH  40  41
ENDBRANCH   4  40
ENDBRANCH   2   4
ENDBRANCH   1   2
BRANCH   1  43
ATOM     43  C   UNL A   1      31.866  29.918  25.046  1.00  0.00     0.274 C 
BRANCH  43  44
ATOM     44  C   UNL A   1      31.782  30.871  26.235  1.00  0.00     0.275 C 
BRANCH  44  45
ATOM     45  O   UNL A   1      32.825  30.565  27.177  1.00  0.00    -0.458 OA
BRANCH  45  46
ATOM     46  C   UNL A   1      33.567  31.632  27.542  1.00  0.00     0.338 C 
ATOM     47  O   UNL A   1      33.167  32.737  27.890  1.00  0.00    -0.246 OA
BRANCH  46  48
ATOM     48  C   UNL A   1      34.987  31.276  27.608  1.00  0.00     0.060 A 
ATOM     49  C   UNL A   1      35.327  29.932  27.508  1.00  0.00     0.016 A 
ATOM     50  C   UNL A   1      35.924  32.212  28.039  1.00  0.00     0.016 A 
ATOM     51  C   UNL A   1      36.570  29.509  27.984  1.00  0.00     0.010 A 
ATOM     52  C   UNL A   1      37.199  31.781  28.435  1.00  0.00     0.010 A 
ATOM     53  C   UNL A   1      37.517  30.410  28.502  1.00  0.00    -0.014 A 
BRANCH  53  54
ATOM     54  C   UNL A   1      38.737  29.935  29.251  1.00  0.00     0.031 A 
ATOM     55  C   UNL A   1      38.887  30.265  30.727  1.00  0.00     0.074 A 
ATOM     56  C   UNL A   1      39.695  29.157  28.700  1.00  0.00     0.049 A 
ATOM     57  N   UNL A   1      39.967  30.304  31.466  1.00  0.00    -0.248 NA
ATOM     58  C   UNL A   1      37.661  30.639  31.447  1.00  0.00     0.031 C 
ATOM     59  C   UNL A   1      39.707  28.639  27.334  1.00  0.00     0.029 A 
ATOM     60  N   UNL A   1      40.849  28.641  29.250  1.00  0.00    -0.354 N 
ATOM     61  C   UNL A   1      39.568  30.813  32.700  1.00  0.00     0.074 A 
ATOM     62  C   UNL A   1      38.143  31.054  32.610  1.00  0.00     0.031 C 
ATOM     63  C   UNL A   1      40.754  27.816  27.180  1.00  0.00     0.029 A 
ATOM     64  C   UNL A   1      41.580  27.863  28.382  1.00  0.00     0.049 A 
ATOM     65  H   UNL A   1      41.125  28.812  30.179  1.00  0.00     0.167 HD
ATOM     66  C   UNL A   1      40.323  31.071  33.798  1.00  0.00     0.034 A 
ATOM     67  C   UNL A   1      42.804  27.306  28.495  1.00  0.00     0.034 A 
ATOM     68  C   UNL A   1      41.707  30.680  33.937  1.00  0.00     0.049 A 
ATOM     69  C   UNL A   1      43.622  27.559  29.735  1.00  0.00     0.074 A 
ATOM     70  C   UNL A   1      42.575  30.916  34.991  1.00  0.00     0.029 A 
ATOM     71  N   UNL A   1      42.403  29.906  33.021  1.00  0.00    -0.354 N 
ATOM     72  N   UNL A   1      43.316  28.267  30.797  1.00  0.00    -0.248 NA
ATOM     73  C   UNL A   1      44.969  26.971  29.773  1.00  0.00     0.031 C 
ATOM     74  C   UNL A   1      43.801  30.308  34.702  1.00  0.00     0.029 A 
ATOM     75  C   UNL A   1      43.683  29.647  33.491  1.00  0.00     0.049 A 
ATOM     76  H   UNL A   1      42.043  29.586  32.162  1.00  0.00     0.167 HD
ATOM     77  C   UNL A   1      44.437  28.214  31.622  1.00  0.00     0.074 A 
ATOM     78  C   UNL A   1      45.410  27.376  30.954  1.00  0.00     0.031 C 
ATOM     79  C   UNL A   1      44.651  28.821  32.815  1.00  0.00     0.034 A 
BRANCH  66  80
ATOM     80  C   UNL A   1      39.701  31.885  34.906  1.00  0.00     0.023 A 
ATOM     81  C   UNL A   1      39.990  33.242  35.116  1.00  0.00     0.031 A 
ATOM     82  C   UNL A   1      38.784  31.262  35.778  1.00  0.00     0.131 A 
ATOM     83  C   UNL A   1      39.409  33.918  36.202  1.00  0.00     0.055 A 
ATOM     84  C   UNL A   1      38.153  31.959  36.808  1.00  0.00     0.041 A 
ATOM     85  F   UNL A   1      38.486  29.961  35.639  1.00  0.00    -0.206 F 
ATOM     86  C   UNL A   1      38.472  33.293  37.032  1.00  0.00     0.022 A 
BRANCH  83  87
ATOM     87  S   UNL A   1      39.976  35.597  36.590  1.00  0.00     0.124 S 
ATOM     88  O   UNL A   1      39.488  36.351  35.436  1.00  0.00    -0.237 OA
ATOM     89  O   UNL A   1      39.311  35.873  37.858  1.00  0.00    -0.237 OA
ATOM     90  O   UNL A   1      41.429  35.461  36.664  1.00  0.00    -0.744 OA
ENDBRANCH  83  87
ENDBRANCH  66  80
BRANCH  67  91
ATOM     91  C   UNL A   1      43.397  26.549  27.352  1.00  0.00     0.023 A 
ATOM     92  C   UNL A   1      43.310  25.150  27.279  1.00  0.00     0.031 A 
ATOM     93  C   UNL A   1      44.110  27.219  26.340  1.00  0.00     0.131 A 
ATOM     94  C   UNL A   1      43.957  24.464  26.237  1.00  0.00     0.055 A 
ATOM     95  C   UNL A   1      44.694  26.538  25.272  1.00  0.00     0.041 A 
ATOM     96  F   UNL A   1      44.235  28.556  26.368  1.00  0.00    -0.206 F 
ATOM     97  C   UNL A   1      44.630  25.151  25.223  1.00  0.00     0.022 A 
BRANCH  94  98
ATOM     98  S   UNL A   1      43.992  22.651  26.276  1.00  0.00     0.124 S 
ATOM     99  O   UNL A   1      43.183  22.314  25.110  1.00  0.00    -0.237 OA
ATOM    100  O   UNL A   1      45.420  22.372  26.169  1.00  0.00    -0.237 OA
ATOM    101  O   UNL A   1      43.391  22.327  27.568  1.00  0.00    -0.744 OA
ENDBRANCH  94  98
ENDBRANCH  67  91
BRANCH  79 102
ATOM    102  C   UNL A   1      45.976  28.565  33.483  1.00  0.00     0.023 A 
ATOM    103  C   UNL A   1      46.152  27.498  34.381  1.00  0.00     0.031 A 
ATOM    104  C   UNL A   1      47.065  29.421  33.245  1.00  0.00     0.131 A 
ATOM    105  C   UNL A   1      47.375  27.345  35.053  1.00  0.00     0.055 A 
ATOM    106  C   UNL A   1      48.292  29.240  33.884  1.00  0.00     0.041 A 
ATOM    107  F   UNL A   1      46.949  30.455  32.397  1.00  0.00    -0.206 F 
ATOM    108  C   UNL A   1      48.448  28.205  34.805  1.00  0.00     0.022 A 
BRANCH 105 109
ATOM    109  S   UNL A   1      47.517  26.061  36.328  1.00  0.00     0.124 S 
ATOM    110  O   UNL A   1      46.321  25.260  36.091  1.00  0.00    -0.237 OA
ATOM    111  O   UNL A   1      48.787  25.427  35.988  1.00  0.00    -0.237 OA
ATOM    112  O   UNL A   1      47.518  26.817  37.578  1.00  0.00    -0.744 OA
ENDBRANCH 105 109
ENDBRANCH  79 102
ENDBRANCH  53  54
ENDBRANCH  46  48
ENDBRANCH  45  46
ENDBRANCH  44  45
ENDBRANCH  43  44
ENDBRANCH   1  43
TORSDOF 26
ENDMDL
