MODEL 1
REMARK VINA RESULT:     -11.7      0.000      0.000
REMARK SMILES O=C(OCCOC(=O)[C@H]1CCCN(C(=O)c2c[nH]c3ccccc23)C1)c1ccc(-c2c3nc(c(-c4cc(S(=O)(=O)[O-])ccc4F)c4ccc([nH]4)c(-c4cc(S(=O)(=O)[O-])ccc4F)c4nc(c(-c5cc(S(=O)(=O)[O-])ccc5F)c5ccc2[nH]5)C=C4)C=C3)cc1
REMARK SMILES IDX 4 1 3 2 2 3 1 4 26 5 27 6 88 7 28 8 87 9 29 10 30 11 31 12
REMARK SMILES IDX 81 13 32 14 86 15 80 16 82 17 33 18 85 19 79 20 78 21 34 23
REMARK SMILES IDX 66 24 46 25 65 26 47 27 50 28 64 29 83 30 48 31 49 32 63 34
REMARK SMILES IDX 84 35 51 36 35 37 36 38 44 39 37 40 43 41 45 42 42 43 38 44
REMARK SMILES IDX 39 45 40 46 41 47 67 48 68 49 76 50 69 51 75 52 77 53 74 54
REMARK SMILES IDX 70 55 71 56 72 57 73 58 52 59 53 60 61 61 54 62 60 63 62 64
REMARK SMILES IDX 59 65 55 66 56 67 57 68 58 69 5 70 6 71 7 72 8 73 9 74 10 75
REMARK SMILES IDX 25 76 11 77 13 78 12 79 14 80 15 81 16 82 17 83 24 84 18 85
REMARK SMILES IDX 19 86 23 87 20 89 22 90 21 91
REMARK H PARENT 82 22 50 33 18 88
REMARK Flexibility Score: inf
ROOT
ATOM      1  C   UNL A   1      34.181  33.285  28.138  1.00  0.00     0.275 C 
ENDROOT
BRANCH   1   2
ATOM      2  O   UNL A   1      33.959  31.878  28.336  1.00  0.00    -0.458 OA
BRANCH   2   3
ATOM      3  C   UNL A   1      34.507  30.927  27.535  1.00  0.00     0.338 C 
ATOM      4  O   UNL A   1      33.875  30.421  26.617  1.00  0.00    -0.246 OA
BRANCH   3   5
ATOM      5  C   UNL A   1      35.759  30.288  28.006  1.00  0.00     0.060 A 
ATOM      6  C   UNL A   1      36.916  30.193  27.228  1.00  0.00     0.016 A 
ATOM      7  C   UNL A   1      35.734  29.712  29.280  1.00  0.00     0.016 A 
ATOM      8  C   UNL A   1      38.077  29.628  27.767  1.00  0.00     0.010 A 
ATOM      9  C   UNL A   1      36.891  29.143  29.815  1.00  0.00     0.010 A 
ATOM     10  C   UNL A   1      38.079  29.120  29.073  1.00  0.00    -0.014 A 
BRANCH  10  11
ATOM     11  C   UNL A   1      39.304  28.511  29.646  1.00  0.00     0.031 A 
ATOM     12  C   UNL A   1      39.937  29.121  30.861  1.00  0.00     0.074 A 
ATOM     13  C   UNL A   1      39.874  27.442  29.060  1.00  0.00     0.049 A 
ATOM     14  N   UNL A   1      40.966  28.706  31.554  1.00  0.00    -0.248 NA
ATOM     15  C   UNL A   1      39.332  30.366  31.354  1.00  0.00     0.031 C 
ATOM     16  C   UNL A   1      39.408  26.801  27.831  1.00  0.00     0.029 A 
ATOM     17  N   UNL A   1      40.996  26.731  29.403  1.00  0.00    -0.354 N 
ATOM     18  C   UNL A   1      41.092  29.602  32.607  1.00  0.00     0.074 A 
ATOM     19  C   UNL A   1      40.106  30.642  32.392  1.00  0.00     0.031 C 
ATOM     20  C   UNL A   1      40.271  25.828  27.492  1.00  0.00     0.029 A 
ATOM     21  C   UNL A   1      41.336  25.764  28.487  1.00  0.00     0.049 A 
ATOM     22  H   UNL A   1      41.509  26.898  30.227  1.00  0.00     0.167 HD
ATOM     23  C   UNL A   1      41.911  29.536  33.685  1.00  0.00     0.034 A 
ATOM     24  C   UNL A   1      42.393  24.929  28.454  1.00  0.00     0.034 A 
ATOM     25  C   UNL A   1      42.937  28.541  33.860  1.00  0.00     0.049 A 
ATOM     26  C   UNL A   1      43.363  24.924  29.605  1.00  0.00     0.074 A 
ATOM     27  C   UNL A   1      43.815  28.370  34.915  1.00  0.00     0.029 A 
ATOM     28  N   UNL A   1      43.244  27.558  32.927  1.00  0.00    -0.354 N 
ATOM     29  N   UNL A   1      43.398  25.703  30.662  1.00  0.00    -0.248 NA
ATOM     30  C   UNL A   1      44.414  23.899  29.578  1.00  0.00     0.031 C 
ATOM     31  C   UNL A   1      44.676  27.307  34.605  1.00  0.00     0.029 A 
ATOM     32  C   UNL A   1      44.306  26.788  33.375  1.00  0.00     0.049 A 
ATOM     33  H   UNL A   1      42.773  27.426  32.072  1.00  0.00     0.167 HD
ATOM     34  C   UNL A   1      44.444  25.230  31.446  1.00  0.00     0.074 A 
ATOM     35  C   UNL A   1      45.024  24.108  30.737  1.00  0.00     0.031 C 
ATOM     36  C   UNL A   1      44.873  25.672  32.657  1.00  0.00     0.034 A 
BRANCH  23  37
ATOM     37  C   UNL A   1      41.682  30.577  34.748  1.00  0.00     0.023 A 
ATOM     38  C   UNL A   1      40.500  30.556  35.513  1.00  0.00     0.031 A 
ATOM     39  C   UNL A   1      42.577  31.640  34.939  1.00  0.00     0.131 A 
ATOM     40  C   UNL A   1      40.196  31.629  36.361  1.00  0.00     0.055 A 
ATOM     41  C   UNL A   1      42.304  32.669  35.844  1.00  0.00     0.041 A 
ATOM     42  F   UNL A   1      43.708  31.719  34.223  1.00  0.00    -0.206 F 
ATOM     43  C   UNL A   1      41.100  32.677  36.548  1.00  0.00     0.022 A 
BRANCH  40  44
ATOM     44  S   UNL A   1      38.538  31.707  37.091  1.00  0.00     0.124 S 
ATOM     45  O   UNL A   1      37.843  32.583  36.151  1.00  0.00    -0.237 OA
ATOM     46  O   UNL A   1      38.123  30.308  37.086  1.00  0.00    -0.237 OA
ATOM     47  O   UNL A   1      38.774  32.283  38.413  1.00  0.00    -0.744 OA
ENDBRANCH  40  44
ENDBRANCH  23  37
BRANCH  24  48
ATOM     48  C   UNL A   1      42.605  24.032  27.287  1.00  0.00     0.023 A 
ATOM     49  C   UNL A   1      42.092  22.725  27.261  1.00  0.00     0.031 A 
ATOM     50  C   UNL A   1      43.383  24.463  26.199  1.00  0.00     0.131 A 
ATOM     51  C   UNL A   1      42.395  21.879  26.182  1.00  0.00     0.055 A 
ATOM     52  C   UNL A   1      43.650  23.632  25.112  1.00  0.00     0.041 A 
ATOM     53  F   UNL A   1      43.915  25.695  26.193  1.00  0.00    -0.206 F 
ATOM     54  C   UNL A   1      43.164  22.326  25.105  1.00  0.00     0.022 A 
BRANCH  51  55
ATOM     55  S   UNL A   1      41.841  20.153  26.246  1.00  0.00     0.124 S 
ATOM     56  O   UNL A   1      42.596  19.552  25.152  1.00  0.00    -0.237 OA
ATOM     57  O   UNL A   1      42.241  19.757  27.593  1.00  0.00    -0.237 OA
ATOM     58  O   UNL A   1      40.399  20.249  26.028  1.00  0.00    -0.744 OA
ENDBRANCH  51  55
ENDBRANCH  24  48
BRANCH  36  59
ATOM     59  C   UNL A   1      45.974  24.881  33.310  1.00  0.00     0.023 A 
ATOM     60  C   UNL A   1      45.709  23.744  34.092  1.00  0.00     0.031 A 
ATOM     61  C   UNL A   1      47.309  25.301  33.176  1.00  0.00     0.131 A 
ATOM     62  C   UNL A   1      46.762  23.092  34.751  1.00  0.00     0.055 A 
ATOM     63  C   UNL A   1      48.357  24.624  33.799  1.00  0.00     0.041 A 
ATOM     64  F   UNL A   1      47.613  26.384  32.441  1.00  0.00    -0.206 F 
ATOM     65  C   UNL A   1      48.085  23.520  34.601  1.00  0.00     0.022 A 
BRANCH  62  66
ATOM     66  S   UNL A   1      46.376  21.714  35.865  1.00  0.00     0.124 S 
ATOM     67  O   UNL A   1      45.443  20.927  35.065  1.00  0.00    -0.237 OA
ATOM     68  O   UNL A   1      47.688  21.115  36.089  1.00  0.00    -0.237 OA
ATOM     69  O   UNL A   1      45.790  22.371  37.033  1.00  0.00    -0.744 OA
ENDBRANCH  62  66
ENDBRANCH  36  59
ENDBRANCH  10  11
ENDBRANCH   3   5
ENDBRANCH   2   3
ENDBRANCH   1   2
BRANCH   1  70
ATOM     70  C   UNL A   1      32.904  34.124  28.051  1.00  0.00     0.274 C 
BRANCH  70  71
ATOM     71  O   UNL A   1      32.537  34.730  29.297  1.00  0.00    -0.462 OA
BRANCH  71  72
ATOM     72  C   UNL A   1      32.965  36.006  29.490  1.00  0.00     0.310 C 
ATOM     73  O   UNL A   1      32.679  36.952  28.763  1.00  0.00    -0.252 OA
BRANCH  72  74
ATOM     74  C   UNL A   1      33.801  36.165  30.749  1.00  0.00     0.119 C 
ATOM     75  C   UNL A   1      33.219  37.301  31.592  1.00  0.00     0.019 C 
ATOM     76  C   UNL A   1      33.928  34.878  31.561  1.00  0.00     0.135 C 
ATOM     77  C   UNL A   1      34.021  37.476  32.875  1.00  0.00     0.022 C 
ATOM     78  N   UNL A   1      34.548  35.063  32.876  1.00  0.00    -0.338 N 
ATOM     79  C   UNL A   1      34.067  36.182  33.680  1.00  0.00     0.120 C 
BRANCH  78  80
ATOM     80  C   UNL A   1      35.483  34.103  33.290  1.00  0.00     0.256 C 
ATOM     81  O   UNL A   1      35.120  33.158  33.989  1.00  0.00    -0.269 OA
BRANCH  80  82
ATOM     82  C   UNL A   1      36.872  34.165  32.818  1.00  0.00     0.065 A 
ATOM     83  C   UNL A   1      37.876  34.686  33.621  1.00  0.00     0.097 A 
ATOM     84  C   UNL A   1      37.493  33.871  31.549  1.00  0.00     0.012 A 
ATOM     85  N   UNL A   1      39.054  34.660  32.937  1.00  0.00    -0.360 N 
ATOM     86  C   UNL A   1      38.862  34.133  31.684  1.00  0.00     0.046 A 
ATOM     87  C   UNL A   1      37.045  33.432  30.283  1.00  0.00     0.011 A 
ATOM     88  H   UNL A   1      39.919  34.974  33.289  1.00  0.00     0.166 HD
ATOM     89  C   UNL A   1      39.791  33.917  30.657  1.00  0.00     0.027 A 
ATOM     90  C   UNL A   1      37.959  33.209  29.245  1.00  0.00     0.001 A 
ATOM     91  C   UNL A   1      39.316  33.438  29.436  1.00  0.00     0.002 A 
ENDBRANCH  80  82
ENDBRANCH  78  80
ENDBRANCH  72  74
ENDBRANCH  71  72
ENDBRANCH  70  71
ENDBRANCH   1  70
TORSDOF 16
ENDMDL
MODEL 2
REMARK VINA RESULT:     -10.8      3.870      6.612
REMARK SMILES O=C(OCCOC(=O)[C@H]1CCCN(C(=O)c2c[nH]c3ccccc23)C1)c1ccc(-c2c3nc(c(-c4cc(S(=O)(=O)[O-])ccc4F)c4ccc([nH]4)c(-c4cc(S(=O)(=O)[O-])ccc4F)c4nc(c(-c5cc(S(=O)(=O)[O-])ccc5F)c5ccc2[nH]5)C=C4)C=C3)cc1
REMARK SMILES IDX 4 1 3 2 2 3 1 4 26 5 27 6 88 7 28 8 87 9 29 10 30 11 31 12
REMARK SMILES IDX 81 13 32 14 86 15 80 16 82 17 33 18 85 19 79 20 78 21 34 23
REMARK SMILES IDX 66 24 46 25 65 26 47 27 50 28 64 29 83 30 48 31 49 32 63 34
REMARK SMILES IDX 84 35 51 36 35 37 36 38 44 39 37 40 43 41 45 42 42 43 38 44
REMARK SMILES IDX 39 45 40 46 41 47 67 48 68 49 76 50 69 51 75 52 77 53 74 54
REMARK SMILES IDX 70 55 71 56 72 57 73 58 52 59 53 60 61 61 54 62 60 63 62 64
REMARK SMILES IDX 59 65 55 66 56 67 57 68 58 69 5 70 6 71 7 72 8 73 9 74 10 75
REMARK SMILES IDX 25 76 11 77 13 78 12 79 14 80 15 81 16 82 17 83 24 84 18 85
REMARK SMILES IDX 19 86 23 87 20 89 22 90 21 91
REMARK H PARENT 82 22 50 33 18 88
REMARK Flexibility Score: inf
ROOT
ATOM      1  C   UNL A   1      31.881  31.001  26.704  1.00  0.00     0.275 C 
ENDROOT
BRANCH   1   2
ATOM      2  O   UNL A   1      33.287  30.842  26.957  1.00  0.00    -0.458 OA
BRANCH   2   3
ATOM      3  C   UNL A   1      33.987  31.677  27.769  1.00  0.00     0.338 C 
ATOM      4  O   UNL A   1      33.703  32.864  27.865  1.00  0.00    -0.246 OA
BRANCH   3   5
ATOM      5  C   UNL A   1      35.295  31.192  28.271  1.00  0.00     0.060 A 
ATOM      6  C   UNL A   1      36.476  31.933  28.189  1.00  0.00     0.016 A 
ATOM      7  C   UNL A   1      35.327  29.898  28.803  1.00  0.00     0.016 A 
ATOM      8  C   UNL A   1      37.659  31.430  28.742  1.00  0.00     0.010 A 
ATOM      9  C   UNL A   1      36.509  29.394  29.349  1.00  0.00     0.010 A 
ATOM     10  C   UNL A   1      37.677  30.166  29.347  1.00  0.00    -0.014 A 
BRANCH  10  11
ATOM     11  C   UNL A   1      38.931  29.623  29.925  1.00  0.00     0.031 A 
ATOM     12  C   UNL A   1      39.482  30.215  31.187  1.00  0.00     0.074 A 
ATOM     13  C   UNL A   1      39.597  28.632  29.304  1.00  0.00     0.049 A 
ATOM     14  N   UNL A   1      40.522  29.845  31.890  1.00  0.00    -0.248 NA
ATOM     15  C   UNL A   1      38.770  31.383  31.723  1.00  0.00     0.031 C 
ATOM     16  C   UNL A   1      39.214  28.022  28.032  1.00  0.00     0.029 A 
ATOM     17  N   UNL A   1      40.761  27.991  29.645  1.00  0.00    -0.354 N 
ATOM     18  C   UNL A   1      40.550  30.692  32.988  1.00  0.00     0.074 A 
ATOM     19  C   UNL A   1      39.493  31.664  32.796  1.00  0.00     0.031 C 
ATOM     20  C   UNL A   1      40.158  27.136  27.671  1.00  0.00     0.029 A 
ATOM     21  C   UNL A   1      41.199  27.101  28.693  1.00  0.00     0.049 A 
ATOM     22  H   UNL A   1      41.238  28.154  30.491  1.00  0.00     0.167 HD
ATOM     23  C   UNL A   1      41.344  30.633  34.086  1.00  0.00     0.034 A 
ATOM     24  C   UNL A   1      42.317  26.352  28.650  1.00  0.00     0.034 A 
ATOM     25  C   UNL A   1      42.439  29.711  34.242  1.00  0.00     0.049 A 
ATOM     26  C   UNL A   1      43.255  26.362  29.828  1.00  0.00     0.074 A 
ATOM     27  C   UNL A   1      43.299  29.553  35.314  1.00  0.00     0.029 A 
ATOM     28  N   UNL A   1      42.845  28.804  33.271  1.00  0.00    -0.354 N 
ATOM     29  N   UNL A   1      43.201  27.086  30.923  1.00  0.00    -0.248 NA
ATOM     30  C   UNL A   1      44.383  25.422  29.782  1.00  0.00     0.031 C 
ATOM     31  C   UNL A   1      44.248  28.576  34.977  1.00  0.00     0.029 A 
ATOM     32  C   UNL A   1      43.951  28.095  33.712  1.00  0.00     0.049 A 
ATOM     33  H   UNL A   1      42.409  28.681  32.397  1.00  0.00     0.167 HD
ATOM     34  C   UNL A   1      44.260  26.653  31.714  1.00  0.00     0.074 A 
ATOM     35  C   UNL A   1      44.944  25.617  30.968  1.00  0.00     0.031 C 
ATOM     36  C   UNL A   1      44.622  27.064  32.957  1.00  0.00     0.034 A 
BRANCH  23  37
ATOM     37  C   UNL A   1      41.007  31.597  35.192  1.00  0.00     0.023 A 
ATOM     38  C   UNL A   1      39.913  31.343  36.041  1.00  0.00     0.031 A 
ATOM     39  C   UNL A   1      41.699  32.808  35.347  1.00  0.00     0.131 A 
ATOM     40  C   UNL A   1      39.481  32.327  36.939  1.00  0.00     0.055 A 
ATOM     41  C   UNL A   1      41.310  33.754  36.298  1.00  0.00     0.041 A 
ATOM     42  F   UNL A   1      42.737  33.109  34.551  1.00  0.00    -0.206 F 
ATOM     43  C   UNL A   1      40.184  33.524  37.088  1.00  0.00     0.022 A 
BRANCH  40  44
ATOM     44  S   UNL A   1      37.899  32.081  37.792  1.00  0.00     0.124 S 
ATOM     45  O   UNL A   1      37.561  30.715  37.395  1.00  0.00    -0.237 OA
ATOM     46  O   UNL A   1      38.262  32.268  39.192  1.00  0.00    -0.237 OA
ATOM     47  O   UNL A   1      37.040  33.118  37.225  1.00  0.00    -0.744 OA
ENDBRANCH  40  44
ENDBRANCH  23  37
BRANCH  24  48
ATOM     48  C   UNL A   1      42.629  25.535  27.447  1.00  0.00     0.023 A 
ATOM     49  C   UNL A   1      42.219  24.197  27.341  1.00  0.00     0.031 A 
ATOM     50  C   UNL A   1      43.401  26.079  26.407  1.00  0.00     0.131 A 
ATOM     51  C   UNL A   1      42.614  23.433  26.231  1.00  0.00     0.055 A 
ATOM     52  C   UNL A   1      43.759  25.328  25.287  1.00  0.00     0.041 A 
ATOM     53  F   UNL A   1      43.836  27.347  26.477  1.00  0.00    -0.206 F 
ATOM     54  C   UNL A   1      43.375  23.992  25.201  1.00  0.00     0.022 A 
BRANCH  51  55
ATOM     55  S   UNL A   1      42.194  21.669  26.192  1.00  0.00     0.124 S 
ATOM     56  O   UNL A   1      40.783  21.701  25.823  1.00  0.00    -0.237 OA
ATOM     57  O   UNL A   1      43.110  21.163  25.174  1.00  0.00    -0.237 OA
ATOM     58  O   UNL A   1      42.471  21.222  27.555  1.00  0.00    -0.744 OA
ENDBRANCH  51  55
ENDBRANCH  24  48
BRANCH  36  59
ATOM     59  C   UNL A   1      45.764  26.326  33.603  1.00  0.00     0.023 A 
ATOM     60  C   UNL A   1      45.566  25.137  34.325  1.00  0.00     0.031 A 
ATOM     61  C   UNL A   1      47.066  26.850  33.525  1.00  0.00     0.131 A 
ATOM     62  C   UNL A   1      46.650  24.534  34.982  1.00  0.00     0.055 A 
ATOM     63  C   UNL A   1      48.147  26.223  34.145  1.00  0.00     0.041 A 
ATOM     64  F   UNL A   1      47.305  27.986  32.848  1.00  0.00    -0.206 F 
ATOM     65  C   UNL A   1      47.939  25.064  34.888  1.00  0.00     0.022 A 
BRANCH  62  66
ATOM     66  S   UNL A   1      46.341  23.079  36.021  1.00  0.00     0.124 S 
ATOM     67  O   UNL A   1      46.804  21.990  35.166  1.00  0.00    -0.237 OA
ATOM     68  O   UNL A   1      47.158  23.357  37.198  1.00  0.00    -0.237 OA
ATOM     69  O   UNL A   1      44.897  23.119  36.248  1.00  0.00    -0.744 OA
ENDBRANCH  62  66
ENDBRANCH  36  59
ENDBRANCH  10  11
ENDBRANCH   3   5
ENDBRANCH   2   3
ENDBRANCH   1   2
BRANCH   1  70
ATOM     70  C   UNL A   1      31.399  30.392  25.385  1.00  0.00     0.274 C 
BRANCH  70  71
ATOM     71  O   UNL A   1      32.091  29.189  25.029  1.00  0.00    -0.462 OA
BRANCH  71  72
ATOM     72  C   UNL A   1      31.351  28.236  24.402  1.00  0.00     0.310 C 
ATOM     73  O   UNL A   1      30.308  28.456  23.793  1.00  0.00    -0.252 OA
BRANCH  72  74
ATOM     74  C   UNL A   1      31.978  26.855  24.477  1.00  0.00     0.119 C 
ATOM     75  C   UNL A   1      33.431  26.941  24.008  1.00  0.00     0.019 C 
ATOM     76  C   UNL A   1      31.877  26.215  25.861  1.00  0.00     0.135 C 
ATOM     77  C   UNL A   1      34.100  25.575  24.090  1.00  0.00     0.022 C 
ATOM     78  N   UNL A   1      32.656  24.982  26.005  1.00  0.00    -0.338 N 
ATOM     79  C   UNL A   1      34.026  25.007  25.503  1.00  0.00     0.120 C 
BRANCH  78  80
ATOM     80  C   UNL A   1      32.057  23.916  26.690  1.00  0.00     0.256 C 
ATOM     81  O   UNL A   1      31.048  24.115  27.367  1.00  0.00    -0.269 OA
BRANCH  80  82
ATOM     82  C   UNL A   1      32.566  22.549  26.532  1.00  0.00     0.065 A 
ATOM     83  C   UNL A   1      33.302  21.939  27.538  1.00  0.00     0.097 A 
ATOM     84  C   UNL A   1      32.567  21.622  25.426  1.00  0.00     0.012 A 
ATOM     85  N   UNL A   1      33.681  20.697  27.125  1.00  0.00    -0.360 N 
ATOM     86  C   UNL A   1      33.216  20.458  25.856  1.00  0.00     0.046 A 
ATOM     87  C   UNL A   1      32.111  21.646  24.089  1.00  0.00     0.011 A 
ATOM     88  H   UNL A   1      34.211  20.063  27.660  1.00  0.00     0.166 HD
ATOM     89  C   UNL A   1      33.366  19.319  25.054  1.00  0.00     0.027 A 
ATOM     90  C   UNL A   1      32.249  20.516  23.271  1.00  0.00     0.001 A 
ATOM     91  C   UNL A   1      32.859  19.364  23.754  1.00  0.00     0.002 A 
ENDBRANCH  80  82
ENDBRANCH  78  80
ENDBRANCH  72  74
ENDBRANCH  71  72
ENDBRANCH  70  71
ENDBRANCH   1  70
TORSDOF 16
ENDMDL
MODEL 3
REMARK VINA RESULT:     -10.8      2.297      2.653
REMARK SMILES O=C(OCCOC(=O)[C@H]1CCCN(C(=O)c2c[nH]c3ccccc23)C1)c1ccc(-c2c3nc(c(-c4cc(S(=O)(=O)[O-])ccc4F)c4ccc([nH]4)c(-c4cc(S(=O)(=O)[O-])ccc4F)c4nc(c(-c5cc(S(=O)(=O)[O-])ccc5F)c5ccc2[nH]5)C=C4)C=C3)cc1
REMARK SMILES IDX 4 1 3 2 2 3 1 4 26 5 27 6 88 7 28 8 87 9 29 10 30 11 31 12
REMARK SMILES IDX 81 13 32 14 86 15 80 16 82 17 33 18 85 19 79 20 78 21 34 23
REMARK SMILES IDX 66 24 46 25 65 26 47 27 50 28 64 29 83 30 48 31 49 32 63 34
REMARK SMILES IDX 84 35 51 36 35 37 36 38 44 39 37 40 43 41 45 42 42 43 38 44
REMARK SMILES IDX 39 45 40 46 41 47 67 48 68 49 76 50 69 51 75 52 77 53 74 54
REMARK SMILES IDX 70 55 71 56 72 57 73 58 52 59 53 60 61 61 54 62 60 63 62 64
REMARK SMILES IDX 59 65 55 66 56 67 57 68 58 69 5 70 6 71 7 72 8 73 9 74 10 75
REMARK SMILES IDX 25 76 11 77 13 78 12 79 14 80 15 81 16 82 17 83 24 84 18 85
REMARK SMILES IDX 19 86 23 87 20 89 22 90 21 91
REMARK H PARENT 82 22 50 33 18 88
REMARK Flexibility Score: inf
ROOT
ATOM      1  C   UNL A   1      34.375  33.207  28.012  1.00  0.00     0.275 C 
ENDROOT
BRANCH   1   2
ATOM      2  O   UNL A   1      34.028  31.841  28.293  1.00  0.00    -0.458 OA
BRANCH   2   3
ATOM      3  C   UNL A   1      34.613  30.789  27.662  1.00  0.00     0.338 C 
ATOM      4  O   UNL A   1      34.009  30.123  26.831  1.00  0.00    -0.246 OA
BRANCH   3   5
ATOM      5  C   UNL A   1      35.875  30.270  28.242  1.00  0.00     0.060 A 
ATOM      6  C   UNL A   1      35.956  29.675  29.504  1.00  0.00     0.016 A 
ATOM      7  C   UNL A   1      37.038  30.446  27.485  1.00  0.00     0.016 A 
ATOM      8  C   UNL A   1      37.174  29.154  29.955  1.00  0.00     0.010 A 
ATOM      9  C   UNL A   1      38.254  29.932  27.940  1.00  0.00     0.010 A 
ATOM     10  C   UNL A   1      38.326  29.259  29.165  1.00  0.00    -0.014 A 
BRANCH  10  11
ATOM     11  C   UNL A   1      39.622  28.718  29.644  1.00  0.00     0.031 A 
ATOM     12  C   UNL A   1      40.390  29.457  30.699  1.00  0.00     0.074 A 
ATOM     13  C   UNL A   1      40.131  27.592  29.111  1.00  0.00     0.049 A 
ATOM     14  N   UNL A   1      41.503  29.123  31.299  1.00  0.00    -0.248 NA
ATOM     15  C   UNL A   1      39.832  30.748  31.125  1.00  0.00     0.031 C 
ATOM     16  C   UNL A   1      39.527  26.820  28.026  1.00  0.00     0.029 A 
ATOM     17  N   UNL A   1      41.298  26.924  29.386  1.00  0.00    -0.354 N 
ATOM     18  C   UNL A   1      41.744  30.128  32.225  1.00  0.00     0.074 A 
ATOM     19  C   UNL A   1      40.723  31.137  32.023  1.00  0.00     0.031 C 
ATOM     20  C   UNL A   1      40.356  25.818  27.689  1.00  0.00     0.029 A 
ATOM     21  C   UNL A   1      41.537  25.864  28.546  1.00  0.00     0.049 A 
ATOM     22  H   UNL A   1      41.906  27.181  30.117  1.00  0.00     0.167 HD
ATOM     23  C   UNL A   1      42.690  30.182  33.194  1.00  0.00     0.034 A 
ATOM     24  C   UNL A   1      42.594  25.032  28.471  1.00  0.00     0.034 A 
ATOM     25  C   UNL A   1      43.746  29.213  33.346  1.00  0.00     0.049 A 
ATOM     26  C   UNL A   1      43.699  25.155  29.487  1.00  0.00     0.074 A 
ATOM     27  C   UNL A   1      44.749  29.159  34.297  1.00  0.00     0.029 A 
ATOM     28  N   UNL A   1      43.950  28.134  32.494  1.00  0.00    -0.354 N 
ATOM     29  N   UNL A   1      43.852  26.044  30.441  1.00  0.00    -0.248 NA
ATOM     30  C   UNL A   1      44.754  24.134  29.441  1.00  0.00     0.031 C 
ATOM     31  C   UNL A   1      45.581  28.070  33.998  1.00  0.00     0.029 A 
ATOM     32  C   UNL A   1      45.070  27.420  32.887  1.00  0.00     0.049 A 
ATOM     33  H   UNL A   1      43.380  27.910  31.723  1.00  0.00     0.167 HD
ATOM     34  C   UNL A   1      44.993  25.661  31.136  1.00  0.00     0.074 A 
ATOM     35  C   UNL A   1      45.499  24.469  30.485  1.00  0.00     0.031 C 
ATOM     36  C   UNL A   1      45.562  26.233  32.229  1.00  0.00     0.034 A 
BRANCH  23  37
ATOM     37  C   UNL A   1      42.579  31.331  34.158  1.00  0.00     0.023 A 
ATOM     38  C   UNL A   1      43.279  32.528  33.913  1.00  0.00     0.031 A 
ATOM     39  C   UNL A   1      41.864  31.216  35.360  1.00  0.00     0.131 A 
ATOM     40  C   UNL A   1      43.334  33.521  34.899  1.00  0.00     0.055 A 
ATOM     41  C   UNL A   1      41.859  32.243  36.307  1.00  0.00     0.041 A 
ATOM     42  F   UNL A   1      41.195  30.090  35.652  1.00  0.00    -0.206 F 
ATOM     43  C   UNL A   1      42.611  33.396  36.087  1.00  0.00     0.022 A 
BRANCH  40  44
ATOM     44  S   UNL A   1      44.486  34.903  34.668  1.00  0.00     0.124 S 
ATOM     45  O   UNL A   1      43.779  35.991  35.340  1.00  0.00    -0.237 OA
ATOM     46  O   UNL A   1      45.694  34.422  35.329  1.00  0.00    -0.237 OA
ATOM     47  O   UNL A   1      44.578  35.031  33.215  1.00  0.00    -0.744 OA
ENDBRANCH  40  44
ENDBRANCH  23  37
BRANCH  24  48
ATOM     48  C   UNL A   1      42.674  24.013  27.391  1.00  0.00     0.023 A 
ATOM     49  C   UNL A   1      42.080  22.749  27.527  1.00  0.00     0.031 A 
ATOM     50  C   UNL A   1      43.407  24.282  26.222  1.00  0.00     0.131 A 
ATOM     51  C   UNL A   1      42.259  21.784  26.523  1.00  0.00     0.055 A 
ATOM     52  C   UNL A   1      43.551  23.333  25.210  1.00  0.00     0.041 A 
ATOM     53  F   UNL A   1      44.013  25.468  26.060  1.00  0.00    -0.206 F 
ATOM     54  C   UNL A   1      42.985  22.070  25.363  1.00  0.00     0.022 A 
BRANCH  51  55
ATOM     55  S   UNL A   1      41.604  20.114  26.792  1.00  0.00     0.124 S 
ATOM     56  O   UNL A   1      40.273  20.391  27.321  1.00  0.00    -0.237 OA
ATOM     57  O   UNL A   1      41.653  19.549  25.447  1.00  0.00    -0.237 OA
ATOM     58  O   UNL A   1      42.543  19.529  27.747  1.00  0.00    -0.744 OA
ENDBRANCH  51  55
ENDBRANCH  24  48
BRANCH  36  59
ATOM     59  C   UNL A   1      46.747  25.520  32.822  1.00  0.00     0.023 A 
ATOM     60  C   UNL A   1      48.047  25.692  32.316  1.00  0.00     0.031 A 
ATOM     61  C   UNL A   1      46.559  24.622  33.887  1.00  0.00     0.131 A 
ATOM     62  C   UNL A   1      49.105  24.939  32.847  1.00  0.00     0.055 A 
ATOM     63  C   UNL A   1      47.622  23.907  34.438  1.00  0.00     0.041 A 
ATOM     64  F   UNL A   1      45.335  24.421  34.403  1.00  0.00    -0.206 F 
ATOM     65  C   UNL A   1      48.901  24.055  33.911  1.00  0.00     0.022 A 
BRANCH  62  66
ATOM     66  S   UNL A   1      50.744  25.077  32.084  1.00  0.00     0.124 S 
ATOM     67  O   UNL A   1      51.258  26.304  32.684  1.00  0.00    -0.237 OA
ATOM     68  O   UNL A   1      51.392  23.839  32.508  1.00  0.00    -0.237 OA
ATOM     69  O   UNL A   1      50.452  25.161  30.654  1.00  0.00    -0.744 OA
ENDBRANCH  62  66
ENDBRANCH  36  59
ENDBRANCH  10  11
ENDBRANCH   3   5
ENDBRANCH   2   3
ENDBRANCH   1   2
BRANCH   1  70
ATOM     70  C   UNL A   1      33.193  34.180  28.030  1.00  0.00     0.274 C 
BRANCH  70  71
ATOM     71  O   UNL A   1      32.727  34.484  29.350  1.00  0.00    -0.462 OA
BRANCH  71  72
ATOM     72  C   UNL A   1      32.854  35.779  29.745  1.00  0.00     0.310 C 
ATOM     73  O   UNL A   1      32.274  36.725  29.221  1.00  0.00    -0.252 OA
BRANCH  72  74
ATOM     74  C   UNL A   1      33.755  35.943  30.957  1.00  0.00     0.119 C 
ATOM     75  C   UNL A   1      33.163  37.011  31.876  1.00  0.00     0.019 C 
ATOM     76  C   UNL A   1      34.004  34.637  31.710  1.00  0.00     0.135 C 
ATOM     77  C   UNL A   1      34.031  37.188  33.116  1.00  0.00     0.022 C 
ATOM     78  N   UNL A   1      34.693  34.811  32.993  1.00  0.00    -0.338 N 
ATOM     79  C   UNL A   1      34.199  35.871  33.866  1.00  0.00     0.120 C 
BRANCH  78  80
ATOM     80  C   UNL A   1      35.704  33.894  33.312  1.00  0.00     0.256 C 
ATOM     81  O   UNL A   1      35.421  32.858  33.913  1.00  0.00    -0.269 OA
BRANCH  80  82
ATOM     82  C   UNL A   1      37.080  34.115  32.854  1.00  0.00     0.065 A 
ATOM     83  C   UNL A   1      38.063  34.554  33.729  1.00  0.00     0.097 A 
ATOM     84  C   UNL A   1      37.703  34.069  31.553  1.00  0.00     0.012 A 
ATOM     85  N   UNL A   1      39.232  34.711  33.048  1.00  0.00    -0.360 N 
ATOM     86  C   UNL A   1      39.056  34.386  31.725  1.00  0.00     0.046 A 
ATOM     87  C   UNL A   1      37.265  33.819  30.233  1.00  0.00     0.011 A 
ATOM     88  H   UNL A   1      40.081  35.013  33.445  1.00  0.00     0.166 HD
ATOM     89  C   UNL A   1      39.984  34.397  30.675  1.00  0.00     0.027 A 
ATOM     90  C   UNL A   1      38.178  33.823  29.169  1.00  0.00     0.001 A 
ATOM     91  C   UNL A   1      39.522  34.097  29.393  1.00  0.00     0.002 A 
ENDBRANCH  80  82
ENDBRANCH  78  80
ENDBRANCH  72  74
ENDBRANCH  71  72
ENDBRANCH  70  71
ENDBRANCH   1  70
TORSDOF 16
ENDMDL
