MODEL 1
REMARK VINA RESULT:     -12.1      0.000      0.000
REMARK SMILES CC[N@@H+](C)Cc1cc2c(cc1Cl)C=C(C(=O)OCCOC(=O)c1ccc(-c3c4nc(c(-c5cc(S(=O)(=O)[O-])ccc5F)c5ccc([nH]5)c(-c5cc(S(=O)(=O)[O-])ccc5F)c5nc(c(-c6cc(S(=O)(=O)[O-])ccc6F)c6ccc3[nH]6)C=C5)C=C4)cc1)[C@@H](C(F)(F)F)O2
REMARK SMILES IDX 18 1 17 2 15 3 16 4 14 5 6 6 7 7 11 8 8 9 10 10 12 11 9 12
REMARK SMILES IDX 91 13 13 14 86 15 5 16 3 17 4 18 2 20 1 21 87 22 88 23 89 24
REMARK SMILES IDX 90 25 19 26 20 27 21 28 22 29 23 30 24 31 85 32 25 33 84 34
REMARK SMILES IDX 26 35 27 36 28 37 78 38 29 39 83 40 77 41 79 42 30 43 82 44
REMARK SMILES IDX 76 45 75 46 31 48 63 49 43 50 62 51 44 52 47 53 61 54 80 55
REMARK SMILES IDX 45 56 46 57 60 59 81 60 48 61 32 62 33 63 41 64 34 65 40 66
REMARK SMILES IDX 42 67 39 68 35 69 36 70 37 71 38 72 64 73 65 74 73 75 66 76
REMARK SMILES IDX 72 77 74 78 71 79 67 80 68 81 69 82 70 83 49 84 50 85 58 86
REMARK SMILES IDX 51 87 57 88 59 89 56 90 52 91 53 92 54 93 55 94
REMARK H PARENT 3 19 79 47 47 58
REMARK Flexibility Score: inf
ROOT
ATOM      1  C   UNL A   1      31.482  28.760  24.846  1.00  0.00     0.275 C 
ENDROOT
BRANCH   1   2
ATOM      2  O   UNL A   1      32.280  27.709  25.436  1.00  0.00    -0.459 OA
BRANCH   2   3
ATOM      3  C   UNL A   1      31.630  26.955  26.351  1.00  0.00     0.338 C 
ATOM      4  O   UNL A   1      30.975  27.375  27.293  1.00  0.00    -0.246 OA
BRANCH   3   5
ATOM      5  C   UNL A   1      31.765  25.519  26.066  1.00  0.00     0.087 C 
ATOM      6  C   UNL A   1      33.841  21.069  24.962  1.00  0.00     0.029 A 
ATOM      7  C   UNL A   1      32.515  21.571  24.919  1.00  0.00     0.058 A 
ATOM      8  C   UNL A   1      34.870  21.940  25.352  1.00  0.00     0.050 A 
ATOM      9  C   UNL A   1      32.223  22.876  25.315  1.00  0.00     0.128 A 
ATOM     10  C   UNL A   1      34.567  23.211  25.823  1.00  0.00     0.033 A 
ATOM     11  Cl  UNL A   1      36.547  21.557  25.227  1.00  0.00    -0.084 Cl
ATOM     12  C   UNL A   1      33.248  23.665  25.817  1.00  0.00     0.019 A 
ATOM     13  O   UNL A   1      30.930  23.318  25.222  1.00  0.00    -0.475 OA
ATOM     14  C   UNL A   1      32.966  24.990  26.303  1.00  0.00     0.027 C 
ATOM     15  C   UNL A   1      30.684  24.760  25.355  1.00  0.00     0.316 C 
BRANCH   6  16
ATOM     16  C   UNL A   1      34.098  19.612  24.623  1.00  0.00     0.300 C 
BRANCH  16  17
ATOM     17  N   UNL A   1      32.911  18.739  24.483  1.00  0.00    -0.334 N 
ATOM     18  C   UNL A   1      32.704  17.879  25.647  1.00  0.00     0.333 C 
ATOM     19  H   UNL A   1      32.139  19.400  24.420  1.00  0.00     0.348 HD
BRANCH  17  20
ATOM     20  C   UNL A   1      32.873  17.938  23.249  1.00  0.00     0.258 C 
ATOM     21  C   UNL A   1      34.031  16.952  23.129  1.00  0.00     0.071 C 
ENDBRANCH  17  20
ENDBRANCH  16  17
ENDBRANCH   6  16
BRANCH  15  22
ATOM     22  C   UNL A   1      30.401  25.375  23.975  1.00  0.00     0.430 C 
ATOM     23  F   UNL A   1      29.867  24.463  23.128  1.00  0.00    -0.167 F 
ATOM     24  F   UNL A   1      29.501  26.386  24.063  1.00  0.00    -0.167 F 
ATOM     25  F   UNL A   1      31.512  25.873  23.390  1.00  0.00    -0.167 F 
ENDBRANCH  15  22
ENDBRANCH   3   5
ENDBRANCH   2   3
ENDBRANCH   1   2
BRANCH   1  26
ATOM     26  C   UNL A   1      31.713  30.106  25.535  1.00  0.00     0.275 C 
BRANCH  26  27
ATOM     27  O   UNL A   1      33.092  30.279  25.904  1.00  0.00    -0.458 OA
BRANCH  27  28
ATOM     28  C   UNL A   1      33.318  31.189  26.879  1.00  0.00     0.338 C 
ATOM     29  O   UNL A   1      32.568  32.075  27.250  1.00  0.00    -0.246 OA
BRANCH  28  30
ATOM     30  C   UNL A   1      34.614  30.915  27.516  1.00  0.00     0.060 A 
ATOM     31  C   UNL A   1      35.474  31.945  27.878  1.00  0.00     0.016 A 
ATOM     32  C   UNL A   1      34.906  29.606  27.876  1.00  0.00     0.016 A 
ATOM     33  C   UNL A   1      36.646  31.635  28.580  1.00  0.00     0.010 A 
ATOM     34  C   UNL A   1      35.968  29.328  28.728  1.00  0.00     0.010 A 
ATOM     35  C   UNL A   1      36.894  30.325  29.042  1.00  0.00    -0.014 A 
BRANCH  35  36
ATOM     36  C   UNL A   1      38.134  29.975  29.796  1.00  0.00     0.031 A 
ATOM     37  C   UNL A   1      38.354  30.502  31.198  1.00  0.00     0.074 A 
ATOM     38  C   UNL A   1      39.082  29.211  29.215  1.00  0.00     0.049 A 
ATOM     39  N   UNL A   1      39.366  30.304  32.005  1.00  0.00    -0.248 NA
ATOM     40  C   UNL A   1      37.331  31.405  31.755  1.00  0.00     0.031 C 
ATOM     41  C   UNL A   1      39.037  28.723  27.837  1.00  0.00     0.029 A 
ATOM     42  N   UNL A   1      40.258  28.699  29.708  1.00  0.00    -0.354 N 
ATOM     43  C   UNL A   1      39.110  31.074  33.136  1.00  0.00     0.074 A 
ATOM     44  C   UNL A   1      37.901  31.814  32.879  1.00  0.00     0.031 C 
ATOM     45  C   UNL A   1      40.091  27.924  27.617  1.00  0.00     0.029 A 
ATOM     46  C   UNL A   1      40.919  27.879  28.820  1.00  0.00     0.049 A 
ATOM     47  H   UNL A   1      40.596  28.898  30.610  1.00  0.00     0.167 HD
ATOM     48  C   UNL A   1      39.787  31.120  34.308  1.00  0.00     0.034 A 
ATOM     49  C   UNL A   1      42.054  27.161  28.959  1.00  0.00     0.034 A 
ATOM     50  C   UNL A   1      40.952  30.321  34.580  1.00  0.00     0.049 A 
ATOM     51  C   UNL A   1      42.763  27.178  30.291  1.00  0.00     0.074 A 
ATOM     52  C   UNL A   1      41.660  30.220  35.762  1.00  0.00     0.029 A 
ATOM     53  N   UNL A   1      41.567  29.475  33.668  1.00  0.00    -0.354 N 
ATOM     54  N   UNL A   1      42.441  27.824  31.387  1.00  0.00    -0.248 NA
ATOM     55  C   UNL A   1      43.979  26.361  30.416  1.00  0.00     0.031 C 
ATOM     56  C   UNL A   1      42.737  29.358  35.551  1.00  0.00     0.029 A 
ATOM     57  C   UNL A   1      42.659  28.864  34.258  1.00  0.00     0.049 A 
ATOM     58  H   UNL A   1      41.271  29.331  32.741  1.00  0.00     0.167 HD
ATOM     59  C   UNL A   1      43.402  27.482  32.333  1.00  0.00     0.074 A 
ATOM     60  C   UNL A   1      44.298  26.543  31.692  1.00  0.00     0.031 C 
ATOM     61  C   UNL A   1      43.535  27.914  33.613  1.00  0.00     0.034 A 
BRANCH  48  62
ATOM     62  C   UNL A   1      39.268  32.009  35.416  1.00  0.00     0.023 A 
ATOM     63  C   UNL A   1      39.774  33.313  35.576  1.00  0.00     0.031 A 
ATOM     64  C   UNL A   1      38.372  31.525  36.388  1.00  0.00     0.131 A 
ATOM     65  C   UNL A   1      39.405  34.073  36.693  1.00  0.00     0.055 A 
ATOM     66  C   UNL A   1      37.965  32.306  37.470  1.00  0.00     0.041 A 
ATOM     67  F   UNL A   1      37.865  30.285  36.291  1.00  0.00    -0.206 F 
ATOM     68  C   UNL A   1      38.493  33.582  37.634  1.00  0.00     0.022 A 
BRANCH  65  69
ATOM     69  S   UNL A   1      40.141  35.699  37.013  1.00  0.00     0.124 S 
ATOM     70  O   UNL A   1      39.653  36.479  35.878  1.00  0.00    -0.237 OA
ATOM     71  O   UNL A   1      39.558  36.048  38.306  1.00  0.00    -0.237 OA
ATOM     72  O   UNL A   1      41.577  35.440  37.016  1.00  0.00    -0.744 OA
ENDBRANCH  65  69
ENDBRANCH  48  62
BRANCH  49  73
ATOM     73  C   UNL A   1      42.511  26.298  27.827  1.00  0.00     0.023 A 
ATOM     74  C   UNL A   1      41.961  25.019  27.619  1.00  0.00     0.031 A 
ATOM     75  C   UNL A   1      43.593  26.688  27.020  1.00  0.00     0.131 A 
ATOM     76  C   UNL A   1      42.543  24.153  26.684  1.00  0.00     0.055 A 
ATOM     77  C   UNL A   1      44.122  25.849  26.037  1.00  0.00     0.041 A 
ATOM     78  F   UNL A   1      44.164  27.890  27.189  1.00  0.00    -0.206 F 
ATOM     79  C   UNL A   1      43.609  24.566  25.879  1.00  0.00     0.022 A 
BRANCH  76  80
ATOM     80  S   UNL A   1      42.039  22.411  26.590  1.00  0.00     0.124 S 
ATOM     81  O   UNL A   1      40.584  22.516  26.554  1.00  0.00    -0.237 OA
ATOM     82  O   UNL A   1      42.671  21.985  25.343  1.00  0.00    -0.237 OA
ATOM     83  O   UNL A   1      42.602  21.824  27.801  1.00  0.00    -0.744 OA
ENDBRANCH  76  80
ENDBRANCH  49  73
BRANCH  61  84
ATOM     84  C   UNL A   1      44.688  27.396  34.439  1.00  0.00     0.023 A 
ATOM     85  C   UNL A   1      44.553  26.191  35.156  1.00  0.00     0.031 A 
ATOM     86  C   UNL A   1      45.832  28.180  34.662  1.00  0.00     0.131 A 
ATOM     87  C   UNL A   1      45.521  25.833  36.101  1.00  0.00     0.055 A 
ATOM     88  C   UNL A   1      46.820  27.791  35.568  1.00  0.00     0.041 A 
ATOM     89  F   UNL A   1      45.999  29.344  34.013  1.00  0.00    -0.206 F 
ATOM     90  C   UNL A   1      46.657  26.622  36.304  1.00  0.00     0.022 A 
BRANCH  87  91
ATOM     91  S   UNL A   1      45.288  24.390  37.176  1.00  0.00     0.124 S 
ATOM     92  O   UNL A   1      44.726  23.409  36.248  1.00  0.00    -0.237 OA
ATOM     93  O   UNL A   1      46.651  24.116  37.623  1.00  0.00    -0.237 OA
ATOM     94  O   UNL A   1      44.373  24.863  38.209  1.00  0.00    -0.744 OA
ENDBRANCH  87  91
ENDBRANCH  61  84
ENDBRANCH  35  36
ENDBRANCH  28  30
ENDBRANCH  27  28
ENDBRANCH  26  27
ENDBRANCH   1  26
TORSDOF 18
ENDMDL
MODEL 2
REMARK VINA RESULT:     -12.0      5.142     10.175
REMARK SMILES CC[N@@H+](C)Cc1cc2c(cc1Cl)C=C(C(=O)OCCOC(=O)c1ccc(-c3c4nc(c(-c5cc(S(=O)(=O)[O-])ccc5F)c5ccc([nH]5)c(-c5cc(S(=O)(=O)[O-])ccc5F)c5nc(c(-c6cc(S(=O)(=O)[O-])ccc6F)c6ccc3[nH]6)C=C5)C=C4)cc1)[C@@H](C(F)(F)F)O2
REMARK SMILES IDX 18 1 17 2 15 3 16 4 14 5 6 6 7 7 11 8 8 9 10 10 12 11 9 12
REMARK SMILES IDX 91 13 13 14 86 15 5 16 3 17 4 18 2 20 1 21 87 22 88 23 89 24
REMARK SMILES IDX 90 25 19 26 20 27 21 28 22 29 23 30 24 31 85 32 25 33 84 34
REMARK SMILES IDX 26 35 27 36 28 37 78 38 29 39 83 40 77 41 79 42 30 43 82 44
REMARK SMILES IDX 76 45 75 46 31 48 63 49 43 50 62 51 44 52 47 53 61 54 80 55
REMARK SMILES IDX 45 56 46 57 60 59 81 60 48 61 32 62 33 63 41 64 34 65 40 66
REMARK SMILES IDX 42 67 39 68 35 69 36 70 37 71 38 72 64 73 65 74 73 75 66 76
REMARK SMILES IDX 72 77 74 78 71 79 67 80 68 81 69 82 70 83 49 84 50 85 58 86
REMARK SMILES IDX 51 87 57 88 59 89 56 90 52 91 53 92 54 93 55 94
REMARK H PARENT 3 19 79 47 47 58
REMARK Flexibility Score: inf
ROOT
ATOM      1  C   UNL A   1      35.898  20.472  25.217  1.00  0.00     0.275 C 
ENDROOT
BRANCH   1   2
ATOM      2  O   UNL A   1      35.090  21.247  24.303  1.00  0.00    -0.459 OA
BRANCH   2   3
ATOM      3  C   UNL A   1      33.756  21.092  24.462  1.00  0.00     0.338 C 
ATOM      4  O   UNL A   1      33.129  20.054  24.306  1.00  0.00    -0.246 OA
BRANCH   3   5
ATOM      5  C   UNL A   1      33.112  22.340  24.898  1.00  0.00     0.087 C 
ATOM      6  C   UNL A   1      32.194  27.252  25.502  1.00  0.00     0.029 A 
ATOM      7  C   UNL A   1      31.759  26.082  26.177  1.00  0.00     0.058 A 
ATOM      8  C   UNL A   1      33.108  27.110  24.446  1.00  0.00     0.050 A 
ATOM      9  C   UNL A   1      32.173  24.815  25.764  1.00  0.00     0.128 A 
ATOM     10  C   UNL A   1      33.452  25.846  23.986  1.00  0.00     0.033 A 
ATOM     11  Cl  UNL A   1      33.909  28.437  23.690  1.00  0.00    -0.084 Cl
ATOM     12  C   UNL A   1      32.972  24.709  24.635  1.00  0.00     0.019 A 
ATOM     13  O   UNL A   1      31.747  23.721  26.473  1.00  0.00    -0.475 OA
ATOM     14  C   UNL A   1      33.353  23.412  24.141  1.00  0.00     0.027 C 
ATOM     15  C   UNL A   1      32.412  22.437  26.221  1.00  0.00     0.316 C 
BRANCH   6  16
ATOM     16  C   UNL A   1      31.638  28.602  25.917  1.00  0.00     0.300 C 
BRANCH  16  17
ATOM     17  N   UNL A   1      32.391  29.347  26.950  1.00  0.00    -0.334 N 
ATOM     18  C   UNL A   1      32.758  30.694  26.517  1.00  0.00     0.333 C 
ATOM     19  H   UNL A   1      31.727  29.417  27.720  1.00  0.00     0.348 HD
BRANCH  17  20
ATOM     20  C   UNL A   1      33.571  28.648  27.482  1.00  0.00     0.258 C 
ATOM     21  C   UNL A   1      34.892  29.306  27.096  1.00  0.00     0.071 C 
ENDBRANCH  17  20
ENDBRANCH  16  17
ENDBRANCH   6  16
BRANCH  15  22
ATOM     22  C   UNL A   1      33.375  22.108  27.373  1.00  0.00     0.430 C 
ATOM     23  F   UNL A   1      34.566  22.733  27.216  1.00  0.00    -0.167 F 
ATOM     24  F   UNL A   1      32.878  22.528  28.564  1.00  0.00    -0.167 F 
ATOM     25  F   UNL A   1      33.622  20.785  27.482  1.00  0.00    -0.167 F 
ENDBRANCH  15  22
ENDBRANCH   3   5
ENDBRANCH   2   3
ENDBRANCH   1   2
BRANCH   1  26
ATOM     26  C   UNL A   1      37.391  20.587  24.896  1.00  0.00     0.275 C 
BRANCH  26  27
ATOM     27  O   UNL A   1      37.987  21.714  25.562  1.00  0.00    -0.458 OA
BRANCH  27  28
ATOM     28  C   UNL A   1      39.171  21.465  26.166  1.00  0.00     0.338 C 
ATOM     29  O   UNL A   1      39.775  20.407  26.197  1.00  0.00    -0.246 OA
BRANCH  28  30
ATOM     30  C   UNL A   1      39.699  22.709  26.745  1.00  0.00     0.060 A 
ATOM     31  C   UNL A   1      40.744  22.694  27.661  1.00  0.00     0.016 A 
ATOM     32  C   UNL A   1      39.220  23.917  26.255  1.00  0.00     0.016 A 
ATOM     33  C   UNL A   1      41.280  23.912  28.098  1.00  0.00     0.010 A 
ATOM     34  C   UNL A   1      39.876  25.107  26.547  1.00  0.00     0.010 A 
ATOM     35  C   UNL A   1      40.874  25.135  27.524  1.00  0.00    -0.014 A 
BRANCH  35  36
ATOM     36  C   UNL A   1      41.437  26.443  27.972  1.00  0.00     0.031 A 
ATOM     37  C   UNL A   1      42.848  26.841  27.595  1.00  0.00     0.074 A 
ATOM     38  C   UNL A   1      40.697  27.264  28.745  1.00  0.00     0.049 A 
ATOM     39  N   UNL A   1      43.504  27.935  27.891  1.00  0.00    -0.248 NA
ATOM     40  C   UNL A   1      43.646  25.871  26.824  1.00  0.00     0.031 C 
ATOM     41  C   UNL A   1      39.363  26.956  29.260  1.00  0.00     0.029 A 
ATOM     42  N   UNL A   1      40.950  28.528  29.223  1.00  0.00    -0.354 N 
ATOM     43  C   UNL A   1      44.784  27.766  27.371  1.00  0.00     0.074 A 
ATOM     44  C   UNL A   1      44.846  26.434  26.823  1.00  0.00     0.031 C 
ATOM     45  C   UNL A   1      38.885  28.023  29.915  1.00  0.00     0.029 A 
ATOM     46  C   UNL A   1      39.895  29.079  29.914  1.00  0.00     0.049 A 
ATOM     47  H   UNL A   1      41.805  28.995  29.084  1.00  0.00     0.167 HD
ATOM     48  C   UNL A   1      45.802  28.657  27.301  1.00  0.00     0.034 A 
ATOM     49  C   UNL A   1      39.746  30.300  30.473  1.00  0.00     0.034 A 
ATOM     50  C   UNL A   1      45.703  30.008  27.785  1.00  0.00     0.049 A 
ATOM     51  C   UNL A   1      40.867  31.300  30.335  1.00  0.00     0.074 A 
ATOM     52  C   UNL A   1      46.638  31.021  27.683  1.00  0.00     0.029 A 
ATOM     53  N   UNL A   1      44.604  30.539  28.444  1.00  0.00    -0.354 N 
ATOM     54  N   UNL A   1      42.028  31.159  29.738  1.00  0.00    -0.248 NA
ATOM     55  C   UNL A   1      40.660  32.628  30.929  1.00  0.00     0.031 C 
ATOM     56  C   UNL A   1      46.129  32.147  28.330  1.00  0.00     0.029 A 
ATOM     57  C   UNL A   1      44.846  31.861  28.772  1.00  0.00     0.049 A 
ATOM     58  H   UNL A   1      43.775  30.049  28.648  1.00  0.00     0.167 HD
ATOM     59  C   UNL A   1      42.681  32.380  29.871  1.00  0.00     0.074 A 
ATOM     60  C   UNL A   1      41.773  33.260  30.575  1.00  0.00     0.031 C 
ATOM     61  C   UNL A   1      43.923  32.735  29.457  1.00  0.00     0.034 A 
BRANCH  48  62
ATOM     62  C   UNL A   1      47.091  28.242  26.629  1.00  0.00     0.023 A 
ATOM     63  C   UNL A   1      47.192  28.244  25.225  1.00  0.00     0.031 A 
ATOM     64  C   UNL A   1      48.172  27.724  27.368  1.00  0.00     0.131 A 
ATOM     65  C   UNL A   1      48.331  27.711  24.606  1.00  0.00     0.055 A 
ATOM     66  C   UNL A   1      49.327  27.246  26.749  1.00  0.00     0.041 A 
ATOM     67  F   UNL A   1      48.126  27.690  28.710  1.00  0.00    -0.206 F 
ATOM     68  C   UNL A   1      49.404  27.225  25.360  1.00  0.00     0.022 A 
BRANCH  65  69
ATOM     69  S   UNL A   1      48.441  27.563  22.802  1.00  0.00     0.124 S 
ATOM     70  O   UNL A   1      48.397  26.114  22.616  1.00  0.00    -0.237 OA
ATOM     71  O   UNL A   1      47.248  28.283  22.364  1.00  0.00    -0.237 OA
ATOM     72  O   UNL A   1      49.716  28.192  22.474  1.00  0.00    -0.744 OA
ENDBRANCH  65  69
ENDBRANCH  48  62
BRANCH  49  73
ATOM     73  C   UNL A   1      38.444  30.651  31.118  1.00  0.00     0.023 A 
ATOM     74  C   UNL A   1      37.425  31.298  30.394  1.00  0.00     0.031 A 
ATOM     75  C   UNL A   1      38.253  30.460  32.497  1.00  0.00     0.131 A 
ATOM     76  C   UNL A   1      36.302  31.798  31.067  1.00  0.00     0.055 A 
ATOM     77  C   UNL A   1      37.096  30.892  33.149  1.00  0.00     0.041 A 
ATOM     78  F   UNL A   1      39.200  29.862  33.235  1.00  0.00    -0.206 F 
ATOM     79  C   UNL A   1      36.122  31.583  32.437  1.00  0.00     0.022 A 
BRANCH  76  80
ATOM     80  S   UNL A   1      35.112  32.875  30.218  1.00  0.00     0.124 S 
ATOM     81  O   UNL A   1      34.157  33.172  31.281  1.00  0.00    -0.237 OA
ATOM     82  O   UNL A   1      35.962  33.991  29.806  1.00  0.00    -0.237 OA
ATOM     83  O   UNL A   1      34.611  32.044  29.130  1.00  0.00    -0.744 OA
ENDBRANCH  76  80
ENDBRANCH  49  73
BRANCH  61  84
ATOM     84  C   UNL A   1      44.412  34.136  29.742  1.00  0.00     0.023 A 
ATOM     85  C   UNL A   1      44.155  35.170  28.820  1.00  0.00     0.031 A 
ATOM     86  C   UNL A   1      45.280  34.399  30.815  1.00  0.00     0.131 A 
ATOM     87  C   UNL A   1      44.803  36.402  28.960  1.00  0.00     0.055 A 
ATOM     88  C   UNL A   1      45.881  35.648  30.979  1.00  0.00     0.041 A 
ATOM     89  F   UNL A   1      45.566  33.442  31.711  1.00  0.00    -0.206 F 
ATOM     90  C   UNL A   1      45.657  36.649  30.039  1.00  0.00     0.022 A 
BRANCH  87  91
ATOM     91  S   UNL A   1      44.646  37.691  27.692  1.00  0.00     0.124 S 
ATOM     92  O   UNL A   1      45.928  37.589  26.997  1.00  0.00    -0.237 OA
ATOM     93  O   UNL A   1      43.486  37.234  26.931  1.00  0.00    -0.237 OA
ATOM     94  O   UNL A   1      44.451  38.917  28.458  1.00  0.00    -0.744 OA
ENDBRANCH  87  91
ENDBRANCH  61  84
ENDBRANCH  35  36
ENDBRANCH  28  30
ENDBRANCH  27  28
ENDBRANCH  26  27
ENDBRANCH   1  26
TORSDOF 18
ENDMDL
MODEL 3
REMARK VINA RESULT:     -11.7      5.256     10.188
REMARK SMILES CC[N@@H+](C)Cc1cc2c(cc1Cl)C=C(C(=O)OCCOC(=O)c1ccc(-c3c4nc(c(-c5cc(S(=O)(=O)[O-])ccc5F)c5ccc([nH]5)c(-c5cc(S(=O)(=O)[O-])ccc5F)c5nc(c(-c6cc(S(=O)(=O)[O-])ccc6F)c6ccc3[nH]6)C=C5)C=C4)cc1)[C@@H](C(F)(F)F)O2
REMARK SMILES IDX 18 1 17 2 15 3 16 4 14 5 6 6 7 7 11 8 8 9 10 10 12 11 9 12
REMARK SMILES IDX 91 13 13 14 86 15 5 16 3 17 4 18 2 20 1 21 87 22 88 23 89 24
REMARK SMILES IDX 90 25 19 26 20 27 21 28 22 29 23 30 24 31 85 32 25 33 84 34
REMARK SMILES IDX 26 35 27 36 28 37 78 38 29 39 83 40 77 41 79 42 30 43 82 44
REMARK SMILES IDX 76 45 75 46 31 48 63 49 43 50 62 51 44 52 47 53 61 54 80 55
REMARK SMILES IDX 45 56 46 57 60 59 81 60 48 61 32 62 33 63 41 64 34 65 40 66
REMARK SMILES IDX 42 67 39 68 35 69 36 70 37 71 38 72 64 73 65 74 73 75 66 76
REMARK SMILES IDX 72 77 74 78 71 79 67 80 68 81 69 82 70 83 49 84 50 85 58 86
REMARK SMILES IDX 51 87 57 88 59 89 56 90 52 91 53 92 54 93 55 94
REMARK H PARENT 3 19 79 47 47 58
REMARK Flexibility Score: inf
ROOT
ATOM      1  C   UNL A   1      35.958  23.126  25.661  1.00  0.00     0.275 C 
ENDROOT
BRANCH   1   2
ATOM      2  O   UNL A   1      34.771  22.949  24.855  1.00  0.00    -0.459 OA
BRANCH   2   3
ATOM      3  C   UNL A   1      34.865  23.442  23.600  1.00  0.00     0.338 C 
ATOM      4  O   UNL A   1      35.643  23.068  22.736  1.00  0.00    -0.246 OA
BRANCH   3   5
ATOM      5  C   UNL A   1      33.866  24.494  23.354  1.00  0.00     0.087 C 
ATOM      6  C   UNL A   1      31.058  28.621  23.998  1.00  0.00     0.029 A 
ATOM      7  C   UNL A   1      30.945  27.476  23.167  1.00  0.00     0.058 A 
ATOM      8  C   UNL A   1      32.136  28.688  24.893  1.00  0.00     0.050 A 
ATOM      9  C   UNL A   1      31.912  26.471  23.186  1.00  0.00     0.128 A 
ATOM     10  C   UNL A   1      33.139  27.729  24.853  1.00  0.00     0.033 A 
ATOM     11  Cl  UNL A   1      32.282  29.885  26.127  1.00  0.00    -0.084 Cl
ATOM     12  C   UNL A   1      33.030  26.637  23.991  1.00  0.00     0.019 A 
ATOM     13  O   UNL A   1      31.735  25.373  22.386  1.00  0.00    -0.475 OA
ATOM     14  C   UNL A   1      34.081  25.654  23.977  1.00  0.00     0.027 C 
ATOM     15  C   UNL A   1      32.587  24.202  22.627  1.00  0.00     0.316 C 
BRANCH   6  16
ATOM     16  C   UNL A   1      30.040  29.739  23.868  1.00  0.00     0.300 C 
BRANCH  16  17
ATOM     17  N   UNL A   1      29.085  29.647  22.741  1.00  0.00    -0.334 N 
ATOM     18  C   UNL A   1      29.544  30.367  21.555  1.00  0.00     0.333 C 
ATOM     19  H   UNL A   1      29.062  28.650  22.534  1.00  0.00     0.348 HD
BRANCH  17  20
ATOM     20  C   UNL A   1      27.703  30.035  23.066  1.00  0.00     0.258 C 
ATOM     21  C   UNL A   1      27.563  31.500  23.470  1.00  0.00     0.071 C 
ENDBRANCH  17  20
ENDBRANCH  16  17
ENDBRANCH   6  16
BRANCH  15  22
ATOM     22  C   UNL A   1      31.786  23.107  23.349  1.00  0.00     0.430 C 
ATOM     23  F   UNL A   1      30.479  23.138  22.995  1.00  0.00    -0.167 F 
ATOM     24  F   UNL A   1      32.240  21.870  23.023  1.00  0.00    -0.167 F 
ATOM     25  F   UNL A   1      31.846  23.219  24.693  1.00  0.00    -0.167 F 
ENDBRANCH  15  22
ENDBRANCH   3   5
ENDBRANCH   2   3
ENDBRANCH   1   2
BRANCH   1  26
ATOM     26  C   UNL A   1      36.790  21.843  25.742  1.00  0.00     0.275 C 
BRANCH  26  27
ATOM     27  O   UNL A   1      38.126  22.051  25.254  1.00  0.00    -0.458 OA
BRANCH  27  28
ATOM     28  C   UNL A   1      39.112  21.758  26.133  1.00  0.00     0.338 C 
ATOM     29  O   UNL A   1      39.581  20.660  26.375  1.00  0.00    -0.246 OA
BRANCH  28  30
ATOM     30  C   UNL A   1      39.620  22.999  26.736  1.00  0.00     0.060 A 
ATOM     31  C   UNL A   1      40.543  22.974  27.775  1.00  0.00     0.016 A 
ATOM     32  C   UNL A   1      39.260  24.207  26.153  1.00  0.00     0.016 A 
ATOM     33  C   UNL A   1      41.076  24.184  28.237  1.00  0.00     0.010 A 
ATOM     34  C   UNL A   1      39.928  25.379  26.488  1.00  0.00     0.010 A 
ATOM     35  C   UNL A   1      40.798  25.401  27.580  1.00  0.00    -0.014 A 
BRANCH  35  36
ATOM     36  C   UNL A   1      41.361  26.700  28.054  1.00  0.00     0.031 A 
ATOM     37  C   UNL A   1      42.786  27.086  27.725  1.00  0.00     0.074 A 
ATOM     38  C   UNL A   1      40.605  27.523  28.811  1.00  0.00     0.049 A 
ATOM     39  N   UNL A   1      43.445  28.171  28.048  1.00  0.00    -0.248 NA
ATOM     40  C   UNL A   1      43.599  26.113  26.972  1.00  0.00     0.031 C 
ATOM     41  C   UNL A   1      39.253  27.225  29.282  1.00  0.00     0.029 A 
ATOM     42  N   UNL A   1      40.857  28.781  29.306  1.00  0.00    -0.354 N 
ATOM     43  C   UNL A   1      44.738  27.992  27.567  1.00  0.00     0.074 A 
ATOM     44  C   UNL A   1      44.803  26.664  27.012  1.00  0.00     0.031 C 
ATOM     45  C   UNL A   1      38.766  28.293  29.929  1.00  0.00     0.029 A 
ATOM     46  C   UNL A   1      39.786  29.339  29.968  1.00  0.00     0.049 A 
ATOM     47  H   UNL A   1      41.720  29.240  29.197  1.00  0.00     0.167 HD
ATOM     48  C   UNL A   1      45.766  28.873  27.535  1.00  0.00     0.034 A 
ATOM     49  C   UNL A   1      39.633  30.557  30.531  1.00  0.00     0.034 A 
ATOM     50  C   UNL A   1      45.666  30.222  28.025  1.00  0.00     0.049 A 
ATOM     51  C   UNL A   1      40.767  31.546  30.434  1.00  0.00     0.074 A 
ATOM     52  C   UNL A   1      46.614  31.226  27.960  1.00  0.00     0.029 A 
ATOM     53  N   UNL A   1      44.553  30.760  28.654  1.00  0.00    -0.354 N 
ATOM     54  N   UNL A   1      41.944  31.397  29.873  1.00  0.00    -0.248 NA
ATOM     55  C   UNL A   1      40.556  32.872  31.032  1.00  0.00     0.031 C 
ATOM     56  C   UNL A   1      46.097  32.353  28.598  1.00  0.00     0.029 A 
ATOM     57  C   UNL A   1      44.798  32.077  28.999  1.00  0.00     0.049 A 
ATOM     58  H   UNL A   1      43.713  30.277  28.828  1.00  0.00     0.167 HD
ATOM     59  C   UNL A   1      42.606  32.611  30.034  1.00  0.00     0.074 A 
ATOM     60  C   UNL A   1      41.685  33.495  30.716  1.00  0.00     0.031 C 
ATOM     61  C   UNL A   1      43.864  32.956  29.662  1.00  0.00     0.034 A 
BRANCH  48  62
ATOM     62  C   UNL A   1      47.071  28.449  26.900  1.00  0.00     0.023 A 
ATOM     63  C   UNL A   1      47.173  28.326  25.501  1.00  0.00     0.031 A 
ATOM     64  C   UNL A   1      48.171  28.045  27.680  1.00  0.00     0.131 A 
ATOM     65  C   UNL A   1      48.333  27.785  24.930  1.00  0.00     0.055 A 
ATOM     66  C   UNL A   1      49.345  27.558  27.103  1.00  0.00     0.041 A 
ATOM     67  F   UNL A   1      48.127  28.132  29.019  1.00  0.00    -0.206 F 
ATOM     68  C   UNL A   1      49.424  27.413  25.723  1.00  0.00     0.022 A 
BRANCH  65  69
ATOM     69  S   UNL A   1      48.450  27.476  23.147  1.00  0.00     0.124 S 
ATOM     70  O   UNL A   1      49.763  28.032  22.831  1.00  0.00    -0.237 OA
ATOM     71  O   UNL A   1      48.359  26.019  23.085  1.00  0.00    -0.237 OA
ATOM     72  O   UNL A   1      47.316  28.205  22.589  1.00  0.00    -0.744 OA
ENDBRANCH  65  69
ENDBRANCH  48  62
BRANCH  49  73
ATOM     73  C   UNL A   1      38.315  30.916  31.138  1.00  0.00     0.023 A 
ATOM     74  C   UNL A   1      37.302  31.524  30.371  1.00  0.00     0.031 A 
ATOM     75  C   UNL A   1      38.100  30.777  32.520  1.00  0.00     0.131 A 
ATOM     76  C   UNL A   1      36.161  32.035  31.003  1.00  0.00     0.055 A 
ATOM     77  C   UNL A   1      36.926  31.219  33.133  1.00  0.00     0.041 A 
ATOM     78  F   UNL A   1      39.041  30.219  33.297  1.00  0.00    -0.206 F 
ATOM     79  C   UNL A   1      35.958  31.871  32.377  1.00  0.00     0.022 A 
BRANCH  76  80
ATOM     80  S   UNL A   1      34.976  33.065  30.092  1.00  0.00     0.124 S 
ATOM     81  O   UNL A   1      34.422  32.116  29.131  1.00  0.00    -0.237 OA
ATOM     82  O   UNL A   1      34.067  33.486  31.156  1.00  0.00    -0.237 OA
ATOM     83  O   UNL A   1      35.804  34.126  29.529  1.00  0.00    -0.744 OA
ENDBRANCH  76  80
ENDBRANCH  49  73
BRANCH  61  84
ATOM     84  C   UNL A   1      44.358  34.349  29.971  1.00  0.00     0.023 A 
ATOM     85  C   UNL A   1      44.158  35.388  29.041  1.00  0.00     0.031 A 
ATOM     86  C   UNL A   1      45.178  34.600  31.084  1.00  0.00     0.131 A 
ATOM     87  C   UNL A   1      44.815  36.611  29.213  1.00  0.00     0.055 A 
ATOM     88  C   UNL A   1      45.788  35.840  31.278  1.00  0.00     0.041 A 
ATOM     89  F   UNL A   1      45.410  33.637  31.991  1.00  0.00    -0.206 F 
ATOM     90  C   UNL A   1      45.621  36.845  30.331  1.00  0.00     0.022 A 
BRANCH  87  91
ATOM     91  S   UNL A   1      44.733  37.904  27.942  1.00  0.00     0.124 S 
ATOM     92  O   UNL A   1      46.147  38.216  27.738  1.00  0.00    -0.237 OA
ATOM     93  O   UNL A   1      44.083  37.207  26.836  1.00  0.00    -0.237 OA
ATOM     94  O   UNL A   1      43.947  38.963  28.566  1.00  0.00    -0.744 OA
ENDBRANCH  87  91
ENDBRANCH  61  84
ENDBRANCH  35  36
ENDBRANCH  28  30
ENDBRANCH  27  28
ENDBRANCH  26  27
ENDBRANCH   1  26
TORSDOF 18
ENDMDL
