MODEL 1
REMARK VINA RESULT:     -10.7      0.000      0.000
REMARK SMILES CC[C@@H](C)N(C)c1ccc(/C=C/C(=O)OCCOC(=O)c2ccc(-c3c4nc(c(-c5cc(S(=O)(=O)[O-])ccc5F)c5ccc([nH]5)c(-c5cc(S(=O)(=O)[O-])ccc5F)c5nc(c(-c6cc(S(=O)(=O)[O-])ccc6F)c6ccc3[nH]6)C=C5)C=C4)cc2)cc1F
REMARK SMILES IDX 16 1 15 2 13 3 14 4 12 5 11 6 10 7 7 8 8 9 85 10 9 11 84 12
REMARK SMILES IDX 86 13 5 14 6 15 3 16 4 17 2 18 1 19 17 20 18 21 19 22 20 23
REMARK SMILES IDX 21 24 22 25 83 26 23 27 82 28 24 29 25 30 26 31 76 32 27 33
REMARK SMILES IDX 81 34 75 35 77 36 28 37 80 38 74 39 73 40 29 42 61 43 41 44
REMARK SMILES IDX 60 45 42 46 45 47 59 48 78 49 43 50 44 51 58 53 79 54 46 55
REMARK SMILES IDX 30 56 31 57 39 58 32 59 38 60 40 61 37 62 33 63 34 64 35 65
REMARK SMILES IDX 36 66 62 67 63 68 71 69 64 70 70 71 72 72 69 73 65 74 66 75
REMARK SMILES IDX 67 76 68 77 47 78 48 79 56 80 49 81 55 82 57 83 54 84 50 85
REMARK SMILES IDX 51 86 52 87 53 88
REMARK H PARENT 77 41 45 52
REMARK Flexibility Score: inf
ROOT
ATOM      1  C   UNL A   1      31.340  29.611  25.025  1.00  0.00     0.275 C 
ENDROOT
BRANCH   1   2
ATOM      2  O   UNL A   1      30.413  29.757  23.934  1.00  0.00    -0.459 OA
BRANCH   2   3
ATOM      3  C   UNL A   1      30.449  28.783  22.994  1.00  0.00     0.330 C 
ATOM      4  O   UNL A   1      29.885  28.808  21.910  1.00  0.00    -0.247 OA
BRANCH   3   5
ATOM      5  C   UNL A   1      31.286  27.634  23.396  1.00  0.00     0.094 C 
ATOM      6  C   UNL A   1      30.972  26.343  23.199  1.00  0.00     0.016 C 
BRANCH   6   7
ATOM      7  C   UNL A   1      31.812  25.225  23.657  1.00  0.00    -0.022 A 
ATOM      8  C   UNL A   1      33.429  23.012  24.474  1.00  0.00     0.073 A 
ATOM      9  C   UNL A   1      33.176  24.096  25.331  1.00  0.00     0.029 A 
ATOM     10  C   UNL A   1      32.798  23.053  23.220  1.00  0.00     0.147 A 
ATOM     11  C   UNL A   1      32.380  25.181  24.933  1.00  0.00     0.010 A 
ATOM     12  C   UNL A   1      32.008  24.132  22.812  1.00  0.00     0.049 A 
ATOM     13  F   UNL A   1      32.906  22.020  22.368  1.00  0.00    -0.205 F 
BRANCH   8  14
ATOM     14  N   UNL A   1      34.265  21.961  24.861  1.00  0.00    -0.370 N 
ATOM     15  C   UNL A   1      34.101  21.452  26.223  1.00  0.00     0.144 C 
BRANCH  14  16
ATOM     16  C   UNL A   1      35.610  21.816  24.253  1.00  0.00     0.078 C 
ATOM     17  C   UNL A   1      36.459  20.787  25.004  1.00  0.00     0.031 C 
BRANCH  16  18
ATOM     18  C   UNL A   1      36.319  23.170  24.092  1.00  0.00     0.021 C 
ATOM     19  C   UNL A   1      37.048  23.628  25.349  1.00  0.00     0.006 C 
ENDBRANCH  16  18
ENDBRANCH  14  16
ENDBRANCH   8  14
ENDBRANCH   6   7
ENDBRANCH   3   5
ENDBRANCH   2   3
ENDBRANCH   1   2
BRANCH   1  20
ATOM     20  C   UNL A   1      31.430  30.895  25.854  1.00  0.00     0.275 C 
BRANCH  20  21
ATOM     21  O   UNL A   1      32.314  30.750  26.980  1.00  0.00    -0.458 OA
BRANCH  21  22
ATOM     22  C   UNL A   1      33.068  31.845  27.253  1.00  0.00     0.338 C 
ATOM     23  O   UNL A   1      32.718  33.010  27.149  1.00  0.00    -0.246 OA
BRANCH  22  24
ATOM     24  C   UNL A   1      34.375  31.450  27.811  1.00  0.00     0.060 A 
ATOM     25  C   UNL A   1      34.551  30.108  28.168  1.00  0.00     0.016 A 
ATOM     26  C   UNL A   1      35.377  32.387  28.073  1.00  0.00     0.016 A 
ATOM     27  C   UNL A   1      35.717  29.705  28.813  1.00  0.00     0.010 A 
ATOM     28  C   UNL A   1      36.548  31.980  28.727  1.00  0.00     0.010 A 
ATOM     29  C   UNL A   1      36.713  30.642  29.123  1.00  0.00    -0.014 A 
BRANCH  29  30
ATOM     30  C   UNL A   1      37.872  30.224  29.951  1.00  0.00     0.031 A 
ATOM     31  C   UNL A   1      38.878  29.259  29.382  1.00  0.00     0.074 A 
ATOM     32  C   UNL A   1      38.058  30.749  31.177  1.00  0.00     0.049 A 
ATOM     33  N   UNL A   1      39.954  28.765  29.938  1.00  0.00    -0.248 NA
ATOM     34  C   UNL A   1      38.645  28.793  28.005  1.00  0.00     0.031 C 
ATOM     35  C   UNL A   1      37.176  31.727  31.817  1.00  0.00     0.029 A 
ATOM     36  N   UNL A   1      39.055  30.544  32.100  1.00  0.00    -0.354 N 
ATOM     37  C   UNL A   1      40.524  27.930  28.984  1.00  0.00     0.074 A 
ATOM     38  C   UNL A   1      39.664  27.966  27.821  1.00  0.00     0.031 C 
ATOM     39  C   UNL A   1      37.677  32.042  33.024  1.00  0.00     0.029 A 
ATOM     40  C   UNL A   1      38.893  31.265  33.260  1.00  0.00     0.049 A 
ATOM     41  H   UNL A   1      39.814  29.938  31.944  1.00  0.00     0.167 HD
ATOM     42  C   UNL A   1      41.666  27.208  29.068  1.00  0.00     0.034 A 
ATOM     43  C   UNL A   1      39.627  31.280  34.391  1.00  0.00     0.034 A 
ATOM     44  C   UNL A   1      42.530  27.191  30.220  1.00  0.00     0.049 A 
ATOM     45  C   UNL A   1      40.853  30.408  34.485  1.00  0.00     0.074 A 
ATOM     46  C   UNL A   1      43.726  26.513  30.385  1.00  0.00     0.029 A 
ATOM     47  N   UNL A   1      42.291  27.874  31.401  1.00  0.00    -0.354 N 
ATOM     48  N   UNL A   1      41.369  29.613  33.577  1.00  0.00    -0.248 NA
ATOM     49  C   UNL A   1      41.589  30.423  35.758  1.00  0.00     0.031 C 
ATOM     50  C   UNL A   1      44.183  26.745  31.685  1.00  0.00     0.029 A 
ATOM     51  C   UNL A   1      43.300  27.609  32.312  1.00  0.00     0.049 A 
ATOM     52  H   UNL A   1      41.519  28.462  31.568  1.00  0.00     0.167 HD
ATOM     53  C   UNL A   1      42.494  29.044  34.165  1.00  0.00     0.074 A 
ATOM     54  C   UNL A   1      42.591  29.592  35.502  1.00  0.00     0.031 C 
ATOM     55  C   UNL A   1      43.370  28.149  33.646  1.00  0.00     0.034 A 
BRANCH  42  56
ATOM     56  C   UNL A   1      42.043  26.347  27.895  1.00  0.00     0.023 A 
ATOM     57  C   UNL A   1      41.663  24.997  27.823  1.00  0.00     0.031 A 
ATOM     58  C   UNL A   1      42.741  26.905  26.810  1.00  0.00     0.131 A 
ATOM     59  C   UNL A   1      42.005  24.240  26.692  1.00  0.00     0.055 A 
ATOM     60  C   UNL A   1      43.035  26.160  25.669  1.00  0.00     0.041 A 
ATOM     61  F   UNL A   1      43.136  28.188  26.841  1.00  0.00    -0.206 F 
ATOM     62  C   UNL A   1      42.669  24.818  25.606  1.00  0.00     0.022 A 
BRANCH  59  63
ATOM     63  S   UNL A   1      41.597  22.473  26.665  1.00  0.00     0.124 S 
ATOM     64  O   UNL A   1      42.327  21.987  27.833  1.00  0.00    -0.237 OA
ATOM     65  O   UNL A   1      40.143  22.477  26.778  1.00  0.00    -0.237 OA
ATOM     66  O   UNL A   1      42.119  22.022  25.377  1.00  0.00    -0.744 OA
ENDBRANCH  59  63
ENDBRANCH  42  56
BRANCH  43  67
ATOM     67  C   UNL A   1      39.197  32.105  35.556  1.00  0.00     0.023 A 
ATOM     68  C   UNL A   1      39.658  33.418  35.730  1.00  0.00     0.031 A 
ATOM     69  C   UNL A   1      38.347  31.565  36.538  1.00  0.00     0.131 A 
ATOM     70  C   UNL A   1      39.291  34.140  36.878  1.00  0.00     0.055 A 
ATOM     71  C   UNL A   1      37.951  32.300  37.655  1.00  0.00     0.041 A 
ATOM     72  F   UNL A   1      37.881  30.311  36.418  1.00  0.00    -0.206 F 
ATOM     73  C   UNL A   1      38.431  33.594  37.834  1.00  0.00     0.022 A 
BRANCH  70  74
ATOM     74  S   UNL A   1      39.998  35.790  37.133  1.00  0.00     0.124 S 
ATOM     75  O   UNL A   1      39.665  36.453  35.877  1.00  0.00    -0.237 OA
ATOM     76  O   UNL A   1      39.278  36.251  38.315  1.00  0.00    -0.237 OA
ATOM     77  O   UNL A   1      41.420  35.523  37.340  1.00  0.00    -0.744 OA
ENDBRANCH  70  74
ENDBRANCH  43  67
BRANCH  55  78
ATOM     78  C   UNL A   1      44.516  27.712  34.515  1.00  0.00     0.023 A 
ATOM     79  C   UNL A   1      44.428  26.554  35.304  1.00  0.00     0.031 A 
ATOM     80  C   UNL A   1      45.727  28.426  34.503  1.00  0.00     0.131 A 
ATOM     81  C   UNL A   1      45.533  26.150  36.070  1.00  0.00     0.055 A 
ATOM     82  C   UNL A   1      46.834  27.998  35.236  1.00  0.00     0.041 A 
ATOM     83  F   UNL A   1      45.858  29.535  33.758  1.00  0.00    -0.206 F 
ATOM     84  C   UNL A   1      46.739  26.856  36.027  1.00  0.00     0.022 A 
BRANCH  81  85
ATOM     85  S   UNL A   1      45.375  24.687  37.129  1.00  0.00     0.124 S 
ATOM     86  O   UNL A   1      44.929  23.674  36.178  1.00  0.00    -0.237 OA
ATOM     87  O   UNL A   1      46.729  24.520  37.647  1.00  0.00    -0.237 OA
ATOM     88  O   UNL A   1      44.381  25.089  38.122  1.00  0.00    -0.744 OA
ENDBRANCH  81  85
ENDBRANCH  55  78
ENDBRANCH  29  30
ENDBRANCH  22  24
ENDBRANCH  21  22
ENDBRANCH  20  21
ENDBRANCH   1  20
TORSDOF 18
ENDMDL
MODEL 2
REMARK VINA RESULT:     -10.6      2.403      8.611
REMARK SMILES CC[C@@H](C)N(C)c1ccc(/C=C/C(=O)OCCOC(=O)c2ccc(-c3c4nc(c(-c5cc(S(=O)(=O)[O-])ccc5F)c5ccc([nH]5)c(-c5cc(S(=O)(=O)[O-])ccc5F)c5nc(c(-c6cc(S(=O)(=O)[O-])ccc6F)c6ccc3[nH]6)C=C5)C=C4)cc2)cc1F
REMARK SMILES IDX 16 1 15 2 13 3 14 4 12 5 11 6 10 7 7 8 8 9 85 10 9 11 84 12
REMARK SMILES IDX 86 13 5 14 6 15 3 16 4 17 2 18 1 19 17 20 18 21 19 22 20 23
REMARK SMILES IDX 21 24 22 25 83 26 23 27 82 28 24 29 25 30 26 31 76 32 27 33
REMARK SMILES IDX 81 34 75 35 77 36 28 37 80 38 74 39 73 40 29 42 61 43 41 44
REMARK SMILES IDX 60 45 42 46 45 47 59 48 78 49 43 50 44 51 58 53 79 54 46 55
REMARK SMILES IDX 30 56 31 57 39 58 32 59 38 60 40 61 37 62 33 63 34 64 35 65
REMARK SMILES IDX 36 66 62 67 63 68 71 69 64 70 70 71 72 72 69 73 65 74 66 75
REMARK SMILES IDX 67 76 68 77 47 78 48 79 56 80 49 81 55 82 57 83 54 84 50 85
REMARK SMILES IDX 51 86 52 87 53 88
REMARK H PARENT 77 41 45 52
REMARK Flexibility Score: inf
ROOT
ATOM      1  C   UNL A   1      42.502  21.257  26.181  1.00  0.00     0.275 C 
ENDROOT
BRANCH   1   2
ATOM      2  O   UNL A   1      41.188  21.652  25.746  1.00  0.00    -0.459 OA
BRANCH   2   3
ATOM      3  C   UNL A   1      40.223  20.708  25.850  1.00  0.00     0.330 C 
ATOM      4  O   UNL A   1      40.402  19.511  26.021  1.00  0.00    -0.247 OA
BRANCH   3   5
ATOM      5  C   UNL A   1      38.861  21.274  25.756  1.00  0.00     0.094 C 
ATOM      6  C   UNL A   1      37.896  20.830  24.934  1.00  0.00     0.016 C 
BRANCH   6   7
ATOM      7  C   UNL A   1      36.566  21.450  24.836  1.00  0.00    -0.022 A 
ATOM      8  C   UNL A   1      34.016  22.731  24.637  1.00  0.00     0.073 A 
ATOM      9  C   UNL A   1      34.131  21.357  24.907  1.00  0.00     0.029 A 
ATOM     10  C   UNL A   1      35.221  23.445  24.528  1.00  0.00     0.147 A 
ATOM     11  C   UNL A   1      35.381  20.728  25.009  1.00  0.00     0.010 A 
ATOM     12  C   UNL A   1      36.471  22.826  24.622  1.00  0.00     0.049 A 
ATOM     13  F   UNL A   1      35.211  24.777  24.362  1.00  0.00    -0.205 F 
BRANCH   8  14
ATOM     14  N   UNL A   1      32.766  23.338  24.487  1.00  0.00    -0.370 N 
ATOM     15  C   UNL A   1      31.807  23.159  25.578  1.00  0.00     0.144 C 
BRANCH  14  16
ATOM     16  C   UNL A   1      32.201  23.555  23.133  1.00  0.00     0.078 C 
ATOM     17  C   UNL A   1      33.089  22.939  22.048  1.00  0.00     0.031 C 
BRANCH  16  18
ATOM     18  C   UNL A   1      31.882  25.035  22.872  1.00  0.00     0.021 C 
ATOM     19  C   UNL A   1      32.915  25.735  21.996  1.00  0.00     0.006 C 
ENDBRANCH  16  18
ENDBRANCH  14  16
ENDBRANCH   8  14
ENDBRANCH   6   7
ENDBRANCH   3   5
ENDBRANCH   2   3
ENDBRANCH   1   2
BRANCH   1  20
ATOM     20  C   UNL A   1      43.592  21.968  25.375  1.00  0.00     0.275 C 
BRANCH  20  21
ATOM     21  O   UNL A   1      43.105  23.168  24.748  1.00  0.00    -0.458 OA
BRANCH  21  22
ATOM     22  C   UNL A   1      43.837  24.281  25.008  1.00  0.00     0.338 C 
ATOM     23  O   UNL A   1      44.886  24.601  24.473  1.00  0.00    -0.246 OA
BRANCH  22  24
ATOM     24  C   UNL A   1      43.139  25.145  25.979  1.00  0.00     0.060 A 
ATOM     25  C   UNL A   1      43.738  26.365  26.313  1.00  0.00     0.016 A 
ATOM     26  C   UNL A   1      41.972  24.732  26.627  1.00  0.00     0.016 A 
ATOM     27  C   UNL A   1      43.189  27.161  27.315  1.00  0.00     0.010 A 
ATOM     28  C   UNL A   1      41.424  25.532  27.638  1.00  0.00     0.010 A 
ATOM     29  C   UNL A   1      42.043  26.739  28.005  1.00  0.00    -0.014 A 
BRANCH  29  30
ATOM     30  C   UNL A   1      41.569  27.522  29.174  1.00  0.00     0.031 A 
ATOM     31  C   UNL A   1      40.291  28.310  29.066  1.00  0.00     0.074 A 
ATOM     32  C   UNL A   1      42.241  27.478  30.341  1.00  0.00     0.049 A 
ATOM     33  N   UNL A   1      39.707  29.061  29.964  1.00  0.00    -0.248 NA
ATOM     34  C   UNL A   1      39.575  28.241  27.782  1.00  0.00     0.031 C 
ATOM     35  C   UNL A   1      43.466  26.713  30.579  1.00  0.00     0.029 A 
ATOM     36  N   UNL A   1      41.983  28.080  31.548  1.00  0.00    -0.354 N 
ATOM     37  C   UNL A   1      38.559  29.555  29.356  1.00  0.00     0.074 A 
ATOM     38  C   UNL A   1      38.539  29.037  28.005  1.00  0.00     0.031 C 
ATOM     39  C   UNL A   1      43.847  26.886  31.856  1.00  0.00     0.029 A 
ATOM     40  C   UNL A   1      42.918  27.801  32.517  1.00  0.00     0.049 A 
ATOM     41  H   UNL A   1      41.201  28.658  31.703  1.00  0.00     0.167 HD
ATOM     42  C   UNL A   1      37.604  30.358  29.881  1.00  0.00     0.034 A 
ATOM     43  C   UNL A   1      43.025  28.248  33.785  1.00  0.00     0.034 A 
ATOM     44  C   UNL A   1      37.617  30.854  31.232  1.00  0.00     0.049 A 
ATOM     45  C   UNL A   1      41.987  29.203  34.319  1.00  0.00     0.074 A 
ATOM     46  C   UNL A   1      36.675  31.649  31.863  1.00  0.00     0.029 A 
ATOM     47  N   UNL A   1      38.619  30.610  32.158  1.00  0.00    -0.354 N 
ATOM     48  N   UNL A   1      40.915  29.671  33.723  1.00  0.00    -0.248 NA
ATOM     49  C   UNL A   1      42.177  29.700  35.690  1.00  0.00     0.031 C 
ATOM     50  C   UNL A   1      37.134  31.930  33.153  1.00  0.00     0.029 A 
ATOM     51  C   UNL A   1      38.335  31.266  33.343  1.00  0.00     0.049 A 
ATOM     52  H   UNL A   1      39.415  30.053  31.996  1.00  0.00     0.167 HD
ATOM     53  C   UNL A   1      40.300  30.507  34.650  1.00  0.00     0.074 A 
ATOM     54  C   UNL A   1      41.112  30.473  35.849  1.00  0.00     0.031 C 
ATOM     55  C   UNL A   1      39.165  31.236  34.521  1.00  0.00     0.034 A 
BRANCH  42  56
ATOM     56  C   UNL A   1      36.472  30.783  28.987  1.00  0.00     0.023 A 
ATOM     57  C   UNL A   1      35.576  29.850  28.443  1.00  0.00     0.031 A 
ATOM     58  C   UNL A   1      36.258  32.148  28.728  1.00  0.00     0.131 A 
ATOM     59  C   UNL A   1      34.512  30.294  27.644  1.00  0.00     0.055 A 
ATOM     60  C   UNL A   1      35.170  32.586  27.973  1.00  0.00     0.041 A 
ATOM     61  F   UNL A   1      37.097  33.075  29.217  1.00  0.00    -0.206 F 
ATOM     62  C   UNL A   1      34.291  31.657  27.424  1.00  0.00     0.022 A 
BRANCH  59  63
ATOM     63  S   UNL A   1      33.429  29.067  26.865  1.00  0.00     0.124 S 
ATOM     64  O   UNL A   1      32.588  29.911  26.022  1.00  0.00    -0.237 OA
ATOM     65  O   UNL A   1      34.373  28.204  26.164  1.00  0.00    -0.237 OA
ATOM     66  O   UNL A   1      32.746  28.446  27.998  1.00  0.00    -0.744 OA
ENDBRANCH  59  63
ENDBRANCH  42  56
BRANCH  43  67
ATOM     67  C   UNL A   1      44.188  27.850  34.627  1.00  0.00     0.023 A 
ATOM     68  C   UNL A   1      44.127  26.734  35.475  1.00  0.00     0.031 A 
ATOM     69  C   UNL A   1      45.367  28.617  34.625  1.00  0.00     0.131 A 
ATOM     70  C   UNL A   1      45.216  26.431  36.309  1.00  0.00     0.055 A 
ATOM     71  C   UNL A   1      46.462  28.288  35.425  1.00  0.00     0.041 A 
ATOM     72  F   UNL A   1      45.473  29.697  33.833  1.00  0.00    -0.206 F 
ATOM     73  C   UNL A   1      46.386  27.194  36.280  1.00  0.00     0.022 A 
BRANCH  70  74
ATOM     74  S   UNL A   1      45.061  25.053  37.479  1.00  0.00     0.124 S 
ATOM     75  O   UNL A   1      46.267  25.212  38.284  1.00  0.00    -0.237 OA
ATOM     76  O   UNL A   1      43.799  25.357  38.144  1.00  0.00    -0.237 OA
ATOM     77  O   UNL A   1      45.038  23.874  36.614  1.00  0.00    -0.744 OA
ENDBRANCH  70  74
ENDBRANCH  43  67
BRANCH  55  78
ATOM     78  C   UNL A   1      38.723  32.050  35.706  1.00  0.00     0.023 A 
ATOM     79  C   UNL A   1      38.049  31.456  36.785  1.00  0.00     0.031 A 
ATOM     80  C   UNL A   1      39.037  33.418  35.782  1.00  0.00     0.131 A 
ATOM     81  C   UNL A   1      37.691  32.236  37.894  1.00  0.00     0.055 A 
ATOM     82  C   UNL A   1      38.712  34.180  36.905  1.00  0.00     0.041 A 
ATOM     83  F   UNL A   1      39.687  34.027  34.778  1.00  0.00    -0.206 F 
ATOM     84  C   UNL A   1      38.033  33.590  37.968  1.00  0.00     0.022 A 
BRANCH  81  85
ATOM     85  S   UNL A   1      36.765  31.461  39.247  1.00  0.00     0.124 S 
ATOM     86  O   UNL A   1      35.548  32.265  39.279  1.00  0.00    -0.237 OA
ATOM     87  O   UNL A   1      36.607  30.087  38.780  1.00  0.00    -0.237 OA
ATOM     88  O   UNL A   1      37.647  31.621  40.401  1.00  0.00    -0.744 OA
ENDBRANCH  81  85
ENDBRANCH  55  78
ENDBRANCH  29  30
ENDBRANCH  22  24
ENDBRANCH  21  22
ENDBRANCH  20  21
ENDBRANCH   1  20
TORSDOF 18
ENDMDL
MODEL 3
REMARK VINA RESULT:     -10.6      3.910      6.775
REMARK SMILES CC[C@@H](C)N(C)c1ccc(/C=C/C(=O)OCCOC(=O)c2ccc(-c3c4nc(c(-c5cc(S(=O)(=O)[O-])ccc5F)c5ccc([nH]5)c(-c5cc(S(=O)(=O)[O-])ccc5F)c5nc(c(-c6cc(S(=O)(=O)[O-])ccc6F)c6ccc3[nH]6)C=C5)C=C4)cc2)cc1F
REMARK SMILES IDX 16 1 15 2 13 3 14 4 12 5 11 6 10 7 7 8 8 9 85 10 9 11 84 12
REMARK SMILES IDX 86 13 5 14 6 15 3 16 4 17 2 18 1 19 17 20 18 21 19 22 20 23
REMARK SMILES IDX 21 24 22 25 83 26 23 27 82 28 24 29 25 30 26 31 76 32 27 33
REMARK SMILES IDX 81 34 75 35 77 36 28 37 80 38 74 39 73 40 29 42 61 43 41 44
REMARK SMILES IDX 60 45 42 46 45 47 59 48 78 49 43 50 44 51 58 53 79 54 46 55
REMARK SMILES IDX 30 56 31 57 39 58 32 59 38 60 40 61 37 62 33 63 34 64 35 65
REMARK SMILES IDX 36 66 62 67 63 68 71 69 64 70 70 71 72 72 69 73 65 74 66 75
REMARK SMILES IDX 67 76 68 77 47 78 48 79 56 80 49 81 55 82 57 83 54 84 50 85
REMARK SMILES IDX 51 86 52 87 53 88
REMARK H PARENT 77 41 45 52
REMARK Flexibility Score: inf
ROOT
ATOM      1  C   UNL A   1      34.178  34.585  29.124  1.00  0.00     0.275 C 
ENDROOT
BRANCH   1   2
ATOM      2  O   UNL A   1      33.860  34.551  30.527  1.00  0.00    -0.459 OA
BRANCH   2   3
ATOM      3  C   UNL A   1      34.581  33.683  31.275  1.00  0.00     0.330 C 
ATOM      4  O   UNL A   1      34.133  32.900  32.100  1.00  0.00    -0.247 OA
BRANCH   3   5
ATOM      5  C   UNL A   1      36.028  33.747  30.985  1.00  0.00     0.094 C 
ATOM      6  C   UNL A   1      36.945  34.345  31.762  1.00  0.00     0.016 C 
BRANCH   6   7
ATOM      7  C   UNL A   1      38.373  34.428  31.415  1.00  0.00    -0.022 A 
ATOM      8  C   UNL A   1      41.166  34.593  30.821  1.00  0.00     0.073 A 
ATOM      9  C   UNL A   1      40.197  34.562  29.805  1.00  0.00     0.029 A 
ATOM     10  C   UNL A   1      40.681  34.596  32.140  1.00  0.00     0.147 A 
ATOM     11  C   UNL A   1      38.826  34.485  30.094  1.00  0.00     0.010 A 
ATOM     12  C   UNL A   1      39.317  34.513  32.439  1.00  0.00     0.049 A 
ATOM     13  F   UNL A   1      41.526  34.717  33.177  1.00  0.00    -0.205 F 
BRANCH   8  14
ATOM     14  N   UNL A   1      42.531  34.620  30.523  1.00  0.00    -0.370 N 
ATOM     15  C   UNL A   1      43.067  35.869  29.983  1.00  0.00     0.144 C 
BRANCH  14  16
ATOM     16  C   UNL A   1      43.232  33.371  30.135  1.00  0.00     0.078 C 
ATOM     17  C   UNL A   1      43.467  33.304  28.623  1.00  0.00     0.031 C 
BRANCH  16  18
ATOM     18  C   UNL A   1      42.530  32.120  30.686  1.00  0.00     0.021 C 
ATOM     19  C   UNL A   1      43.118  30.814  30.165  1.00  0.00     0.006 C 
ENDBRANCH  16  18
ENDBRANCH  14  16
ENDBRANCH   8  14
ENDBRANCH   6   7
ENDBRANCH   3   5
ENDBRANCH   2   3
ENDBRANCH   1   2
BRANCH   1  20
ATOM     20  C   UNL A   1      33.343  33.570  28.338  1.00  0.00     0.275 C 
BRANCH  20  21
ATOM     21  O   UNL A   1      34.133  32.848  27.378  1.00  0.00    -0.458 OA
BRANCH  21  22
ATOM     22  C   UNL A   1      34.085  31.498  27.504  1.00  0.00     0.338 C 
ATOM     23  O   UNL A   1      33.149  30.774  27.204  1.00  0.00    -0.246 OA
BRANCH  22  24
ATOM     24  C   UNL A   1      35.383  30.974  27.970  1.00  0.00     0.060 A 
ATOM     25  C   UNL A   1      35.403  29.694  28.536  1.00  0.00     0.016 A 
ATOM     26  C   UNL A   1      36.543  31.752  27.945  1.00  0.00     0.016 A 
ATOM     27  C   UNL A   1      36.575  29.201  29.105  1.00  0.00     0.010 A 
ATOM     28  C   UNL A   1      37.719  31.256  28.523  1.00  0.00     0.010 A 
ATOM     29  C   UNL A   1      37.735  29.988  29.128  1.00  0.00    -0.014 A 
BRANCH  29  30
ATOM     30  C   UNL A   1      38.923  29.510  29.879  1.00  0.00     0.031 A 
ATOM     31  C   UNL A   1      39.833  28.489  29.250  1.00  0.00     0.074 A 
ATOM     32  C   UNL A   1      39.220  30.029  31.086  1.00  0.00     0.049 A 
ATOM     33  N   UNL A   1      40.916  27.939  29.735  1.00  0.00    -0.248 NA
ATOM     34  C   UNL A   1      39.483  28.032  27.895  1.00  0.00     0.031 C 
ATOM     35  C   UNL A   1      38.438  31.055  31.777  1.00  0.00     0.029 A 
ATOM     36  N   UNL A   1      40.264  29.773  31.940  1.00  0.00    -0.354 N 
ATOM     37  C   UNL A   1      41.374  27.070  28.751  1.00  0.00     0.074 A 
ATOM     38  C   UNL A   1      40.441  27.150  27.649  1.00  0.00     0.031 C 
ATOM     39  C   UNL A   1      39.036  31.347  32.944  1.00  0.00     0.029 A 
ATOM     40  C   UNL A   1      40.221  30.505  33.104  1.00  0.00     0.049 A 
ATOM     41  H   UNL A   1      40.977  29.125  31.738  1.00  0.00     0.167 HD
ATOM     42  C   UNL A   1      42.478  26.288  28.763  1.00  0.00     0.034 A 
ATOM     43  C   UNL A   1      41.030  30.484  34.183  1.00  0.00     0.034 A 
ATOM     44  C   UNL A   1      43.416  26.227  29.854  1.00  0.00     0.049 A 
ATOM     45  C   UNL A   1      42.209  29.546  34.199  1.00  0.00     0.074 A 
ATOM     46  C   UNL A   1      44.582  25.486  29.943  1.00  0.00     0.029 A 
ATOM     47  N   UNL A   1      43.296  26.927  31.044  1.00  0.00    -0.354 N 
ATOM     48  N   UNL A   1      42.619  28.721  33.264  1.00  0.00    -0.248 NA
ATOM     49  C   UNL A   1      43.031  29.526  35.419  1.00  0.00     0.031 C 
ATOM     50  C   UNL A   1      45.138  25.697  31.208  1.00  0.00     0.029 A 
ATOM     51  C   UNL A   1      44.347  26.610  31.886  1.00  0.00     0.049 A 
ATOM     52  H   UNL A   1      42.569  27.557  31.259  1.00  0.00     0.167 HD
ATOM     53  C   UNL A   1      43.749  28.093  33.780  1.00  0.00     0.074 A 
ATOM     54  C   UNL A   1      43.966  28.641  35.103  1.00  0.00     0.031 C 
ATOM     55  C   UNL A   1      44.537  27.150  33.209  1.00  0.00     0.034 A 
BRANCH  42  56
ATOM     56  C   UNL A   1      42.727  25.403  27.574  1.00  0.00     0.023 A 
ATOM     57  C   UNL A   1      42.257  24.081  27.531  1.00  0.00     0.031 A 
ATOM     58  C   UNL A   1      43.394  25.914  26.446  1.00  0.00     0.131 A 
ATOM     59  C   UNL A   1      42.480  23.302  26.385  1.00  0.00     0.055 A 
ATOM     60  C   UNL A   1      43.569  25.150  25.293  1.00  0.00     0.041 A 
ATOM     61  F   UNL A   1      43.872  27.168  26.448  1.00  0.00    -0.206 F 
ATOM     62  C   UNL A   1      43.114  23.835  25.259  1.00  0.00     0.022 A 
BRANCH  59  63
ATOM     63  S   UNL A   1      41.958  21.566  26.391  1.00  0.00     0.124 S 
ATOM     64  O   UNL A   1      42.868  20.983  25.409  1.00  0.00    -0.237 OA
ATOM     65  O   UNL A   1      42.176  21.169  27.777  1.00  0.00    -0.237 OA
ATOM     66  O   UNL A   1      40.558  21.629  25.977  1.00  0.00    -0.744 OA
ENDBRANCH  59  63
ENDBRANCH  42  56
BRANCH  43  67
ATOM     67  C   UNL A   1      40.725  31.335  35.367  1.00  0.00     0.023 A 
ATOM     68  C   UNL A   1      39.581  31.115  36.149  1.00  0.00     0.031 A 
ATOM     69  C   UNL A   1      41.561  32.415  35.705  1.00  0.00     0.131 A 
ATOM     70  C   UNL A   1      39.286  31.983  37.214  1.00  0.00     0.055 A 
ATOM     71  C   UNL A   1      41.286  33.249  36.790  1.00  0.00     0.041 A 
ATOM     72  F   UNL A   1      42.666  32.668  34.986  1.00  0.00    -0.206 F 
ATOM     73  C   UNL A   1      40.138  33.040  37.546  1.00  0.00     0.022 A 
BRANCH  70  74
ATOM     74  S   UNL A   1      37.739  31.744  38.130  1.00  0.00     0.124 S 
ATOM     75  O   UNL A   1      36.912  32.821  37.600  1.00  0.00    -0.237 OA
ATOM     76  O   UNL A   1      37.360  30.390  37.741  1.00  0.00    -0.237 OA
ATOM     77  O   UNL A   1      38.144  31.897  39.527  1.00  0.00    -0.744 OA
ENDBRANCH  70  74
ENDBRANCH  43  67
BRANCH  55  78
ATOM     78  C   UNL A   1      45.714  26.654  34.002  1.00  0.00     0.023 A 
ATOM     79  C   UNL A   1      45.633  25.477  34.762  1.00  0.00     0.031 A 
ATOM     80  C   UNL A   1      46.944  27.332  33.944  1.00  0.00     0.131 A 
ATOM     81  C   UNL A   1      46.764  25.018  35.455  1.00  0.00     0.055 A 
ATOM     82  C   UNL A   1      48.076  26.850  34.603  1.00  0.00     0.041 A 
ATOM     83  F   UNL A   1      47.070  28.458  33.223  1.00  0.00    -0.206 F 
ATOM     84  C   UNL A   1      47.988  25.688  35.366  1.00  0.00     0.022 A 
BRANCH  81  85
ATOM     85  S   UNL A   1      46.618  23.530  36.480  1.00  0.00     0.124 S 
ATOM     86  O   UNL A   1      47.288  23.945  37.709  1.00  0.00    -0.237 OA
ATOM     87  O   UNL A   1      45.173  23.347  36.575  1.00  0.00    -0.237 OA
ATOM     88  O   UNL A   1      47.319  22.509  35.704  1.00  0.00    -0.744 OA
ENDBRANCH  81  85
ENDBRANCH  55  78
ENDBRANCH  29  30
ENDBRANCH  22  24
ENDBRANCH  21  22
ENDBRANCH  20  21
ENDBRANCH   1  20
TORSDOF 18
ENDMDL
