MODEL 1
REMARK VINA RESULT:     -11.2      0.000      0.000
REMARK SMILES CCCC(=O)Nc1ccc(Cl)c(NC(=O)/C=C/C(=O)OCCOC(=O)c2ccc(-c3c4nc(c(-c5cc(S(=O)(=O)[O-])ccc5F)c5ccc([nH]5)c(-c5cc(S(=O)(=O)[O-])ccc5F)c5nc(c(-c6cc(S(=O)(=O)[O-])ccc6F)c6ccc3[nH]6)C=C5)C=C4)cc2)c1
REMARK SMILES IDX 21 1 20 2 18 3 19 4 17 5 16 6 14 7 13 8 15 10 12 11 7 12
REMARK SMILES IDX 8 13 89 14 9 15 10 16 11 17 6 18 4 19 5 20 3 22 2 23 1 24
REMARK SMILES IDX 22 25 23 26 24 27 25 28 26 29 27 30 88 31 28 32 87 33 29 34
REMARK SMILES IDX 30 35 31 36 81 37 32 38 86 39 80 40 82 41 33 42 85 43 79 44
REMARK SMILES IDX 78 45 34 47 66 48 46 49 65 50 47 51 50 52 64 53 83 54 48 55
REMARK SMILES IDX 49 56 63 58 84 59 51 60 35 61 36 62 44 63 37 64 43 65 45 66
REMARK SMILES IDX 42 67 38 68 39 69 40 70 41 71 67 72 68 73 76 74 69 75 75 76
REMARK SMILES IDX 77 77 74 78 70 79 71 80 72 81 73 82 52 83 53 84 61 85 54 86
REMARK SMILES IDX 60 87 62 88 59 89 55 90 56 91 57 92 58 93
REMARK H PARENT 13 9 6 21 82 46 50 57
REMARK Flexibility Score: inf
ROOT
ATOM      1  C   UNL A   1      34.944  20.139  25.036  1.00  0.00     0.275 C 
ENDROOT
BRANCH   1   2
ATOM      2  O   UNL A   1      33.778  20.618  24.338  1.00  0.00    -0.459 OA
BRANCH   2   3
ATOM      3  C   UNL A   1      32.645  20.666  25.066  1.00  0.00     0.331 C 
ATOM      4  O   UNL A   1      31.836  19.761  25.212  1.00  0.00    -0.247 OA
BRANCH   3   5
ATOM      5  C   UNL A   1      32.498  21.977  25.725  1.00  0.00     0.099 C 
ATOM      6  C   UNL A   1      31.367  22.652  25.466  1.00  0.00     0.079 C 
BRANCH   6   7
ATOM      7  C   UNL A   1      30.885  23.752  26.326  1.00  0.00     0.248 C 
ATOM      8  N   UNL A   1      31.113  25.058  25.970  1.00  0.00    -0.321 N 
ATOM      9  H   UNL A   1      30.762  25.718  26.610  1.00  0.00     0.170 HD
ATOM     10  O   UNL A   1      30.307  23.477  27.376  1.00  0.00    -0.270 OA
BRANCH   8  11
ATOM     11  C   UNL A   1      31.764  25.628  24.848  1.00  0.00     0.062 A 
ATOM     12  C   UNL A   1      31.660  26.977  22.832  1.00  0.00     0.043 A 
ATOM     13  C   UNL A   1      33.036  27.149  22.863  1.00  0.00     0.028 A 
ATOM     14  C   UNL A   1      31.059  26.159  23.774  1.00  0.00     0.053 A 
ATOM     15  C   UNL A   1      33.798  26.490  23.835  1.00  0.00     0.025 A 
ATOM     16  C   UNL A   1      33.163  25.734  24.827  1.00  0.00     0.064 A 
ATOM     17  Cl  UNL A   1      34.131  25.000  26.056  1.00  0.00    -0.082 Cl
BRANCH  12  18
ATOM     18  N   UNL A   1      30.796  27.734  22.033  1.00  0.00    -0.326 N 
ATOM     19  C   UNL A   1      30.142  28.896  22.311  1.00  0.00     0.224 C 
ATOM     20  O   UNL A   1      29.095  29.170  21.721  1.00  0.00    -0.275 OA
ATOM     21  H   UNL A   1      30.638  27.372  21.131  1.00  0.00     0.169 HD
BRANCH  19  22
ATOM     22  C   UNL A   1      30.898  29.924  23.129  1.00  0.00     0.100 C 
BRANCH  22  23
ATOM     23  C   UNL A   1      30.794  29.722  24.624  1.00  0.00     0.006 C 
ATOM     24  C   UNL A   1      32.115  29.725  25.370  1.00  0.00     0.004 C 
ENDBRANCH  22  23
ENDBRANCH  19  22
ENDBRANCH  12  18
ENDBRANCH   8  11
ENDBRANCH   6   7
ENDBRANCH   3   5
ENDBRANCH   2   3
ENDBRANCH   1   2
BRANCH   1  25
ATOM     25  C   UNL A   1      36.171  20.979  24.674  1.00  0.00     0.275 C 
BRANCH  25  26
ATOM     26  O   UNL A   1      36.878  21.457  25.837  1.00  0.00    -0.458 OA
BRANCH  26  27
ATOM     27  C   UNL A   1      38.207  21.186  25.878  1.00  0.00     0.338 C 
ATOM     28  O   UNL A   1      38.724  20.105  25.643  1.00  0.00    -0.246 OA
BRANCH  27  29
ATOM     29  C   UNL A   1      38.995  22.409  26.181  1.00  0.00     0.060 A 
ATOM     30  C   UNL A   1      38.404  23.642  25.897  1.00  0.00     0.016 A 
ATOM     31  C   UNL A   1      40.292  22.375  26.705  1.00  0.00     0.016 A 
ATOM     32  C   UNL A   1      39.080  24.830  26.192  1.00  0.00     0.010 A 
ATOM     33  C   UNL A   1      40.987  23.573  26.956  1.00  0.00     0.010 A 
ATOM     34  C   UNL A   1      40.381  24.817  26.725  1.00  0.00    -0.014 A 
BRANCH  34  35
ATOM     35  C   UNL A   1      41.059  26.126  26.992  1.00  0.00     0.031 A 
ATOM     36  C   UNL A   1      40.501  27.046  28.043  1.00  0.00     0.074 A 
ATOM     37  C   UNL A   1      42.227  26.448  26.395  1.00  0.00     0.049 A 
ATOM     38  N   UNL A   1      41.029  28.119  28.574  1.00  0.00    -0.248 NA
ATOM     39  C   UNL A   1      39.162  26.717  28.551  1.00  0.00     0.031 C 
ATOM     40  C   UNL A   1      42.868  25.667  25.347  1.00  0.00     0.029 A 
ATOM     41  N   UNL A   1      43.129  27.462  26.642  1.00  0.00    -0.354 N 
ATOM     42  C   UNL A   1      40.077  28.611  29.457  1.00  0.00     0.074 A 
ATOM     43  C   UNL A   1      38.965  27.684  29.433  1.00  0.00     0.031 C 
ATOM     44  C   UNL A   1      44.113  26.132  25.150  1.00  0.00     0.029 A 
ATOM     45  C   UNL A   1      44.347  27.284  26.010  1.00  0.00     0.049 A 
ATOM     46  H   UNL A   1      42.927  28.238  27.213  1.00  0.00     0.167 HD
ATOM     47  C   UNL A   1      40.093  29.768  30.167  1.00  0.00     0.034 A 
ATOM     48  C   UNL A   1      45.519  27.951  26.132  1.00  0.00     0.034 A 
ATOM     49  C   UNL A   1      41.152  30.743  30.096  1.00  0.00     0.049 A 
ATOM     50  C   UNL A   1      45.521  29.222  26.953  1.00  0.00     0.074 A 
ATOM     51  C   UNL A   1      41.199  32.009  30.657  1.00  0.00     0.029 A 
ATOM     52  N   UNL A   1      42.341  30.577  29.398  1.00  0.00    -0.354 N 
ATOM     53  N   UNL A   1      44.587  29.702  27.741  1.00  0.00    -0.248 NA
ATOM     54  C   UNL A   1      46.710  30.081  26.839  1.00  0.00     0.031 C 
ATOM     55  C   UNL A   1      42.380  32.633  30.236  1.00  0.00     0.029 A 
ATOM     56  C   UNL A   1      43.111  31.727  29.486  1.00  0.00     0.049 A 
ATOM     57  H   UNL A   1      42.599  29.761  28.912  1.00  0.00     0.167 HD
ATOM     58  C   UNL A   1      45.058  30.940  28.172  1.00  0.00     0.074 A 
ATOM     59  C   UNL A   1      46.392  31.092  27.633  1.00  0.00     0.031 C 
ATOM     60  C   UNL A   1      44.424  31.887  28.907  1.00  0.00     0.034 A 
BRANCH  47  61
ATOM     61  C   UNL A   1      38.839  30.094  30.935  1.00  0.00     0.023 A 
ATOM     62  C   UNL A   1      37.809  30.875  30.383  1.00  0.00     0.031 A 
ATOM     63  C   UNL A   1      38.727  29.705  32.283  1.00  0.00     0.131 A 
ATOM     64  C   UNL A   1      36.755  31.311  31.200  1.00  0.00     0.055 A 
ATOM     65  C   UNL A   1      37.635  30.075  33.067  1.00  0.00     0.041 A 
ATOM     66  F   UNL A   1      39.700  28.990  32.869  1.00  0.00    -0.206 F 
ATOM     67  C   UNL A   1      36.649  30.898  32.532  1.00  0.00     0.022 A 
BRANCH  64  68
ATOM     68  S   UNL A   1      35.621  32.570  30.552  1.00  0.00     0.124 S 
ATOM     69  O   UNL A   1      35.477  32.147  29.161  1.00  0.00    -0.237 OA
ATOM     70  O   UNL A   1      34.445  32.400  31.397  1.00  0.00    -0.237 OA
ATOM     71  O   UNL A   1      36.352  33.821  30.743  1.00  0.00    -0.744 OA
ENDBRANCH  64  68
ENDBRANCH  47  61
BRANCH  48  72
ATOM     72  C   UNL A   1      46.781  27.507  25.447  1.00  0.00     0.023 A 
ATOM     73  C   UNL A   1      47.078  27.934  24.135  1.00  0.00     0.031 A 
ATOM     74  C   UNL A   1      47.663  26.580  26.031  1.00  0.00     0.131 A 
ATOM     75  C   UNL A   1      48.183  27.403  23.446  1.00  0.00     0.055 A 
ATOM     76  C   UNL A   1      48.810  26.124  25.375  1.00  0.00     0.041 A 
ATOM     77  F   UNL A   1      47.418  26.082  27.253  1.00  0.00    -0.206 F 
ATOM     78  C   UNL A   1      49.068  26.522  24.069  1.00  0.00     0.022 A 
BRANCH  75  79
ATOM     79  S   UNL A   1      48.372  27.757  21.674  1.00  0.00     0.124 S 
ATOM     80  O   UNL A   1      48.717  26.442  21.145  1.00  0.00    -0.237 OA
ATOM     81  O   UNL A   1      47.052  28.267  21.320  1.00  0.00    -0.237 OA
ATOM     82  O   UNL A   1      49.449  28.744  21.635  1.00  0.00    -0.744 OA
ENDBRANCH  75  79
ENDBRANCH  48  72
BRANCH  60  83
ATOM     83  C   UNL A   1      45.156  33.188  29.132  1.00  0.00     0.023 A 
ATOM     84  C   UNL A   1      45.120  34.222  28.177  1.00  0.00     0.031 A 
ATOM     85  C   UNL A   1      45.886  33.405  30.312  1.00  0.00     0.131 A 
ATOM     86  C   UNL A   1      45.837  35.408  28.400  1.00  0.00     0.055 A 
ATOM     87  C   UNL A   1      46.555  34.606  30.552  1.00  0.00     0.041 A 
ATOM     88  F   UNL A   1      45.955  32.452  31.256  1.00  0.00    -0.206 F 
ATOM     89  C   UNL A   1      46.541  35.612  29.589  1.00  0.00     0.022 A 
BRANCH  86  90
ATOM     90  S   UNL A   1      45.894  36.657  27.085  1.00  0.00     0.124 S 
ATOM     91  O   UNL A   1      46.250  35.857  25.918  1.00  0.00    -0.237 OA
ATOM     92  O   UNL A   1      44.536  37.191  27.101  1.00  0.00    -0.237 OA
ATOM     93  O   UNL A   1      46.929  37.586  27.538  1.00  0.00    -0.744 OA
ENDBRANCH  86  90
ENDBRANCH  60  83
ENDBRANCH  34  35
ENDBRANCH  27  29
ENDBRANCH  26  27
ENDBRANCH  25  26
ENDBRANCH   1  25
TORSDOF 19
ENDMDL
MODEL 2
REMARK VINA RESULT:     -11.2      2.406      7.846
REMARK SMILES CCCC(=O)Nc1ccc(Cl)c(NC(=O)/C=C/C(=O)OCCOC(=O)c2ccc(-c3c4nc(c(-c5cc(S(=O)(=O)[O-])ccc5F)c5ccc([nH]5)c(-c5cc(S(=O)(=O)[O-])ccc5F)c5nc(c(-c6cc(S(=O)(=O)[O-])ccc6F)c6ccc3[nH]6)C=C5)C=C4)cc2)c1
REMARK SMILES IDX 21 1 20 2 18 3 19 4 17 5 16 6 14 7 13 8 15 10 12 11 7 12
REMARK SMILES IDX 8 13 89 14 9 15 10 16 11 17 6 18 4 19 5 20 3 22 2 23 1 24
REMARK SMILES IDX 22 25 23 26 24 27 25 28 26 29 27 30 88 31 28 32 87 33 29 34
REMARK SMILES IDX 30 35 31 36 81 37 32 38 86 39 80 40 82 41 33 42 85 43 79 44
REMARK SMILES IDX 78 45 34 47 66 48 46 49 65 50 47 51 50 52 64 53 83 54 48 55
REMARK SMILES IDX 49 56 63 58 84 59 51 60 35 61 36 62 44 63 37 64 43 65 45 66
REMARK SMILES IDX 42 67 38 68 39 69 40 70 41 71 67 72 68 73 76 74 69 75 75 76
REMARK SMILES IDX 77 77 74 78 70 79 71 80 72 81 73 82 52 83 53 84 61 85 54 86
REMARK SMILES IDX 60 87 62 88 59 89 55 90 56 91 57 92 58 93
REMARK H PARENT 13 9 6 21 82 46 50 57
REMARK Flexibility Score: inf
ROOT
ATOM      1  C   UNL A   1      35.279  21.410  26.112  1.00  0.00     0.275 C 
ENDROOT
BRANCH   1   2
ATOM      2  O   UNL A   1      34.067  20.800  25.625  1.00  0.00    -0.459 OA
BRANCH   2   3
ATOM      3  C   UNL A   1      33.330  21.560  24.792  1.00  0.00     0.331 C 
ATOM      4  O   UNL A   1      33.674  21.982  23.696  1.00  0.00    -0.247 OA
BRANCH   3   5
ATOM      5  C   UNL A   1      31.991  21.813  25.354  1.00  0.00     0.099 C 
ATOM      6  C   UNL A   1      31.922  22.706  26.353  1.00  0.00     0.079 C 
BRANCH   6   7
ATOM      7  C   UNL A   1      30.657  23.362  26.745  1.00  0.00     0.248 C 
ATOM      8  N   UNL A   1      30.433  24.678  26.426  1.00  0.00    -0.321 N 
ATOM      9  H   UNL A   1      29.567  25.027  26.736  1.00  0.00     0.170 HD
ATOM     10  O   UNL A   1      29.828  22.719  27.386  1.00  0.00    -0.270 OA
BRANCH   8  11
ATOM     11  C   UNL A   1      31.224  25.626  25.731  1.00  0.00     0.062 A 
ATOM     12  C   UNL A   1      32.977  27.307  25.757  1.00  0.00     0.043 A 
ATOM     13  C   UNL A   1      33.124  27.189  24.382  1.00  0.00     0.028 A 
ATOM     14  C   UNL A   1      31.981  26.586  26.395  1.00  0.00     0.053 A 
ATOM     15  C   UNL A   1      32.264  26.354  23.659  1.00  0.00     0.025 A 
ATOM     16  C   UNL A   1      31.319  25.572  24.332  1.00  0.00     0.064 A 
ATOM     17  Cl  UNL A   1      30.329  24.495  23.413  1.00  0.00    -0.082 Cl
BRANCH  12  18
ATOM     18  N   UNL A   1      33.896  27.955  26.588  1.00  0.00    -0.326 N 
ATOM     19  C   UNL A   1      33.953  29.260  26.979  1.00  0.00     0.224 C 
ATOM     20  O   UNL A   1      35.033  29.761  27.297  1.00  0.00    -0.275 OA
ATOM     21  H   UNL A   1      34.612  27.381  26.946  1.00  0.00     0.169 HD
BRANCH  19  22
ATOM     22  C   UNL A   1      32.631  29.940  27.275  1.00  0.00     0.100 C 
BRANCH  22  23
ATOM     23  C   UNL A   1      32.098  30.777  26.135  1.00  0.00     0.006 C 
ATOM     24  C   UNL A   1      31.234  31.954  26.547  1.00  0.00     0.004 C 
ENDBRANCH  22  23
ENDBRANCH  19  22
ENDBRANCH  12  18
ENDBRANCH   8  11
ENDBRANCH   6   7
ENDBRANCH   3   5
ENDBRANCH   2   3
ENDBRANCH   1   2
BRANCH   1  25
ATOM     25  C   UNL A   1      36.483  20.941  25.293  1.00  0.00     0.275 C 
BRANCH  25  26
ATOM     26  O   UNL A   1      37.550  21.912  25.271  1.00  0.00    -0.458 OA
BRANCH  26  27
ATOM     27  C   UNL A   1      38.698  21.550  25.896  1.00  0.00     0.338 C 
ATOM     28  O   UNL A   1      39.171  20.425  25.925  1.00  0.00    -0.246 OA
BRANCH  27  29
ATOM     29  C   UNL A   1      39.375  22.726  26.500  1.00  0.00     0.060 A 
ATOM     30  C   UNL A   1      38.934  23.993  26.111  1.00  0.00     0.016 A 
ATOM     31  C   UNL A   1      40.435  22.619  27.407  1.00  0.00     0.016 A 
ATOM     32  C   UNL A   1      39.507  25.139  26.671  1.00  0.00     0.010 A 
ATOM     33  C   UNL A   1      41.041  23.777  27.931  1.00  0.00     0.010 A 
ATOM     34  C   UNL A   1      40.568  25.052  27.588  1.00  0.00    -0.014 A 
BRANCH  34  35
ATOM     35  C   UNL A   1      41.155  26.321  28.128  1.00  0.00     0.031 A 
ATOM     36  C   UNL A   1      42.538  26.734  27.702  1.00  0.00     0.074 A 
ATOM     37  C   UNL A   1      40.429  27.162  28.894  1.00  0.00     0.049 A 
ATOM     38  N   UNL A   1      43.156  27.872  27.879  1.00  0.00    -0.248 NA
ATOM     39  C   UNL A   1      43.331  25.720  26.992  1.00  0.00     0.031 C 
ATOM     40  C   UNL A   1      39.092  26.882  29.398  1.00  0.00     0.029 A 
ATOM     41  N   UNL A   1      40.667  28.457  29.307  1.00  0.00    -0.354 N 
ATOM     42  C   UNL A   1      44.421  27.705  27.331  1.00  0.00     0.074 A 
ATOM     43  C   UNL A   1      44.458  26.374  26.761  1.00  0.00     0.031 C 
ATOM     44  C   UNL A   1      38.572  28.008  29.913  1.00  0.00     0.029 A 
ATOM     45  C   UNL A   1      39.552  29.082  29.836  1.00  0.00     0.049 A 
ATOM     46  H   UNL A   1      41.547  28.894  29.233  1.00  0.00     0.167 HD
ATOM     47  C   UNL A   1      45.482  28.552  27.365  1.00  0.00     0.034 A 
ATOM     48  C   UNL A   1      39.339  30.372  30.187  1.00  0.00     0.034 A 
ATOM     49  C   UNL A   1      45.475  29.828  28.035  1.00  0.00     0.049 A 
ATOM     50  C   UNL A   1      40.529  31.306  30.188  1.00  0.00     0.074 A 
ATOM     51  C   UNL A   1      46.533  30.693  28.255  1.00  0.00     0.029 A 
ATOM     52  N   UNL A   1      44.360  30.410  28.623  1.00  0.00    -0.354 N 
ATOM     53  N   UNL A   1      41.737  31.110  29.715  1.00  0.00    -0.248 NA
ATOM     54  C   UNL A   1      40.345  32.611  30.842  1.00  0.00     0.031 C 
ATOM     55  C   UNL A   1      46.074  31.760  29.038  1.00  0.00     0.029 A 
ATOM     56  C   UNL A   1      44.711  31.605  29.233  1.00  0.00     0.049 A 
ATOM     57  H   UNL A   1      43.452  30.030  28.609  1.00  0.00     0.167 HD
ATOM     58  C   UNL A   1      42.466  32.244  30.061  1.00  0.00     0.074 A 
ATOM     59  C   UNL A   1      41.544  33.157  30.700  1.00  0.00     0.031 C 
ATOM     60  C   UNL A   1      43.792  32.490  29.908  1.00  0.00     0.034 A 
BRANCH  47  61
ATOM     61  C   UNL A   1      46.773  28.021  26.799  1.00  0.00     0.023 A 
ATOM     62  C   UNL A   1      47.100  28.152  25.438  1.00  0.00     0.031 A 
ATOM     63  C   UNL A   1      47.639  27.275  27.620  1.00  0.00     0.131 A 
ATOM     64  C   UNL A   1      48.216  27.475  24.924  1.00  0.00     0.055 A 
ATOM     65  C   UNL A   1      48.791  26.672  27.117  1.00  0.00     0.041 A 
ATOM     66  F   UNL A   1      47.355  27.088  28.919  1.00  0.00    -0.206 F 
ATOM     67  C   UNL A   1      49.077  26.756  25.759  1.00  0.00     0.022 A 
BRANCH  64  68
ATOM     68  S   UNL A   1      48.430  27.400  23.125  1.00  0.00     0.124 S 
ATOM     69  O   UNL A   1      49.750  28.003  22.960  1.00  0.00    -0.237 OA
ATOM     70  O   UNL A   1      48.342  25.970  22.856  1.00  0.00    -0.237 OA
ATOM     71  O   UNL A   1      47.319  28.202  22.614  1.00  0.00    -0.744 OA
ENDBRANCH  64  68
ENDBRANCH  47  61
BRANCH  48  72
ATOM     72  C   UNL A   1      37.993  30.884  30.620  1.00  0.00     0.023 A 
ATOM     73  C   UNL A   1      37.140  31.535  29.704  1.00  0.00     0.031 A 
ATOM     74  C   UNL A   1      37.568  30.829  31.960  1.00  0.00     0.131 A 
ATOM     75  C   UNL A   1      35.949  32.140  30.145  1.00  0.00     0.055 A 
ATOM     76  C   UNL A   1      36.340  31.352  32.376  1.00  0.00     0.041 A 
ATOM     77  F   UNL A   1      38.349  30.278  32.902  1.00  0.00    -0.206 F 
ATOM     78  C   UNL A   1      35.530  32.025  31.471  1.00  0.00     0.022 A 
BRANCH  75  79
ATOM     79  S   UNL A   1      35.023  33.205  29.002  1.00  0.00     0.124 S 
ATOM     80  O   UNL A   1      35.725  32.970  27.745  1.00  0.00    -0.237 OA
ATOM     81  O   UNL A   1      33.674  32.658  29.097  1.00  0.00    -0.237 OA
ATOM     82  O   UNL A   1      35.191  34.542  29.567  1.00  0.00    -0.744 OA
ENDBRANCH  75  79
ENDBRANCH  48  72
BRANCH  60  83
ATOM     83  C   UNL A   1      44.324  33.780  30.482  1.00  0.00     0.023 A 
ATOM     84  C   UNL A   1      44.815  33.847  31.800  1.00  0.00     0.031 A 
ATOM     85  C   UNL A   1      44.353  34.951  29.706  1.00  0.00     0.131 A 
ATOM     86  C   UNL A   1      45.274  35.069  32.316  1.00  0.00     0.055 A 
ATOM     87  C   UNL A   1      44.858  36.152  30.208  1.00  0.00     0.041 A 
ATOM     88  F   UNL A   1      43.896  34.944  28.444  1.00  0.00    -0.206 F 
ATOM     89  C   UNL A   1      45.313  36.218  31.522  1.00  0.00     0.022 A 
BRANCH  86  90
ATOM     90  S   UNL A   1      45.757  35.156  34.063  1.00  0.00     0.124 S 
ATOM     91  O   UNL A   1      45.317  33.859  34.567  1.00  0.00    -0.237 OA
ATOM     92  O   UNL A   1      47.200  35.352  33.980  1.00  0.00    -0.237 OA
ATOM     93  O   UNL A   1      45.006  36.303  34.570  1.00  0.00    -0.744 OA
ENDBRANCH  86  90
ENDBRANCH  60  83
ENDBRANCH  34  35
ENDBRANCH  27  29
ENDBRANCH  26  27
ENDBRANCH  25  26
ENDBRANCH   1  25
TORSDOF 19
ENDMDL
MODEL 3
REMARK VINA RESULT:     -11.2      1.893      7.636
REMARK SMILES CCCC(=O)Nc1ccc(Cl)c(NC(=O)/C=C/C(=O)OCCOC(=O)c2ccc(-c3c4nc(c(-c5cc(S(=O)(=O)[O-])ccc5F)c5ccc([nH]5)c(-c5cc(S(=O)(=O)[O-])ccc5F)c5nc(c(-c6cc(S(=O)(=O)[O-])ccc6F)c6ccc3[nH]6)C=C5)C=C4)cc2)c1
REMARK SMILES IDX 21 1 20 2 18 3 19 4 17 5 16 6 14 7 13 8 15 10 12 11 7 12
REMARK SMILES IDX 8 13 89 14 9 15 10 16 11 17 6 18 4 19 5 20 3 22 2 23 1 24
REMARK SMILES IDX 22 25 23 26 24 27 25 28 26 29 27 30 88 31 28 32 87 33 29 34
REMARK SMILES IDX 30 35 31 36 81 37 32 38 86 39 80 40 82 41 33 42 85 43 79 44
REMARK SMILES IDX 78 45 34 47 66 48 46 49 65 50 47 51 50 52 64 53 83 54 48 55
REMARK SMILES IDX 49 56 63 58 84 59 51 60 35 61 36 62 44 63 37 64 43 65 45 66
REMARK SMILES IDX 42 67 38 68 39 69 40 70 41 71 67 72 68 73 76 74 69 75 75 76
REMARK SMILES IDX 77 77 74 78 70 79 71 80 72 81 73 82 52 83 53 84 61 85 54 86
REMARK SMILES IDX 60 87 62 88 59 89 55 90 56 91 57 92 58 93
REMARK H PARENT 13 9 6 21 82 46 50 57
REMARK Flexibility Score: inf
ROOT
ATOM      1  C   UNL A   1      34.453  20.952  25.494  1.00  0.00     0.275 C 
ENDROOT
BRANCH   1   2
ATOM      2  O   UNL A   1      33.633  20.626  24.355  1.00  0.00    -0.459 OA
BRANCH   2   3
ATOM      3  C   UNL A   1      32.738  21.567  23.996  1.00  0.00     0.331 C 
ATOM      4  O   UNL A   1      32.115  21.614  22.945  1.00  0.00    -0.247 OA
BRANCH   3   5
ATOM      5  C   UNL A   1      32.559  22.560  25.070  1.00  0.00     0.099 C 
ATOM      6  C   UNL A   1      31.374  23.188  25.112  1.00  0.00     0.079 C 
BRANCH   6   7
ATOM      7  C   UNL A   1      30.889  23.888  26.319  1.00  0.00     0.248 C 
ATOM      8  N   UNL A   1      30.713  25.250  26.304  1.00  0.00    -0.321 N 
ATOM      9  H   UNL A   1      30.396  25.626  27.157  1.00  0.00     0.170 HD
ATOM     10  O   UNL A   1      30.677  23.237  27.340  1.00  0.00    -0.270 OA
BRANCH   8  11
ATOM     11  C   UNL A   1      30.909  26.213  25.284  1.00  0.00     0.062 A 
ATOM     12  C   UNL A   1      29.974  27.745  23.647  1.00  0.00     0.043 A 
ATOM     13  C   UNL A   1      31.180  28.428  23.583  1.00  0.00     0.028 A 
ATOM     14  C   UNL A   1      29.882  26.607  24.433  1.00  0.00     0.053 A 
ATOM     15  C   UNL A   1      32.287  27.957  24.301  1.00  0.00     0.025 A 
ATOM     16  C   UNL A   1      32.150  26.855  25.151  1.00  0.00     0.064 A 
ATOM     17  Cl  UNL A   1      33.517  26.351  26.080  1.00  0.00    -0.082 Cl
BRANCH  12  18
ATOM     18  N   UNL A   1      28.771  28.234  23.129  1.00  0.00    -0.326 N 
ATOM     19  C   UNL A   1      28.230  29.483  23.206  1.00  0.00     0.224 C 
ATOM     20  O   UNL A   1      27.009  29.631  23.128  1.00  0.00    -0.275 OA
ATOM     21  H   UNL A   1      28.232  27.576  22.632  1.00  0.00     0.169 HD
BRANCH  19  22
ATOM     22  C   UNL A   1      29.191  30.649  23.095  1.00  0.00     0.100 C 
BRANCH  22  23
ATOM     23  C   UNL A   1      28.771  31.703  22.096  1.00  0.00     0.006 C 
ATOM     24  C   UNL A   1      28.579  33.095  22.668  1.00  0.00     0.004 C 
ENDBRANCH  22  23
ENDBRANCH  19  22
ENDBRANCH  12  18
ENDBRANCH   8  11
ENDBRANCH   6   7
ENDBRANCH   3   5
ENDBRANCH   2   3
ENDBRANCH   1   2
BRANCH   1  25
ATOM     25  C   UNL A   1      35.918  20.611  25.218  1.00  0.00     0.275 C 
BRANCH  25  26
ATOM     26  O   UNL A   1      36.821  21.645  25.659  1.00  0.00    -0.458 OA
BRANCH  26  27
ATOM     27  C   UNL A   1      38.134  21.309  25.709  1.00  0.00     0.338 C 
ATOM     28  O   UNL A   1      38.622  20.272  25.289  1.00  0.00    -0.246 OA
BRANCH  27  29
ATOM     29  C   UNL A   1      38.949  22.409  26.287  1.00  0.00     0.060 A 
ATOM     30  C   UNL A   1      38.582  23.718  25.968  1.00  0.00     0.016 A 
ATOM     31  C   UNL A   1      40.065  22.190  27.102  1.00  0.00     0.016 A 
ATOM     32  C   UNL A   1      39.288  24.797  26.508  1.00  0.00     0.010 A 
ATOM     33  C   UNL A   1      40.801  23.279  27.605  1.00  0.00     0.010 A 
ATOM     34  C   UNL A   1      40.408  24.598  27.334  1.00  0.00    -0.014 A 
BRANCH  34  35
ATOM     35  C   UNL A   1      41.135  25.799  27.857  1.00  0.00     0.031 A 
ATOM     36  C   UNL A   1      42.513  26.110  27.340  1.00  0.00     0.074 A 
ATOM     37  C   UNL A   1      40.538  26.674  28.693  1.00  0.00     0.049 A 
ATOM     38  N   UNL A   1      43.236  27.189  27.497  1.00  0.00    -0.248 NA
ATOM     39  C   UNL A   1      43.166  25.054  26.552  1.00  0.00     0.031 C 
ATOM     40  C   UNL A   1      39.223  26.491  29.288  1.00  0.00     0.029 A 
ATOM     41  N   UNL A   1      40.913  27.934  29.116  1.00  0.00    -0.354 N 
ATOM     42  C   UNL A   1      44.440  26.934  26.853  1.00  0.00     0.074 A 
ATOM     43  C   UNL A   1      44.325  25.621  26.253  1.00  0.00     0.031 C 
ATOM     44  C   UNL A   1      38.836  27.641  29.865  1.00  0.00     0.029 A 
ATOM     45  C   UNL A   1      39.895  28.633  29.740  1.00  0.00     0.049 A 
ATOM     46  H   UNL A   1      41.818  28.299  28.988  1.00  0.00     0.167 HD
ATOM     47  C   UNL A   1      45.568  27.690  26.828  1.00  0.00     0.034 A 
ATOM     48  C   UNL A   1      39.815  29.925  30.133  1.00  0.00     0.034 A 
ATOM     49  C   UNL A   1      45.715  28.943  27.525  1.00  0.00     0.049 A 
ATOM     50  C   UNL A   1      41.076  30.759  30.068  1.00  0.00     0.074 A 
ATOM     51  C   UNL A   1      46.855  29.713  27.685  1.00  0.00     0.029 A 
ATOM     52  N   UNL A   1      44.697  29.598  28.206  1.00  0.00    -0.354 N 
ATOM     53  N   UNL A   1      42.227  30.478  29.503  1.00  0.00    -0.248 NA
ATOM     54  C   UNL A   1      41.049  32.056  30.763  1.00  0.00     0.031 C 
ATOM     55  C   UNL A   1      46.543  30.791  28.523  1.00  0.00     0.029 A 
ATOM     56  C   UNL A   1      45.190  30.742  28.815  1.00  0.00     0.049 A 
ATOM     57  H   UNL A   1      43.762  29.293  28.251  1.00  0.00     0.167 HD
ATOM     58  C   UNL A   1      43.071  31.539  29.819  1.00  0.00     0.074 A 
ATOM     59  C   UNL A   1      42.276  32.506  30.545  1.00  0.00     0.031 C 
ATOM     60  C   UNL A   1      44.398  31.680  29.575  1.00  0.00     0.034 A 
BRANCH  47  61
ATOM     61  C   UNL A   1      46.767  27.072  26.157  1.00  0.00     0.023 A 
ATOM     62  C   UNL A   1      47.748  26.374  26.881  1.00  0.00     0.031 A 
ATOM     63  C   UNL A   1      46.982  27.285  24.783  1.00  0.00     0.131 A 
ATOM     64  C   UNL A   1      48.937  25.987  26.244  1.00  0.00     0.055 A 
ATOM     65  C   UNL A   1      48.131  26.827  24.139  1.00  0.00     0.041 A 
ATOM     66  F   UNL A   1      46.095  27.979  24.052  1.00  0.00    -0.206 F 
ATOM     67  C   UNL A   1      49.125  26.189  24.873  1.00  0.00     0.022 A 
BRANCH  64  68
ATOM     68  S   UNL A   1      50.307  25.379  27.265  1.00  0.00     0.124 S 
ATOM     69  O   UNL A   1      50.593  26.545  28.098  1.00  0.00    -0.237 OA
ATOM     70  O   UNL A   1      49.711  24.237  27.947  1.00  0.00    -0.237 OA
ATOM     71  O   UNL A   1      51.343  25.053  26.287  1.00  0.00    -0.744 OA
ENDBRANCH  64  68
ENDBRANCH  47  61
BRANCH  48  72
ATOM     72  C   UNL A   1      38.551  30.533  30.676  1.00  0.00     0.023 A 
ATOM     73  C   UNL A   1      37.646  31.197  29.821  1.00  0.00     0.031 A 
ATOM     74  C   UNL A   1      38.264  30.557  32.052  1.00  0.00     0.131 A 
ATOM     75  C   UNL A   1      36.542  31.888  30.352  1.00  0.00     0.055 A 
ATOM     76  C   UNL A   1      37.116  31.167  32.566  1.00  0.00     0.041 A 
ATOM     77  F   UNL A   1      39.106  29.997  32.935  1.00  0.00    -0.206 F 
ATOM     78  C   UNL A   1      36.255  31.851  31.717  1.00  0.00     0.022 A 
BRANCH  75  79
ATOM     79  S   UNL A   1      35.563  32.961  29.260  1.00  0.00     0.124 S 
ATOM     80  O   UNL A   1      35.625  32.233  27.998  1.00  0.00    -0.237 OA
ATOM     81  O   UNL A   1      34.267  32.979  29.929  1.00  0.00    -0.237 OA
ATOM     82  O   UNL A   1      36.291  34.228  29.283  1.00  0.00    -0.744 OA
ENDBRANCH  75  79
ENDBRANCH  48  72
BRANCH  60  83
ATOM     83  C   UNL A   1      45.076  32.906  30.137  1.00  0.00     0.023 A 
ATOM     84  C   UNL A   1      45.162  34.099  29.394  1.00  0.00     0.031 A 
ATOM     85  C   UNL A   1      45.630  32.890  31.428  1.00  0.00     0.131 A 
ATOM     86  C   UNL A   1      45.827  35.212  29.930  1.00  0.00     0.055 A 
ATOM     87  C   UNL A   1      46.244  34.017  31.976  1.00  0.00     0.041 A 
ATOM     88  F   UNL A   1      45.577  31.779  32.180  1.00  0.00    -0.206 F 
ATOM     89  C   UNL A   1      46.354  35.183  31.223  1.00  0.00     0.022 A 
BRANCH  86  90
ATOM     90  S   UNL A   1      46.054  36.681  28.889  1.00  0.00     0.124 S 
ATOM     91  O   UNL A   1      45.330  36.313  27.677  1.00  0.00    -0.237 OA
ATOM     92  O   UNL A   1      45.449  37.734  29.698  1.00  0.00    -0.237 OA
ATOM     93  O   UNL A   1      47.505  36.775  28.739  1.00  0.00    -0.744 OA
ENDBRANCH  86  90
ENDBRANCH  60  83
ENDBRANCH  34  35
ENDBRANCH  27  29
ENDBRANCH  26  27
ENDBRANCH  25  26
ENDBRANCH   1  25
TORSDOF 19
ENDMDL
