MODEL 1
REMARK VINA RESULT:     -12.4      0.000      0.000
REMARK SMILES C[C@H]1[C@@H](C(=O)OCCOC(=O)c2ccc(-c3c4nc(c(-c5cc(S(=O)(=O)[O-])ccc5F)c5ccc([nH]5)c(-c5cc(S(=O)(=O)[O-])ccc5F)c5nc(c(-c6cc(S(=O)(=O)[O-])ccc6F)c6ccc3[nH]6)C=C5)C=C4)cc2)CCN1C(=O)N[C@@H]1CC[N@@H+]2CCCC[C@H]12
REMARK SMILES IDX 8 1 7 2 6 3 4 4 5 5 3 6 1 7 2 8 77 9 75 10 76 11 78 12 79 13
REMARK SMILES IDX 80 14 81 16 82 17 89 18 83 19 84 20 88 21 85 22 87 24 86 25
REMARK SMILES IDX 9 26 10 27 11 28 12 29 13 30 74 31 14 32 73 33 15 34 16 35
REMARK SMILES IDX 17 36 67 37 18 38 72 39 66 40 68 41 19 42 71 43 65 44 64 45
REMARK SMILES IDX 20 47 52 48 32 49 51 50 33 51 36 52 50 53 69 54 34 55 35 56
REMARK SMILES IDX 49 58 70 59 37 60 21 61 22 62 30 63 23 64 29 65 31 66 28 67
REMARK SMILES IDX 24 68 25 69 26 70 27 71 53 72 54 73 62 74 55 75 61 76 63 77
REMARK SMILES IDX 60 78 56 79 57 80 58 81 59 82 38 83 39 84 47 85 40 86 46 87
REMARK SMILES IDX 48 88 45 89 41 90 42 91 43 92 44 93
REMARK H PARENT 80 15 84 23 68 46 36 57
REMARK Flexibility Score: inf
ROOT
ATOM      1  C   UNL A   1      36.946  20.607  24.999  1.00  0.00     0.275 C 
ENDROOT
BRANCH   1   2
ATOM      2  C   UNL A   1      35.603  21.030  24.409  1.00  0.00     0.274 C 
BRANCH   2   3
ATOM      3  O   UNL A   1      34.536  20.223  24.952  1.00  0.00    -0.462 OA
BRANCH   3   4
ATOM      4  C   UNL A   1      33.308  20.818  24.982  1.00  0.00     0.311 C 
ATOM      5  O   UNL A   1      32.258  20.220  25.171  1.00  0.00    -0.252 OA
BRANCH   4   6
ATOM      6  C   UNL A   1      33.425  22.317  24.714  1.00  0.00     0.123 C 
ATOM      7  C   UNL A   1      33.714  22.699  27.224  1.00  0.00     0.032 C 
ATOM      8  C   UNL A   1      33.143  23.247  25.922  1.00  0.00     0.098 C 
ATOM      9  N   UNL A   1      31.690  23.512  25.868  1.00  0.00    -0.321 N 
ATOM     10  C   UNL A   1      32.334  22.714  23.727  1.00  0.00     0.039 C 
ATOM     11  C   UNL A   1      31.137  22.954  24.634  1.00  0.00     0.122 C 
BRANCH   9  12
ATOM     12  C   UNL A   1      30.835  24.304  26.570  1.00  0.00     0.318 C 
ATOM     13  O   UNL A   1      29.893  23.806  27.200  1.00  0.00    -0.249 OA
ATOM     14  N   UNL A   1      30.882  25.637  26.628  1.00  0.00    -0.329 N 
ATOM     15  H   UNL A   1      30.077  25.997  27.066  1.00  0.00     0.165 HD
BRANCH  14  16
ATOM     16  C   UNL A   1      31.777  26.707  26.233  1.00  0.00     0.147 C 
ATOM     17  C   UNL A   1      31.451  27.983  26.997  1.00  0.00     0.092 C 
ATOM     18  C   UNL A   1      31.711  27.177  24.755  1.00  0.00     0.207 C 
ATOM     19  C   UNL A   1      32.110  29.056  26.159  1.00  0.00     0.264 C 
ATOM     20  N   UNL A   1      31.849  28.657  24.773  1.00  0.00    -0.331 N 
ATOM     21  C   UNL A   1      30.515  26.677  23.934  1.00  0.00     0.067 C 
ATOM     22  C   UNL A   1      30.663  29.359  24.252  1.00  0.00     0.262 C 
ATOM     23  H   UNL A   1      32.617  28.920  24.156  1.00  0.00     0.348 HD
ATOM     24  C   UNL A   1      30.462  27.423  22.604  1.00  0.00     0.012 C 
ATOM     25  C   UNL A   1      30.343  28.932  22.819  1.00  0.00     0.062 C 
ENDBRANCH  14  16
ENDBRANCH   9  12
ENDBRANCH   4   6
ENDBRANCH   3   4
ENDBRANCH   2   3
ENDBRANCH   1   2
BRANCH   1  26
ATOM     26  O   UNL A   1      37.504  21.696  25.750  1.00  0.00    -0.458 OA
BRANCH  26  27
ATOM     27  C   UNL A   1      38.830  21.584  26.010  1.00  0.00     0.338 C 
ATOM     28  O   UNL A   1      39.518  20.604  25.777  1.00  0.00    -0.246 OA
BRANCH  27  29
ATOM     29  C   UNL A   1      39.361  22.841  26.599  1.00  0.00     0.060 A 
ATOM     30  C   UNL A   1      38.949  24.104  26.164  1.00  0.00     0.016 A 
ATOM     31  C   UNL A   1      40.368  22.746  27.563  1.00  0.00     0.016 A 
ATOM     32  C   UNL A   1      39.608  25.254  26.613  1.00  0.00     0.010 A 
ATOM     33  C   UNL A   1      40.952  23.904  28.086  1.00  0.00     0.010 A 
ATOM     34  C   UNL A   1      40.608  25.174  27.594  1.00  0.00    -0.014 A 
BRANCH  34  35
ATOM     35  C   UNL A   1      41.301  26.388  28.122  1.00  0.00     0.031 A 
ATOM     36  C   UNL A   1      40.517  27.488  28.800  1.00  0.00     0.074 A 
ATOM     37  C   UNL A   1      42.632  26.538  27.958  1.00  0.00     0.049 A 
ATOM     38  N   UNL A   1      40.911  28.675  29.186  1.00  0.00    -0.248 NA
ATOM     39  C   UNL A   1      39.104  27.209  29.104  1.00  0.00     0.031 C 
ATOM     40  C   UNL A   1      43.538  25.536  27.390  1.00  0.00     0.029 A 
ATOM     41  N   UNL A   1      43.452  27.611  28.217  1.00  0.00    -0.354 N 
ATOM     42  C   UNL A   1      39.810  29.271  29.795  1.00  0.00     0.074 A 
ATOM     43  C   UNL A   1      38.720  28.326  29.706  1.00  0.00     0.031 C 
ATOM     44  C   UNL A   1      44.774  26.048  27.323  1.00  0.00     0.029 A 
ATOM     45  C   UNL A   1      44.733  27.443  27.742  1.00  0.00     0.049 A 
ATOM     46  H   UNL A   1      43.152  28.418  28.696  1.00  0.00     0.167 HD
ATOM     47  C   UNL A   1      39.713  30.495  30.368  1.00  0.00     0.034 A 
ATOM     48  C   UNL A   1      45.737  28.327  27.570  1.00  0.00     0.034 A 
ATOM     49  C   UNL A   1      40.776  31.466  30.376  1.00  0.00     0.049 A 
ATOM     50  C   UNL A   1      45.527  29.760  27.976  1.00  0.00     0.074 A 
ATOM     51  C   UNL A   1      40.777  32.742  30.916  1.00  0.00     0.029 A 
ATOM     52  N   UNL A   1      42.012  31.291  29.770  1.00  0.00    -0.354 N 
ATOM     53  N   UNL A   1      44.483  30.308  28.552  1.00  0.00    -0.248 NA
ATOM     54  C   UNL A   1      46.621  30.698  27.692  1.00  0.00     0.031 C 
ATOM     55  C   UNL A   1      41.975  33.367  30.554  1.00  0.00     0.029 A 
ATOM     56  C   UNL A   1      42.755  32.456  29.860  1.00  0.00     0.049 A 
ATOM     57  H   UNL A   1      42.317  30.459  29.340  1.00  0.00     0.167 HD
ATOM     58  C   UNL A   1      44.808  31.649  28.730  1.00  0.00     0.074 A 
ATOM     59  C   UNL A   1      46.141  31.829  28.191  1.00  0.00     0.031 C 
ATOM     60  C   UNL A   1      44.075  32.636  29.303  1.00  0.00     0.034 A 
BRANCH  47  61
ATOM     61  C   UNL A   1      38.381  30.884  30.958  1.00  0.00     0.023 A 
ATOM     62  C   UNL A   1      37.401  31.553  30.202  1.00  0.00     0.031 A 
ATOM     63  C   UNL A   1      38.088  30.571  32.297  1.00  0.00     0.131 A 
ATOM     64  C   UNL A   1      36.189  31.922  30.808  1.00  0.00     0.055 A 
ATOM     65  C   UNL A   1      36.859  30.889  32.876  1.00  0.00     0.041 A 
ATOM     66  F   UNL A   1      38.998  29.952  33.066  1.00  0.00    -0.206 F 
ATOM     67  C   UNL A   1      35.903  31.573  32.131  1.00  0.00     0.022 A 
BRANCH  64  68
ATOM     68  S   UNL A   1      34.978  32.899  29.875  1.00  0.00     0.124 S 
ATOM     69  O   UNL A   1      35.833  33.926  29.286  1.00  0.00    -0.237 OA
ATOM     70  O   UNL A   1      34.419  31.927  28.942  1.00  0.00    -0.237 OA
ATOM     71  O   UNL A   1      34.059  33.371  30.909  1.00  0.00    -0.744 OA
ENDBRANCH  64  68
ENDBRANCH  47  61
BRANCH  48  72
ATOM     72  C   UNL A   1      46.983  27.901  26.868  1.00  0.00     0.023 A 
ATOM     73  C   UNL A   1      47.096  27.949  25.471  1.00  0.00     0.031 A 
ATOM     74  C   UNL A   1      48.084  27.416  27.603  1.00  0.00     0.131 A 
ATOM     75  C   UNL A   1      48.276  27.506  24.852  1.00  0.00     0.055 A 
ATOM     76  C   UNL A   1      49.274  27.030  26.986  1.00  0.00     0.041 A 
ATOM     77  F   UNL A   1      48.024  27.335  28.942  1.00  0.00    -0.206 F 
ATOM     78  C   UNL A   1      49.371  27.066  25.601  1.00  0.00     0.022 A 
BRANCH  75  79
ATOM     79  S   UNL A   1      48.341  27.443  23.040  1.00  0.00     0.124 S 
ATOM     80  O   UNL A   1      48.291  26.007  22.791  1.00  0.00    -0.237 OA
ATOM     81  O   UNL A   1      47.153  28.203  22.667  1.00  0.00    -0.237 OA
ATOM     82  O   UNL A   1      49.614  28.087  22.723  1.00  0.00    -0.744 OA
ENDBRANCH  75  79
ENDBRANCH  48  72
BRANCH  60  83
ATOM     83  C   UNL A   1      44.720  33.991  29.425  1.00  0.00     0.023 A 
ATOM     84  C   UNL A   1      44.474  35.015  28.494  1.00  0.00     0.031 A 
ATOM     85  C   UNL A   1      45.588  34.262  30.498  1.00  0.00     0.131 A 
ATOM     86  C   UNL A   1      45.119  36.253  28.635  1.00  0.00     0.055 A 
ATOM     87  C   UNL A   1      46.186  35.511  30.661  1.00  0.00     0.041 A 
ATOM     88  F   UNL A   1      45.856  33.317  31.413  1.00  0.00    -0.206 F 
ATOM     89  C   UNL A   1      45.960  36.512  29.721  1.00  0.00     0.022 A 
BRANCH  86  90
ATOM     90  S   UNL A   1      44.890  37.510  27.348  1.00  0.00     0.124 S 
ATOM     91  O   UNL A   1      45.078  38.749  28.098  1.00  0.00    -0.237 OA
ATOM     92  O   UNL A   1      45.941  37.178  26.392  1.00  0.00    -0.237 OA
ATOM     93  O   UNL A   1      43.527  37.272  26.875  1.00  0.00    -0.744 OA
ENDBRANCH  86  90
ENDBRANCH  60  83
ENDBRANCH  34  35
ENDBRANCH  27  29
ENDBRANCH  26  27
ENDBRANCH   1  26
TORSDOF 16
ENDMDL
MODEL 2
REMARK VINA RESULT:     -12.3      1.888      2.504
REMARK SMILES C[C@H]1[C@@H](C(=O)OCCOC(=O)c2ccc(-c3c4nc(c(-c5cc(S(=O)(=O)[O-])ccc5F)c5ccc([nH]5)c(-c5cc(S(=O)(=O)[O-])ccc5F)c5nc(c(-c6cc(S(=O)(=O)[O-])ccc6F)c6ccc3[nH]6)C=C5)C=C4)cc2)CCN1C(=O)N[C@@H]1CC[N@@H+]2CCCC[C@H]12
REMARK SMILES IDX 8 1 7 2 6 3 4 4 5 5 3 6 1 7 2 8 77 9 75 10 76 11 78 12 79 13
REMARK SMILES IDX 80 14 81 16 82 17 89 18 83 19 84 20 88 21 85 22 87 24 86 25
REMARK SMILES IDX 9 26 10 27 11 28 12 29 13 30 74 31 14 32 73 33 15 34 16 35
REMARK SMILES IDX 17 36 67 37 18 38 72 39 66 40 68 41 19 42 71 43 65 44 64 45
REMARK SMILES IDX 20 47 52 48 32 49 51 50 33 51 36 52 50 53 69 54 34 55 35 56
REMARK SMILES IDX 49 58 70 59 37 60 21 61 22 62 30 63 23 64 29 65 31 66 28 67
REMARK SMILES IDX 24 68 25 69 26 70 27 71 53 72 54 73 62 74 55 75 61 76 63 77
REMARK SMILES IDX 60 78 56 79 57 80 58 81 59 82 38 83 39 84 47 85 40 86 46 87
REMARK SMILES IDX 48 88 45 89 41 90 42 91 43 92 44 93
REMARK H PARENT 80 15 84 23 68 46 36 57
REMARK Flexibility Score: inf
ROOT
ATOM      1  C   UNL A   1      36.021  20.881  25.476  1.00  0.00     0.275 C 
ENDROOT
BRANCH   1   2
ATOM      2  C   UNL A   1      35.117  21.839  26.247  1.00  0.00     0.274 C 
BRANCH   2   3
ATOM      3  O   UNL A   1      33.737  21.648  25.867  1.00  0.00    -0.462 OA
BRANCH   3   4
ATOM      4  C   UNL A   1      33.169  22.684  25.182  1.00  0.00     0.311 C 
ATOM      5  O   UNL A   1      32.742  23.703  25.706  1.00  0.00    -0.252 OA
BRANCH   4   6
ATOM      6  C   UNL A   1      33.111  22.377  23.687  1.00  0.00     0.123 C 
ATOM      7  C   UNL A   1      35.131  23.904  23.340  1.00  0.00     0.032 C 
ATOM      8  C   UNL A   1      33.819  23.397  22.757  1.00  0.00     0.098 C 
ATOM      9  N   UNL A   1      32.782  24.399  22.431  1.00  0.00    -0.321 N 
ATOM     10  C   UNL A   1      31.658  22.468  23.235  1.00  0.00     0.039 C 
ATOM     11  C   UNL A   1      31.490  23.953  22.954  1.00  0.00     0.122 C 
BRANCH   9  12
ATOM     12  C   UNL A   1      32.722  25.482  21.610  1.00  0.00     0.318 C 
ATOM     13  O   UNL A   1      33.242  25.446  20.487  1.00  0.00    -0.249 OA
ATOM     14  N   UNL A   1      32.163  26.656  21.912  1.00  0.00    -0.329 N 
ATOM     15  H   UNL A   1      32.376  27.331  21.227  1.00  0.00     0.165 HD
BRANCH  14  16
ATOM     16  C   UNL A   1      31.333  27.223  22.957  1.00  0.00     0.147 C 
ATOM     17  C   UNL A   1      30.970  28.664  22.626  1.00  0.00     0.092 C 
ATOM     18  C   UNL A   1      31.963  27.354  24.369  1.00  0.00     0.207 C 
ATOM     19  C   UNL A   1      30.547  29.222  23.966  1.00  0.00     0.264 C 
ATOM     20  N   UNL A   1      31.499  28.653  24.923  1.00  0.00    -0.331 N 
ATOM     21  C   UNL A   1      33.482  27.149  24.461  1.00  0.00     0.067 C 
ATOM     22  C   UNL A   1      32.597  29.601  25.181  1.00  0.00     0.262 C 
ATOM     23  H   UNL A   1      31.065  28.483  25.830  1.00  0.00     0.348 HD
ATOM     24  C   UNL A   1      33.969  27.558  25.847  1.00  0.00     0.012 C 
ATOM     25  C   UNL A   1      33.628  29.018  26.147  1.00  0.00     0.062 C 
ENDBRANCH  14  16
ENDBRANCH   9  12
ENDBRANCH   4   6
ENDBRANCH   3   4
ENDBRANCH   2   3
ENDBRANCH   1   2
BRANCH   1  26
ATOM     26  O   UNL A   1      37.182  21.585  25.012  1.00  0.00    -0.458 OA
BRANCH  26  27
ATOM     27  C   UNL A   1      38.339  21.235  25.624  1.00  0.00     0.338 C 
ATOM     28  O   UNL A   1      38.819  20.114  25.646  1.00  0.00    -0.246 OA
BRANCH  27  29
ATOM     29  C   UNL A   1      38.984  22.417  26.253  1.00  0.00     0.060 A 
ATOM     30  C   UNL A   1      38.524  23.721  26.042  1.00  0.00     0.016 A 
ATOM     31  C   UNL A   1      40.139  22.215  27.012  1.00  0.00     0.016 A 
ATOM     32  C   UNL A   1      39.269  24.814  26.500  1.00  0.00     0.010 A 
ATOM     33  C   UNL A   1      40.822  23.307  27.557  1.00  0.00     0.010 A 
ATOM     34  C   UNL A   1      40.421  24.624  27.279  1.00  0.00    -0.014 A 
BRANCH  34  35
ATOM     35  C   UNL A   1      41.213  25.771  27.817  1.00  0.00     0.031 A 
ATOM     36  C   UNL A   1      40.532  26.895  28.563  1.00  0.00     0.074 A 
ATOM     37  C   UNL A   1      42.543  25.840  27.601  1.00  0.00     0.049 A 
ATOM     38  N   UNL A   1      41.020  28.040  28.970  1.00  0.00    -0.248 NA
ATOM     39  C   UNL A   1      39.117  26.699  28.918  1.00  0.00     0.031 C 
ATOM     40  C   UNL A   1      43.357  24.802  26.963  1.00  0.00     0.029 A 
ATOM     41  N   UNL A   1      43.442  26.848  27.860  1.00  0.00    -0.354 N 
ATOM     42  C   UNL A   1      39.986  28.685  29.644  1.00  0.00     0.074 A 
ATOM     43  C   UNL A   1      38.833  27.816  29.571  1.00  0.00     0.031 C 
ATOM     44  C   UNL A   1      44.621  25.235  26.860  1.00  0.00     0.029 A 
ATOM     45  C   UNL A   1      44.689  26.614  27.325  1.00  0.00     0.049 A 
ATOM     46  H   UNL A   1      43.216  27.655  28.376  1.00  0.00     0.167 HD
ATOM     47  C   UNL A   1      39.993  29.892  30.260  1.00  0.00     0.034 A 
ATOM     48  C   UNL A   1      45.742  27.436  27.139  1.00  0.00     0.034 A 
ATOM     49  C   UNL A   1      41.118  30.791  30.254  1.00  0.00     0.049 A 
ATOM     50  C   UNL A   1      45.644  28.865  27.600  1.00  0.00     0.074 A 
ATOM     51  C   UNL A   1      41.225  32.044  30.835  1.00  0.00     0.029 A 
ATOM     52  N   UNL A   1      42.314  30.557  29.591  1.00  0.00    -0.354 N 
ATOM     53  N   UNL A   1      44.663  29.459  28.237  1.00  0.00    -0.248 NA
ATOM     54  C   UNL A   1      46.785  29.739  27.300  1.00  0.00     0.031 C 
ATOM     55  C   UNL A   1      42.447  32.603  30.442  1.00  0.00     0.029 A 
ATOM     56  C   UNL A   1      43.136  31.668  29.687  1.00  0.00     0.049 A 
ATOM     57  H   UNL A   1      42.545  29.723  29.122  1.00  0.00     0.167 HD
ATOM     58  C   UNL A   1      45.083  30.769  28.444  1.00  0.00     0.074 A 
ATOM     59  C   UNL A   1      46.403  30.881  27.855  1.00  0.00     0.031 C 
ATOM     60  C   UNL A   1      44.442  31.781  29.080  1.00  0.00     0.034 A 
BRANCH  47  61
ATOM     61  C   UNL A   1      38.715  30.346  30.919  1.00  0.00     0.023 A 
ATOM     62  C   UNL A   1      37.740  31.080  30.219  1.00  0.00     0.031 A 
ATOM     63  C   UNL A   1      38.469  30.029  32.266  1.00  0.00     0.131 A 
ATOM     64  C   UNL A   1      36.581  31.507  30.888  1.00  0.00     0.055 A 
ATOM     65  C   UNL A   1      37.289  30.406  32.907  1.00  0.00     0.041 A 
ATOM     66  F   UNL A   1      39.377  29.348  32.983  1.00  0.00    -0.206 F 
ATOM     67  C   UNL A   1      36.339  31.154  32.219  1.00  0.00     0.022 A 
BRANCH  64  68
ATOM     68  S   UNL A   1      35.384  32.564  30.027  1.00  0.00     0.124 S 
ATOM     69  O   UNL A   1      34.286  32.595  30.990  1.00  0.00    -0.237 OA
ATOM     70  O   UNL A   1      36.114  33.817  29.857  1.00  0.00    -0.237 OA
ATOM     71  O   UNL A   1      35.111  31.830  28.795  1.00  0.00    -0.744 OA
ENDBRANCH  64  68
ENDBRANCH  47  61
BRANCH  48  72
ATOM     72  C   UNL A   1      46.928  26.955  26.371  1.00  0.00     0.023 A 
ATOM     73  C   UNL A   1      48.028  26.363  27.007  1.00  0.00     0.031 A 
ATOM     74  C   UNL A   1      46.977  27.106  24.970  1.00  0.00     0.131 A 
ATOM     75  C   UNL A   1      49.136  25.956  26.246  1.00  0.00     0.055 A 
ATOM     76  C   UNL A   1      48.056  26.650  24.213  1.00  0.00     0.041 A 
ATOM     77  F   UNL A   1      45.957  27.680  24.312  1.00  0.00    -0.206 F 
ATOM     78  C   UNL A   1      49.149  26.078  24.853  1.00  0.00     0.022 A 
BRANCH  75  79
ATOM     79  S   UNL A   1      50.603  25.328  27.108  1.00  0.00     0.124 S 
ATOM     80  O   UNL A   1      50.032  24.268  27.932  1.00  0.00    -0.237 OA
ATOM     81  O   UNL A   1      51.447  24.897  25.999  1.00  0.00    -0.237 OA
ATOM     82  O   UNL A   1      51.091  26.493  27.843  1.00  0.00    -0.744 OA
ENDBRANCH  75  79
ENDBRANCH  48  72
BRANCH  60  83
ATOM     83  C   UNL A   1      45.179  33.086  29.218  1.00  0.00     0.023 A 
ATOM     84  C   UNL A   1      45.076  34.101  28.252  1.00  0.00     0.031 A 
ATOM     85  C   UNL A   1      45.991  33.318  30.342  1.00  0.00     0.131 A 
ATOM     86  C   UNL A   1      45.804  35.290  28.411  1.00  0.00     0.055 A 
ATOM     87  C   UNL A   1      46.672  34.522  30.520  1.00  0.00     0.041 A 
ATOM     88  F   UNL A   1      46.124  32.379  31.293  1.00  0.00    -0.206 F 
ATOM     89  C   UNL A   1      46.587  35.513  29.547  1.00  0.00     0.022 A 
BRANCH  86  90
ATOM     90  S   UNL A   1      45.759  36.528  27.086  1.00  0.00     0.124 S 
ATOM     91  O   UNL A   1      46.110  35.731  25.915  1.00  0.00    -0.237 OA
ATOM     92  O   UNL A   1      44.380  37.002  27.145  1.00  0.00    -0.237 OA
ATOM     93  O   UNL A   1      46.766  37.506  27.496  1.00  0.00    -0.744 OA
ENDBRANCH  86  90
ENDBRANCH  60  83
ENDBRANCH  34  35
ENDBRANCH  27  29
ENDBRANCH  26  27
ENDBRANCH   1  26
TORSDOF 16
ENDMDL
MODEL 3
REMARK VINA RESULT:     -12.2      4.954      9.967
REMARK SMILES C[C@H]1[C@@H](C(=O)OCCOC(=O)c2ccc(-c3c4nc(c(-c5cc(S(=O)(=O)[O-])ccc5F)c5ccc([nH]5)c(-c5cc(S(=O)(=O)[O-])ccc5F)c5nc(c(-c6cc(S(=O)(=O)[O-])ccc6F)c6ccc3[nH]6)C=C5)C=C4)cc2)CCN1C(=O)N[C@@H]1CC[N@@H+]2CCCC[C@H]12
REMARK SMILES IDX 8 1 7 2 6 3 4 4 5 5 3 6 1 7 2 8 77 9 75 10 76 11 78 12 79 13
REMARK SMILES IDX 80 14 81 16 82 17 89 18 83 19 84 20 88 21 85 22 87 24 86 25
REMARK SMILES IDX 9 26 10 27 11 28 12 29 13 30 74 31 14 32 73 33 15 34 16 35
REMARK SMILES IDX 17 36 67 37 18 38 72 39 66 40 68 41 19 42 71 43 65 44 64 45
REMARK SMILES IDX 20 47 52 48 32 49 51 50 33 51 36 52 50 53 69 54 34 55 35 56
REMARK SMILES IDX 49 58 70 59 37 60 21 61 22 62 30 63 23 64 29 65 31 66 28 67
REMARK SMILES IDX 24 68 25 69 26 70 27 71 53 72 54 73 62 74 55 75 61 76 63 77
REMARK SMILES IDX 60 78 56 79 57 80 58 81 59 82 38 83 39 84 47 85 40 86 46 87
REMARK SMILES IDX 48 88 45 89 41 90 42 91 43 92 44 93
REMARK H PARENT 80 15 84 23 68 46 36 57
REMARK Flexibility Score: inf
ROOT
ATOM      1  C   UNL A   1      31.946  30.128  25.381  1.00  0.00     0.275 C 
ENDROOT
BRANCH   1   2
ATOM      2  C   UNL A   1      32.766  29.160  24.533  1.00  0.00     0.274 C 
BRANCH   2   3
ATOM      3  O   UNL A   1      31.903  28.386  23.672  1.00  0.00    -0.462 OA
BRANCH   3   4
ATOM      4  C   UNL A   1      31.895  27.041  23.907  1.00  0.00     0.311 C 
ATOM      5  O   UNL A   1      32.830  26.294  23.659  1.00  0.00    -0.252 OA
BRANCH   4   6
ATOM      6  C   UNL A   1      30.551  26.600  24.484  1.00  0.00     0.123 C 
ATOM      7  C   UNL A   1      31.591  26.641  26.818  1.00  0.00     0.032 C 
ATOM      8  C   UNL A   1      30.598  25.951  25.892  1.00  0.00     0.098 C 
ATOM      9  N   UNL A   1      30.785  24.507  25.640  1.00  0.00    -0.321 N 
ATOM     10  C   UNL A   1      30.004  25.473  23.617  1.00  0.00     0.039 C 
ATOM     11  C   UNL A   1      30.679  24.243  24.205  1.00  0.00     0.122 C 
BRANCH   9  12
ATOM     12  C   UNL A   1      30.817  23.395  26.424  1.00  0.00     0.318 C 
ATOM     13  O   UNL A   1      30.104  23.319  27.433  1.00  0.00    -0.249 OA
ATOM     14  N   UNL A   1      31.603  22.333  26.233  1.00  0.00    -0.329 N 
ATOM     15  H   UNL A   1      31.563  21.725  27.006  1.00  0.00     0.165 HD
BRANCH  14  16
ATOM     16  C   UNL A   1      32.496  21.816  25.214  1.00  0.00     0.147 C 
ATOM     17  C   UNL A   1      33.012  20.439  25.607  1.00  0.00     0.092 C 
ATOM     18  C   UNL A   1      33.809  22.603  24.958  1.00  0.00     0.207 C 
ATOM     19  C   UNL A   1      34.234  20.274  24.732  1.00  0.00     0.264 C 
ATOM     20  N   UNL A   1      34.875  21.591  24.737  1.00  0.00    -0.331 N 
ATOM     21  C   UNL A   1      34.176  23.673  25.995  1.00  0.00     0.067 C 
ATOM     22  C   UNL A   1      35.943  21.639  25.751  1.00  0.00     0.262 C 
ATOM     23  H   UNL A   1      35.333  21.790  23.847  1.00  0.00     0.348 HD
ATOM     24  C   UNL A   1      35.597  24.166  25.739  1.00  0.00     0.012 C 
ATOM     25  C   UNL A   1      36.603  23.017  25.806  1.00  0.00     0.062 C 
ENDBRANCH  14  16
ENDBRANCH   9  12
ENDBRANCH   4   6
ENDBRANCH   3   4
ENDBRANCH   2   3
ENDBRANCH   1   2
BRANCH   1  26
ATOM     26  O   UNL A   1      32.432  30.113  26.731  1.00  0.00    -0.458 OA
BRANCH  26  27
ATOM     27  C   UNL A   1      33.094  31.234  27.108  1.00  0.00     0.338 C 
ATOM     28  O   UNL A   1      32.653  32.370  27.053  1.00  0.00    -0.246 OA
BRANCH  27  29
ATOM     29  C   UNL A   1      34.443  30.901  27.637  1.00  0.00     0.060 A 
ATOM     30  C   UNL A   1      34.807  29.597  27.987  1.00  0.00     0.016 A 
ATOM     31  C   UNL A   1      35.340  31.946  27.867  1.00  0.00     0.016 A 
ATOM     32  C   UNL A   1      36.015  29.357  28.652  1.00  0.00     0.010 A 
ATOM     33  C   UNL A   1      36.591  31.686  28.437  1.00  0.00     0.010 A 
ATOM     34  C   UNL A   1      36.934  30.395  28.873  1.00  0.00    -0.014 A 
BRANCH  34  35
ATOM     35  C   UNL A   1      38.248  30.163  29.544  1.00  0.00     0.031 A 
ATOM     36  C   UNL A   1      39.214  29.132  29.008  1.00  0.00     0.074 A 
ATOM     37  C   UNL A   1      38.568  30.839  30.667  1.00  0.00     0.049 A 
ATOM     38  N   UNL A   1      40.327  28.681  29.531  1.00  0.00    -0.248 NA
ATOM     39  C   UNL A   1      38.900  28.541  27.697  1.00  0.00     0.031 C 
ATOM     40  C   UNL A   1      37.777  31.915  31.267  1.00  0.00     0.029 A 
ATOM     41  N   UNL A   1      39.629  30.693  31.529  1.00  0.00    -0.354 N 
ATOM     42  C   UNL A   1      40.852  27.779  28.610  1.00  0.00     0.074 A 
ATOM     43  C   UNL A   1      39.925  27.724  27.503  1.00  0.00     0.031 C 
ATOM     44  C   UNL A   1      38.364  32.313  32.404  1.00  0.00     0.029 A 
ATOM     45  C   UNL A   1      39.511  31.454  32.670  1.00  0.00     0.049 A 
ATOM     46  H   UNL A   1      40.397  30.103  31.348  1.00  0.00     0.167 HD
ATOM     47  C   UNL A   1      41.997  27.058  28.682  1.00  0.00     0.034 A 
ATOM     48  C   UNL A   1      40.182  31.410  33.839  1.00  0.00     0.034 A 
ATOM     49  C   UNL A   1      42.872  27.051  29.826  1.00  0.00     0.049 A 
ATOM     50  C   UNL A   1      41.298  30.414  34.003  1.00  0.00     0.074 A 
ATOM     51  C   UNL A   1      44.049  26.344  30.008  1.00  0.00     0.029 A 
ATOM     52  N   UNL A   1      42.639  27.745  31.005  1.00  0.00    -0.354 N 
ATOM     53  N   UNL A   1      41.785  29.571  33.124  1.00  0.00    -0.248 NA
ATOM     54  C   UNL A   1      41.942  30.350  35.322  1.00  0.00     0.031 C 
ATOM     55  C   UNL A   1      44.474  26.537  31.328  1.00  0.00     0.029 A 
ATOM     56  C   UNL A   1      43.609  27.428  31.942  1.00  0.00     0.049 A 
ATOM     57  H   UNL A   1      41.894  28.371  31.153  1.00  0.00     0.167 HD
ATOM     58  C   UNL A   1      42.816  28.898  33.773  1.00  0.00     0.074 A 
ATOM     59  C   UNL A   1      42.874  29.428  35.121  1.00  0.00     0.031 C 
ATOM     60  C   UNL A   1      43.649  27.943  33.290  1.00  0.00     0.034 A 
BRANCH  47  61
ATOM     61  C   UNL A   1      42.322  26.149  27.524  1.00  0.00     0.023 A 
ATOM     62  C   UNL A   1      41.907  24.805  27.495  1.00  0.00     0.031 A 
ATOM     63  C   UNL A   1      43.052  26.643  26.428  1.00  0.00     0.131 A 
ATOM     64  C   UNL A   1      42.264  23.991  26.408  1.00  0.00     0.055 A 
ATOM     65  C   UNL A   1      43.353  25.844  25.324  1.00  0.00     0.041 A 
ATOM     66  F   UNL A   1      43.489  27.912  26.417  1.00  0.00    -0.206 F 
ATOM     67  C   UNL A   1      42.962  24.509  25.312  1.00  0.00     0.022 A 
BRANCH  64  68
ATOM     68  S   UNL A   1      41.845  22.227  26.429  1.00  0.00     0.124 S 
ATOM     69  O   UNL A   1      42.659  21.727  25.324  1.00  0.00    -0.237 OA
ATOM     70  O   UNL A   1      42.260  21.806  27.763  1.00  0.00    -0.237 OA
ATOM     71  O   UNL A   1      40.403  22.221  26.194  1.00  0.00    -0.744 OA
ENDBRANCH  64  68
ENDBRANCH  47  61
BRANCH  48  72
ATOM     72  C   UNL A   1      39.728  32.252  34.984  1.00  0.00     0.023 A 
ATOM     73  C   UNL A   1      38.965  31.720  36.033  1.00  0.00     0.031 A 
ATOM     74  C   UNL A   1      40.044  33.625  35.028  1.00  0.00     0.131 A 
ATOM     75  C   UNL A   1      38.532  32.559  37.074  1.00  0.00     0.055 A 
ATOM     76  C   UNL A   1      39.658  34.441  36.091  1.00  0.00     0.041 A 
ATOM     77  F   UNL A   1      40.760  34.189  34.041  1.00  0.00    -0.206 F 
ATOM     78  C   UNL A   1      38.889  33.909  37.118  1.00  0.00     0.022 A 
BRANCH  75  79
ATOM     79  S   UNL A   1      37.426  31.878  38.340  1.00  0.00     0.124 S 
ATOM     80  O   UNL A   1      37.216  30.519  37.852  1.00  0.00    -0.237 OA
ATOM     81  O   UNL A   1      38.230  32.010  39.550  1.00  0.00    -0.237 OA
ATOM     82  O   UNL A   1      36.255  32.751  38.275  1.00  0.00    -0.744 OA
ENDBRANCH  75  79
ENDBRANCH  48  72
BRANCH  60  83
ATOM     83  C   UNL A   1      44.731  27.443  34.211  1.00  0.00     0.023 A 
ATOM     84  C   UNL A   1      44.560  26.293  34.999  1.00  0.00     0.031 A 
ATOM     85  C   UNL A   1      45.957  28.127  34.290  1.00  0.00     0.131 A 
ATOM     86  C   UNL A   1      45.587  25.880  35.861  1.00  0.00     0.055 A 
ATOM     87  C   UNL A   1      46.993  27.684  35.111  1.00  0.00     0.041 A 
ATOM     88  F   UNL A   1      46.169  29.233  33.558  1.00  0.00    -0.206 F 
ATOM     89  C   UNL A   1      46.808  26.560  35.909  1.00  0.00     0.022 A 
BRANCH  86  90
ATOM     90  S   UNL A   1      45.291  24.473  36.965  1.00  0.00     0.124 S 
ATOM     91  O   UNL A   1      46.645  24.131  37.391  1.00  0.00    -0.237 OA
ATOM     92  O   UNL A   1      44.427  25.052  37.989  1.00  0.00    -0.237 OA
ATOM     93  O   UNL A   1      44.646  23.487  36.098  1.00  0.00    -0.744 OA
ENDBRANCH  86  90
ENDBRANCH  60  83
ENDBRANCH  34  35
ENDBRANCH  27  29
ENDBRANCH  26  27
ENDBRANCH   1  26
TORSDOF 16
ENDMDL
