MODEL 1
REMARK VINA RESULT:     -12.1      0.000      0.000
REMARK SMILES C[C@H](Oc1ccc(-c2ccccc2)cc1)C(=O)N[C@H](C)C(=O)OCCOC(=O)c1ccc(-c2c3nc(c(-c4cc(S(=O)(=O)[O-])ccc4F)c4ccc([nH]4)c(-c4cc(S(=O)(=O)[O-])ccc4F)c4nc(c(-c5cc(S(=O)(=O)[O-])ccc5F)c5ccc2[nH]5)C=C4)C=C3)cc1
REMARK SMILES IDX 24 1 23 2 21 3 22 4 19 5 20 6 18 7 16 8 17 9 2 11 1 12 3 13
REMARK SMILES IDX 4 14 5 15 15 16 6 17 14 18 7 19 8 20 9 21 13 22 10 23 12 24
REMARK SMILES IDX 11 25 25 26 26 27 27 28 28 29 29 30 30 31 91 32 31 33 90 34
REMARK SMILES IDX 32 35 33 36 34 37 84 38 35 39 89 40 83 41 85 42 36 43 88 44
REMARK SMILES IDX 82 45 81 46 37 48 69 49 49 50 68 51 50 52 53 53 67 54 86 55
REMARK SMILES IDX 51 56 52 57 66 59 87 60 54 61 38 62 39 63 47 64 40 65 46 66
REMARK SMILES IDX 48 67 45 68 41 69 42 70 43 71 44 72 70 73 71 74 79 75 72 76
REMARK SMILES IDX 78 77 80 78 77 79 73 80 74 81 75 82 76 83 55 84 56 85 64 86
REMARK SMILES IDX 57 87 63 88 65 89 62 90 58 91 59 92 60 93 61 94
REMARK H PARENT 18 10 85 47 53 58
REMARK Flexibility Score: inf
ROOT
ATOM      1  C   UNL A   1      31.888  29.685  24.786  1.00  0.00     0.274 C 
ENDROOT
BRANCH   1   2
ATOM      2  O   UNL A   1      30.667  29.705  24.027  1.00  0.00    -0.461 OA
BRANCH   2   3
ATOM      3  C   UNL A   1      30.573  28.858  22.964  1.00  0.00     0.328 C 
ATOM      4  O   UNL A   1      30.148  29.168  21.859  1.00  0.00    -0.250 OA
BRANCH   3   5
ATOM      5  C   UNL A   1      30.950  27.415  23.361  1.00  0.00     0.189 C 
ATOM      6  C   UNL A   1      29.712  26.679  23.865  1.00  0.00     0.043 C 
BRANCH   5   7
ATOM      7  N   UNL A   1      31.710  26.865  22.229  1.00  0.00    -0.340 N 
ATOM      8  C   UNL A   1      32.638  25.873  22.122  1.00  0.00     0.261 C 
ATOM      9  O   UNL A   1      33.287  25.822  21.071  1.00  0.00    -0.271 OA
ATOM     10  H   UNL A   1      31.505  27.304  21.372  1.00  0.00     0.164 HD
BRANCH   8  11
ATOM     11  C   UNL A   1      32.778  24.770  23.176  1.00  0.00     0.258 C 
ATOM     12  C   UNL A   1      34.243  24.307  23.156  1.00  0.00     0.064 C 
BRANCH  11  13
ATOM     13  O   UNL A   1      31.779  23.787  22.916  1.00  0.00    -0.481 OA
BRANCH  13  14
ATOM     14  C   UNL A   1      31.926  22.511  23.379  1.00  0.00     0.120 A 
ATOM     15  C   UNL A   1      32.183  22.138  24.693  1.00  0.00     0.047 A 
ATOM     16  C   UNL A   1      31.883  21.521  22.397  1.00  0.00     0.047 A 
ATOM     17  C   UNL A   1      32.508  20.810  24.996  1.00  0.00     0.012 A 
ATOM     18  C   UNL A   1      32.169  20.185  22.710  1.00  0.00     0.012 A 
ATOM     19  C   UNL A   1      32.527  19.807  24.013  1.00  0.00    -0.018 A 
BRANCH  19  20
ATOM     20  C   UNL A   1      32.939  18.423  24.343  1.00  0.00    -0.018 A 
ATOM     21  C   UNL A   1      33.856  17.721  23.539  1.00  0.00     0.009 A 
ATOM     22  C   UNL A   1      32.407  17.745  25.455  1.00  0.00     0.009 A 
ATOM     23  C   UNL A   1      34.210  16.398  23.819  1.00  0.00     0.001 A 
ATOM     24  C   UNL A   1      32.769  16.425  25.745  1.00  0.00     0.001 A 
ATOM     25  C   UNL A   1      33.664  15.750  24.922  1.00  0.00     0.000 A 
ENDBRANCH  19  20
ENDBRANCH  13  14
ENDBRANCH  11  13
ENDBRANCH   8  11
ENDBRANCH   5   7
ENDBRANCH   3   5
ENDBRANCH   2   3
ENDBRANCH   1   2
BRANCH   1  26
ATOM     26  C   UNL A   1      31.625  30.395  26.110  1.00  0.00     0.275 C 
BRANCH  26  27
ATOM     27  O   UNL A   1      32.789  30.242  26.945  1.00  0.00    -0.458 OA
BRANCH  27  28
ATOM     28  C   UNL A   1      33.393  31.384  27.339  1.00  0.00     0.338 C 
ATOM     29  O   UNL A   1      32.967  32.525  27.240  1.00  0.00    -0.246 OA
BRANCH  28  30
ATOM     30  C   UNL A   1      34.700  31.044  27.917  1.00  0.00     0.060 A 
ATOM     31  C   UNL A   1      34.949  29.751  28.386  1.00  0.00     0.016 A 
ATOM     32  C   UNL A   1      35.667  32.040  28.037  1.00  0.00     0.016 A 
ATOM     33  C   UNL A   1      36.160  29.455  29.007  1.00  0.00     0.010 A 
ATOM     34  C   UNL A   1      36.902  31.726  28.607  1.00  0.00     0.010 A 
ATOM     35  C   UNL A   1      37.153  30.438  29.113  1.00  0.00    -0.014 A 
BRANCH  35  36
ATOM     36  C   UNL A   1      38.444  30.150  29.789  1.00  0.00     0.031 A 
ATOM     37  C   UNL A   1      39.400  29.166  29.175  1.00  0.00     0.074 A 
ATOM     38  C   UNL A   1      38.739  30.732  30.966  1.00  0.00     0.049 A 
ATOM     39  N   UNL A   1      40.476  28.621  29.682  1.00  0.00    -0.248 NA
ATOM     40  C   UNL A   1      39.082  28.724  27.810  1.00  0.00     0.031 C 
ATOM     41  C   UNL A   1      37.909  31.727  31.648  1.00  0.00     0.029 A 
ATOM     42  N   UNL A   1      39.808  30.555  31.808  1.00  0.00    -0.354 N 
ATOM     43  C   UNL A   1      40.950  27.746  28.710  1.00  0.00     0.074 A 
ATOM     44  C   UNL A   1      40.019  27.811  27.602  1.00  0.00     0.031 C 
ATOM     45  C   UNL A   1      38.494  32.063  32.809  1.00  0.00     0.029 A 
ATOM     46  C   UNL A   1      39.701  31.261  32.984  1.00  0.00     0.049 A 
ATOM     47  H   UNL A   1      40.576  29.978  31.593  1.00  0.00     0.167 HD
ATOM     48  C   UNL A   1      42.061  26.966  28.740  1.00  0.00     0.034 A 
ATOM     49  C   UNL A   1      40.458  31.228  34.097  1.00  0.00     0.034 A 
ATOM     50  C   UNL A   1      42.972  26.916  29.859  1.00  0.00     0.049 A 
ATOM     51  C   UNL A   1      41.650  30.311  34.143  1.00  0.00     0.074 A 
ATOM     52  C   UNL A   1      44.130  26.170  30.002  1.00  0.00     0.029 A 
ATOM     53  N   UNL A   1      42.824  27.639  31.038  1.00  0.00    -0.354 N 
ATOM     54  N   UNL A   1      42.077  29.465  33.233  1.00  0.00    -0.248 NA
ATOM     55  C   UNL A   1      42.463  30.344  35.365  1.00  0.00     0.031 C 
ATOM     56  C   UNL A   1      44.645  26.396  31.285  1.00  0.00     0.029 A 
ATOM     57  C   UNL A   1      43.852  27.338  31.921  1.00  0.00     0.049 A 
ATOM     58  H   UNL A   1      42.094  28.274  31.222  1.00  0.00     0.167 HD
ATOM     59  C   UNL A   1      43.217  28.874  33.769  1.00  0.00     0.074 A 
ATOM     60  C   UNL A   1      43.419  29.473  35.073  1.00  0.00     0.031 C 
ATOM     61  C   UNL A   1      44.026  27.925  33.230  1.00  0.00     0.034 A 
BRANCH  48  62
ATOM     62  C   UNL A   1      42.297  26.066  27.548  1.00  0.00     0.023 A 
ATOM     63  C   UNL A   1      41.755  24.769  27.481  1.00  0.00     0.031 A 
ATOM     64  C   UNL A   1      43.137  26.480  26.500  1.00  0.00     0.131 A 
ATOM     65  C   UNL A   1      42.139  23.901  26.446  1.00  0.00     0.055 A 
ATOM     66  C   UNL A   1      43.442  25.643  25.425  1.00  0.00     0.041 A 
ATOM     67  F   UNL A   1      43.701  27.698  26.515  1.00  0.00    -0.206 F 
ATOM     68  C   UNL A   1      42.960  24.337  25.405  1.00  0.00     0.022 A 
BRANCH  65  69
ATOM     69  S   UNL A   1      41.697  22.144  26.579  1.00  0.00     0.124 S 
ATOM     70  O   UNL A   1      42.310  21.586  25.375  1.00  0.00    -0.237 OA
ATOM     71  O   UNL A   1      42.312  21.760  27.844  1.00  0.00    -0.237 OA
ATOM     72  O   UNL A   1      40.236  22.156  26.572  1.00  0.00    -0.744 OA
ENDBRANCH  65  69
ENDBRANCH  48  62
BRANCH  49  73
ATOM     73  C   UNL A   1      40.066  32.041  35.282  1.00  0.00     0.023 A 
ATOM     74  C   UNL A   1      39.105  31.585  36.195  1.00  0.00     0.031 A 
ATOM     75  C   UNL A   1      40.659  33.297  35.514  1.00  0.00     0.131 A 
ATOM     76  C   UNL A   1      38.746  32.389  37.290  1.00  0.00     0.055 A 
ATOM     77  C   UNL A   1      40.331  34.072  36.627  1.00  0.00     0.041 A 
ATOM     78  F   UNL A   1      41.588  33.774  34.672  1.00  0.00    -0.206 F 
ATOM     79  C   UNL A   1      39.364  33.622  37.519  1.00  0.00     0.022 A 
BRANCH  76  80
ATOM     80  S   UNL A   1      37.425  31.819  38.394  1.00  0.00     0.124 S 
ATOM     81  O   UNL A   1      37.199  30.462  37.909  1.00  0.00    -0.237 OA
ATOM     82  O   UNL A   1      38.054  31.936  39.705  1.00  0.00    -0.237 OA
ATOM     83  O   UNL A   1      36.338  32.762  38.139  1.00  0.00    -0.744 OA
ENDBRANCH  76  80
ENDBRANCH  49  73
BRANCH  61  84
ATOM     84  C   UNL A   1      45.222  27.507  34.049  1.00  0.00     0.023 A 
ATOM     85  C   UNL A   1      45.132  26.505  35.032  1.00  0.00     0.031 A 
ATOM     86  C   UNL A   1      46.464  28.137  33.856  1.00  0.00     0.131 A 
ATOM     87  C   UNL A   1      46.252  26.198  35.820  1.00  0.00     0.055 A 
ATOM     88  C   UNL A   1      47.589  27.790  34.606  1.00  0.00     0.041 A 
ATOM     89  F   UNL A   1      46.604  29.102  32.934  1.00  0.00    -0.206 F 
ATOM     90  C   UNL A   1      47.483  26.824  35.603  1.00  0.00     0.022 A 
BRANCH  87  91
ATOM     91  S   UNL A   1      46.061  25.029  37.194  1.00  0.00     0.124 S 
ATOM     92  O   UNL A   1      47.448  24.767  37.564  1.00  0.00    -0.237 OA
ATOM     93  O   UNL A   1      45.278  25.799  38.154  1.00  0.00    -0.237 OA
ATOM     94  O   UNL A   1      45.357  23.899  36.588  1.00  0.00    -0.744 OA
ENDBRANCH  87  91
ENDBRANCH  61  84
ENDBRANCH  35  36
ENDBRANCH  28  30
ENDBRANCH  27  28
ENDBRANCH  26  27
ENDBRANCH   1  26
TORSDOF 19
ENDMDL
MODEL 2
REMARK VINA RESULT:     -12.0      5.168     10.613
REMARK SMILES C[C@H](Oc1ccc(-c2ccccc2)cc1)C(=O)N[C@H](C)C(=O)OCCOC(=O)c1ccc(-c2c3nc(c(-c4cc(S(=O)(=O)[O-])ccc4F)c4ccc([nH]4)c(-c4cc(S(=O)(=O)[O-])ccc4F)c4nc(c(-c5cc(S(=O)(=O)[O-])ccc5F)c5ccc2[nH]5)C=C4)C=C3)cc1
REMARK SMILES IDX 24 1 23 2 21 3 22 4 19 5 20 6 18 7 16 8 17 9 2 11 1 12 3 13
REMARK SMILES IDX 4 14 5 15 15 16 6 17 14 18 7 19 8 20 9 21 13 22 10 23 12 24
REMARK SMILES IDX 11 25 25 26 26 27 27 28 28 29 29 30 30 31 91 32 31 33 90 34
REMARK SMILES IDX 32 35 33 36 34 37 84 38 35 39 89 40 83 41 85 42 36 43 88 44
REMARK SMILES IDX 82 45 81 46 37 48 69 49 49 50 68 51 50 52 53 53 67 54 86 55
REMARK SMILES IDX 51 56 52 57 66 59 87 60 54 61 38 62 39 63 47 64 40 65 46 66
REMARK SMILES IDX 48 67 45 68 41 69 42 70 43 71 44 72 70 73 71 74 79 75 72 76
REMARK SMILES IDX 78 77 80 78 77 79 73 80 74 81 75 82 76 83 55 84 56 85 64 86
REMARK SMILES IDX 57 87 63 88 65 89 62 90 58 91 59 92 60 93 61 94
REMARK H PARENT 18 10 85 47 53 58
REMARK Flexibility Score: inf
ROOT
ATOM      1  C   UNL A   1      35.735  20.247  24.980  1.00  0.00     0.274 C 
ENDROOT
BRANCH   1   2
ATOM      2  O   UNL A   1      34.603  21.064  24.632  1.00  0.00    -0.461 OA
BRANCH   2   3
ATOM      3  C   UNL A   1      33.518  21.015  25.454  1.00  0.00     0.328 C 
ATOM      4  O   UNL A   1      32.632  20.172  25.392  1.00  0.00    -0.250 OA
BRANCH   3   5
ATOM      5  C   UNL A   1      33.472  22.236  26.397  1.00  0.00     0.189 C 
ATOM      6  C   UNL A   1      34.315  23.367  25.816  1.00  0.00     0.043 C 
BRANCH   5   7
ATOM      7  N   UNL A   1      32.051  22.470  26.693  1.00  0.00    -0.340 N 
ATOM      8  C   UNL A   1      31.246  23.565  26.597  1.00  0.00     0.261 C 
ATOM      9  O   UNL A   1      30.153  23.512  27.171  1.00  0.00    -0.271 OA
ATOM     10  H   UNL A   1      31.586  21.671  27.030  1.00  0.00     0.164 HD
BRANCH   8  11
ATOM     11  C   UNL A   1      31.594  24.756  25.697  1.00  0.00     0.258 C 
ATOM     12  C   UNL A   1      31.636  26.004  26.592  1.00  0.00     0.064 C 
BRANCH  11  13
ATOM     13  O   UNL A   1      30.672  24.765  24.609  1.00  0.00    -0.481 OA
BRANCH  13  14
ATOM     14  C   UNL A   1      30.352  25.936  23.983  1.00  0.00     0.120 A 
ATOM     15  C   UNL A   1      31.241  26.813  23.375  1.00  0.00     0.047 A 
ATOM     16  C   UNL A   1      29.002  26.285  24.047  1.00  0.00     0.047 A 
ATOM     17  C   UNL A   1      30.805  28.072  22.944  1.00  0.00     0.012 A 
ATOM     18  C   UNL A   1      28.561  27.530  23.578  1.00  0.00     0.012 A 
ATOM     19  C   UNL A   1      29.461  28.468  23.051  1.00  0.00    -0.018 A 
BRANCH  19  20
ATOM     20  C   UNL A   1      29.034  29.829  22.652  1.00  0.00    -0.018 A 
ATOM     21  C   UNL A   1      29.098  30.909  23.553  1.00  0.00     0.009 A 
ATOM     22  C   UNL A   1      28.518  30.089  21.370  1.00  0.00     0.009 A 
ATOM     23  C   UNL A   1      28.649  32.184  23.196  1.00  0.00     0.001 A 
ATOM     24  C   UNL A   1      28.080  31.367  21.007  1.00  0.00     0.001 A 
ATOM     25  C   UNL A   1      28.138  32.412  21.923  1.00  0.00     0.000 A 
ENDBRANCH  19  20
ENDBRANCH  13  14
ENDBRANCH  11  13
ENDBRANCH   8  11
ENDBRANCH   5   7
ENDBRANCH   3   5
ENDBRANCH   2   3
ENDBRANCH   1   2
BRANCH   1  26
ATOM     26  C   UNL A   1      36.998  21.035  24.645  1.00  0.00     0.275 C 
BRANCH  26  27
ATOM     27  O   UNL A   1      37.550  21.550  25.871  1.00  0.00    -0.458 OA
BRANCH  27  28
ATOM     28  C   UNL A   1      38.862  21.309  26.081  1.00  0.00     0.338 C 
ATOM     29  O   UNL A   1      39.465  20.262  25.901  1.00  0.00    -0.246 OA
BRANCH  28  30
ATOM     30  C   UNL A   1      39.486  22.537  26.591  1.00  0.00     0.060 A 
ATOM     31  C   UNL A   1      39.038  23.788  26.156  1.00  0.00     0.016 A 
ATOM     32  C   UNL A   1      40.560  22.436  27.472  1.00  0.00     0.016 A 
ATOM     33  C   UNL A   1      39.685  24.947  26.580  1.00  0.00     0.010 A 
ATOM     34  C   UNL A   1      41.170  23.601  27.941  1.00  0.00     0.010 A 
ATOM     35  C   UNL A   1      40.751  24.864  27.485  1.00  0.00    -0.014 A 
BRANCH  35  36
ATOM     36  C   UNL A   1      41.468  26.086  27.935  1.00  0.00     0.031 A 
ATOM     37  C   UNL A   1      40.723  27.147  28.694  1.00  0.00     0.074 A 
ATOM     38  C   UNL A   1      42.767  26.262  27.627  1.00  0.00     0.049 A 
ATOM     39  N   UNL A   1      41.091  28.362  29.006  1.00  0.00    -0.248 NA
ATOM     40  C   UNL A   1      39.370  26.789  29.142  1.00  0.00     0.031 C 
ATOM     41  C   UNL A   1      43.608  25.292  26.922  1.00  0.00     0.029 A 
ATOM     42  N   UNL A   1      43.601  27.329  27.848  1.00  0.00    -0.354 N 
ATOM     43  C   UNL A   1      40.003  28.930  29.662  1.00  0.00     0.074 A 
ATOM     44  C   UNL A   1      38.954  27.931  29.666  1.00  0.00     0.031 C 
ATOM     45  C   UNL A   1      44.834  25.814  26.759  1.00  0.00     0.029 A 
ATOM     46  C   UNL A   1      44.847  27.176  27.285  1.00  0.00     0.049 A 
ATOM     47  H   UNL A   1      43.334  28.128  28.359  1.00  0.00     0.167 HD
ATOM     48  C   UNL A   1      39.896  30.166  30.212  1.00  0.00     0.034 A 
ATOM     49  C   UNL A   1      45.865  28.048  27.160  1.00  0.00     0.034 A 
ATOM     50  C   UNL A   1      40.957  31.146  30.191  1.00  0.00     0.049 A 
ATOM     51  C   UNL A   1      45.709  29.437  27.718  1.00  0.00     0.074 A 
ATOM     52  C   UNL A   1      40.965  32.426  30.719  1.00  0.00     0.029 A 
ATOM     53  N   UNL A   1      42.202  30.956  29.602  1.00  0.00    -0.354 N 
ATOM     54  N   UNL A   1      44.669  29.977  28.310  1.00  0.00    -0.248 NA
ATOM     55  C   UNL A   1      46.863  30.335  27.589  1.00  0.00     0.031 C 
ATOM     56  C   UNL A   1      42.188  33.028  30.397  1.00  0.00     0.029 A 
ATOM     57  C   UNL A   1      42.975  32.102  29.730  1.00  0.00     0.049 A 
ATOM     58  H   UNL A   1      42.494  30.128  29.157  1.00  0.00     0.167 HD
ATOM     59  C   UNL A   1      45.049  31.275  28.638  1.00  0.00     0.074 A 
ATOM     60  C   UNL A   1      46.419  31.429  28.190  1.00  0.00     0.031 C 
ATOM     61  C   UNL A   1      44.332  32.250  29.255  1.00  0.00     0.034 A 
BRANCH  48  62
ATOM     62  C   UNL A   1      38.559  30.530  30.818  1.00  0.00     0.023 A 
ATOM     63  C   UNL A   1      37.542  31.138  30.058  1.00  0.00     0.031 A 
ATOM     64  C   UNL A   1      38.325  30.340  32.191  1.00  0.00     0.131 A 
ATOM     65  C   UNL A   1      36.386  31.621  30.692  1.00  0.00     0.055 A 
ATOM     66  C   UNL A   1      37.133  30.741  32.799  1.00  0.00     0.041 A 
ATOM     67  F   UNL A   1      39.263  29.785  32.975  1.00  0.00    -0.206 F 
ATOM     68  C   UNL A   1      36.164  31.406  32.053  1.00  0.00     0.022 A 
BRANCH  65  69
ATOM     69  S   UNL A   1      35.264  32.693  29.747  1.00  0.00     0.124 S 
ATOM     70  O   UNL A   1      36.150  33.788  29.356  1.00  0.00    -0.237 OA
ATOM     71  O   UNL A   1      34.822  31.816  28.670  1.00  0.00    -0.237 OA
ATOM     72  O   UNL A   1      34.237  33.056  30.720  1.00  0.00    -0.744 OA
ENDBRANCH  65  69
ENDBRANCH  48  62
BRANCH  49  73
ATOM     73  C   UNL A   1      47.093  27.650  26.417  1.00  0.00     0.023 A 
ATOM     74  C   UNL A   1      47.202  27.841  25.032  1.00  0.00     0.031 A 
ATOM     75  C   UNL A   1      48.181  27.069  27.095  1.00  0.00     0.131 A 
ATOM     76  C   UNL A   1      48.367  27.434  24.363  1.00  0.00     0.055 A 
ATOM     77  C   UNL A   1      49.354  26.707  26.432  1.00  0.00     0.041 A 
ATOM     78  F   UNL A   1      48.126  26.871  28.421  1.00  0.00    -0.206 F 
ATOM     79  C   UNL A   1      49.449  26.882  25.055  1.00  0.00     0.022 A 
BRANCH  76  80
ATOM     80  S   UNL A   1      48.437  27.597  22.558  1.00  0.00     0.124 S 
ATOM     81  O   UNL A   1      48.471  26.202  22.135  1.00  0.00    -0.237 OA
ATOM     82  O   UNL A   1      47.206  28.326  22.271  1.00  0.00    -0.237 OA
ATOM     83  O   UNL A   1      49.670  28.348  22.331  1.00  0.00    -0.744 OA
ENDBRANCH  76  80
ENDBRANCH  49  73
BRANCH  61  84
ATOM     84  C   UNL A   1      45.041  33.557  29.507  1.00  0.00     0.023 A 
ATOM     85  C   UNL A   1      44.996  34.615  28.581  1.00  0.00     0.031 A 
ATOM     86  C   UNL A   1      45.789  33.739  30.684  1.00  0.00     0.131 A 
ATOM     87  C   UNL A   1      45.729  35.786  28.823  1.00  0.00     0.055 A 
ATOM     88  C   UNL A   1      46.472  34.928  30.945  1.00  0.00     0.041 A 
ATOM     89  F   UNL A   1      45.868  32.761  31.600  1.00  0.00    -0.206 F 
ATOM     90  C   UNL A   1      46.455  35.955  30.006  1.00  0.00     0.022 A 
BRANCH  87  91
ATOM     91  S   UNL A   1      45.793  37.060  27.532  1.00  0.00     0.124 S 
ATOM     92  O   UNL A   1      46.645  38.072  28.148  1.00  0.00    -0.237 OA
ATOM     93  O   UNL A   1      46.374  36.336  26.407  1.00  0.00    -0.237 OA
ATOM     94  O   UNL A   1      44.394  37.447  27.362  1.00  0.00    -0.744 OA
ENDBRANCH  87  91
ENDBRANCH  61  84
ENDBRANCH  35  36
ENDBRANCH  28  30
ENDBRANCH  27  28
ENDBRANCH  26  27
ENDBRANCH   1  26
TORSDOF 19
ENDMDL
MODEL 3
REMARK VINA RESULT:     -11.7      5.030      9.630
REMARK SMILES C[C@H](Oc1ccc(-c2ccccc2)cc1)C(=O)N[C@H](C)C(=O)OCCOC(=O)c1ccc(-c2c3nc(c(-c4cc(S(=O)(=O)[O-])ccc4F)c4ccc([nH]4)c(-c4cc(S(=O)(=O)[O-])ccc4F)c4nc(c(-c5cc(S(=O)(=O)[O-])ccc5F)c5ccc2[nH]5)C=C4)C=C3)cc1
REMARK SMILES IDX 24 1 23 2 21 3 22 4 19 5 20 6 18 7 16 8 17 9 2 11 1 12 3 13
REMARK SMILES IDX 4 14 5 15 15 16 6 17 14 18 7 19 8 20 9 21 13 22 10 23 12 24
REMARK SMILES IDX 11 25 25 26 26 27 27 28 28 29 29 30 30 31 91 32 31 33 90 34
REMARK SMILES IDX 32 35 33 36 34 37 84 38 35 39 89 40 83 41 85 42 36 43 88 44
REMARK SMILES IDX 82 45 81 46 37 48 69 49 49 50 68 51 50 52 53 53 67 54 86 55
REMARK SMILES IDX 51 56 52 57 66 59 87 60 54 61 38 62 39 63 47 64 40 65 46 66
REMARK SMILES IDX 48 67 45 68 41 69 42 70 43 71 44 72 70 73 71 74 79 75 72 76
REMARK SMILES IDX 78 77 80 78 77 79 73 80 74 81 75 82 76 83 55 84 56 85 64 86
REMARK SMILES IDX 57 87 63 88 65 89 62 90 58 91 59 92 60 93 61 94
REMARK H PARENT 18 10 85 47 53 58
REMARK Flexibility Score: inf
ROOT
ATOM      1  C   UNL A   1      35.575  21.535  24.891  1.00  0.00     0.274 C 
ENDROOT
BRANCH   1   2
ATOM      2  O   UNL A   1      35.646  22.969  24.971  1.00  0.00    -0.461 OA
BRANCH   2   3
ATOM      3  C   UNL A   1      34.836  23.589  25.874  1.00  0.00     0.328 C 
ATOM      4  O   UNL A   1      34.416  23.075  26.903  1.00  0.00    -0.250 OA
BRANCH   3   5
ATOM      5  C   UNL A   1      34.405  24.984  25.378  1.00  0.00     0.189 C 
ATOM      6  C   UNL A   1      34.380  25.003  23.852  1.00  0.00     0.043 C 
BRANCH   5   7
ATOM      7  N   UNL A   1      33.187  25.326  26.126  1.00  0.00    -0.340 N 
ATOM      8  C   UNL A   1      31.928  25.685  25.746  1.00  0.00     0.261 C 
ATOM      9  O   UNL A   1      31.194  26.164  26.617  1.00  0.00    -0.271 OA
ATOM     10  H   UNL A   1      33.305  25.287  27.102  1.00  0.00     0.164 HD
BRANCH   8  11
ATOM     11  C   UNL A   1      31.378  25.376  24.350  1.00  0.00     0.258 C 
ATOM     12  C   UNL A   1      30.610  26.620  23.879  1.00  0.00     0.064 C 
BRANCH  11  13
ATOM     13  O   UNL A   1      30.652  24.151  24.428  1.00  0.00    -0.481 OA
BRANCH  13  14
ATOM     14  C   UNL A   1      31.300  22.954  24.322  1.00  0.00     0.120 A 
ATOM     15  C   UNL A   1      31.780  22.380  23.151  1.00  0.00     0.047 A 
ATOM     16  C   UNL A   1      31.405  22.236  25.514  1.00  0.00     0.047 A 
ATOM     17  C   UNL A   1      32.248  21.060  23.155  1.00  0.00     0.012 A 
ATOM     18  C   UNL A   1      31.911  20.929  25.522  1.00  0.00     0.012 A 
ATOM     19  C   UNL A   1      32.309  20.298  24.334  1.00  0.00    -0.018 A 
BRANCH  19  20
ATOM     20  C   UNL A   1      32.744  18.882  24.304  1.00  0.00    -0.018 A 
ATOM     21  C   UNL A   1      32.720  18.085  25.464  1.00  0.00     0.009 A 
ATOM     22  C   UNL A   1      33.226  18.288  23.125  1.00  0.00     0.009 A 
ATOM     23  C   UNL A   1      33.177  16.764  25.451  1.00  0.00     0.001 A 
ATOM     24  C   UNL A   1      33.672  16.962  23.106  1.00  0.00     0.001 A 
ATOM     25  C   UNL A   1      33.655  16.203  24.271  1.00  0.00     0.000 A 
ENDBRANCH  19  20
ENDBRANCH  13  14
ENDBRANCH  11  13
ENDBRANCH   8  11
ENDBRANCH   5   7
ENDBRANCH   3   5
ENDBRANCH   2   3
ENDBRANCH   1   2
BRANCH   1  26
ATOM     26  C   UNL A   1      36.994  20.991  25.020  1.00  0.00     0.275 C 
BRANCH  26  27
ATOM     27  O   UNL A   1      37.681  21.750  26.032  1.00  0.00    -0.458 OA
BRANCH  27  28
ATOM     28  C   UNL A   1      38.980  21.438  26.233  1.00  0.00     0.338 C 
ATOM     29  O   UNL A   1      39.507  20.341  26.125  1.00  0.00    -0.246 OA
BRANCH  28  30
ATOM     30  C   UNL A   1      39.697  22.657  26.629  1.00  0.00     0.060 A 
ATOM     31  C   UNL A   1      40.732  22.593  27.568  1.00  0.00     0.016 A 
ATOM     32  C   UNL A   1      39.299  23.881  26.096  1.00  0.00     0.016 A 
ATOM     33  C   UNL A   1      41.354  23.762  28.001  1.00  0.00     0.010 A 
ATOM     34  C   UNL A   1      39.963  25.044  26.488  1.00  0.00     0.010 A 
ATOM     35  C   UNL A   1      40.983  24.998  27.456  1.00  0.00    -0.014 A 
BRANCH  35  36
ATOM     36  C   UNL A   1      41.620  26.259  27.918  1.00  0.00     0.031 A 
ATOM     37  C   UNL A   1      40.793  27.287  28.637  1.00  0.00     0.074 A 
ATOM     38  C   UNL A   1      42.918  26.499  27.656  1.00  0.00     0.049 A 
ATOM     39  N   UNL A   1      41.087  28.523  28.949  1.00  0.00    -0.248 NA
ATOM     40  C   UNL A   1      39.445  26.864  29.040  1.00  0.00     0.031 C 
ATOM     41  C   UNL A   1      43.833  25.567  26.993  1.00  0.00     0.029 A 
ATOM     42  N   UNL A   1      43.688  27.609  27.895  1.00  0.00    -0.354 N 
ATOM     43  C   UNL A   1      39.948  29.039  29.558  1.00  0.00     0.074 A 
ATOM     44  C   UNL A   1      38.951  27.988  29.535  1.00  0.00     0.031 C 
ATOM     45  C   UNL A   1      45.036  26.150  26.869  1.00  0.00     0.029 A 
ATOM     46  C   UNL A   1      44.960  27.515  27.380  1.00  0.00     0.049 A 
ATOM     47  H   UNL A   1      43.361  28.398  28.387  1.00  0.00     0.167 HD
ATOM     48  C   UNL A   1      39.757  30.274  30.090  1.00  0.00     0.034 A 
ATOM     49  C   UNL A   1      45.936  28.438  27.283  1.00  0.00     0.034 A 
ATOM     50  C   UNL A   1      40.766  31.306  30.097  1.00  0.00     0.049 A 
ATOM     51  C   UNL A   1      45.689  29.822  27.818  1.00  0.00     0.074 A 
ATOM     52  C   UNL A   1      40.690  32.590  30.610  1.00  0.00     0.029 A 
ATOM     53  N   UNL A   1      42.041  31.176  29.555  1.00  0.00    -0.354 N 
ATOM     54  N   UNL A   1      44.601  30.313  28.366  1.00  0.00    -0.248 NA
ATOM     55  C   UNL A   1      46.799  30.776  27.722  1.00  0.00     0.031 C 
ATOM     56  C   UNL A   1      41.892  33.252  30.326  1.00  0.00     0.029 A 
ATOM     57  C   UNL A   1      42.749  32.361  29.699  1.00  0.00     0.049 A 
ATOM     58  H   UNL A   1      42.392  30.360  29.131  1.00  0.00     0.167 HD
ATOM     59  C   UNL A   1      44.902  31.632  28.693  1.00  0.00     0.074 A 
ATOM     60  C   UNL A   1      46.278  31.852  28.294  1.00  0.00     0.031 C 
ATOM     61  C   UNL A   1      44.114  32.574  29.272  1.00  0.00     0.034 A 
BRANCH  48  62
ATOM     62  C   UNL A   1      38.382  30.574  30.643  1.00  0.00     0.023 A 
ATOM     63  C   UNL A   1      37.379  31.167  29.852  1.00  0.00     0.031 A 
ATOM     64  C   UNL A   1      38.092  30.337  31.998  1.00  0.00     0.131 A 
ATOM     65  C   UNL A   1      36.180  31.592  30.444  1.00  0.00     0.055 A 
ATOM     66  C   UNL A   1      36.860  30.679  32.559  1.00  0.00     0.041 A 
ATOM     67  F   UNL A   1      39.013  29.792  32.809  1.00  0.00    -0.206 F 
ATOM     68  C   UNL A   1      35.904  31.331  31.787  1.00  0.00     0.022 A 
BRANCH  65  69
ATOM     69  S   UNL A   1      35.064  32.652  29.477  1.00  0.00     0.124 S 
ATOM     70  O   UNL A   1      35.987  33.648  28.935  1.00  0.00    -0.237 OA
ATOM     71  O   UNL A   1      34.498  31.716  28.513  1.00  0.00    -0.237 OA
ATOM     72  O   UNL A   1      34.128  33.165  30.474  1.00  0.00    -0.744 OA
ENDBRANCH  65  69
ENDBRANCH  48  62
BRANCH  49  73
ATOM     73  C   UNL A   1      47.209  28.096  26.589  1.00  0.00     0.023 A 
ATOM     74  C   UNL A   1      47.286  28.038  25.191  1.00  0.00     0.031 A 
ATOM     75  C   UNL A   1      48.375  27.824  27.330  1.00  0.00     0.131 A 
ATOM     76  C   UNL A   1      48.499  27.692  24.573  1.00  0.00     0.055 A 
ATOM     77  C   UNL A   1      49.589  27.524  26.711  1.00  0.00     0.041 A 
ATOM     78  F   UNL A   1      48.353  27.873  28.671  1.00  0.00    -0.206 F 
ATOM     79  C   UNL A   1      49.654  27.450  25.323  1.00  0.00     0.022 A 
BRANCH  76  80
ATOM     80  S   UNL A   1      48.540  27.522  22.768  1.00  0.00     0.124 S 
ATOM     81  O   UNL A   1      49.786  28.203  22.434  1.00  0.00    -0.237 OA
ATOM     82  O   UNL A   1      48.535  26.073  22.600  1.00  0.00    -0.237 OA
ATOM     83  O   UNL A   1      47.321  28.202  22.334  1.00  0.00    -0.744 OA
ENDBRANCH  76  80
ENDBRANCH  49  73
BRANCH  61  84
ATOM     84  C   UNL A   1      44.745  33.919  29.536  1.00  0.00     0.023 A 
ATOM     85  C   UNL A   1      44.674  34.966  28.599  1.00  0.00     0.031 A 
ATOM     86  C   UNL A   1      45.444  34.147  30.733  1.00  0.00     0.131 A 
ATOM     87  C   UNL A   1      45.336  36.176  28.855  1.00  0.00     0.055 A 
ATOM     88  C   UNL A   1      46.056  35.372  31.006  1.00  0.00     0.041 A 
ATOM     89  F   UNL A   1      45.546  33.181  31.660  1.00  0.00    -0.206 F 
ATOM     90  C   UNL A   1      46.014  36.390  30.059  1.00  0.00     0.022 A 
BRANCH  87  91
ATOM     91  S   UNL A   1      45.375  37.442  27.556  1.00  0.00     0.124 S 
ATOM     92  O   UNL A   1      45.819  38.620  28.294  1.00  0.00    -0.237 OA
ATOM     93  O   UNL A   1      46.332  36.887  26.605  1.00  0.00    -0.237 OA
ATOM     94  O   UNL A   1      43.992  37.492  27.084  1.00  0.00    -0.744 OA
ENDBRANCH  87  91
ENDBRANCH  61  84
ENDBRANCH  35  36
ENDBRANCH  28  30
ENDBRANCH  27  28
ENDBRANCH  26  27
ENDBRANCH   1  26
TORSDOF 19
ENDMDL
