MODEL 1
REMARK VINA RESULT:      -8.8      0.000      0.000
REMARK SMILES COc1cc(/C=C2\SC(=S)N([C@H](C)C(=O)Nc3ccc(C(=O)OCCOC(=O)c4ccc(-c5c6nc(c(-c7cc(S(=O)(=O)[O-])ccc7F)c7ccc([nH]7)c(-c7cc(S(=O)(=O)[O-])ccc7F)c7nc(c(-c8cc(S(=O)(=O)[O-])ccc8F)c8ccc5[nH]8)C=C7)C=C6)cc4)cc3)C2=O)ccc1O
REMARK SMILES IDX 24 1 23 2 21 3 22 4 20 5 17 6 18 7 93 8 19 9 92 10 16 11
REMARK SMILES IDX 14 12 15 13 12 15 13 16 11 17 6 18 7 19 8 20 94 21 9 22
REMARK SMILES IDX 95 23 10 24 5 25 3 26 4 27 98 28 97 29 96 30 2 31 1 32 99 33
REMARK SMILES IDX 25 35 26 36 27 37 28 38 29 39 30 40 91 41 31 42 90 43 32 44
REMARK SMILES IDX 33 45 34 46 84 47 35 48 89 49 83 50 85 51 36 52 88 53 82 54
REMARK SMILES IDX 81 55 37 57 69 58 49 59 68 60 50 61 53 62 67 63 86 64 51 65
REMARK SMILES IDX 52 66 66 68 87 69 54 70 38 71 39 72 47 73 40 74 46 75 48 76
REMARK SMILES IDX 45 77 41 78 42 79 43 80 44 81 70 82 71 83 79 84 72 85 78 86
REMARK SMILES IDX 80 87 77 88 73 89 74 90 75 91 76 92 55 93 56 94 64 95 57 96
REMARK SMILES IDX 63 97 65 98 62 99 58 100 59 101 60 102 61 103
REMARK H PARENT 16 14 99 34 85 56 53 67
REMARK Flexibility Score: inf
ROOT
ATOM      1  C   UNL A   1      34.304  34.636  30.372  1.00  0.00     0.275 C 
ENDROOT
BRANCH   1   2
ATOM      2  O   UNL A   1      35.121  34.515  31.554  1.00  0.00    -0.458 OA
BRANCH   2   3
ATOM      3  C   UNL A   1      34.460  34.065  32.645  1.00  0.00     0.338 C 
ATOM      4  O   UNL A   1      33.266  34.214  32.871  1.00  0.00    -0.246 OA
BRANCH   3   5
ATOM      5  C   UNL A   1      35.346  33.362  33.602  1.00  0.00     0.060 A 
ATOM      6  C   UNL A   1      37.590  32.647  35.064  1.00  0.00     0.041 A 
ATOM      7  C   UNL A   1      36.721  33.591  35.589  1.00  0.00     0.027 A 
ATOM      8  C   UNL A   1      37.221  31.893  33.951  1.00  0.00     0.027 A 
ATOM      9  C   UNL A   1      35.631  33.986  34.824  1.00  0.00     0.018 A 
ATOM     10  C   UNL A   1      36.083  32.240  33.218  1.00  0.00     0.018 A 
BRANCH   6  11
ATOM     11  N   UNL A   1      38.837  32.534  35.667  1.00  0.00    -0.324 N 
ATOM     12  C   UNL A   1      39.896  33.400  35.613  1.00  0.00     0.247 C 
ATOM     13  O   UNL A   1      40.847  33.134  36.359  1.00  0.00    -0.272 OA
ATOM     14  H   UNL A   1      38.979  31.722  36.206  1.00  0.00     0.170 HD
BRANCH  12  15
ATOM     15  C   UNL A   1      39.958  34.690  34.735  1.00  0.00     0.178 C 
ATOM     16  C   UNL A   1      39.916  35.973  35.556  1.00  0.00     0.042 C 
BRANCH  15  17
ATOM     17  N   UNL A   1      40.900  34.601  33.587  1.00  0.00    -0.280 N 
ATOM     18  C   UNL A   1      41.556  33.605  30.150  1.00  0.00     0.029 C 
ATOM     19  C   UNL A   1      41.626  33.806  31.474  1.00  0.00     0.081 C 
ATOM     20  S   UNL A   1      43.066  33.976  32.400  1.00  0.00    -0.054 SA
ATOM     21  C   UNL A   1      40.458  34.072  32.377  1.00  0.00     0.266 C 
ATOM     22  C   UNL A   1      42.194  35.046  33.489  1.00  0.00     0.149 C 
ATOM     23  O   UNL A   1      39.295  33.930  32.030  1.00  0.00    -0.268 OA
ATOM     24  S   UNL A   1      42.811  36.544  33.891  1.00  0.00    -0.052 S 
BRANCH  18  25
ATOM     25  C   UNL A   1      42.724  33.286  29.314  1.00  0.00    -0.020 A 
ATOM     26  C   UNL A   1      44.344  31.710  28.376  1.00  0.00     0.161 A 
ATOM     27  C   UNL A   1      43.255  31.990  29.223  1.00  0.00     0.058 A 
ATOM     28  C   UNL A   1      44.878  32.750  27.609  1.00  0.00     0.157 A 
ATOM     29  C   UNL A   1      44.371  34.044  27.708  1.00  0.00     0.051 A 
ATOM     30  C   UNL A   1      43.297  34.311  28.554  1.00  0.00     0.012 A 
BRANCH  26  31
ATOM     31  O   UNL A   1      44.744  30.399  28.396  1.00  0.00    -0.493 OA
ATOM     32  C   UNL A   1      43.969  29.452  27.669  1.00  0.00     0.278 C 
ENDBRANCH  26  31
BRANCH  28  33
ATOM     33  O   UNL A   1      45.879  32.576  26.699  1.00  0.00    -0.504 OA
ATOM     34  H   UNL A   1      46.354  33.317  26.377  1.00  0.00     0.293 HD
ENDBRANCH  28  33
ENDBRANCH  18  25
ENDBRANCH  15  17
ENDBRANCH  12  15
ENDBRANCH   6  11
ENDBRANCH   3   5
ENDBRANCH   2   3
ENDBRANCH   1   2
BRANCH   1  35
ATOM     35  C   UNL A   1      34.697  33.589  29.329  1.00  0.00     0.275 C 
BRANCH  35  36
ATOM     36  O   UNL A   1      34.827  32.283  29.925  1.00  0.00    -0.458 OA
BRANCH  36  37
ATOM     37  C   UNL A   1      35.425  31.358  29.139  1.00  0.00     0.338 C 
ATOM     38  O   UNL A   1      35.067  30.991  28.032  1.00  0.00    -0.246 OA
BRANCH  37  39
ATOM     39  C   UNL A   1      36.660  30.862  29.765  1.00  0.00     0.060 A 
ATOM     40  C   UNL A   1      37.856  31.512  29.487  1.00  0.00     0.016 A 
ATOM     41  C   UNL A   1      36.675  29.647  30.440  1.00  0.00     0.016 A 
ATOM     42  C   UNL A   1      39.073  30.887  29.731  1.00  0.00     0.010 A 
ATOM     43  C   UNL A   1      37.903  29.093  30.829  1.00  0.00     0.010 A 
ATOM     44  C   UNL A   1      39.121  29.682  30.437  1.00  0.00    -0.014 A 
BRANCH  44  45
ATOM     45  C   UNL A   1      40.432  29.035  30.745  1.00  0.00     0.031 A 
ATOM     46  C   UNL A   1      41.226  29.475  31.950  1.00  0.00     0.074 A 
ATOM     47  C   UNL A   1      40.916  28.056  29.952  1.00  0.00     0.049 A 
ATOM     48  N   UNL A   1      42.473  29.227  32.258  1.00  0.00    -0.248 NA
ATOM     49  C   UNL A   1      40.528  30.326  32.925  1.00  0.00     0.031 C 
ATOM     50  C   UNL A   1      40.227  27.478  28.794  1.00  0.00     0.029 A 
ATOM     51  N   UNL A   1      42.105  27.369  29.994  1.00  0.00    -0.354 N 
ATOM     52  C   UNL A   1      42.728  29.941  33.425  1.00  0.00     0.074 A 
ATOM     53  C   UNL A   1      41.508  30.644  33.759  1.00  0.00     0.031 C 
ATOM     54  C   UNL A   1      40.981  26.506  28.266  1.00  0.00     0.029 A 
ATOM     55  C   UNL A   1      42.262  26.478  28.956  1.00  0.00     0.049 A 
ATOM     56  H   UNL A   1      42.780  27.500  30.699  1.00  0.00     0.167 HD
ATOM     57  C   UNL A   1      43.878  30.003  34.144  1.00  0.00     0.034 A 
ATOM     58  C   UNL A   1      43.335  25.769  28.550  1.00  0.00     0.034 A 
ATOM     59  C   UNL A   1      45.071  29.260  33.808  1.00  0.00     0.049 A 
ATOM     60  C   UNL A   1      44.624  25.917  29.313  1.00  0.00     0.074 A 
ATOM     61  C   UNL A   1      46.287  29.236  34.471  1.00  0.00     0.029 A 
ATOM     62  N   UNL A   1      45.199  28.407  32.719  1.00  0.00    -0.354 N 
ATOM     63  N   UNL A   1      44.875  26.649  30.374  1.00  0.00    -0.248 NA
ATOM     64  C   UNL A   1      45.776  25.154  28.818  1.00  0.00     0.031 C 
ATOM     65  C   UNL A   1      47.168  28.432  33.742  1.00  0.00     0.029 A 
ATOM     66  C   UNL A   1      46.481  27.879  32.674  1.00  0.00     0.049 A 
ATOM     67  H   UNL A   1      44.483  28.207  32.073  1.00  0.00     0.167 HD
ATOM     68  C   UNL A   1      46.209  26.410  30.689  1.00  0.00     0.074 A 
ATOM     69  C   UNL A   1      46.701  25.457  29.716  1.00  0.00     0.031 C 
ATOM     70  C   UNL A   1      46.958  26.932  31.693  1.00  0.00     0.034 A 
BRANCH  57  71
ATOM     71  C   UNL A   1      43.922  30.953  35.321  1.00  0.00     0.023 A 
ATOM     72  C   UNL A   1      44.458  32.249  35.222  1.00  0.00     0.031 A 
ATOM     73  C   UNL A   1      43.437  30.540  36.576  1.00  0.00     0.131 A 
ATOM     74  C   UNL A   1      44.567  33.052  36.369  1.00  0.00     0.055 A 
ATOM     75  C   UNL A   1      43.468  31.378  37.694  1.00  0.00     0.041 A 
ATOM     76  F   UNL A   1      42.934  29.307  36.742  1.00  0.00    -0.206 F 
ATOM     77  C   UNL A   1      44.050  32.637  37.598  1.00  0.00     0.022 A 
BRANCH  74  78
ATOM     78  S   UNL A   1      45.534  34.584  36.266  1.00  0.00     0.124 S 
ATOM     79  O   UNL A   1      46.727  34.232  37.032  1.00  0.00    -0.237 OA
ATOM     80  O   UNL A   1      45.722  34.742  34.828  1.00  0.00    -0.237 OA
ATOM     81  O   UNL A   1      44.669  35.579  36.897  1.00  0.00    -0.744 OA
ENDBRANCH  74  78
ENDBRANCH  57  71
BRANCH  58  82
ATOM     82  C   UNL A   1      43.260  24.925  27.321  1.00  0.00     0.023 A 
ATOM     83  C   UNL A   1      42.643  23.665  27.346  1.00  0.00     0.031 A 
ATOM     84  C   UNL A   1      43.837  25.350  26.109  1.00  0.00     0.131 A 
ATOM     85  C   UNL A   1      42.652  22.860  26.196  1.00  0.00     0.055 A 
ATOM     86  C   UNL A   1      43.782  24.576  24.951  1.00  0.00     0.041 A 
ATOM     87  F   UNL A   1      44.448  26.544  26.028  1.00  0.00    -0.206 F 
ATOM     88  C   UNL A   1      43.199  23.314  24.994  1.00  0.00     0.022 A 
BRANCH  85  89
ATOM     89  S   UNL A   1      42.025  21.164  26.323  1.00  0.00     0.124 S 
ATOM     90  O   UNL A   1      42.878  20.462  25.370  1.00  0.00    -0.237 OA
ATOM     91  O   UNL A   1      42.253  20.863  27.732  1.00  0.00    -0.237 OA
ATOM     92  O   UNL A   1      40.623  21.290  25.931  1.00  0.00    -0.744 OA
ENDBRANCH  85  89
ENDBRANCH  58  82
BRANCH  70  93
ATOM     93  C   UNL A   1      48.375  26.427  31.820  1.00  0.00     0.023 A 
ATOM     94  C   UNL A   1      48.698  25.310  32.609  1.00  0.00     0.031 A 
ATOM     95  C   UNL A   1      49.419  27.088  31.149  1.00  0.00     0.131 A 
ATOM     96  C   UNL A   1      50.038  24.922  32.753  1.00  0.00     0.055 A 
ATOM     97  C   UNL A   1      50.742  26.658  31.243  1.00  0.00     0.041 A 
ATOM     98  F   UNL A   1      49.168  28.166  30.388  1.00  0.00    -0.206 F 
ATOM     99  C   UNL A   1      51.061  25.577  32.059  1.00  0.00     0.022 A 
BRANCH  96 100
ATOM    100  S   UNL A   1      50.444  23.613  33.942  1.00  0.00     0.124 S 
ATOM    101  O   UNL A   1      51.892  23.751  34.059  1.00  0.00    -0.237 OA
ATOM    102  O   UNL A   1      49.669  24.006  35.115  1.00  0.00    -0.237 OA
ATOM    103  O   UNL A   1      49.987  22.394  33.278  1.00  0.00    -0.744 OA
ENDBRANCH  96 100
ENDBRANCH  70  93
ENDBRANCH  44  45
ENDBRANCH  37  39
ENDBRANCH  36  37
ENDBRANCH  35  36
ENDBRANCH   1  35
TORSDOF 20
ENDMDL
MODEL 2
REMARK VINA RESULT:      -8.5      5.214     11.008
REMARK SMILES COc1cc(/C=C2\SC(=S)N([C@H](C)C(=O)Nc3ccc(C(=O)OCCOC(=O)c4ccc(-c5c6nc(c(-c7cc(S(=O)(=O)[O-])ccc7F)c7ccc([nH]7)c(-c7cc(S(=O)(=O)[O-])ccc7F)c7nc(c(-c8cc(S(=O)(=O)[O-])ccc8F)c8ccc5[nH]8)C=C7)C=C6)cc4)cc3)C2=O)ccc1O
REMARK SMILES IDX 24 1 23 2 21 3 22 4 20 5 17 6 18 7 93 8 19 9 92 10 16 11
REMARK SMILES IDX 14 12 15 13 12 15 13 16 11 17 6 18 7 19 8 20 94 21 9 22
REMARK SMILES IDX 95 23 10 24 5 25 3 26 4 27 98 28 97 29 96 30 2 31 1 32 99 33
REMARK SMILES IDX 25 35 26 36 27 37 28 38 29 39 30 40 91 41 31 42 90 43 32 44
REMARK SMILES IDX 33 45 34 46 84 47 35 48 89 49 83 50 85 51 36 52 88 53 82 54
REMARK SMILES IDX 81 55 37 57 69 58 49 59 68 60 50 61 53 62 67 63 86 64 51 65
REMARK SMILES IDX 52 66 66 68 87 69 54 70 38 71 39 72 47 73 40 74 46 75 48 76
REMARK SMILES IDX 45 77 41 78 42 79 43 80 44 81 70 82 71 83 79 84 72 85 78 86
REMARK SMILES IDX 80 87 77 88 73 89 74 90 75 91 76 92 55 93 56 94 64 95 57 96
REMARK SMILES IDX 63 97 65 98 62 99 58 100 59 101 60 102 61 103
REMARK H PARENT 16 14 99 34 85 56 53 67
REMARK Flexibility Score: inf
ROOT
ATOM      1  C   UNL A   1      38.921  22.049  26.157  1.00  0.00     0.275 C 
ENDROOT
BRANCH   1   2
ATOM      2  O   UNL A   1      37.831  22.514  25.336  1.00  0.00    -0.458 OA
BRANCH   2   3
ATOM      3  C   UNL A   1      36.986  21.540  24.928  1.00  0.00     0.338 C 
ATOM      4  O   UNL A   1      37.149  20.809  23.960  1.00  0.00    -0.246 OA
BRANCH   3   5
ATOM      5  C   UNL A   1      35.775  21.440  25.777  1.00  0.00     0.060 A 
ATOM      6  C   UNL A   1      33.226  21.874  26.777  1.00  0.00     0.041 A 
ATOM      7  C   UNL A   1      33.415  20.878  25.829  1.00  0.00     0.027 A 
ATOM      8  C   UNL A   1      34.322  22.472  27.395  1.00  0.00     0.027 A 
ATOM      9  C   UNL A   1      34.683  20.707  25.292  1.00  0.00     0.018 A 
ATOM     10  C   UNL A   1      35.612  22.246  26.905  1.00  0.00     0.018 A 
BRANCH   6  11
ATOM     11  N   UNL A   1      31.917  22.264  27.030  1.00  0.00    -0.324 N 
ATOM     12  C   UNL A   1      31.121  23.111  26.307  1.00  0.00     0.247 C 
ATOM     13  O   UNL A   1      29.939  23.179  26.671  1.00  0.00    -0.272 OA
ATOM     14  H   UNL A   1      31.506  21.878  27.837  1.00  0.00     0.170 HD
BRANCH  12  15
ATOM     15  C   UNL A   1      31.580  23.933  25.062  1.00  0.00     0.178 C 
ATOM     16  C   UNL A   1      30.914  23.478  23.769  1.00  0.00     0.042 C 
BRANCH  15  17
ATOM     17  N   UNL A   1      31.736  25.390  25.317  1.00  0.00    -0.280 N 
ATOM     18  C   UNL A   1      33.875  28.199  26.198  1.00  0.00     0.029 C 
ATOM     19  C   UNL A   1      32.873  27.309  26.121  1.00  0.00     0.081 C 
ATOM     20  S   UNL A   1      31.208  27.628  26.413  1.00  0.00    -0.054 SA
ATOM     21  C   UNL A   1      32.996  25.902  25.617  1.00  0.00     0.266 C 
ATOM     22  C   UNL A   1      30.803  26.392  25.231  1.00  0.00     0.149 C 
ATOM     23  O   UNL A   1      34.069  25.352  25.414  1.00  0.00    -0.268 OA
ATOM     24  S   UNL A   1      29.736  26.714  23.989  1.00  0.00    -0.052 S 
BRANCH  18  25
ATOM     25  C   UNL A   1      33.718  29.550  26.757  1.00  0.00    -0.020 A 
ATOM     26  C   UNL A   1      34.541  31.469  28.035  1.00  0.00     0.161 A 
ATOM     27  C   UNL A   1      34.701  30.155  27.556  1.00  0.00     0.058 A 
ATOM     28  C   UNL A   1      33.385  32.171  27.682  1.00  0.00     0.157 A 
ATOM     29  C   UNL A   1      32.394  31.573  26.906  1.00  0.00     0.051 A 
ATOM     30  C   UNL A   1      32.561  30.270  26.443  1.00  0.00     0.012 A 
BRANCH  26  31
ATOM     31  O   UNL A   1      35.587  31.916  28.799  1.00  0.00    -0.493 OA
ATOM     32  C   UNL A   1      36.464  32.883  28.229  1.00  0.00     0.278 C 
ENDBRANCH  26  31
BRANCH  28  33
ATOM     33  O   UNL A   1      33.162  33.472  28.023  1.00  0.00    -0.504 OA
ATOM     34  H   UNL A   1      32.624  33.678  28.762  1.00  0.00     0.293 HD
ENDBRANCH  28  33
ENDBRANCH  18  25
ENDBRANCH  15  17
ENDBRANCH  12  15
ENDBRANCH   6  11
ENDBRANCH   3   5
ENDBRANCH   2   3
ENDBRANCH   1   2
BRANCH   1  35
ATOM     35  C   UNL A   1      39.354  20.643  25.742  1.00  0.00     0.275 C 
BRANCH  35  36
ATOM     36  O   UNL A   1      40.368  20.129  26.628  1.00  0.00    -0.458 OA
BRANCH  36  37
ATOM     37  C   UNL A   1      41.592  19.986  26.067  1.00  0.00     0.338 C 
ATOM     38  O   UNL A   1      41.972  19.074  25.352  1.00  0.00    -0.246 OA
BRANCH  37  39
ATOM     39  C   UNL A   1      42.442  21.148  26.370  1.00  0.00     0.060 A 
ATOM     40  C   UNL A   1      42.771  21.406  27.694  1.00  0.00     0.016 A 
ATOM     41  C   UNL A   1      42.729  22.092  25.390  1.00  0.00     0.016 A 
ATOM     42  C   UNL A   1      43.234  22.659  28.075  1.00  0.00     0.010 A 
ATOM     43  C   UNL A   1      43.347  23.296  25.757  1.00  0.00     0.010 A 
ATOM     44  C   UNL A   1      43.565  23.616  27.111  1.00  0.00    -0.014 A 
BRANCH  44  45
ATOM     45  C   UNL A   1      44.112  24.945  27.518  1.00  0.00     0.031 A 
ATOM     46  C   UNL A   1      43.202  25.982  28.128  1.00  0.00     0.074 A 
ATOM     47  C   UNL A   1      45.420  25.229  27.345  1.00  0.00     0.049 A 
ATOM     48  N   UNL A   1      43.411  27.259  28.322  1.00  0.00    -0.248 NA
ATOM     49  C   UNL A   1      41.872  25.522  28.555  1.00  0.00     0.031 C 
ATOM     50  C   UNL A   1      46.434  24.301  26.833  1.00  0.00     0.029 A 
ATOM     51  N   UNL A   1      46.130  26.383  27.577  1.00  0.00    -0.354 N 
ATOM     52  C   UNL A   1      42.220  27.768  28.832  1.00  0.00     0.074 A 
ATOM     53  C   UNL A   1      41.290  26.661  28.902  1.00  0.00     0.031 C 
ATOM     54  C   UNL A   1      47.629  24.904  26.829  1.00  0.00     0.029 A 
ATOM     55  C   UNL A   1      47.453  26.299  27.206  1.00  0.00     0.049 A 
ATOM     56  H   UNL A   1      45.731  27.192  27.972  1.00  0.00     0.167 HD
ATOM     57  C   UNL A   1      41.936  29.043  29.203  1.00  0.00     0.034 A 
ATOM     58  C   UNL A   1      48.407  27.245  27.104  1.00  0.00     0.034 A 
ATOM     59  C   UNL A   1      42.897  30.120  29.158  1.00  0.00     0.049 A 
ATOM     60  C   UNL A   1      48.047  28.668  27.441  1.00  0.00     0.074 A 
ATOM     61  C   UNL A   1      42.723  31.446  29.521  1.00  0.00     0.029 A 
ATOM     62  N   UNL A   1      44.212  29.998  28.729  1.00  0.00    -0.354 N 
ATOM     63  N   UNL A   1      46.899  29.152  27.855  1.00  0.00    -0.248 NA
ATOM     64  C   UNL A   1      49.106  29.672  27.285  1.00  0.00     0.031 C 
ATOM     65  C   UNL A   1      43.906  32.136  29.239  1.00  0.00     0.029 A 
ATOM     66  C   UNL A   1      44.850  31.229  28.787  1.00  0.00     0.049 A 
ATOM     67  H   UNL A   1      44.632  29.159  28.427  1.00  0.00     0.167 HD
ATOM     68  C   UNL A   1      47.108  30.515  28.036  1.00  0.00     0.074 A 
ATOM     69  C   UNL A   1      48.493  30.770  27.701  1.00  0.00     0.031 C 
ATOM     70  C   UNL A   1      46.233  31.469  28.444  1.00  0.00     0.034 A 
BRANCH  57  71
ATOM     71  C   UNL A   1      40.515  29.353  29.622  1.00  0.00     0.023 A 
ATOM     72  C   UNL A   1      40.139  29.476  30.970  1.00  0.00     0.031 A 
ATOM     73  C   UNL A   1      39.512  29.502  28.647  1.00  0.00     0.131 A 
ATOM     74  C   UNL A   1      38.788  29.663  31.308  1.00  0.00     0.055 A 
ATOM     75  C   UNL A   1      38.184  29.777  28.986  1.00  0.00     0.041 A 
ATOM     76  F   UNL A   1      39.801  29.373  27.342  1.00  0.00    -0.206 F 
ATOM     77  C   UNL A   1      37.813  29.843  30.324  1.00  0.00     0.022 A 
BRANCH  74  78
ATOM     78  S   UNL A   1      38.301  29.514  33.049  1.00  0.00     0.124 S 
ATOM     79  O   UNL A   1      39.556  29.099  33.671  1.00  0.00    -0.237 OA
ATOM     80  O   UNL A   1      37.846  30.863  33.366  1.00  0.00    -0.237 OA
ATOM     81  O   UNL A   1      37.257  28.491  33.027  1.00  0.00    -0.744 OA
ENDBRANCH  74  78
ENDBRANCH  57  71
BRANCH  58  82
ATOM     82  C   UNL A   1      49.765  26.897  26.588  1.00  0.00     0.023 A 
ATOM     83  C   UNL A   1      50.861  26.785  27.456  1.00  0.00     0.031 A 
ATOM     84  C   UNL A   1      49.992  26.704  25.213  1.00  0.00     0.131 A 
ATOM     85  C   UNL A   1      52.139  26.529  26.936  1.00  0.00     0.055 A 
ATOM     86  C   UNL A   1      51.253  26.381  24.709  1.00  0.00     0.041 A 
ATOM     87  F   UNL A   1      48.982  26.806  24.333  1.00  0.00    -0.206 F 
ATOM     88  C   UNL A   1      52.340  26.306  25.572  1.00  0.00     0.022 A 
BRANCH  85  89
ATOM     89  S   UNL A   1      53.559  26.592  28.063  1.00  0.00     0.124 S 
ATOM     90  O   UNL A   1      54.432  25.571  27.494  1.00  0.00    -0.237 OA
ATOM     91  O   UNL A   1      54.003  27.973  27.913  1.00  0.00    -0.237 OA
ATOM     92  O   UNL A   1      52.976  26.261  29.362  1.00  0.00    -0.744 OA
ENDBRANCH  85  89
ENDBRANCH  58  82
BRANCH  70  93
ATOM     93  C   UNL A   1      46.776  32.867  28.608  1.00  0.00     0.023 A 
ATOM     94  C   UNL A   1      46.825  33.777  27.538  1.00  0.00     0.031 A 
ATOM     95  C   UNL A   1      47.265  33.289  29.858  1.00  0.00     0.131 A 
ATOM     96  C   UNL A   1      47.405  35.040  27.722  1.00  0.00     0.055 A 
ATOM     97  C   UNL A   1      47.779  34.570  30.052  1.00  0.00     0.041 A 
ATOM     98  F   UNL A   1      47.250  32.458  30.913  1.00  0.00    -0.206 F 
ATOM     99  C   UNL A   1      47.864  35.451  28.978  1.00  0.00     0.022 A 
BRANCH  96 100
ATOM    100  S   UNL A   1      47.646  36.108  26.276  1.00  0.00     0.124 S 
ATOM    101  O   UNL A   1      48.167  35.167  25.290  1.00  0.00    -0.237 OA
ATOM    102  O   UNL A   1      46.298  36.609  26.029  1.00  0.00    -0.237 OA
ATOM    103  O   UNL A   1      48.602  37.109  26.745  1.00  0.00    -0.744 OA
ENDBRANCH  96 100
ENDBRANCH  70  93
ENDBRANCH  44  45
ENDBRANCH  37  39
ENDBRANCH  36  37
ENDBRANCH  35  36
ENDBRANCH   1  35
TORSDOF 20
ENDMDL
MODEL 3
REMARK VINA RESULT:      -8.5      5.156     11.485
REMARK SMILES COc1cc(/C=C2\SC(=S)N([C@H](C)C(=O)Nc3ccc(C(=O)OCCOC(=O)c4ccc(-c5c6nc(c(-c7cc(S(=O)(=O)[O-])ccc7F)c7ccc([nH]7)c(-c7cc(S(=O)(=O)[O-])ccc7F)c7nc(c(-c8cc(S(=O)(=O)[O-])ccc8F)c8ccc5[nH]8)C=C7)C=C6)cc4)cc3)C2=O)ccc1O
REMARK SMILES IDX 24 1 23 2 21 3 22 4 20 5 17 6 18 7 93 8 19 9 92 10 16 11
REMARK SMILES IDX 14 12 15 13 12 15 13 16 11 17 6 18 7 19 8 20 94 21 9 22
REMARK SMILES IDX 95 23 10 24 5 25 3 26 4 27 98 28 97 29 96 30 2 31 1 32 99 33
REMARK SMILES IDX 25 35 26 36 27 37 28 38 29 39 30 40 91 41 31 42 90 43 32 44
REMARK SMILES IDX 33 45 34 46 84 47 35 48 89 49 83 50 85 51 36 52 88 53 82 54
REMARK SMILES IDX 81 55 37 57 69 58 49 59 68 60 50 61 53 62 67 63 86 64 51 65
REMARK SMILES IDX 52 66 66 68 87 69 54 70 38 71 39 72 47 73 40 74 46 75 48 76
REMARK SMILES IDX 45 77 41 78 42 79 43 80 44 81 70 82 71 83 79 84 72 85 78 86
REMARK SMILES IDX 80 87 77 88 73 89 74 90 75 91 76 92 55 93 56 94 64 95 57 96
REMARK SMILES IDX 63 97 65 98 62 99 58 100 59 101 60 102 61 103
REMARK H PARENT 16 14 99 34 85 56 53 67
REMARK Flexibility Score: inf
ROOT
ATOM      1  C   UNL A   1      38.869  21.210  25.957  1.00  0.00     0.275 C 
ENDROOT
BRANCH   1   2
ATOM      2  O   UNL A   1      37.931  21.516  24.907  1.00  0.00    -0.458 OA
BRANCH   2   3
ATOM      3  C   UNL A   1      36.671  21.084  25.142  1.00  0.00     0.338 C 
ATOM      4  O   UNL A   1      36.266  19.939  24.991  1.00  0.00    -0.246 OA
BRANCH   3   5
ATOM      5  C   UNL A   1      35.769  22.168  25.598  1.00  0.00     0.060 A 
ATOM      6  C   UNL A   1      33.468  23.616  26.141  1.00  0.00     0.041 A 
ATOM      7  C   UNL A   1      33.970  22.764  27.114  1.00  0.00     0.027 A 
ATOM      8  C   UNL A   1      34.233  23.928  25.018  1.00  0.00     0.027 A 
ATOM      9  C   UNL A   1      35.089  22.000  26.812  1.00  0.00     0.018 A 
ATOM     10  C   UNL A   1      35.402  23.212  24.747  1.00  0.00     0.018 A 
BRANCH   6  11
ATOM     11  N   UNL A   1      32.174  24.088  26.323  1.00  0.00    -0.324 N 
ATOM     12  C   UNL A   1      31.505  25.047  25.611  1.00  0.00     0.247 C 
ATOM     13  O   UNL A   1      30.305  25.182  25.887  1.00  0.00    -0.272 OA
ATOM     14  H   UNL A   1      31.670  23.678  27.062  1.00  0.00     0.170 HD
BRANCH  12  15
ATOM     15  C   UNL A   1      32.125  25.920  24.475  1.00  0.00     0.178 C 
ATOM     16  C   UNL A   1      31.569  25.587  23.096  1.00  0.00     0.042 C 
BRANCH  15  17
ATOM     17  N   UNL A   1      32.327  27.347  24.844  1.00  0.00    -0.280 N 
ATOM     18  C   UNL A   1      33.793  29.824  27.069  1.00  0.00     0.029 C 
ATOM     19  C   UNL A   1      32.959  29.110  26.299  1.00  0.00     0.081 C 
ATOM     20  S   UNL A   1      31.611  29.722  25.423  1.00  0.00    -0.054 SA
ATOM     21  C   UNL A   1      33.134  27.666  25.933  1.00  0.00     0.266 C 
ATOM     22  C   UNL A   1      31.882  28.480  24.210  1.00  0.00     0.149 C 
ATOM     23  O   UNL A   1      33.951  26.932  26.469  1.00  0.00    -0.268 OA
ATOM     24  S   UNL A   1      31.988  28.873  22.592  1.00  0.00    -0.052 S 
BRANCH  18  25
ATOM     25  C   UNL A   1      33.546  31.224  27.451  1.00  0.00    -0.020 A 
ATOM     26  C   UNL A   1      34.224  33.329  28.498  1.00  0.00     0.161 A 
ATOM     27  C   UNL A   1      34.470  31.977  28.192  1.00  0.00     0.058 A 
ATOM     28  C   UNL A   1      33.044  33.915  28.031  1.00  0.00     0.157 A 
ATOM     29  C   UNL A   1      32.112  33.171  27.312  1.00  0.00     0.051 A 
ATOM     30  C   UNL A   1      32.363  31.832  27.020  1.00  0.00     0.012 A 
BRANCH  26  31
ATOM     31  O   UNL A   1      35.221  33.927  29.226  1.00  0.00    -0.493 OA
ATOM     32  C   UNL A   1      36.540  33.404  29.107  1.00  0.00     0.278 C 
ENDBRANCH  26  31
BRANCH  28  33
ATOM     33  O   UNL A   1      32.742  35.234  28.200  1.00  0.00    -0.504 OA
ATOM     34  H   UNL A   1      32.909  35.847  27.510  1.00  0.00     0.293 HD
ENDBRANCH  28  33
ENDBRANCH  18  25
ENDBRANCH  15  17
ENDBRANCH  12  15
ENDBRANCH   6  11
ENDBRANCH   3   5
ENDBRANCH   2   3
ENDBRANCH   1   2
BRANCH   1  35
ATOM     35  C   UNL A   1      39.542  19.860  25.710  1.00  0.00     0.275 C 
BRANCH  35  36
ATOM     36  O   UNL A   1      40.525  19.574  26.725  1.00  0.00    -0.458 OA
BRANCH  36  37
ATOM     37  C   UNL A   1      41.801  19.516  26.278  1.00  0.00     0.338 C 
ATOM     38  O   UNL A   1      42.353  18.565  25.751  1.00  0.00    -0.246 OA
BRANCH  37  39
ATOM     39  C   UNL A   1      42.470  20.815  26.442  1.00  0.00     0.060 A 
ATOM     40  C   UNL A   1      42.495  21.398  27.703  1.00  0.00     0.016 A 
ATOM     41  C   UNL A   1      42.875  21.550  25.333  1.00  0.00     0.016 A 
ATOM     42  C   UNL A   1      42.764  22.753  27.849  1.00  0.00     0.010 A 
ATOM     43  C   UNL A   1      43.301  22.875  25.506  1.00  0.00     0.010 A 
ATOM     44  C   UNL A   1      43.206  23.510  26.760  1.00  0.00    -0.014 A 
BRANCH  44  45
ATOM     45  C   UNL A   1      43.545  24.954  26.927  1.00  0.00     0.031 A 
ATOM     46  C   UNL A   1      44.946  25.439  26.647  1.00  0.00     0.074 A 
ATOM     47  C   UNL A   1      42.606  25.837  27.329  1.00  0.00     0.049 A 
ATOM     48  N   UNL A   1      45.508  26.579  26.957  1.00  0.00    -0.248 NA
ATOM     49  C   UNL A   1      45.838  24.504  25.944  1.00  0.00     0.031 C 
ATOM     50  C   UNL A   1      41.193  25.528  27.569  1.00  0.00     0.029 A 
ATOM     51  N   UNL A   1      42.693  27.179  27.611  1.00  0.00    -0.354 N 
ATOM     52  C   UNL A   1      46.834  26.476  26.546  1.00  0.00     0.074 A 
ATOM     53  C   UNL A   1      46.993  25.154  25.978  1.00  0.00     0.031 C 
ATOM     54  C   UNL A   1      40.545  26.646  27.920  1.00  0.00     0.029 A 
ATOM     55  C   UNL A   1      41.512  27.724  28.063  1.00  0.00     0.049 A 
ATOM     56  H   UNL A   1      43.520  27.701  27.500  1.00  0.00     0.167 HD
ATOM     57  C   UNL A   1      47.823  27.401  26.640  1.00  0.00     0.034 A 
ATOM     58  C   UNL A   1      41.241  28.928  28.604  1.00  0.00     0.034 A 
ATOM     59  C   UNL A   1      47.626  28.728  27.176  1.00  0.00     0.049 A 
ATOM     60  C   UNL A   1      42.369  29.909  28.776  1.00  0.00     0.074 A 
ATOM     61  C   UNL A   1      48.551  29.751  27.308  1.00  0.00     0.029 A 
ATOM     62  N   UNL A   1      46.422  29.219  27.667  1.00  0.00    -0.354 N 
ATOM     63  N   UNL A   1      43.634  29.777  28.449  1.00  0.00    -0.248 NA
ATOM     64  C   UNL A   1      42.037  31.196  29.399  1.00  0.00     0.031 C 
ATOM     65  C   UNL A   1      47.926  30.827  27.946  1.00  0.00     0.029 A 
ATOM     66  C   UNL A   1      46.589  30.516  28.131  1.00  0.00     0.049 A 
ATOM     67  H   UNL A   1      45.574  28.719  27.683  1.00  0.00     0.167 HD
ATOM     68  C   UNL A   1      44.243  30.977  28.802  1.00  0.00     0.074 A 
ATOM     69  C   UNL A   1      43.203  31.823  29.352  1.00  0.00     0.031 C 
ATOM     70  C   UNL A   1      45.543  31.346  28.682  1.00  0.00     0.034 A 
BRANCH  57  71
ATOM     71  C   UNL A   1      49.215  26.988  26.216  1.00  0.00     0.023 A 
ATOM     72  C   UNL A   1      49.796  27.424  25.012  1.00  0.00     0.031 A 
ATOM     73  C   UNL A   1      49.967  26.117  27.027  1.00  0.00     0.131 A 
ATOM     74  C   UNL A   1      51.050  26.929  24.619  1.00  0.00     0.055 A 
ATOM     75  C   UNL A   1      51.252  25.699  26.671  1.00  0.00     0.041 A 
ATOM     76  F   UNL A   1      49.461  25.646  28.177  1.00  0.00    -0.206 F 
ATOM     77  C   UNL A   1      51.794  26.092  25.453  1.00  0.00     0.022 A 
BRANCH  74  78
ATOM     78  S   UNL A   1      51.627  27.272  22.933  1.00  0.00     0.124 S 
ATOM     79  O   UNL A   1      52.261  28.578  23.098  1.00  0.00    -0.237 OA
ATOM     80  O   UNL A   1      52.526  26.153  22.673  1.00  0.00    -0.237 OA
ATOM     81  O   UNL A   1      50.396  27.281  22.145  1.00  0.00    -0.744 OA
ENDBRANCH  74  78
ENDBRANCH  57  71
BRANCH  58  82
ATOM     82  C   UNL A   1      39.866  29.242  29.096  1.00  0.00     0.023 A 
ATOM     83  C   UNL A   1      39.567  29.219  30.467  1.00  0.00     0.031 A 
ATOM     84  C   UNL A   1      38.822  29.537  28.200  1.00  0.00     0.131 A 
ATOM     85  C   UNL A   1      38.250  29.444  30.897  1.00  0.00     0.055 A 
ATOM     86  C   UNL A   1      37.530  29.829  28.638  1.00  0.00     0.041 A 
ATOM     87  F   UNL A   1      39.048  29.566  26.876  1.00  0.00    -0.206 F 
ATOM     88  C   UNL A   1      37.234  29.769  29.996  1.00  0.00     0.022 A 
BRANCH  85  89
ATOM     89  S   UNL A   1      37.863  29.208  32.653  1.00  0.00     0.124 S 
ATOM     90  O   UNL A   1      37.744  27.756  32.735  1.00  0.00    -0.237 OA
ATOM     91  O   UNL A   1      39.029  29.794  33.301  1.00  0.00    -0.237 OA
ATOM     92  O   UNL A   1      36.614  29.947  32.827  1.00  0.00    -0.744 OA
ENDBRANCH  85  89
ENDBRANCH  58  82
BRANCH  70  93
ATOM     93  C   UNL A   1      45.894  32.753  29.099  1.00  0.00     0.023 A 
ATOM     94  C   UNL A   1      45.861  33.827  28.193  1.00  0.00     0.031 A 
ATOM     95  C   UNL A   1      46.282  33.016  30.425  1.00  0.00     0.131 A 
ATOM     96  C   UNL A   1      46.266  35.103  28.611  1.00  0.00     0.055 A 
ATOM     97  C   UNL A   1      46.618  34.301  30.851  1.00  0.00     0.041 A 
ATOM     98  F   UNL A   1      46.338  32.026  31.330  1.00  0.00    -0.206 F 
ATOM     99  C   UNL A   1      46.625  35.352  29.939  1.00  0.00     0.022 A 
BRANCH  96 100
ATOM    100  S   UNL A   1      46.416  36.419  27.371  1.00  0.00     0.124 S 
ATOM    101  O   UNL A   1      45.031  36.596  26.949  1.00  0.00    -0.237 OA
ATOM    102  O   UNL A   1      46.992  37.514  28.146  1.00  0.00    -0.237 OA
ATOM    103  O   UNL A   1      47.303  35.841  26.363  1.00  0.00    -0.744 OA
ENDBRANCH  96 100
ENDBRANCH  70  93
ENDBRANCH  44  45
ENDBRANCH  37  39
ENDBRANCH  36  37
ENDBRANCH  35  36
ENDBRANCH   1  35
TORSDOF 20
ENDMDL
