MODEL 1
REMARK VINA RESULT:     -11.1      0.000      0.000
REMARK SMILES C[C@H](NC(=O)OCc1ccccc1)C(=O)NCC(=O)N1CCC[C@H]1C(=O)OCCOC(=O)c1ccc(-c2c3nc(c(-c4cc(S(=O)(=O)[O-])ccc4F)c4ccc([nH]4)c(-c4cc(S(=O)(=O)[O-])ccc4F)c4nc(c(-c5cc(S(=O)(=O)[O-])ccc5F)c5ccc2[nH]5)C=C4)C=C3)cc1
REMARK SMILES IDX 25 1 26 2 24 3 20 4 21 5 22 6 23 7 18 8 19 9 17 10 16 11
REMARK SMILES IDX 14 12 15 13 2 15 1 16 3 17 4 18 5 20 6 21 7 22 8 23 9 24
REMARK SMILES IDX 13 25 10 26 12 27 11 28 27 29 28 30 29 31 30 32 31 33 32 34
REMARK SMILES IDX 33 35 34 36 95 37 35 38 94 39 36 40 37 41 38 42 88 43 39 44
REMARK SMILES IDX 93 45 87 46 89 47 40 48 92 49 86 50 85 51 41 53 73 54 53 55
REMARK SMILES IDX 72 56 54 57 57 58 71 59 90 60 55 61 56 62 70 64 91 65 58 66
REMARK SMILES IDX 42 67 43 68 51 69 44 70 50 71 52 72 49 73 45 74 46 75 47 76
REMARK SMILES IDX 48 77 74 78 75 79 83 80 76 81 82 82 84 83 81 84 77 85 78 86
REMARK SMILES IDX 79 87 80 88 59 89 60 90 68 91 61 92 67 93 69 94 66 95 62 96
REMARK SMILES IDX 63 97 64 98 65 99
REMARK H PARENT 16 14 3 19 89 52 57 63
REMARK Flexibility Score: inf
ROOT
ATOM      1  C   UNL A   1      34.835  22.820  24.623  1.00  0.00     0.328 C 
ATOM      2  O   UNL A   1      34.674  23.612  23.702  1.00  0.00    -0.250 OA
ENDROOT
BRANCH   1   3
ATOM      3  C   UNL A   1      33.696  22.033  25.305  1.00  0.00     0.195 C 
ATOM      4  N   UNL A   1      32.381  22.170  24.669  1.00  0.00    -0.327 N 
ATOM      5  C   UNL A   1      32.207  21.084  23.728  1.00  0.00     0.120 C 
ATOM      6  C   UNL A   1      32.898  19.905  24.384  1.00  0.00     0.024 C 
ATOM      7  C   UNL A   1      33.976  20.517  25.268  1.00  0.00     0.039 C 
BRANCH   4   8
ATOM      8  C   UNL A   1      31.526  23.159  25.087  1.00  0.00     0.242 C 
ATOM      9  O   UNL A   1      30.659  23.608  24.326  1.00  0.00    -0.273 OA
BRANCH   8  10
ATOM     10  C   UNL A   1      31.595  23.790  26.492  1.00  0.00     0.216 C 
BRANCH  10  11
ATOM     11  N   UNL A   1      31.108  25.114  26.804  1.00  0.00    -0.345 N 
ATOM     12  C   UNL A   1      31.639  26.343  26.579  1.00  0.00     0.242 C 
ATOM     13  O   UNL A   1      30.896  27.303  26.821  1.00  0.00    -0.273 OA
ATOM     14  H   UNL A   1      30.237  25.126  27.260  1.00  0.00     0.164 HD
BRANCH  12  15
ATOM     15  C   UNL A   1      33.037  26.591  25.968  1.00  0.00     0.171 C 
ATOM     16  C   UNL A   1      33.577  27.966  26.330  1.00  0.00     0.042 C 
BRANCH  15  17
ATOM     17  N   UNL A   1      33.178  26.168  24.582  1.00  0.00    -0.310 N 
ATOM     18  C   UNL A   1      32.529  26.511  23.438  1.00  0.00     0.408 C 
ATOM     19  H   UNL A   1      33.887  25.499  24.445  1.00  0.00     0.167 HD
ATOM     20  O   UNL A   1      32.730  25.885  22.414  1.00  0.00    -0.225 OA
BRANCH  18  21
ATOM     21  O   UNL A   1      31.677  27.551  23.584  1.00  0.00    -0.445 OA
BRANCH  21  22
ATOM     22  C   UNL A   1      30.494  27.488  22.768  1.00  0.00     0.270 C 
BRANCH  22  23
ATOM     23  C   UNL A   1      29.524  28.623  22.994  1.00  0.00    -0.011 A 
ATOM     24  C   UNL A   1      30.027  29.881  23.365  1.00  0.00     0.007 A 
ATOM     25  C   UNL A   1      28.139  28.464  22.852  1.00  0.00     0.007 A 
ATOM     26  C   UNL A   1      29.162  30.940  23.635  1.00  0.00     0.000 A 
ATOM     27  C   UNL A   1      27.273  29.523  23.134  1.00  0.00     0.000 A 
ATOM     28  C   UNL A   1      27.785  30.757  23.531  1.00  0.00     0.000 A 
ENDBRANCH  22  23
ENDBRANCH  21  22
ENDBRANCH  18  21
ENDBRANCH  15  17
ENDBRANCH  12  15
ENDBRANCH  10  11
ENDBRANCH   8  10
ENDBRANCH   4   8
ENDBRANCH   1   3
BRANCH   1  29
ATOM     29  O   UNL A   1      36.058  22.464  25.105  1.00  0.00    -0.461 OA
BRANCH  29  30
ATOM     30  C   UNL A   1      36.991  21.950  24.139  1.00  0.00     0.274 C 
BRANCH  30  31
ATOM     31  C   UNL A   1      37.693  20.688  24.656  1.00  0.00     0.275 C 
BRANCH  31  32
ATOM     32  O   UNL A   1      38.084  20.813  26.038  1.00  0.00    -0.458 OA
BRANCH  32  33
ATOM     33  C   UNL A   1      39.411  20.661  26.275  1.00  0.00     0.338 C 
ATOM     34  O   UNL A   1      40.097  19.694  25.988  1.00  0.00    -0.246 OA
BRANCH  33  35
ATOM     35  C   UNL A   1      39.983  21.915  26.796  1.00  0.00     0.060 A 
ATOM     36  C   UNL A   1      39.598  23.100  26.170  1.00  0.00     0.016 A 
ATOM     37  C   UNL A   1      40.945  21.937  27.806  1.00  0.00     0.016 A 
ATOM     38  C   UNL A   1      40.144  24.319  26.557  1.00  0.00     0.010 A 
ATOM     39  C   UNL A   1      41.510  23.163  28.186  1.00  0.00     0.010 A 
ATOM     40  C   UNL A   1      41.116  24.362  27.561  1.00  0.00    -0.014 A 
BRANCH  40  41
ATOM     41  C   UNL A   1      41.771  25.657  27.877  1.00  0.00     0.031 A 
ATOM     42  C   UNL A   1      40.991  26.732  28.577  1.00  0.00     0.074 A 
ATOM     43  C   UNL A   1      43.070  25.850  27.581  1.00  0.00     0.049 A 
ATOM     44  N   UNL A   1      41.342  27.957  28.871  1.00  0.00    -0.248 NA
ATOM     45  C   UNL A   1      39.627  26.376  28.993  1.00  0.00     0.031 C 
ATOM     46  C   UNL A   1      43.946  24.856  26.960  1.00  0.00     0.029 A 
ATOM     47  N   UNL A   1      43.877  26.945  27.759  1.00  0.00    -0.354 N 
ATOM     48  C   UNL A   1      40.235  28.532  29.487  1.00  0.00     0.074 A 
ATOM     49  C   UNL A   1      39.194  27.523  29.494  1.00  0.00     0.031 C 
ATOM     50  C   UNL A   1      45.165  25.393  26.795  1.00  0.00     0.029 A 
ATOM     51  C   UNL A   1      45.142  26.783  27.246  1.00  0.00     0.049 A 
ATOM     52  H   UNL A   1      43.578  27.769  28.209  1.00  0.00     0.167 HD
ATOM     53  C   UNL A   1      40.104  29.782  29.999  1.00  0.00     0.034 A 
ATOM     54  C   UNL A   1      46.153  27.665  27.110  1.00  0.00     0.034 A 
ATOM     55  C   UNL A   1      41.158  30.770  29.980  1.00  0.00     0.049 A 
ATOM     56  C   UNL A   1      45.963  29.075  27.613  1.00  0.00     0.074 A 
ATOM     57  C   UNL A   1      41.143  32.059  30.485  1.00  0.00     0.029 A 
ATOM     58  N   UNL A   1      42.415  30.585  29.412  1.00  0.00    -0.354 N 
ATOM     59  N   UNL A   1      44.911  29.614  28.182  1.00  0.00    -0.248 NA
ATOM     60  C   UNL A   1      47.100  29.990  27.459  1.00  0.00     0.031 C 
ATOM     61  C   UNL A   1      42.355  32.677  30.152  1.00  0.00     0.029 A 
ATOM     62  C   UNL A   1      43.166  31.749  29.519  1.00  0.00     0.049 A 
ATOM     63  H   UNL A   1      42.727  29.750  28.997  1.00  0.00     0.167 HD
ATOM     64  C   UNL A   1      45.264  30.930  28.469  1.00  0.00     0.074 A 
ATOM     65  C   UNL A   1      46.635  31.094  28.027  1.00  0.00     0.031 C 
ATOM     66  C   UNL A   1      44.525  31.911  29.051  1.00  0.00     0.034 A 
BRANCH  53  67
ATOM     67  C   UNL A   1      38.746  30.163  30.546  1.00  0.00     0.023 A 
ATOM     68  C   UNL A   1      37.814  30.896  29.790  1.00  0.00     0.031 A 
ATOM     69  C   UNL A   1      38.407  29.845  31.875  1.00  0.00     0.131 A 
ATOM     70  C   UNL A   1      36.638  31.369  30.396  1.00  0.00     0.055 A 
ATOM     71  C   UNL A   1      37.194  30.241  32.443  1.00  0.00     0.041 A 
ATOM     72  F   UNL A   1      39.263  29.167  32.655  1.00  0.00    -0.206 F 
ATOM     73  C   UNL A   1      36.310  31.026  31.709  1.00  0.00     0.022 A 
BRANCH  70  74
ATOM     74  S   UNL A   1      35.635  32.593  29.505  1.00  0.00     0.124 S 
ATOM     75  O   UNL A   1      36.328  33.839  29.829  1.00  0.00    -0.237 OA
ATOM     76  O   UNL A   1      35.744  32.143  28.123  1.00  0.00    -0.237 OA
ATOM     77  O   UNL A   1      34.310  32.454  30.106  1.00  0.00    -0.744 OA
ENDBRANCH  70  74
ENDBRANCH  53  67
BRANCH  54  78
ATOM     78  C   UNL A   1      47.400  27.260  26.400  1.00  0.00     0.023 A 
ATOM     79  C   UNL A   1      48.442  26.595  27.062  1.00  0.00     0.031 A 
ATOM     80  C   UNL A   1      47.567  27.555  25.035  1.00  0.00     0.131 A 
ATOM     81  C   UNL A   1      49.615  26.266  26.361  1.00  0.00     0.055 A 
ATOM     82  C   UNL A   1      48.712  27.183  24.331  1.00  0.00     0.041 A 
ATOM     83  F   UNL A   1      46.600  28.194  24.355  1.00  0.00    -0.206 F 
ATOM     84  C   UNL A   1      49.750  26.541  24.998  1.00  0.00     0.022 A 
BRANCH  81  85
ATOM     85  S   UNL A   1      50.997  25.520  27.272  1.00  0.00     0.124 S 
ATOM     86  O   UNL A   1      51.600  26.687  27.906  1.00  0.00    -0.237 OA
ATOM     87  O   UNL A   1      50.308  24.590  28.161  1.00  0.00    -0.237 OA
ATOM     88  O   UNL A   1      51.799  24.896  26.222  1.00  0.00    -0.744 OA
ENDBRANCH  81  85
ENDBRANCH  54  78
BRANCH  66  89
ATOM     89  C   UNL A   1      45.205  33.242  29.273  1.00  0.00     0.023 A 
ATOM     90  C   UNL A   1      45.277  34.219  28.264  1.00  0.00     0.031 A 
ATOM     91  C   UNL A   1      45.801  33.532  30.515  1.00  0.00     0.131 A 
ATOM     92  C   UNL A   1      45.977  35.414  28.495  1.00  0.00     0.055 A 
ATOM     93  C   UNL A   1      46.440  34.749  30.759  1.00  0.00     0.041 A 
ATOM     94  F   UNL A   1      45.770  32.636  31.514  1.00  0.00    -0.206 F 
ATOM     95  C   UNL A   1      46.543  35.693  29.742  1.00  0.00     0.022 A 
BRANCH  92  96
ATOM     96  S   UNL A   1      46.224  36.564  27.113  1.00  0.00     0.124 S 
ATOM     97  O   UNL A   1      45.153  37.532  27.329  1.00  0.00    -0.237 OA
ATOM     98  O   UNL A   1      47.581  37.049  27.349  1.00  0.00    -0.237 OA
ATOM     99  O   UNL A   1      46.067  35.718  25.931  1.00  0.00    -0.744 OA
ENDBRANCH  92  96
ENDBRANCH  66  89
ENDBRANCH  40  41
ENDBRANCH  33  35
ENDBRANCH  32  33
ENDBRANCH  31  32
ENDBRANCH  30  31
ENDBRANCH  29  30
ENDBRANCH   1  29
TORSDOF 22
ENDMDL
MODEL 2
REMARK VINA RESULT:     -10.4      2.486      7.995
REMARK SMILES C[C@H](NC(=O)OCc1ccccc1)C(=O)NCC(=O)N1CCC[C@H]1C(=O)OCCOC(=O)c1ccc(-c2c3nc(c(-c4cc(S(=O)(=O)[O-])ccc4F)c4ccc([nH]4)c(-c4cc(S(=O)(=O)[O-])ccc4F)c4nc(c(-c5cc(S(=O)(=O)[O-])ccc5F)c5ccc2[nH]5)C=C4)C=C3)cc1
REMARK SMILES IDX 25 1 26 2 24 3 20 4 21 5 22 6 23 7 18 8 19 9 17 10 16 11
REMARK SMILES IDX 14 12 15 13 2 15 1 16 3 17 4 18 5 20 6 21 7 22 8 23 9 24
REMARK SMILES IDX 13 25 10 26 12 27 11 28 27 29 28 30 29 31 30 32 31 33 32 34
REMARK SMILES IDX 33 35 34 36 95 37 35 38 94 39 36 40 37 41 38 42 88 43 39 44
REMARK SMILES IDX 93 45 87 46 89 47 40 48 92 49 86 50 85 51 41 53 73 54 53 55
REMARK SMILES IDX 72 56 54 57 57 58 71 59 90 60 55 61 56 62 70 64 91 65 58 66
REMARK SMILES IDX 42 67 43 68 51 69 44 70 50 71 52 72 49 73 45 74 46 75 47 76
REMARK SMILES IDX 48 77 74 78 75 79 83 80 76 81 82 82 84 83 81 84 77 85 78 86
REMARK SMILES IDX 79 87 80 88 59 89 60 90 68 91 61 92 67 93 69 94 66 95 62 96
REMARK SMILES IDX 63 97 64 98 65 99
REMARK H PARENT 16 14 3 19 89 52 57 63
REMARK Flexibility Score: inf
ROOT
ATOM      1  C   UNL A   1      34.909  22.474  24.315  1.00  0.00     0.328 C 
ATOM      2  O   UNL A   1      34.785  23.462  23.599  1.00  0.00    -0.250 OA
ENDROOT
BRANCH   1   3
ATOM      3  C   UNL A   1      33.731  21.710  24.955  1.00  0.00     0.195 C 
ATOM      4  N   UNL A   1      32.422  21.961  24.343  1.00  0.00    -0.327 N 
ATOM      5  C   UNL A   1      32.181  20.950  23.335  1.00  0.00     0.120 C 
ATOM      6  C   UNL A   1      32.808  19.694  23.907  1.00  0.00     0.024 C 
ATOM      7  C   UNL A   1      33.926  20.187  24.818  1.00  0.00     0.039 C 
BRANCH   4   8
ATOM      8  C   UNL A   1      31.627  22.967  24.832  1.00  0.00     0.242 C 
ATOM      9  O   UNL A   1      30.738  23.467  24.130  1.00  0.00    -0.273 OA
BRANCH   8  10
ATOM     10  C   UNL A   1      31.793  23.556  26.246  1.00  0.00     0.216 C 
BRANCH  10  11
ATOM     11  N   UNL A   1      31.295  24.853  26.642  1.00  0.00    -0.345 N 
ATOM     12  C   UNL A   1      31.818  26.098  26.505  1.00  0.00     0.242 C 
ATOM     13  O   UNL A   1      31.066  27.035  26.804  1.00  0.00    -0.273 OA
ATOM     14  H   UNL A   1      30.419  24.829  27.091  1.00  0.00     0.164 HD
BRANCH  12  15
ATOM     15  C   UNL A   1      33.219  26.395  25.923  1.00  0.00     0.171 C 
ATOM     16  C   UNL A   1      33.717  27.776  26.324  1.00  0.00     0.042 C 
BRANCH  15  17
ATOM     17  N   UNL A   1      33.394  26.007  24.530  1.00  0.00    -0.310 N 
ATOM     18  C   UNL A   1      32.741  26.343  23.386  1.00  0.00     0.408 C 
ATOM     19  H   UNL A   1      34.134  25.373  24.388  1.00  0.00     0.167 HD
ATOM     20  O   UNL A   1      32.982  25.747  22.352  1.00  0.00    -0.225 OA
BRANCH  18  21
ATOM     21  O   UNL A   1      31.841  27.340  23.542  1.00  0.00    -0.445 OA
BRANCH  21  22
ATOM     22  C   UNL A   1      30.502  27.022  23.125  1.00  0.00     0.270 C 
BRANCH  22  23
ATOM     23  C   UNL A   1      29.638  28.228  22.843  1.00  0.00    -0.011 A 
ATOM     24  C   UNL A   1      28.267  28.163  23.139  1.00  0.00     0.007 A 
ATOM     25  C   UNL A   1      30.156  29.407  22.289  1.00  0.00     0.007 A 
ATOM     26  C   UNL A   1      27.426  29.235  22.843  1.00  0.00     0.000 A 
ATOM     27  C   UNL A   1      29.310  30.475  21.984  1.00  0.00     0.000 A 
ATOM     28  C   UNL A   1      27.945  30.386  22.255  1.00  0.00     0.000 A 
ENDBRANCH  22  23
ENDBRANCH  21  22
ENDBRANCH  18  21
ENDBRANCH  15  17
ENDBRANCH  12  15
ENDBRANCH  10  11
ENDBRANCH   8  10
ENDBRANCH   4   8
ENDBRANCH   1   3
BRANCH   1  29
ATOM     29  O   UNL A   1      36.103  21.869  24.563  1.00  0.00    -0.461 OA
BRANCH  29  30
ATOM     30  C   UNL A   1      37.067  22.651  25.289  1.00  0.00     0.274 C 
BRANCH  30  31
ATOM     31  C   UNL A   1      38.358  21.860  25.533  1.00  0.00     0.275 C 
BRANCH  31  32
ATOM     32  O   UNL A   1      39.062  22.318  26.706  1.00  0.00    -0.458 OA
BRANCH  32  33
ATOM     33  C   UNL A   1      40.406  22.429  26.561  1.00  0.00     0.338 C 
ATOM     34  O   UNL A   1      41.164  21.585  26.113  1.00  0.00    -0.246 OA
BRANCH  33  35
ATOM     35  C   UNL A   1      40.841  23.802  26.872  1.00  0.00     0.060 A 
ATOM     36  C   UNL A   1      41.401  24.024  28.130  1.00  0.00     0.016 A 
ATOM     37  C   UNL A   1      40.626  24.872  26.003  1.00  0.00     0.016 A 
ATOM     38  C   UNL A   1      41.774  25.303  28.528  1.00  0.00     0.010 A 
ATOM     39  C   UNL A   1      40.986  26.166  26.409  1.00  0.00     0.010 A 
ATOM     40  C   UNL A   1      41.559  26.390  27.675  1.00  0.00    -0.014 A 
BRANCH  40  41
ATOM     41  C   UNL A   1      41.856  27.760  28.164  1.00  0.00     0.031 A 
ATOM     42  C   UNL A   1      43.272  28.261  28.157  1.00  0.00     0.074 A 
ATOM     43  C   UNL A   1      40.858  28.568  28.567  1.00  0.00     0.049 A 
ATOM     44  N   UNL A   1      43.759  29.385  28.612  1.00  0.00    -0.248 NA
ATOM     45  C   UNL A   1      44.272  27.365  27.560  1.00  0.00     0.031 C 
ATOM     46  C   UNL A   1      39.438  28.215  28.559  1.00  0.00     0.029 A 
ATOM     47  N   UNL A   1      40.883  29.846  29.065  1.00  0.00    -0.354 N 
ATOM     48  C   UNL A   1      45.130  29.327  28.381  1.00  0.00     0.074 A 
ATOM     49  C   UNL A   1      45.393  28.039  27.770  1.00  0.00     0.031 C 
ATOM     50  C   UNL A   1      38.730  29.248  29.044  1.00  0.00     0.029 A 
ATOM     51  C   UNL A   1      39.648  30.311  29.448  1.00  0.00     0.049 A 
ATOM     52  H   UNL A   1      41.708  30.379  29.142  1.00  0.00     0.167 HD
ATOM     53  C   UNL A   1      46.076  30.262  28.651  1.00  0.00     0.034 A 
ATOM     54  C   UNL A   1      39.297  31.442  30.094  1.00  0.00     0.034 A 
ATOM     55  C   UNL A   1      45.787  31.540  29.262  1.00  0.00     0.049 A 
ATOM     56  C   UNL A   1      40.371  32.435  30.459  1.00  0.00     0.074 A 
ATOM     57  C   UNL A   1      46.662  32.569  29.565  1.00  0.00     0.029 A 
ATOM     58  N   UNL A   1      44.528  31.960  29.677  1.00  0.00    -0.354 N 
ATOM     59  N   UNL A   1      41.665  32.368  30.249  1.00  0.00    -0.248 NA
ATOM     60  C   UNL A   1      39.935  33.658  31.143  1.00  0.00     0.031 C 
ATOM     61  C   UNL A   1      45.948  33.572  30.233  1.00  0.00     0.029 A 
ATOM     62  C   UNL A   1      44.610  33.213  30.270  1.00  0.00     0.049 A 
ATOM     63  H   UNL A   1      43.697  31.443  29.566  1.00  0.00     0.167 HD
ATOM     64  C   UNL A   1      42.197  33.548  30.762  1.00  0.00     0.074 A 
ATOM     65  C   UNL A   1      41.079  34.316  31.273  1.00  0.00     0.031 C 
ATOM     66  C   UNL A   1      43.491  33.961  30.800  1.00  0.00     0.034 A 
BRANCH  53  67
ATOM     67  C   UNL A   1      47.512  29.892  28.359  1.00  0.00     0.023 A 
ATOM     68  C   UNL A   1      48.247  29.029  29.192  1.00  0.00     0.031 A 
ATOM     69  C   UNL A   1      48.180  30.470  27.263  1.00  0.00     0.131 A 
ATOM     70  C   UNL A   1      49.623  28.849  28.974  1.00  0.00     0.055 A 
ATOM     71  C   UNL A   1      49.527  30.213  26.999  1.00  0.00     0.041 A 
ATOM     72  F   UNL A   1      47.541  31.319  26.444  1.00  0.00    -0.206 F 
ATOM     73  C   UNL A   1      50.263  29.415  27.869  1.00  0.00     0.022 A 
BRANCH  70  74
ATOM     74  S   UNL A   1      50.603  28.018  30.258  1.00  0.00     0.124 S 
ATOM     75  O   UNL A   1      50.061  28.613  31.478  1.00  0.00    -0.237 OA
ATOM     76  O   UNL A   1      50.285  26.613  30.036  1.00  0.00    -0.237 OA
ATOM     77  O   UNL A   1      51.978  28.405  29.945  1.00  0.00    -0.744 OA
ENDBRANCH  70  74
ENDBRANCH  53  67
BRANCH  54  78
ATOM     78  C   UNL A   1      37.879  31.652  30.503  1.00  0.00     0.023 A 
ATOM     79  C   UNL A   1      36.966  32.328  29.680  1.00  0.00     0.031 A 
ATOM     80  C   UNL A   1      37.423  31.184  31.749  1.00  0.00     0.131 A 
ATOM     81  C   UNL A   1      35.649  32.537  30.124  1.00  0.00     0.055 A 
ATOM     82  C   UNL A   1      36.102  31.350  32.164  1.00  0.00     0.041 A 
ATOM     83  F   UNL A   1      38.257  30.534  32.577  1.00  0.00    -0.206 F 
ATOM     84  C   UNL A   1      35.208  32.039  31.352  1.00  0.00     0.022 A 
BRANCH  81  85
ATOM     85  S   UNL A   1      34.527  33.524  29.095  1.00  0.00     0.124 S 
ATOM     86  O   UNL A   1      34.038  32.528  28.148  1.00  0.00    -0.237 OA
ATOM     87  O   UNL A   1      33.560  34.006  30.075  1.00  0.00    -0.237 OA
ATOM     88  O   UNL A   1      35.399  34.550  28.527  1.00  0.00    -0.744 OA
ENDBRANCH  81  85
ENDBRANCH  54  78
BRANCH  66  89
ATOM     89  C   UNL A   1      43.758  35.328  31.388  1.00  0.00     0.023 A 
ATOM     90  C   UNL A   1      43.944  35.521  32.769  1.00  0.00     0.031 A 
ATOM     91  C   UNL A   1      43.815  36.458  30.551  1.00  0.00     0.131 A 
ATOM     92  C   UNL A   1      44.123  36.818  33.276  1.00  0.00     0.055 A 
ATOM     93  C   UNL A   1      44.056  37.737  31.055  1.00  0.00     0.041 A 
ATOM     94  F   UNL A   1      43.638  36.336  29.225  1.00  0.00    -0.206 F 
ATOM     95  C   UNL A   1      44.198  37.925  32.426  1.00  0.00     0.022 A 
BRANCH  92  96
ATOM     96  S   UNL A   1      44.157  37.056  35.075  1.00  0.00     0.124 S 
ATOM     97  O   UNL A   1      45.586  36.979  35.363  1.00  0.00    -0.237 OA
ATOM     98  O   UNL A   1      43.546  38.372  35.228  1.00  0.00    -0.237 OA
ATOM     99  O   UNL A   1      43.362  35.941  35.584  1.00  0.00    -0.744 OA
ENDBRANCH  92  96
ENDBRANCH  66  89
ENDBRANCH  40  41
ENDBRANCH  33  35
ENDBRANCH  32  33
ENDBRANCH  31  32
ENDBRANCH  30  31
ENDBRANCH  29  30
ENDBRANCH   1  29
TORSDOF 22
ENDMDL
MODEL 3
REMARK VINA RESULT:     -10.4      1.767      7.644
REMARK SMILES C[C@H](NC(=O)OCc1ccccc1)C(=O)NCC(=O)N1CCC[C@H]1C(=O)OCCOC(=O)c1ccc(-c2c3nc(c(-c4cc(S(=O)(=O)[O-])ccc4F)c4ccc([nH]4)c(-c4cc(S(=O)(=O)[O-])ccc4F)c4nc(c(-c5cc(S(=O)(=O)[O-])ccc5F)c5ccc2[nH]5)C=C4)C=C3)cc1
REMARK SMILES IDX 25 1 26 2 24 3 20 4 21 5 22 6 23 7 18 8 19 9 17 10 16 11
REMARK SMILES IDX 14 12 15 13 2 15 1 16 3 17 4 18 5 20 6 21 7 22 8 23 9 24
REMARK SMILES IDX 13 25 10 26 12 27 11 28 27 29 28 30 29 31 30 32 31 33 32 34
REMARK SMILES IDX 33 35 34 36 95 37 35 38 94 39 36 40 37 41 38 42 88 43 39 44
REMARK SMILES IDX 93 45 87 46 89 47 40 48 92 49 86 50 85 51 41 53 73 54 53 55
REMARK SMILES IDX 72 56 54 57 57 58 71 59 90 60 55 61 56 62 70 64 91 65 58 66
REMARK SMILES IDX 42 67 43 68 51 69 44 70 50 71 52 72 49 73 45 74 46 75 47 76
REMARK SMILES IDX 48 77 74 78 75 79 83 80 76 81 82 82 84 83 81 84 77 85 78 86
REMARK SMILES IDX 79 87 80 88 59 89 60 90 68 91 61 92 67 93 69 94 66 95 62 96
REMARK SMILES IDX 63 97 64 98 65 99
REMARK H PARENT 16 14 3 19 89 52 57 63
REMARK Flexibility Score: inf
ROOT
ATOM      1  C   UNL A   1      35.060  22.234  24.053  1.00  0.00     0.328 C 
ATOM      2  O   UNL A   1      34.978  23.121  23.210  1.00  0.00    -0.250 OA
ENDROOT
BRANCH   1   3
ATOM      3  C   UNL A   1      33.852  21.624  24.795  1.00  0.00     0.195 C 
ATOM      4  N   UNL A   1      32.540  21.980  24.242  1.00  0.00    -0.327 N 
ATOM      5  C   UNL A   1      32.140  20.954  23.301  1.00  0.00     0.120 C 
ATOM      6  C   UNL A   1      32.673  19.668  23.902  1.00  0.00     0.024 C 
ATOM      7  C   UNL A   1      33.885  20.084  24.725  1.00  0.00     0.039 C 
BRANCH   4   8
ATOM      8  C   UNL A   1      31.879  23.082  24.722  1.00  0.00     0.242 C 
ATOM      9  O   UNL A   1      30.958  23.597  24.076  1.00  0.00    -0.273 OA
BRANCH   8  10
ATOM     10  C   UNL A   1      32.242  23.764  26.056  1.00  0.00     0.216 C 
BRANCH  10  11
ATOM     11  N   UNL A   1      31.567  24.932  26.573  1.00  0.00    -0.345 N 
ATOM     12  C   UNL A   1      31.914  26.245  26.571  1.00  0.00     0.242 C 
ATOM     13  O   UNL A   1      31.038  27.033  26.951  1.00  0.00    -0.273 OA
ATOM     14  H   UNL A   1      30.702  24.742  27.001  1.00  0.00     0.164 HD
BRANCH  12  15
ATOM     15  C   UNL A   1      33.261  26.791  26.047  1.00  0.00     0.171 C 
ATOM     16  C   UNL A   1      33.544  28.193  26.564  1.00  0.00     0.042 C 
BRANCH  15  17
ATOM     17  N   UNL A   1      33.508  26.544  24.632  1.00  0.00    -0.310 N 
ATOM     18  C   UNL A   1      32.730  26.654  23.524  1.00  0.00     0.408 C 
ATOM     19  H   UNL A   1      34.424  26.236  24.441  1.00  0.00     0.167 HD
ATOM     20  O   UNL A   1      33.129  26.227  22.456  1.00  0.00    -0.225 OA
BRANCH  18  21
ATOM     21  O   UNL A   1      31.532  27.239  23.752  1.00  0.00    -0.445 OA
BRANCH  21  22
ATOM     22  C   UNL A   1      31.430  28.606  23.319  1.00  0.00     0.270 C 
BRANCH  22  23
ATOM     23  C   UNL A   1      30.023  29.155  23.324  1.00  0.00    -0.011 A 
ATOM     24  C   UNL A   1      28.955  28.282  23.059  1.00  0.00     0.007 A 
ATOM     25  C   UNL A   1      29.747  30.505  23.578  1.00  0.00     0.007 A 
ATOM     26  C   UNL A   1      27.646  28.760  23.002  1.00  0.00     0.000 A 
ATOM     27  C   UNL A   1      28.437  30.983  23.509  1.00  0.00     0.000 A 
ATOM     28  C   UNL A   1      27.389  30.112  23.215  1.00  0.00     0.000 A 
ENDBRANCH  22  23
ENDBRANCH  21  22
ENDBRANCH  18  21
ENDBRANCH  15  17
ENDBRANCH  12  15
ENDBRANCH  10  11
ENDBRANCH   8  10
ENDBRANCH   4   8
ENDBRANCH   1   3
BRANCH   1  29
ATOM     29  O   UNL A   1      36.224  21.610  24.379  1.00  0.00    -0.461 OA
BRANCH  29  30
ATOM     30  C   UNL A   1      37.180  22.398  25.109  1.00  0.00     0.274 C 
BRANCH  30  31
ATOM     31  C   UNL A   1      38.485  21.626  25.336  1.00  0.00     0.275 C 
BRANCH  31  32
ATOM     32  O   UNL A   1      39.054  21.892  26.634  1.00  0.00    -0.458 OA
BRANCH  32  33
ATOM     33  C   UNL A   1      40.409  21.919  26.671  1.00  0.00     0.338 C 
ATOM     34  O   UNL A   1      41.166  21.006  26.388  1.00  0.00    -0.246 OA
BRANCH  33  35
ATOM     35  C   UNL A   1      40.885  23.285  26.953  1.00  0.00     0.060 A 
ATOM     36  C   UNL A   1      41.226  23.583  28.272  1.00  0.00     0.016 A 
ATOM     37  C   UNL A   1      40.910  24.286  25.980  1.00  0.00     0.016 A 
ATOM     38  C   UNL A   1      41.618  24.867  28.634  1.00  0.00     0.010 A 
ATOM     39  C   UNL A   1      41.289  25.586  26.346  1.00  0.00     0.010 A 
ATOM     40  C   UNL A   1      41.641  25.886  27.676  1.00  0.00    -0.014 A 
BRANCH  40  41
ATOM     41  C   UNL A   1      41.949  27.273  28.107  1.00  0.00     0.031 A 
ATOM     42  C   UNL A   1      43.369  27.761  28.082  1.00  0.00     0.074 A 
ATOM     43  C   UNL A   1      40.956  28.106  28.470  1.00  0.00     0.049 A 
ATOM     44  N   UNL A   1      43.865  28.900  28.491  1.00  0.00    -0.248 NA
ATOM     45  C   UNL A   1      44.363  26.831  27.529  1.00  0.00     0.031 C 
ATOM     46  C   UNL A   1      39.533  27.766  28.472  1.00  0.00     0.029 A 
ATOM     47  N   UNL A   1      40.992  29.405  28.913  1.00  0.00    -0.354 N 
ATOM     48  C   UNL A   1      45.235  28.820  28.267  1.00  0.00     0.074 A 
ATOM     49  C   UNL A   1      45.489  27.504  27.714  1.00  0.00     0.031 C 
ATOM     50  C   UNL A   1      38.833  28.825  28.909  1.00  0.00     0.029 A 
ATOM     51  C   UNL A   1      39.759  29.896  29.270  1.00  0.00     0.049 A 
ATOM     52  H   UNL A   1      41.821  29.934  28.969  1.00  0.00     0.167 HD
ATOM     53  C   UNL A   1      46.189  29.757  28.500  1.00  0.00     0.034 A 
ATOM     54  C   UNL A   1      39.416  31.057  29.865  1.00  0.00     0.034 A 
ATOM     55  C   UNL A   1      45.909  31.063  29.054  1.00  0.00     0.049 A 
ATOM     56  C   UNL A   1      40.498  32.056  30.191  1.00  0.00     0.074 A 
ATOM     57  C   UNL A   1      46.792  32.097  29.315  1.00  0.00     0.029 A 
ATOM     58  N   UNL A   1      44.652  31.511  29.446  1.00  0.00    -0.354 N 
ATOM     59  N   UNL A   1      41.792  31.969  29.989  1.00  0.00    -0.248 NA
ATOM     60  C   UNL A   1      40.070  33.312  30.820  1.00  0.00     0.031 C 
ATOM     61  C   UNL A   1      46.085  33.133  29.937  1.00  0.00     0.029 A 
ATOM     62  C   UNL A   1      44.744  32.788  29.984  1.00  0.00     0.049 A 
ATOM     63  H   UNL A   1      43.818  30.998  29.354  1.00  0.00     0.167 HD
ATOM     64  C   UNL A   1      42.332  33.165  30.452  1.00  0.00     0.074 A 
ATOM     65  C   UNL A   1      41.220  33.965  30.925  1.00  0.00     0.031 C 
ATOM     66  C   UNL A   1      43.630  33.568  30.477  1.00  0.00     0.034 A 
BRANCH  53  67
ATOM     67  C   UNL A   1      47.623  29.362  28.230  1.00  0.00     0.023 A 
ATOM     68  C   UNL A   1      48.092  29.089  26.932  1.00  0.00     0.031 A 
ATOM     69  C   UNL A   1      48.520  29.189  29.300  1.00  0.00     0.131 A 
ATOM     70  C   UNL A   1      49.382  28.565  26.749  1.00  0.00     0.055 A 
ATOM     71  C   UNL A   1      49.833  28.755  29.102  1.00  0.00     0.041 A 
ATOM     72  F   UNL A   1      48.127  29.411  30.564  1.00  0.00    -0.206 F 
ATOM     73  C   UNL A   1      50.264  28.420  27.822  1.00  0.00     0.022 A 
BRANCH  70  74
ATOM     74  S   UNL A   1      49.826  27.902  25.118  1.00  0.00     0.124 S 
ATOM     75  O   UNL A   1      48.582  28.086  24.373  1.00  0.00    -0.237 OA
ATOM     76  O   UNL A   1      50.940  28.756  24.724  1.00  0.00    -0.237 OA
ATOM     77  O   UNL A   1      50.174  26.509  25.397  1.00  0.00    -0.744 OA
ENDBRANCH  70  74
ENDBRANCH  53  67
BRANCH  54  78
ATOM     78  C   UNL A   1      37.999  31.298  30.259  1.00  0.00     0.023 A 
ATOM     79  C   UNL A   1      37.058  31.813  29.355  1.00  0.00     0.031 A 
ATOM     80  C   UNL A   1      37.571  31.024  31.572  1.00  0.00     0.131 A 
ATOM     81  C   UNL A   1      35.742  32.060  29.782  1.00  0.00     0.055 A 
ATOM     82  C   UNL A   1      36.252  31.224  31.977  1.00  0.00     0.041 A 
ATOM     83  F   UNL A   1      38.432  30.533  32.478  1.00  0.00    -0.206 F 
ATOM     84  C   UNL A   1      35.330  31.753  31.081  1.00  0.00     0.022 A 
BRANCH  81  85
ATOM     85  S   UNL A   1      34.582  32.844  28.628  1.00  0.00     0.124 S 
ATOM     86  O   UNL A   1      35.489  33.475  27.676  1.00  0.00    -0.237 OA
ATOM     87  O   UNL A   1      33.826  31.699  28.132  1.00  0.00    -0.237 OA
ATOM     88  O   UNL A   1      33.828  33.765  29.476  1.00  0.00    -0.744 OA
ENDBRANCH  81  85
ENDBRANCH  54  78
BRANCH  66  89
ATOM     89  C   UNL A   1      43.906  34.957  31.006  1.00  0.00     0.023 A 
ATOM     90  C   UNL A   1      43.944  36.081  30.161  1.00  0.00     0.031 A 
ATOM     91  C   UNL A   1      44.146  35.156  32.378  1.00  0.00     0.131 A 
ATOM     92  C   UNL A   1      44.271  37.342  30.688  1.00  0.00     0.055 A 
ATOM     93  C   UNL A   1      44.407  36.422  32.905  1.00  0.00     0.041 A 
ATOM     94  F   UNL A   1      44.129  34.120  33.232  1.00  0.00    -0.206 F 
ATOM     95  C   UNL A   1      44.484  37.522  32.057  1.00  0.00     0.022 A 
BRANCH  92  96
ATOM     96  S   UNL A   1      44.510  38.731  29.545  1.00  0.00     0.124 S 
ATOM     97  O   UNL A   1      45.473  38.180  28.596  1.00  0.00    -0.237 OA
ATOM     98  O   UNL A   1      43.162  38.949  29.031  1.00  0.00    -0.237 OA
ATOM     99  O   UNL A   1      45.026  39.796  30.403  1.00  0.00    -0.744 OA
ENDBRANCH  92  96
ENDBRANCH  66  89
ENDBRANCH  40  41
ENDBRANCH  33  35
ENDBRANCH  32  33
ENDBRANCH  31  32
ENDBRANCH  30  31
ENDBRANCH  29  30
ENDBRANCH   1  29
TORSDOF 22
ENDMDL
