MODEL 1
REMARK VINA RESULT:     -12.1      0.000      0.000
REMARK SMILES O=C(C[N@@H+]1C[C@@]2([N+](=O)[O-])CC=C(Cl)[C@@]([N+](=O)[O-])(C1)C2)OCCOC(=O)c1ccc(-c2c3nc(c(-c4cc(S(=O)(=O)[O-])ccc4F)c4ccc([nH]4)c(-c4cc(S(=O)(=O)[O-])ccc4F)c4nc(c(-c5cc(S(=O)(=O)[O-])ccc5F)c5ccc2[nH]5)C=C4)C=C3)cc1
REMARK SMILES IDX 22 1 21 2 20 3 2 4 1 5 3 6 4 7 5 8 18 9 6 11 14 12 10 13
REMARK SMILES IDX 19 14 12 15 11 16 13 17 7 18 8 19 9 20 15 21 16 22 17 23
REMARK SMILES IDX 23 24 24 25 25 26 26 27 27 28 88 29 28 30 87 31 29 32 30 33
REMARK SMILES IDX 31 34 81 35 32 36 86 37 80 38 82 39 33 40 85 41 79 42 78 43
REMARK SMILES IDX 34 45 66 46 46 47 65 48 47 49 50 50 64 51 83 52 48 53 49 54
REMARK SMILES IDX 63 56 84 57 51 58 35 59 36 60 44 61 37 62 43 63 45 64 42 65
REMARK SMILES IDX 38 66 39 67 40 68 41 69 67 70 68 71 76 72 69 73 75 74 77 75
REMARK SMILES IDX 74 76 70 77 71 78 72 79 73 80 52 81 53 82 61 83 54 84 60 85
REMARK SMILES IDX 62 86 59 87 55 88 56 89 57 90 58 91
REMARK H PARENT 4 10 82 44 50 55
REMARK Flexibility Score: inf
ROOT
ATOM      1  C   UNL A   1      37.677  20.663  24.974  1.00  0.00     0.275 C 
ENDROOT
BRANCH   1   2
ATOM      2  C   UNL A   1      36.312  21.226  25.380  1.00  0.00     0.274 C 
BRANCH   2   3
ATOM      3  O   UNL A   1      36.091  22.576  24.924  1.00  0.00    -0.458 OA
BRANCH   3   4
ATOM      4  C   UNL A   1      35.633  22.848  23.672  1.00  0.00     0.361 C 
ATOM      5  O   UNL A   1      36.416  23.141  22.772  1.00  0.00    -0.245 OA
BRANCH   4   6
ATOM      6  C   UNL A   1      34.116  22.849  23.474  1.00  0.00     0.386 C 
BRANCH   6   7
ATOM      7  N   UNL A   1      33.464  24.133  23.814  1.00  0.00    -0.313 N 
ATOM      8  C   UNL A   1      32.555  23.942  24.969  1.00  0.00     0.350 C 
ATOM      9  C   UNL A   1      32.762  24.750  22.665  1.00  0.00     0.356 C 
ATOM     10  H   UNL A   1      34.199  24.791  24.073  1.00  0.00     0.349 HD
ATOM     11  C   UNL A   1      31.811  25.237  25.370  1.00  0.00     0.280 C 
ATOM     12  C   UNL A   1      32.096  26.091  23.056  1.00  0.00     0.311 C 
ATOM     13  C   UNL A   1      32.752  26.337  25.928  1.00  0.00     0.121 C 
ATOM     14  C   UNL A   1      31.052  25.799  24.154  1.00  0.00     0.191 C 
ATOM     15  C   UNL A   1      33.142  27.071  23.556  1.00  0.00     0.097 C 
ATOM     16  C   UNL A   1      33.436  27.173  24.866  1.00  0.00     0.004 C 
ATOM     17  Cl  UNL A   1      34.073  27.965  22.406  1.00  0.00    -0.081 Cl
BRANCH  11  18
ATOM     18  N   UNL A   1      30.811  24.826  26.441  1.00  0.00     0.032 N 
ATOM     19  O   UNL A   1      31.120  23.904  27.201  1.00  0.00    -0.264 OA
ATOM     20  O   UNL A   1      29.724  25.421  26.453  1.00  0.00    -0.264 OA
ENDBRANCH  11  18
BRANCH  12  21
ATOM     21  N   UNL A   1      31.343  26.665  21.859  1.00  0.00     0.038 N 
ATOM     22  O   UNL A   1      30.619  27.654  22.046  1.00  0.00    -0.263 OA
ATOM     23  O   UNL A   1      31.549  26.147  20.752  1.00  0.00    -0.263 OA
ENDBRANCH  12  21
ENDBRANCH   6   7
ENDBRANCH   4   6
ENDBRANCH   3   4
ENDBRANCH   2   3
ENDBRANCH   1   2
BRANCH   1  24
ATOM     24  O   UNL A   1      38.721  21.634  25.160  1.00  0.00    -0.458 OA
BRANCH  24  25
ATOM     25  C   UNL A   1      39.579  21.344  26.173  1.00  0.00     0.338 C 
ATOM     26  O   UNL A   1      40.080  20.254  26.395  1.00  0.00    -0.246 OA
BRANCH  25  27
ATOM     27  C   UNL A   1      39.993  22.587  26.865  1.00  0.00     0.060 A 
ATOM     28  C   UNL A   1      39.303  23.760  26.538  1.00  0.00     0.016 A 
ATOM     29  C   UNL A   1      41.023  22.624  27.813  1.00  0.00     0.016 A 
ATOM     30  C   UNL A   1      39.674  24.977  27.111  1.00  0.00     0.010 A 
ATOM     31  C   UNL A   1      41.395  23.847  28.388  1.00  0.00     0.010 A 
ATOM     32  C   UNL A   1      40.748  25.037  28.009  1.00  0.00    -0.014 A 
BRANCH  32  33
ATOM     33  C   UNL A   1      41.279  26.370  28.397  1.00  0.00     0.031 A 
ATOM     34  C   UNL A   1      42.704  26.712  28.048  1.00  0.00     0.074 A 
ATOM     35  C   UNL A   1      40.489  27.293  28.977  1.00  0.00     0.049 A 
ATOM     36  N   UNL A   1      43.343  27.846  28.181  1.00  0.00    -0.248 NA
ATOM     37  C   UNL A   1      43.513  25.629  27.470  1.00  0.00     0.031 C 
ATOM     38  C   UNL A   1      39.092  27.090  29.359  1.00  0.00     0.029 A 
ATOM     39  N   UNL A   1      40.752  28.592  29.336  1.00  0.00    -0.354 N 
ATOM     40  C   UNL A   1      44.618  27.624  27.672  1.00  0.00     0.074 A 
ATOM     41  C   UNL A   1      44.681  26.227  27.295  1.00  0.00     0.031 C 
ATOM     42  C   UNL A   1      38.622  28.227  29.906  1.00  0.00     0.029 A 
ATOM     43  C   UNL A   1      39.682  29.233  29.917  1.00  0.00     0.049 A 
ATOM     44  H   UNL A   1      41.624  29.025  29.191  1.00  0.00     0.167 HD
ATOM     45  C   UNL A   1      45.636  28.505  27.506  1.00  0.00     0.034 A 
ATOM     46  C   UNL A   1      39.574  30.487  30.401  1.00  0.00     0.034 A 
ATOM     47  C   UNL A   1      45.583  29.886  27.915  1.00  0.00     0.049 A 
ATOM     48  C   UNL A   1      40.746  31.433  30.273  1.00  0.00     0.074 A 
ATOM     49  C   UNL A   1      46.560  30.860  27.800  1.00  0.00     0.029 A 
ATOM     50  N   UNL A   1      44.497  30.490  28.535  1.00  0.00    -0.354 N 
ATOM     51  N   UNL A   1      41.930  31.219  29.746  1.00  0.00    -0.248 NA
ATOM     52  C   UNL A   1      40.554  32.798  30.783  1.00  0.00     0.031 C 
ATOM     53  C   UNL A   1      46.090  32.030  28.407  1.00  0.00     0.029 A 
ATOM     54  C   UNL A   1      44.791  31.812  28.834  1.00  0.00     0.049 A 
ATOM     55  H   UNL A   1      43.641  30.045  28.734  1.00  0.00     0.167 HD
ATOM     56  C   UNL A   1      42.610  32.433  29.838  1.00  0.00     0.074 A 
ATOM     57  C   UNL A   1      41.695  33.377  30.443  1.00  0.00     0.031 C 
ATOM     58  C   UNL A   1      43.878  32.742  29.457  1.00  0.00     0.034 A 
BRANCH  45  59
ATOM     59  C   UNL A   1      46.901  27.978  26.873  1.00  0.00     0.023 A 
ATOM     60  C   UNL A   1      47.119  28.071  25.486  1.00  0.00     0.031 A 
ATOM     61  C   UNL A   1      47.885  27.350  27.655  1.00  0.00     0.131 A 
ATOM     62  C   UNL A   1      48.260  27.485  24.917  1.00  0.00     0.055 A 
ATOM     63  C   UNL A   1      49.054  26.838  27.091  1.00  0.00     0.041 A 
ATOM     64  F   UNL A   1      47.720  27.211  28.980  1.00  0.00    -0.206 F 
ATOM     65  C   UNL A   1      49.241  26.891  25.713  1.00  0.00     0.022 A 
BRANCH  62  66
ATOM     66  S   UNL A   1      48.376  27.395  23.109  1.00  0.00     0.124 S 
ATOM     67  O   UNL A   1      47.197  28.154  22.700  1.00  0.00    -0.237 OA
ATOM     68  O   UNL A   1      49.665  28.022  22.843  1.00  0.00    -0.237 OA
ATOM     69  O   UNL A   1      48.310  25.961  22.834  1.00  0.00    -0.744 OA
ENDBRANCH  62  66
ENDBRANCH  45  59
BRANCH  46  70
ATOM     70  C   UNL A   1      38.321  30.933  31.081  1.00  0.00     0.023 A 
ATOM     71  C   UNL A   1      37.276  31.541  30.368  1.00  0.00     0.031 A 
ATOM     72  C   UNL A   1      38.194  30.830  32.478  1.00  0.00     0.131 A 
ATOM     73  C   UNL A   1      36.178  32.078  31.060  1.00  0.00     0.055 A 
ATOM     74  C   UNL A   1      37.076  31.316  33.155  1.00  0.00     0.041 A 
ATOM     75  F   UNL A   1      39.165  30.256  33.207  1.00  0.00    -0.206 F 
ATOM     76  C   UNL A   1      36.066  31.959  32.447  1.00  0.00     0.022 A 
BRANCH  73  77
ATOM     77  S   UNL A   1      34.943  33.028  30.129  1.00  0.00     0.124 S 
ATOM     78  O   UNL A   1      34.031  33.446  31.186  1.00  0.00    -0.237 OA
ATOM     79  O   UNL A   1      35.760  34.080  29.533  1.00  0.00    -0.237 OA
ATOM     80  O   UNL A   1      34.404  32.052  29.185  1.00  0.00    -0.744 OA
ENDBRANCH  73  77
ENDBRANCH  46  70
BRANCH  58  81
ATOM     81  C   UNL A   1      44.326  34.171  29.659  1.00  0.00     0.023 A 
ATOM     82  C   UNL A   1      44.257  35.120  28.624  1.00  0.00     0.031 A 
ATOM     83  C   UNL A   1      44.863  34.581  30.893  1.00  0.00     0.131 A 
ATOM     84  C   UNL A   1      44.782  36.408  28.817  1.00  0.00     0.055 A 
ATOM     85  C   UNL A   1      45.323  35.882  31.101  1.00  0.00     0.041 A 
ATOM     86  F   UNL A   1      44.954  33.719  31.918  1.00  0.00    -0.206 F 
ATOM     87  C   UNL A   1      45.301  36.800  30.054  1.00  0.00     0.022 A 
BRANCH  84  88
ATOM     88  S   UNL A   1      44.886  37.528  27.393  1.00  0.00     0.124 S 
ATOM     89  O   UNL A   1      45.407  38.747  28.003  1.00  0.00    -0.237 OA
ATOM     90  O   UNL A   1      45.800  36.819  26.506  1.00  0.00    -0.237 OA
ATOM     91  O   UNL A   1      43.504  37.613  26.923  1.00  0.00    -0.744 OA
ENDBRANCH  84  88
ENDBRANCH  58  81
ENDBRANCH  32  33
ENDBRANCH  25  27
ENDBRANCH  24  25
ENDBRANCH   1  24
TORSDOF 17
ENDMDL
MODEL 2
REMARK VINA RESULT:     -12.0      1.467      1.823
REMARK SMILES O=C(C[N@@H+]1C[C@@]2([N+](=O)[O-])CC=C(Cl)[C@@]([N+](=O)[O-])(C1)C2)OCCOC(=O)c1ccc(-c2c3nc(c(-c4cc(S(=O)(=O)[O-])ccc4F)c4ccc([nH]4)c(-c4cc(S(=O)(=O)[O-])ccc4F)c4nc(c(-c5cc(S(=O)(=O)[O-])ccc5F)c5ccc2[nH]5)C=C4)C=C3)cc1
REMARK SMILES IDX 22 1 21 2 20 3 2 4 1 5 3 6 4 7 5 8 18 9 6 11 14 12 10 13
REMARK SMILES IDX 19 14 12 15 11 16 13 17 7 18 8 19 9 20 15 21 16 22 17 23
REMARK SMILES IDX 23 24 24 25 25 26 26 27 27 28 88 29 28 30 87 31 29 32 30 33
REMARK SMILES IDX 31 34 81 35 32 36 86 37 80 38 82 39 33 40 85 41 79 42 78 43
REMARK SMILES IDX 34 45 66 46 46 47 65 48 47 49 50 50 64 51 83 52 48 53 49 54
REMARK SMILES IDX 63 56 84 57 51 58 35 59 36 60 44 61 37 62 43 63 45 64 42 65
REMARK SMILES IDX 38 66 39 67 40 68 41 69 67 70 68 71 76 72 69 73 75 74 77 75
REMARK SMILES IDX 74 76 70 77 71 78 72 79 73 80 52 81 53 82 61 83 54 84 60 85
REMARK SMILES IDX 62 86 59 87 55 88 56 89 57 90 58 91
REMARK H PARENT 4 10 82 44 50 55
REMARK Flexibility Score: inf
ROOT
ATOM      1  C   UNL A   1      37.164  20.381  24.857  1.00  0.00     0.275 C 
ENDROOT
BRANCH   1   2
ATOM      2  C   UNL A   1      35.827  20.962  25.326  1.00  0.00     0.274 C 
BRANCH   2   3
ATOM      3  O   UNL A   1      35.174  21.771  24.328  1.00  0.00    -0.458 OA
BRANCH   3   4
ATOM      4  C   UNL A   1      35.677  22.970  23.929  1.00  0.00     0.361 C 
ATOM      5  O   UNL A   1      36.158  23.102  22.806  1.00  0.00    -0.245 OA
BRANCH   4   6
ATOM      6  C   UNL A   1      35.684  24.098  24.963  1.00  0.00     0.386 C 
BRANCH   6   7
ATOM      7  N   UNL A   1      34.553  25.042  24.833  1.00  0.00    -0.313 N 
ATOM      8  C   UNL A   1      33.447  24.625  25.727  1.00  0.00     0.350 C 
ATOM      9  C   UNL A   1      34.090  25.204  23.434  1.00  0.00     0.356 C 
ATOM     10  H   UNL A   1      34.886  25.962  25.120  1.00  0.00     0.349 HD
ATOM     11  C   UNL A   1      32.211  25.549  25.627  1.00  0.00     0.280 C 
ATOM     12  C   UNL A   1      32.909  26.199  23.335  1.00  0.00     0.311 C 
ATOM     13  C   UNL A   1      32.474  26.984  26.152  1.00  0.00     0.121 C 
ATOM     14  C   UNL A   1      31.739  25.630  24.164  1.00  0.00     0.191 C 
ATOM     15  C   UNL A   1      33.325  27.562  23.859  1.00  0.00     0.097 C 
ATOM     16  C   UNL A   1      33.125  27.909  25.144  1.00  0.00     0.004 C 
ATOM     17  Cl  UNL A   1      34.203  28.629  22.819  1.00  0.00    -0.081 Cl
BRANCH  11  18
ATOM     18  N   UNL A   1      31.129  24.886  26.468  1.00  0.00     0.032 N 
ATOM     19  O   UNL A   1      29.969  25.292  26.348  1.00  0.00    -0.264 OA
ATOM     20  O   UNL A   1      31.493  24.002  27.257  1.00  0.00    -0.264 OA
ENDBRANCH  11  18
BRANCH  12  21
ATOM     21  N   UNL A   1      32.432  26.296  21.889  1.00  0.00     0.038 N 
ATOM     22  O   UNL A   1      33.172  25.851  20.999  1.00  0.00    -0.263 OA
ATOM     23  O   UNL A   1      31.300  26.760  21.691  1.00  0.00    -0.263 OA
ENDBRANCH  12  21
ENDBRANCH   6   7
ENDBRANCH   4   6
ENDBRANCH   3   4
ENDBRANCH   2   3
ENDBRANCH   1   2
BRANCH   1  24
ATOM     24  O   UNL A   1      38.226  21.342  24.983  1.00  0.00    -0.458 OA
BRANCH  24  25
ATOM     25  C   UNL A   1      39.179  21.005  25.893  1.00  0.00     0.338 C 
ATOM     26  O   UNL A   1      39.687  19.904  26.021  1.00  0.00    -0.246 OA
BRANCH  25  27
ATOM     27  C   UNL A   1      39.674  22.217  26.587  1.00  0.00     0.060 A 
ATOM     28  C   UNL A   1      39.093  23.439  26.230  1.00  0.00     0.016 A 
ATOM     29  C   UNL A   1      40.674  22.178  27.565  1.00  0.00     0.016 A 
ATOM     30  C   UNL A   1      39.547  24.627  26.804  1.00  0.00     0.010 A 
ATOM     31  C   UNL A   1      41.130  23.372  28.142  1.00  0.00     0.010 A 
ATOM     32  C   UNL A   1      40.595  24.607  27.734  1.00  0.00    -0.014 A 
BRANCH  32  33
ATOM     33  C   UNL A   1      41.224  25.895  28.128  1.00  0.00     0.031 A 
ATOM     34  C   UNL A   1      42.639  26.175  27.692  1.00  0.00     0.074 A 
ATOM     35  C   UNL A   1      40.526  26.837  28.790  1.00  0.00     0.049 A 
ATOM     36  N   UNL A   1      43.347  27.269  27.817  1.00  0.00    -0.248 NA
ATOM     37  C   UNL A   1      43.346  25.072  27.024  1.00  0.00     0.031 C 
ATOM     38  C   UNL A   1      39.150  26.694  29.262  1.00  0.00     0.029 A 
ATOM     39  N   UNL A   1      40.884  28.107  29.173  1.00  0.00    -0.354 N 
ATOM     40  C   UNL A   1      44.570  26.998  27.213  1.00  0.00     0.074 A 
ATOM     41  C   UNL A   1      44.530  25.614  26.788  1.00  0.00     0.031 C 
ATOM     42  C   UNL A   1      38.781  27.833  29.877  1.00  0.00     0.029 A 
ATOM     43  C   UNL A   1      39.893  28.781  29.847  1.00  0.00     0.049 A 
ATOM     44  H   UNL A   1      41.767  28.498  28.982  1.00  0.00     0.167 HD
ATOM     45  C   UNL A   1      45.621  27.830  27.006  1.00  0.00     0.034 A 
ATOM     46  C   UNL A   1      39.887  30.021  30.379  1.00  0.00     0.034 A 
ATOM     47  C   UNL A   1      45.672  29.196  27.463  1.00  0.00     0.049 A 
ATOM     48  C   UNL A   1      41.097  30.908  30.200  1.00  0.00     0.074 A 
ATOM     49  C   UNL A   1      46.691  30.121  27.312  1.00  0.00     0.029 A 
ATOM     50  N   UNL A   1      44.665  29.834  28.176  1.00  0.00    -0.354 N 
ATOM     51  N   UNL A   1      42.230  30.652  29.585  1.00  0.00    -0.248 NA
ATOM     52  C   UNL A   1      41.016  32.262  30.766  1.00  0.00     0.031 C 
ATOM     53  C   UNL A   1      46.328  31.291  27.988  1.00  0.00     0.029 A 
ATOM     54  C   UNL A   1      45.051  31.127  28.497  1.00  0.00     0.049 A 
ATOM     55  H   UNL A   1      43.802  29.427  28.419  1.00  0.00     0.167 HD
ATOM     56  C   UNL A   1      42.980  31.824  29.669  1.00  0.00     0.074 A 
ATOM     57  C   UNL A   1      42.161  32.793  30.367  1.00  0.00     0.031 C 
ATOM     58  C   UNL A   1      44.234  32.079  29.211  1.00  0.00     0.034 A 
BRANCH  45  59
ATOM     59  C   UNL A   1      46.810  27.260  26.270  1.00  0.00     0.023 A 
ATOM     60  C   UNL A   1      47.845  26.598  26.954  1.00  0.00     0.031 A 
ATOM     61  C   UNL A   1      46.927  27.406  24.878  1.00  0.00     0.131 A 
ATOM     62  C   UNL A   1      48.982  26.166  26.254  1.00  0.00     0.055 A 
ATOM     63  C   UNL A   1      48.026  26.906  24.177  1.00  0.00     0.041 A 
ATOM     64  F   UNL A   1      45.982  28.051  24.175  1.00  0.00    -0.206 F 
ATOM     65  C   UNL A   1      49.068  26.294  24.867  1.00  0.00     0.022 A 
BRANCH  62  66
ATOM     66  S   UNL A   1      50.403  25.557  27.203  1.00  0.00     0.124 S 
ATOM     67  O   UNL A   1      50.517  26.572  28.248  1.00  0.00    -0.237 OA
ATOM     68  O   UNL A   1      49.952  24.240  27.638  1.00  0.00    -0.237 OA
ATOM     69  O   UNL A   1      51.490  25.554  26.227  1.00  0.00    -0.744 OA
ENDBRANCH  62  66
ENDBRANCH  45  59
BRANCH  46  70
ATOM     70  C   UNL A   1      38.709  30.507  31.157  1.00  0.00     0.023 A 
ATOM     71  C   UNL A   1      37.613  31.117  30.527  1.00  0.00     0.031 A 
ATOM     72  C   UNL A   1      38.709  30.441  32.563  1.00  0.00     0.131 A 
ATOM     73  C   UNL A   1      36.592  31.691  31.302  1.00  0.00     0.055 A 
ATOM     74  C   UNL A   1      37.665  30.965  33.326  1.00  0.00     0.041 A 
ATOM     75  F   UNL A   1      39.734  29.868  33.215  1.00  0.00    -0.206 F 
ATOM     76  C   UNL A   1      36.606  31.609  32.696  1.00  0.00     0.022 A 
BRANCH  73  77
ATOM     77  S   UNL A   1      35.293  32.641  30.463  1.00  0.00     0.124 S 
ATOM     78  O   UNL A   1      35.037  31.819  29.286  1.00  0.00    -0.237 OA
ATOM     79  O   UNL A   1      34.239  32.664  31.471  1.00  0.00    -0.237 OA
ATOM     80  O   UNL A   1      35.929  33.930  30.201  1.00  0.00    -0.744 OA
ENDBRANCH  73  77
ENDBRANCH  46  70
BRANCH  58  81
ATOM     81  C   UNL A   1      44.773  33.475  29.429  1.00  0.00     0.023 A 
ATOM     82  C   UNL A   1      44.680  34.466  28.434  1.00  0.00     0.031 A 
ATOM     83  C   UNL A   1      45.419  33.809  30.632  1.00  0.00     0.131 A 
ATOM     84  C   UNL A   1      45.287  35.716  28.632  1.00  0.00     0.055 A 
ATOM     85  C   UNL A   1      45.963  35.076  30.850  1.00  0.00     0.041 A 
ATOM     86  F   UNL A   1      45.538  32.906  31.618  1.00  0.00    -0.206 F 
ATOM     87  C   UNL A   1      45.914  36.033  29.839  1.00  0.00     0.022 A 
BRANCH  84  88
ATOM     88  S   UNL A   1      45.348  36.883  27.244  1.00  0.00     0.124 S 
ATOM     89  O   UNL A   1      43.932  37.141  27.002  1.00  0.00    -0.237 OA
ATOM     90  O   UNL A   1      46.111  37.993  27.804  1.00  0.00    -0.237 OA
ATOM     91  O   UNL A   1      46.028  36.129  26.192  1.00  0.00    -0.744 OA
ENDBRANCH  84  88
ENDBRANCH  58  81
ENDBRANCH  32  33
ENDBRANCH  25  27
ENDBRANCH  24  25
ENDBRANCH   1  24
TORSDOF 17
ENDMDL
MODEL 3
REMARK VINA RESULT:     -11.9      4.791     10.076
REMARK SMILES O=C(C[N@@H+]1C[C@@]2([N+](=O)[O-])CC=C(Cl)[C@@]([N+](=O)[O-])(C1)C2)OCCOC(=O)c1ccc(-c2c3nc(c(-c4cc(S(=O)(=O)[O-])ccc4F)c4ccc([nH]4)c(-c4cc(S(=O)(=O)[O-])ccc4F)c4nc(c(-c5cc(S(=O)(=O)[O-])ccc5F)c5ccc2[nH]5)C=C4)C=C3)cc1
REMARK SMILES IDX 22 1 21 2 20 3 2 4 1 5 3 6 4 7 5 8 18 9 6 11 14 12 10 13
REMARK SMILES IDX 19 14 12 15 11 16 13 17 7 18 8 19 9 20 15 21 16 22 17 23
REMARK SMILES IDX 23 24 24 25 25 26 26 27 27 28 88 29 28 30 87 31 29 32 30 33
REMARK SMILES IDX 31 34 81 35 32 36 86 37 80 38 82 39 33 40 85 41 79 42 78 43
REMARK SMILES IDX 34 45 66 46 46 47 65 48 47 49 50 50 64 51 83 52 48 53 49 54
REMARK SMILES IDX 63 56 84 57 51 58 35 59 36 60 44 61 37 62 43 63 45 64 42 65
REMARK SMILES IDX 38 66 39 67 40 68 41 69 67 70 68 71 76 72 69 73 75 74 77 75
REMARK SMILES IDX 74 76 70 77 71 78 72 79 73 80 52 81 53 82 61 83 54 84 60 85
REMARK SMILES IDX 62 86 59 87 55 88 56 89 57 90 58 91
REMARK H PARENT 4 10 82 44 50 55
REMARK Flexibility Score: inf
ROOT
ATOM      1  C   UNL A   1      31.809  31.103  26.593  1.00  0.00     0.275 C 
ENDROOT
BRANCH   1   2
ATOM      2  C   UNL A   1      31.868  30.073  25.461  1.00  0.00     0.274 C 
BRANCH   2   3
ATOM      3  O   UNL A   1      31.384  28.771  25.846  1.00  0.00    -0.458 OA
BRANCH   3   4
ATOM      4  C   UNL A   1      32.014  28.018  26.788  1.00  0.00     0.361 C 
ATOM      5  O   UNL A   1      31.479  27.799  27.872  1.00  0.00    -0.245 OA
BRANCH   4   6
ATOM      6  C   UNL A   1      33.430  27.538  26.459  1.00  0.00     0.386 C 
BRANCH   6   7
ATOM      7  N   UNL A   1      33.493  26.151  25.951  1.00  0.00    -0.313 N 
ATOM      8  C   UNL A   1      33.627  26.164  24.474  1.00  0.00     0.350 C 
ATOM      9  C   UNL A   1      32.345  25.320  26.385  1.00  0.00     0.356 C 
ATOM     10  H   UNL A   1      34.319  25.712  26.357  1.00  0.00     0.349 HD
ATOM     11  C   UNL A   1      33.671  24.746  23.860  1.00  0.00     0.280 C 
ATOM     12  C   UNL A   1      32.444  23.877  25.837  1.00  0.00     0.311 C 
ATOM     13  C   UNL A   1      34.940  23.946  24.254  1.00  0.00     0.121 C 
ATOM     14  C   UNL A   1      32.425  23.952  24.296  1.00  0.00     0.191 C 
ATOM     15  C   UNL A   1      33.721  23.216  26.326  1.00  0.00     0.097 C 
ATOM     16  C   UNL A   1      34.853  23.256  25.600  1.00  0.00     0.004 C 
ATOM     17  Cl  UNL A   1      33.755  22.528  27.913  1.00  0.00    -0.081 Cl
BRANCH  11  18
ATOM     18  N   UNL A   1      33.637  24.945  22.352  1.00  0.00     0.032 N 
ATOM     19  O   UNL A   1      33.511  23.947  21.637  1.00  0.00    -0.264 OA
ATOM     20  O   UNL A   1      33.783  26.103  21.935  1.00  0.00    -0.264 OA
ENDBRANCH  11  18
BRANCH  12  21
ATOM     21  N   UNL A   1      31.220  23.073  26.265  1.00  0.00     0.038 N 
ATOM     22  O   UNL A   1      30.998  21.997  25.690  1.00  0.00    -0.263 OA
ATOM     23  O   UNL A   1      30.549  23.513  27.210  1.00  0.00    -0.263 OA
ENDBRANCH  12  21
ENDBRANCH   6   7
ENDBRANCH   4   6
ENDBRANCH   3   4
ENDBRANCH   2   3
ENDBRANCH   1   2
BRANCH   1  24
ATOM     24  O   UNL A   1      32.868  30.896  27.544  1.00  0.00    -0.458 OA
BRANCH  24  25
ATOM     25  C   UNL A   1      33.656  31.985  27.749  1.00  0.00     0.338 C 
ATOM     26  O   UNL A   1      33.273  33.141  27.817  1.00  0.00    -0.246 OA
BRANCH  25  27
ATOM     27  C   UNL A   1      35.036  31.562  28.085  1.00  0.00     0.060 A 
ATOM     28  C   UNL A   1      35.246  30.199  28.323  1.00  0.00     0.016 A 
ATOM     29  C   UNL A   1      36.108  32.458  28.164  1.00  0.00     0.016 A 
ATOM     30  C   UNL A   1      36.508  29.737  28.696  1.00  0.00     0.010 A 
ATOM     31  C   UNL A   1      37.377  31.993  28.539  1.00  0.00     0.010 A 
ATOM     32  C   UNL A   1      37.573  30.636  28.846  1.00  0.00    -0.014 A 
BRANCH  32  33
ATOM     33  C   UNL A   1      38.825  30.156  29.489  1.00  0.00     0.031 A 
ATOM     34  C   UNL A   1      39.180  30.673  30.859  1.00  0.00     0.074 A 
ATOM     35  C   UNL A   1      39.592  29.217  28.905  1.00  0.00     0.049 A 
ATOM     36  N   UNL A   1      40.153  30.312  31.657  1.00  0.00    -0.248 NA
ATOM     37  C   UNL A   1      38.321  31.738  31.399  1.00  0.00     0.031 C 
ATOM     38  C   UNL A   1      39.355  28.630  27.587  1.00  0.00     0.029 A 
ATOM     39  N   UNL A   1      40.726  28.586  29.356  1.00  0.00    -0.354 N 
ATOM     40  C   UNL A   1      40.002  31.080  32.807  1.00  0.00     0.074 A 
ATOM     41  C   UNL A   1      38.889  31.975  32.570  1.00  0.00     0.031 C 
ATOM     42  C   UNL A   1      40.320  27.727  27.334  1.00  0.00     0.029 A 
ATOM     43  C   UNL A   1      41.243  27.674  28.465  1.00  0.00     0.049 A 
ATOM     44  H   UNL A   1      41.131  28.769  30.234  1.00  0.00     0.167 HD
ATOM     45  C   UNL A   1      40.706  31.029  33.965  1.00  0.00     0.034 A 
ATOM     46  C   UNL A   1      42.336  26.889  28.555  1.00  0.00     0.034 A 
ATOM     47  C   UNL A   1      41.837  30.162  34.184  1.00  0.00     0.049 A 
ATOM     48  C   UNL A   1      43.152  26.900  29.828  1.00  0.00     0.074 A 
ATOM     49  C   UNL A   1      42.624  30.038  35.316  1.00  0.00     0.029 A 
ATOM     50  N   UNL A   1      42.356  29.279  33.246  1.00  0.00    -0.354 N 
ATOM     51  N   UNL A   1      42.967  27.599  30.924  1.00  0.00    -0.248 NA
ATOM     52  C   UNL A   1      44.307  25.994  29.881  1.00  0.00     0.031 C 
ATOM     53  C   UNL A   1      43.654  29.131  35.040  1.00  0.00     0.029 A 
ATOM     54  C   UNL A   1      43.468  28.630  33.762  1.00  0.00     0.049 A 
ATOM     55  H   UNL A   1      41.988  29.135  32.344  1.00  0.00     0.167 HD
ATOM     56  C   UNL A   1      43.970  27.194  31.805  1.00  0.00     0.074 A 
ATOM     57  C   UNL A   1      44.734  26.171  31.122  1.00  0.00     0.031 C 
ATOM     58  C   UNL A   1      44.236  27.626  33.065  1.00  0.00     0.034 A 
BRANCH  45  59
ATOM     59  C   UNL A   1      40.276  31.963  35.070  1.00  0.00     0.023 A 
ATOM     60  C   UNL A   1      39.392  31.543  36.080  1.00  0.00     0.031 A 
ATOM     61  C   UNL A   1      40.728  33.293  35.099  1.00  0.00     0.131 A 
ATOM     62  C   UNL A   1      38.936  32.462  37.037  1.00  0.00     0.055 A 
ATOM     63  C   UNL A   1      40.329  34.182  36.099  1.00  0.00     0.041 A 
ATOM     64  F   UNL A   1      41.553  33.756  34.147  1.00  0.00    -0.206 F 
ATOM     65  C   UNL A   1      39.417  33.772  37.068  1.00  0.00     0.022 A 
BRANCH  62  66
ATOM     66  S   UNL A   1      37.602  31.955  38.157  1.00  0.00     0.124 S 
ATOM     67  O   UNL A   1      38.241  32.107  39.463  1.00  0.00    -0.237 OA
ATOM     68  O   UNL A   1      36.547  32.912  37.847  1.00  0.00    -0.237 OA
ATOM     69  O   UNL A   1      37.330  30.575  37.762  1.00  0.00    -0.744 OA
ENDBRANCH  62  66
ENDBRANCH  45  59
BRANCH  46  70
ATOM     70  C   UNL A   1      42.755  26.036  27.403  1.00  0.00     0.023 A 
ATOM     71  C   UNL A   1      42.269  24.729  27.242  1.00  0.00     0.031 A 
ATOM     72  C   UNL A   1      43.721  26.497  26.490  1.00  0.00     0.131 A 
ATOM     73  C   UNL A   1      42.794  23.907  26.233  1.00  0.00     0.055 A 
ATOM     74  C   UNL A   1      44.200  25.695  25.455  1.00  0.00     0.041 A 
ATOM     75  F   UNL A   1      44.219  27.739  26.599  1.00  0.00    -0.206 F 
ATOM     76  C   UNL A   1      43.748  24.385  25.331  1.00  0.00     0.022 A 
BRANCH  73  77
ATOM     77  S   UNL A   1      42.287  22.165  26.177  1.00  0.00     0.124 S 
ATOM     78  O   UNL A   1      42.800  21.666  27.447  1.00  0.00    -0.237 OA
ATOM     79  O   UNL A   1      40.837  22.278  26.069  1.00  0.00    -0.237 OA
ATOM     80  O   UNL A   1      42.960  21.653  24.985  1.00  0.00    -0.744 OA
ENDBRANCH  73  77
ENDBRANCH  46  70
BRANCH  58  81
ATOM     81  C   UNL A   1      45.386  26.963  33.789  1.00  0.00     0.023 A 
ATOM     82  C   UNL A   1      45.204  25.796  34.552  1.00  0.00     0.031 A 
ATOM     83  C   UNL A   1      46.674  27.526  33.745  1.00  0.00     0.131 A 
ATOM     84  C   UNL A   1      46.272  25.270  35.296  1.00  0.00     0.055 A 
ATOM     85  C   UNL A   1      47.749  26.962  34.434  1.00  0.00     0.041 A 
ATOM     86  F   UNL A   1      46.910  28.639  33.033  1.00  0.00    -0.206 F 
ATOM     87  C   UNL A   1      47.547  25.837  35.230  1.00  0.00     0.022 A 
BRANCH  84  88
ATOM     88  S   UNL A   1      45.944  23.905  36.446  1.00  0.00     0.124 S 
ATOM     89  O   UNL A   1      44.497  23.756  36.336  1.00  0.00    -0.237 OA
ATOM     90  O   UNL A   1      46.741  22.823  35.879  1.00  0.00    -0.237 OA
ATOM     91  O   UNL A   1      46.418  24.418  37.731  1.00  0.00    -0.744 OA
ENDBRANCH  84  88
ENDBRANCH  58  81
ENDBRANCH  32  33
ENDBRANCH  25  27
ENDBRANCH  24  25
ENDBRANCH   1  24
TORSDOF 17
ENDMDL
