MODEL 1
REMARK VINA RESULT:     -13.0      0.000      0.000
REMARK SMILES Cc1cccc(O[C@H](C)C(=O)NNC(=O)[C@H]2[C@@H]3CC[C@@H](C3)[C@@H]2C(=O)OCCOC(=O)c2ccc(-c3c4nc(c(-c5cc(S(=O)(=O)[O-])ccc5F)c5ccc([nH]5)c(-c5cc(S(=O)(=O)[O-])ccc5F)c5nc(c(-c6cc(S(=O)(=O)[O-])ccc6F)c6ccc3[nH]6)C=C5)C=C4)cc2)c1
REMARK SMILES IDX 26 1 25 2 23 3 24 4 22 5 16 6 17 7 18 8 21 9 20 10 19 11
REMARK SMILES IDX 14 12 13 13 15 15 12 16 10 17 11 18 8 20 9 21 7 22 6 23 1 24
REMARK SMILES IDX 2 25 3 26 94 27 4 28 5 29 27 30 28 31 29 32 30 33 31 34
REMARK SMILES IDX 32 35 93 36 33 37 92 38 34 39 35 40 36 41 86 42 37 43 91 44
REMARK SMILES IDX 85 45 87 46 38 47 90 48 84 49 83 50 39 52 71 53 51 54 70 55
REMARK SMILES IDX 52 56 55 57 69 58 88 59 53 60 54 61 68 63 89 64 56 65 40 66
REMARK SMILES IDX 41 67 49 68 42 69 48 70 50 71 47 72 43 73 44 74 45 75 46 76
REMARK SMILES IDX 72 77 73 78 81 79 74 80 80 81 82 82 79 83 75 84 76 85 77 86
REMARK SMILES IDX 78 87 57 88 58 89 66 90 59 91 65 92 67 93 64 94 60 95 61 96
REMARK SMILES IDX 62 97 63 98
REMARK H PARENT 13 14 12 19 87 51 55 62
REMARK Flexibility Score: inf
ROOT
ATOM      1  C   UNL A   1      32.861  30.574  27.294  1.00  0.00     0.274 C 
ENDROOT
BRANCH   1   2
ATOM      2  O   UNL A   1      32.676  30.270  25.891  1.00  0.00    -0.462 OA
BRANCH   2   3
ATOM      3  C   UNL A   1      32.620  28.924  25.651  1.00  0.00     0.310 C 
ATOM      4  O   UNL A   1      33.568  28.172  25.867  1.00  0.00    -0.252 OA
BRANCH   3   5
ATOM      5  C   UNL A   1      31.435  28.426  24.841  1.00  0.00     0.115 C 
ATOM      6  C   UNL A   1      31.073  26.956  24.650  1.00  0.00     0.098 C 
ATOM      7  C   UNL A   1      30.163  26.997  23.382  1.00  0.00     0.003 C 
ATOM      8  C   UNL A   1      31.093  26.923  22.165  1.00  0.00     0.005 C 
ATOM      9  C   UNL A   1      29.711  28.464  23.279  1.00  0.00     0.009 C 
ATOM     10  C   UNL A   1      31.138  29.012  23.432  1.00  0.00     0.004 C 
ATOM     11  C   UNL A   1      31.802  28.291  22.232  1.00  0.00     0.005 C 
BRANCH   6  12
ATOM     12  C   UNL A   1      30.428  26.190  25.784  1.00  0.00     0.242 C 
ATOM     13  N   UNL A   1      29.757  25.039  25.473  1.00  0.00    -0.267 N 
ATOM     14  H   UNL A   1      28.773  25.000  25.495  1.00  0.00     0.191 HD
ATOM     15  O   UNL A   1      30.453  26.605  26.942  1.00  0.00    -0.273 OA
BRANCH  13  16
ATOM     16  N   UNL A   1      30.531  23.901  25.117  1.00  0.00    -0.264 N 
ATOM     17  C   UNL A   1      30.971  23.076  26.118  1.00  0.00     0.279 C 
ATOM     18  O   UNL A   1      30.492  21.944  26.231  1.00  0.00    -0.269 OA
ATOM     19  H   UNL A   1      30.746  23.712  24.175  1.00  0.00     0.191 HD
BRANCH  17  20
ATOM     20  C   UNL A   1      32.286  23.470  26.822  1.00  0.00     0.260 C 
ATOM     21  C   UNL A   1      32.817  22.255  27.594  1.00  0.00     0.064 C 
BRANCH  20  22
ATOM     22  O   UNL A   1      33.292  24.283  26.253  1.00  0.00    -0.481 OA
BRANCH  22  23
ATOM     23  C   UNL A   1      34.218  23.853  25.356  1.00  0.00     0.120 A 
ATOM     24  C   UNL A   1      37.944  23.089  25.711  1.00  0.00     0.044 C 
ATOM     25  C   UNL A   1      36.578  23.268  25.117  1.00  0.00    -0.047 A 
ATOM     26  C   UNL A   1      36.379  23.059  23.752  1.00  0.00     0.003 A 
ATOM     27  C   UNL A   1      35.490  23.657  25.910  1.00  0.00     0.049 A 
ATOM     28  C   UNL A   1      35.115  23.237  23.194  1.00  0.00     0.004 A 
ATOM     29  C   UNL A   1      34.035  23.620  23.995  1.00  0.00     0.046 A 
ENDBRANCH  22  23
ENDBRANCH  20  22
ENDBRANCH  17  20
ENDBRANCH  13  16
ENDBRANCH   6  12
ENDBRANCH   3   5
ENDBRANCH   2   3
ENDBRANCH   1   2
BRANCH   1  30
ATOM     30  C   UNL A   1      33.931  31.617  27.692  1.00  0.00     0.275 C 
BRANCH  30  31
ATOM     31  O   UNL A   1      35.305  31.189  27.758  1.00  0.00    -0.458 OA
BRANCH  31  32
ATOM     32  C   UNL A   1      35.994  30.848  28.897  1.00  0.00     0.338 C 
ATOM     33  O   UNL A   1      35.612  31.207  29.978  1.00  0.00    -0.246 OA
BRANCH  32  34
ATOM     34  C   UNL A   1      37.040  29.810  28.706  1.00  0.00     0.060 A 
ATOM     35  C   UNL A   1      37.871  29.956  27.599  1.00  0.00     0.016 A 
ATOM     36  C   UNL A   1      37.369  28.925  29.721  1.00  0.00     0.016 A 
ATOM     37  C   UNL A   1      39.147  29.398  27.622  1.00  0.00     0.010 A 
ATOM     38  C   UNL A   1      38.672  28.478  29.807  1.00  0.00     0.010 A 
ATOM     39  C   UNL A   1      39.583  28.743  28.774  1.00  0.00    -0.014 A 
BRANCH  39  40
ATOM     40  C   UNL A   1      40.828  27.984  28.846  1.00  0.00     0.031 A 
ATOM     41  C   UNL A   1      40.977  26.564  28.447  1.00  0.00     0.074 A 
ATOM     42  C   UNL A   1      41.857  28.743  29.274  1.00  0.00     0.049 A 
ATOM     43  N   UNL A   1      41.832  25.738  28.952  1.00  0.00    -0.248 NA
ATOM     44  C   UNL A   1      40.137  25.924  27.440  1.00  0.00     0.031 C 
ATOM     45  C   UNL A   1      43.273  28.453  29.342  1.00  0.00     0.029 A 
ATOM     46  N   UNL A   1      41.748  29.959  29.958  1.00  0.00    -0.354 N 
ATOM     47  C   UNL A   1      41.877  24.626  28.122  1.00  0.00     0.074 A 
ATOM     48  C   UNL A   1      40.686  24.707  27.322  1.00  0.00     0.031 C 
ATOM     49  C   UNL A   1      43.799  29.231  30.311  1.00  0.00     0.029 A 
ATOM     50  C   UNL A   1      42.680  29.888  30.985  1.00  0.00     0.049 A 
ATOM     51  H   UNL A   1      41.139  30.705  29.756  1.00  0.00     0.167 HD
ATOM     52  C   UNL A   1      43.024  23.887  28.036  1.00  0.00     0.034 A 
ATOM     53  C   UNL A   1      42.277  29.684  32.280  1.00  0.00     0.034 A 
ATOM     54  C   UNL A   1      44.032  24.436  28.930  1.00  0.00     0.049 A 
ATOM     55  C   UNL A   1      42.845  28.390  32.841  1.00  0.00     0.074 A 
ATOM     56  C   UNL A   1      45.074  25.329  28.741  1.00  0.00     0.029 A 
ATOM     57  N   UNL A   1      43.813  24.372  30.289  1.00  0.00    -0.354 N 
ATOM     58  N   UNL A   1      43.297  27.408  32.106  1.00  0.00    -0.248 NA
ATOM     59  C   UNL A   1      42.901  28.080  34.265  1.00  0.00     0.031 C 
ATOM     60  C   UNL A   1      45.427  25.857  30.016  1.00  0.00     0.029 A 
ATOM     61  C   UNL A   1      44.626  25.255  30.968  1.00  0.00     0.049 A 
ATOM     62  H   UNL A   1      43.161  23.773  30.720  1.00  0.00     0.167 HD
ATOM     63  C   UNL A   1      43.799  26.419  32.906  1.00  0.00     0.074 A 
ATOM     64  C   UNL A   1      43.443  26.849  34.249  1.00  0.00     0.031 C 
ATOM     65  C   UNL A   1      44.484  25.342  32.409  1.00  0.00     0.034 A 
BRANCH  52  66
ATOM     66  C   UNL A   1      43.371  22.894  26.943  1.00  0.00     0.023 A 
ATOM     67  C   UNL A   1      42.795  21.603  26.992  1.00  0.00     0.031 A 
ATOM     68  C   UNL A   1      44.242  23.118  25.861  1.00  0.00     0.131 A 
ATOM     69  C   UNL A   1      43.147  20.589  26.084  1.00  0.00     0.055 A 
ATOM     70  C   UNL A   1      44.614  22.100  24.961  1.00  0.00     0.041 A 
ATOM     71  F   UNL A   1      44.739  24.338  25.604  1.00  0.00    -0.206 F 
ATOM     72  C   UNL A   1      44.078  20.822  25.080  1.00  0.00     0.022 A 
BRANCH  69  73
ATOM     73  S   UNL A   1      42.380  18.951  26.257  1.00  0.00     0.124 S 
ATOM     74  O   UNL A   1      41.028  19.189  25.762  1.00  0.00    -0.237 OA
ATOM     75  O   UNL A   1      43.235  18.118  25.420  1.00  0.00    -0.237 OA
ATOM     76  O   UNL A   1      42.472  18.682  27.691  1.00  0.00    -0.744 OA
ENDBRANCH  69  73
ENDBRANCH  52  66
BRANCH  53  77
ATOM     77  C   UNL A   1      40.935  30.266  32.656  1.00  0.00     0.023 A 
ATOM     78  C   UNL A   1      40.722  31.644  32.418  1.00  0.00     0.031 A 
ATOM     79  C   UNL A   1      39.799  29.493  32.943  1.00  0.00     0.131 A 
ATOM     80  C   UNL A   1      39.425  32.157  32.261  1.00  0.00     0.055 A 
ATOM     81  C   UNL A   1      38.503  30.038  32.899  1.00  0.00     0.041 A 
ATOM     82  F   UNL A   1      39.899  28.175  33.163  1.00  0.00    -0.206 F 
ATOM     83  C   UNL A   1      38.308  31.364  32.512  1.00  0.00     0.022 A 
BRANCH  80  84
ATOM     84  S   UNL A   1      39.243  33.752  31.394  1.00  0.00     0.124 S 
ATOM     85  O   UNL A   1      40.612  34.035  30.985  1.00  0.00    -0.237 OA
ATOM     86  O   UNL A   1      38.309  33.411  30.323  1.00  0.00    -0.237 OA
ATOM     87  O   UNL A   1      38.690  34.635  32.414  1.00  0.00    -0.744 OA
ENDBRANCH  80  84
ENDBRANCH  53  77
BRANCH  65  88
ATOM     88  C   UNL A   1      45.086  24.247  33.252  1.00  0.00     0.023 A 
ATOM     89  C   UNL A   1      46.405  24.315  33.707  1.00  0.00     0.031 A 
ATOM     90  C   UNL A   1      44.375  23.069  33.591  1.00  0.00     0.131 A 
ATOM     91  C   UNL A   1      46.911  23.349  34.587  1.00  0.00     0.055 A 
ATOM     92  C   UNL A   1      44.915  22.059  34.389  1.00  0.00     0.041 A 
ATOM     93  F   UNL A   1      43.115  22.849  33.192  1.00  0.00    -0.206 F 
ATOM     94  C   UNL A   1      46.182  22.211  34.923  1.00  0.00     0.022 A 
BRANCH  91  95
ATOM     95  S   UNL A   1      48.511  23.678  35.358  1.00  0.00     0.124 S 
ATOM     96  O   UNL A   1      48.228  23.471  36.774  1.00  0.00    -0.237 OA
ATOM     97  O   UNL A   1      49.353  22.665  34.727  1.00  0.00    -0.237 OA
ATOM     98  O   UNL A   1      48.801  25.057  34.971  1.00  0.00    -0.744 OA
ENDBRANCH  91  95
ENDBRANCH  65  88
ENDBRANCH  39  40
ENDBRANCH  32  34
ENDBRANCH  31  32
ENDBRANCH  30  31
ENDBRANCH   1  30
TORSDOF 19
ENDMDL
MODEL 2
REMARK VINA RESULT:     -12.9      1.844      2.646
REMARK SMILES Cc1cccc(O[C@H](C)C(=O)NNC(=O)[C@H]2[C@@H]3CC[C@@H](C3)[C@@H]2C(=O)OCCOC(=O)c2ccc(-c3c4nc(c(-c5cc(S(=O)(=O)[O-])ccc5F)c5ccc([nH]5)c(-c5cc(S(=O)(=O)[O-])ccc5F)c5nc(c(-c6cc(S(=O)(=O)[O-])ccc6F)c6ccc3[nH]6)C=C5)C=C4)cc2)c1
REMARK SMILES IDX 26 1 25 2 23 3 24 4 22 5 16 6 17 7 18 8 21 9 20 10 19 11
REMARK SMILES IDX 14 12 13 13 15 15 12 16 10 17 11 18 8 20 9 21 7 22 6 23 1 24
REMARK SMILES IDX 2 25 3 26 94 27 4 28 5 29 27 30 28 31 29 32 30 33 31 34
REMARK SMILES IDX 32 35 93 36 33 37 92 38 34 39 35 40 36 41 86 42 37 43 91 44
REMARK SMILES IDX 85 45 87 46 38 47 90 48 84 49 83 50 39 52 71 53 51 54 70 55
REMARK SMILES IDX 52 56 55 57 69 58 88 59 53 60 54 61 68 63 89 64 56 65 40 66
REMARK SMILES IDX 41 67 49 68 42 69 48 70 50 71 47 72 43 73 44 74 45 75 46 76
REMARK SMILES IDX 72 77 73 78 81 79 74 80 80 81 82 82 79 83 75 84 76 85 77 86
REMARK SMILES IDX 78 87 57 88 58 89 66 90 59 91 65 92 67 93 64 94 60 95 61 96
REMARK SMILES IDX 62 97 63 98
REMARK H PARENT 13 14 12 19 87 51 55 62
REMARK Flexibility Score: inf
ROOT
ATOM      1  C   UNL A   1      34.181  28.960  26.245  1.00  0.00     0.274 C 
ENDROOT
BRANCH   1   2
ATOM      2  O   UNL A   1      33.921  27.536  26.235  1.00  0.00    -0.462 OA
BRANCH   2   3
ATOM      3  C   UNL A   1      33.643  27.064  24.981  1.00  0.00     0.310 C 
ATOM      4  O   UNL A   1      33.742  27.762  23.974  1.00  0.00    -0.252 OA
BRANCH   3   5
ATOM      5  C   UNL A   1      32.935  25.722  24.900  1.00  0.00     0.115 C 
ATOM      6  C   UNL A   1      32.840  24.867  23.640  1.00  0.00     0.098 C 
ATOM      7  C   UNL A   1      31.631  23.932  23.959  1.00  0.00     0.003 C 
ATOM      8  C   UNL A   1      30.364  24.686  23.538  1.00  0.00     0.005 C 
ATOM      9  C   UNL A   1      31.484  24.001  25.489  1.00  0.00     0.009 C 
ATOM     10  C   UNL A   1      31.519  25.537  25.516  1.00  0.00     0.004 C 
ATOM     11  C   UNL A   1      30.318  25.822  24.581  1.00  0.00     0.005 C 
BRANCH   6  12
ATOM     12  C   UNL A   1      34.050  24.088  23.171  1.00  0.00     0.242 C 
ATOM     13  N   UNL A   1      35.235  24.303  23.820  1.00  0.00    -0.267 N 
ATOM     14  H   UNL A   1      35.965  24.808  23.395  1.00  0.00     0.191 HD
ATOM     15  O   UNL A   1      33.994  23.326  22.207  1.00  0.00    -0.273 OA
BRANCH  13  16
ATOM     16  N   UNL A   1      35.373  23.771  25.131  1.00  0.00    -0.264 N 
ATOM     17  C   UNL A   1      36.471  22.999  25.406  1.00  0.00     0.279 C 
ATOM     18  O   UNL A   1      37.349  23.432  26.157  1.00  0.00    -0.269 OA
ATOM     19  H   UNL A   1      34.697  23.952  25.823  1.00  0.00     0.191 HD
BRANCH  17  20
ATOM     20  C   UNL A   1      36.379  21.500  25.051  1.00  0.00     0.260 C 
ATOM     21  C   UNL A   1      37.798  20.923  24.964  1.00  0.00     0.064 C 
BRANCH  20  22
ATOM     22  O   UNL A   1      35.419  20.606  25.575  1.00  0.00    -0.481 OA
BRANCH  22  23
ATOM     23  C   UNL A   1      34.405  20.054  24.859  1.00  0.00     0.120 A 
ATOM     24  C   UNL A   1      33.886  16.529  23.480  1.00  0.00     0.044 C 
ATOM     25  C   UNL A   1      33.668  17.978  23.802  1.00  0.00    -0.047 A 
ATOM     26  C   UNL A   1      32.538  18.637  23.314  1.00  0.00     0.003 A 
ATOM     27  C   UNL A   1      34.589  18.693  24.578  1.00  0.00     0.049 A 
ATOM     28  C   UNL A   1      32.338  19.985  23.599  1.00  0.00     0.004 A 
ATOM     29  C   UNL A   1      33.262  20.688  24.380  1.00  0.00     0.046 A 
ENDBRANCH  22  23
ENDBRANCH  20  22
ENDBRANCH  17  20
ENDBRANCH  13  16
ENDBRANCH   6  12
ENDBRANCH   3   5
ENDBRANCH   2   3
ENDBRANCH   1   2
BRANCH   1  30
ATOM     30  C   UNL A   1      34.032  29.733  27.576  1.00  0.00     0.275 C 
BRANCH  30  31
ATOM     31  O   UNL A   1      34.989  30.768  27.872  1.00  0.00    -0.458 OA
BRANCH  31  32
ATOM     32  C   UNL A   1      35.944  30.731  28.858  1.00  0.00     0.338 C 
ATOM     33  O   UNL A   1      35.786  31.325  29.890  1.00  0.00    -0.246 OA
BRANCH  32  34
ATOM     34  C   UNL A   1      37.008  29.714  28.658  1.00  0.00     0.060 A 
ATOM     35  C   UNL A   1      37.877  29.918  27.591  1.00  0.00     0.016 A 
ATOM     36  C   UNL A   1      37.309  28.786  29.644  1.00  0.00     0.016 A 
ATOM     37  C   UNL A   1      39.158  29.372  27.636  1.00  0.00     0.010 A 
ATOM     38  C   UNL A   1      38.614  28.348  29.758  1.00  0.00     0.010 A 
ATOM     39  C   UNL A   1      39.559  28.669  28.772  1.00  0.00    -0.014 A 
BRANCH  39  40
ATOM     40  C   UNL A   1      40.808  27.919  28.855  1.00  0.00     0.031 A 
ATOM     41  C   UNL A   1      40.973  26.501  28.454  1.00  0.00     0.074 A 
ATOM     42  C   UNL A   1      41.827  28.685  29.296  1.00  0.00     0.049 A 
ATOM     43  N   UNL A   1      41.829  25.681  28.966  1.00  0.00    -0.248 NA
ATOM     44  C   UNL A   1      40.148  25.858  27.437  1.00  0.00     0.031 C 
ATOM     45  C   UNL A   1      43.244  28.405  29.379  1.00  0.00     0.029 A 
ATOM     46  N   UNL A   1      41.701  29.898  29.982  1.00  0.00    -0.354 N 
ATOM     47  C   UNL A   1      41.891  24.571  28.134  1.00  0.00     0.074 A 
ATOM     48  C   UNL A   1      40.708  24.645  27.322  1.00  0.00     0.031 C 
ATOM     49  C   UNL A   1      43.755  29.185  30.355  1.00  0.00     0.029 A 
ATOM     50  C   UNL A   1      42.624  29.831  31.018  1.00  0.00     0.049 A 
ATOM     51  H   UNL A   1      41.089  30.640  29.775  1.00  0.00     0.167 HD
ATOM     52  C   UNL A   1      43.044  23.841  28.058  1.00  0.00     0.034 A 
ATOM     53  C   UNL A   1      42.208  29.621  32.309  1.00  0.00     0.034 A 
ATOM     54  C   UNL A   1      44.039  24.396  28.964  1.00  0.00     0.049 A 
ATOM     55  C   UNL A   1      42.780  28.330  32.873  1.00  0.00     0.074 A 
ATOM     56  C   UNL A   1      45.075  25.297  28.788  1.00  0.00     0.029 A 
ATOM     57  N   UNL A   1      43.805  24.326  30.321  1.00  0.00    -0.354 N 
ATOM     58  N   UNL A   1      43.247  27.353  32.139  1.00  0.00    -0.248 NA
ATOM     59  C   UNL A   1      42.823  28.016  34.296  1.00  0.00     0.031 C 
ATOM     60  C   UNL A   1      45.412  25.825  30.068  1.00  0.00     0.029 A 
ATOM     61  C   UNL A   1      44.604  25.214  31.010  1.00  0.00     0.049 A 
ATOM     62  H   UNL A   1      43.154  23.721  30.743  1.00  0.00     0.167 HD
ATOM     63  C   UNL A   1      43.748  26.366  32.942  1.00  0.00     0.074 A 
ATOM     64  C   UNL A   1      43.375  26.790  34.283  1.00  0.00     0.031 C 
ATOM     65  C   UNL A   1      44.447  25.296  32.450  1.00  0.00     0.034 A 
BRANCH  52  66
ATOM     66  C   UNL A   1      43.411  22.853  26.966  1.00  0.00     0.023 A 
ATOM     67  C   UNL A   1      42.826  21.566  26.993  1.00  0.00     0.031 A 
ATOM     68  C   UNL A   1      44.308  23.080  25.905  1.00  0.00     0.131 A 
ATOM     69  C   UNL A   1      43.193  20.556  26.086  1.00  0.00     0.055 A 
ATOM     70  C   UNL A   1      44.694  22.066  25.008  1.00  0.00     0.041 A 
ATOM     71  F   UNL A   1      44.817  24.298  25.669  1.00  0.00    -0.206 F 
ATOM     72  C   UNL A   1      44.148  20.791  25.105  1.00  0.00     0.022 A 
BRANCH  69  73
ATOM     73  S   UNL A   1      42.413  18.922  26.230  1.00  0.00     0.124 S 
ATOM     74  O   UNL A   1      41.063  19.180  25.741  1.00  0.00    -0.237 OA
ATOM     75  O   UNL A   1      43.261  18.097  25.377  1.00  0.00    -0.237 OA
ATOM     76  O   UNL A   1      42.503  18.626  27.659  1.00  0.00    -0.744 OA
ENDBRANCH  69  73
ENDBRANCH  52  66
BRANCH  53  77
ATOM     77  C   UNL A   1      40.858  30.192  32.672  1.00  0.00     0.023 A 
ATOM     78  C   UNL A   1      40.671  31.587  32.532  1.00  0.00     0.031 A 
ATOM     79  C   UNL A   1      39.702  29.416  32.850  1.00  0.00     0.131 A 
ATOM     80  C   UNL A   1      39.387  32.129  32.361  1.00  0.00     0.055 A 
ATOM     81  C   UNL A   1      38.415  29.980  32.794  1.00  0.00     0.041 A 
ATOM     82  F   UNL A   1      39.778  28.083  32.972  1.00  0.00    -0.206 F 
ATOM     83  C   UNL A   1      38.251  31.336  32.504  1.00  0.00     0.022 A 
BRANCH  80  84
ATOM     84  S   UNL A   1      39.260  33.788  31.614  1.00  0.00     0.124 S 
ATOM     85  O   UNL A   1      38.024  33.685  30.849  1.00  0.00    -0.237 OA
ATOM     86  O   UNL A   1      39.218  34.651  32.792  1.00  0.00    -0.237 OA
ATOM     87  O   UNL A   1      40.483  33.904  30.828  1.00  0.00    -0.744 OA
ENDBRANCH  80  84
ENDBRANCH  53  77
BRANCH  65  88
ATOM     88  C   UNL A   1      45.048  24.203  33.296  1.00  0.00     0.023 A 
ATOM     89  C   UNL A   1      46.403  24.202  33.636  1.00  0.00     0.031 A 
ATOM     90  C   UNL A   1      44.296  23.093  33.755  1.00  0.00     0.131 A 
ATOM     91  C   UNL A   1      46.921  23.247  34.521  1.00  0.00     0.055 A 
ATOM     92  C   UNL A   1      44.837  22.088  34.557  1.00  0.00     0.041 A 
ATOM     93  F   UNL A   1      42.994  22.941  33.474  1.00  0.00    -0.206 F 
ATOM     94  C   UNL A   1      46.152  22.179  34.975  1.00  0.00     0.022 A 
BRANCH  91  95
ATOM     95  S   UNL A   1      48.599  23.502  35.138  1.00  0.00     0.124 S 
ATOM     96  O   UNL A   1      49.180  24.373  34.121  1.00  0.00    -0.237 OA
ATOM     97  O   UNL A   1      48.342  24.128  36.433  1.00  0.00    -0.237 OA
ATOM     98  O   UNL A   1      49.152  22.152  35.197  1.00  0.00    -0.744 OA
ENDBRANCH  91  95
ENDBRANCH  65  88
ENDBRANCH  39  40
ENDBRANCH  32  34
ENDBRANCH  31  32
ENDBRANCH  30  31
ENDBRANCH   1  30
TORSDOF 19
ENDMDL
MODEL 3
REMARK VINA RESULT:     -12.7      2.509      2.976
REMARK SMILES Cc1cccc(O[C@H](C)C(=O)NNC(=O)[C@H]2[C@@H]3CC[C@@H](C3)[C@@H]2C(=O)OCCOC(=O)c2ccc(-c3c4nc(c(-c5cc(S(=O)(=O)[O-])ccc5F)c5ccc([nH]5)c(-c5cc(S(=O)(=O)[O-])ccc5F)c5nc(c(-c6cc(S(=O)(=O)[O-])ccc6F)c6ccc3[nH]6)C=C5)C=C4)cc2)c1
REMARK SMILES IDX 26 1 25 2 23 3 24 4 22 5 16 6 17 7 18 8 21 9 20 10 19 11
REMARK SMILES IDX 14 12 13 13 15 15 12 16 10 17 11 18 8 20 9 21 7 22 6 23 1 24
REMARK SMILES IDX 2 25 3 26 94 27 4 28 5 29 27 30 28 31 29 32 30 33 31 34
REMARK SMILES IDX 32 35 93 36 33 37 92 38 34 39 35 40 36 41 86 42 37 43 91 44
REMARK SMILES IDX 85 45 87 46 38 47 90 48 84 49 83 50 39 52 71 53 51 54 70 55
REMARK SMILES IDX 52 56 55 57 69 58 88 59 53 60 54 61 68 63 89 64 56 65 40 66
REMARK SMILES IDX 41 67 49 68 42 69 48 70 50 71 47 72 43 73 44 74 45 75 46 76
REMARK SMILES IDX 72 77 73 78 81 79 74 80 80 81 82 82 79 83 75 84 76 85 77 86
REMARK SMILES IDX 78 87 57 88 58 89 66 90 59 91 65 92 67 93 64 94 60 95 61 96
REMARK SMILES IDX 62 97 63 98
REMARK H PARENT 13 14 12 19 87 51 55 62
REMARK Flexibility Score: inf
ROOT
ATOM      1  C   UNL A   1      32.676  30.338  26.885  1.00  0.00     0.274 C 
ENDROOT
BRANCH   1   2
ATOM      2  O   UNL A   1      33.226  29.770  25.672  1.00  0.00    -0.462 OA
BRANCH   2   3
ATOM      3  C   UNL A   1      33.195  28.402  25.675  1.00  0.00     0.310 C 
ATOM      4  O   UNL A   1      34.045  27.721  26.245  1.00  0.00    -0.252 OA
BRANCH   3   5
ATOM      5  C   UNL A   1      32.226  27.741  24.709  1.00  0.00     0.115 C 
ATOM      6  C   UNL A   1      32.507  27.505  23.228  1.00  0.00     0.098 C 
ATOM      7  C   UNL A   1      31.073  27.307  22.643  1.00  0.00     0.003 C 
ATOM      8  C   UNL A   1      30.531  28.702  22.314  1.00  0.00     0.005 C 
ATOM      9  C   UNL A   1      30.202  26.966  23.864  1.00  0.00     0.009 C 
ATOM     10  C   UNL A   1      30.727  28.153  24.687  1.00  0.00     0.004 C 
ATOM     11  C   UNL A   1      30.342  29.303  23.722  1.00  0.00     0.005 C 
BRANCH   6  12
ATOM     12  C   UNL A   1      33.446  26.395  22.812  1.00  0.00     0.242 C 
ATOM     13  N   UNL A   1      33.922  25.564  23.789  1.00  0.00    -0.267 N 
ATOM     14  H   UNL A   1      34.856  25.619  24.096  1.00  0.00     0.191 HD
ATOM     15  O   UNL A   1      33.819  26.266  21.646  1.00  0.00    -0.273 OA
BRANCH  13  16
ATOM     16  N   UNL A   1      33.018  24.620  24.348  1.00  0.00    -0.264 N 
ATOM     17  C   UNL A   1      33.192  24.249  25.655  1.00  0.00     0.279 C 
ATOM     18  O   UNL A   1      32.373  24.608  26.505  1.00  0.00    -0.269 OA
ATOM     19  H   UNL A   1      32.287  24.241  23.808  1.00  0.00     0.191 HD
BRANCH  17  20
ATOM     20  C   UNL A   1      34.198  23.113  25.933  1.00  0.00     0.260 C 
ATOM     21  C   UNL A   1      33.864  22.476  27.288  1.00  0.00     0.064 C 
BRANCH  20  22
ATOM     22  O   UNL A   1      34.671  22.202  24.962  1.00  0.00    -0.481 OA
BRANCH  22  23
ATOM     23  C   UNL A   1      33.995  21.102  24.541  1.00  0.00     0.120 A 
ATOM     24  C   UNL A   1      34.850  17.380  24.670  1.00  0.00     0.044 C 
ATOM     25  C   UNL A   1      34.125  18.666  24.400  1.00  0.00    -0.047 A 
ATOM     26  C   UNL A   1      32.910  18.648  23.714  1.00  0.00     0.003 A 
ATOM     27  C   UNL A   1      34.653  19.896  24.814  1.00  0.00     0.049 A 
ATOM     28  C   UNL A   1      32.240  19.841  23.449  1.00  0.00     0.004 A 
ATOM     29  C   UNL A   1      32.774  21.062  23.872  1.00  0.00     0.046 A 
ENDBRANCH  22  23
ENDBRANCH  20  22
ENDBRANCH  17  20
ENDBRANCH  13  16
ENDBRANCH   6  12
ENDBRANCH   3   5
ENDBRANCH   2   3
ENDBRANCH   1   2
BRANCH   1  30
ATOM     30  C   UNL A   1      33.478  31.439  27.618  1.00  0.00     0.275 C 
BRANCH  30  31
ATOM     31  O   UNL A   1      34.915  31.339  27.632  1.00  0.00    -0.458 OA
BRANCH  31  32
ATOM     32  C   UNL A   1      35.700  31.109  28.735  1.00  0.00     0.338 C 
ATOM     33  O   UNL A   1      35.429  31.602  29.797  1.00  0.00    -0.246 OA
BRANCH  32  34
ATOM     34  C   UNL A   1      36.702  30.024  28.573  1.00  0.00     0.060 A 
ATOM     35  C   UNL A   1      37.338  29.940  27.339  1.00  0.00     0.016 A 
ATOM     36  C   UNL A   1      37.195  29.332  29.669  1.00  0.00     0.016 A 
ATOM     37  C   UNL A   1      38.602  29.359  27.258  1.00  0.00     0.010 A 
ATOM     38  C   UNL A   1      38.496  28.871  29.623  1.00  0.00     0.010 A 
ATOM     39  C   UNL A   1      39.223  28.915  28.425  1.00  0.00    -0.014 A 
BRANCH  39  40
ATOM     40  C   UNL A   1      40.464  28.145  28.433  1.00  0.00     0.031 A 
ATOM     41  C   UNL A   1      40.542  26.665  28.422  1.00  0.00     0.074 A 
ATOM     42  C   UNL A   1      41.551  28.943  28.399  1.00  0.00     0.049 A 
ATOM     43  N   UNL A   1      41.500  25.970  28.939  1.00  0.00    -0.248 NA
ATOM     44  C   UNL A   1      39.510  25.815  27.841  1.00  0.00     0.031 C 
ATOM     45  C   UNL A   1      42.951  28.616  28.237  1.00  0.00     0.029 A 
ATOM     46  N   UNL A   1      41.578  30.303  28.725  1.00  0.00    -0.354 N 
ATOM     47  C   UNL A   1      41.376  24.672  28.463  1.00  0.00     0.074 A 
ATOM     48  C   UNL A   1      40.037  24.587  27.950  1.00  0.00     0.031 C 
ATOM     49  C   UNL A   1      43.668  29.603  28.813  1.00  0.00     0.029 A 
ATOM     50  C   UNL A   1      42.716  30.472  29.503  1.00  0.00     0.049 A 
ATOM     51  H   UNL A   1      40.929  30.994  28.461  1.00  0.00     0.167 HD
ATOM     52  C   UNL A   1      42.486  23.883  28.339  1.00  0.00     0.034 A 
ATOM     53  C   UNL A   1      42.613  30.652  30.860  1.00  0.00     0.034 A 
ATOM     54  C   UNL A   1      43.660  24.609  28.804  1.00  0.00     0.049 A 
ATOM     55  C   UNL A   1      43.310  29.535  31.622  1.00  0.00     0.074 A 
ATOM     56  C   UNL A   1      44.620  25.364  28.153  1.00  0.00     0.029 A 
ATOM     57  N   UNL A   1      43.748  24.930  30.142  1.00  0.00    -0.354 N 
ATOM     58  N   UNL A   1      43.602  28.369  31.108  1.00  0.00    -0.248 NA
ATOM     59  C   UNL A   1      43.685  29.626  33.028  1.00  0.00     0.031 C 
ATOM     60  C   UNL A   1      45.240  26.205  29.122  1.00  0.00     0.029 A 
ATOM     61  C   UNL A   1      44.678  25.926  30.354  1.00  0.00     0.049 A 
ATOM     62  H   UNL A   1      43.216  24.504  30.853  1.00  0.00     0.167 HD
ATOM     63  C   UNL A   1      44.284  27.614  32.023  1.00  0.00     0.074 A 
ATOM     64  C   UNL A   1      44.227  28.414  33.238  1.00  0.00     0.031 C 
ATOM     65  C   UNL A   1      44.857  26.411  31.710  1.00  0.00     0.034 A 
BRANCH  52  66
ATOM     66  C   UNL A   1      42.598  22.613  27.517  1.00  0.00     0.023 A 
ATOM     67  C   UNL A   1      43.642  22.510  26.568  1.00  0.00     0.031 A 
ATOM     68  C   UNL A   1      41.741  21.499  27.586  1.00  0.00     0.131 A 
ATOM     69  C   UNL A   1      43.752  21.417  25.689  1.00  0.00     0.055 A 
ATOM     70  C   UNL A   1      41.835  20.413  26.695  1.00  0.00     0.041 A 
ATOM     71  F   UNL A   1      40.804  21.396  28.540  1.00  0.00    -0.206 F 
ATOM     72  C   UNL A   1      42.835  20.375  25.729  1.00  0.00     0.022 A 
BRANCH  69  73
ATOM     73  S   UNL A   1      45.107  21.398  24.480  1.00  0.00     0.124 S 
ATOM     74  O   UNL A   1      44.847  20.166  23.743  1.00  0.00    -0.237 OA
ATOM     75  O   UNL A   1      44.890  22.644  23.751  1.00  0.00    -0.237 OA
ATOM     76  O   UNL A   1      46.308  21.375  25.313  1.00  0.00    -0.744 OA
ENDBRANCH  69  73
ENDBRANCH  52  66
BRANCH  53  77
ATOM     77  C   UNL A   1      41.379  31.378  31.341  1.00  0.00     0.023 A 
ATOM     78  C   UNL A   1      40.397  30.627  32.030  1.00  0.00     0.031 A 
ATOM     79  C   UNL A   1      41.272  32.775  31.416  1.00  0.00     0.131 A 
ATOM     80  C   UNL A   1      39.504  31.250  32.916  1.00  0.00     0.055 A 
ATOM     81  C   UNL A   1      40.299  33.401  32.216  1.00  0.00     0.041 A 
ATOM     82  F   UNL A   1      42.167  33.569  30.812  1.00  0.00    -0.206 F 
ATOM     83  C   UNL A   1      39.438  32.638  33.007  1.00  0.00     0.022 A 
BRANCH  80  84
ATOM     84  S   UNL A   1      38.697  30.208  34.177  1.00  0.00     0.124 S 
ATOM     85  O   UNL A   1      39.835  29.732  34.953  1.00  0.00    -0.237 OA
ATOM     86  O   UNL A   1      37.818  31.164  34.846  1.00  0.00    -0.237 OA
ATOM     87  O   UNL A   1      37.999  29.198  33.391  1.00  0.00    -0.744 OA
ENDBRANCH  80  84
ENDBRANCH  53  77
BRANCH  65  88
ATOM     88  C   UNL A   1      45.647  25.562  32.673  1.00  0.00     0.023 A 
ATOM     89  C   UNL A   1      45.017  24.740  33.610  1.00  0.00     0.031 A 
ATOM     90  C   UNL A   1      47.063  25.582  32.721  1.00  0.00     0.131 A 
ATOM     91  C   UNL A   1      45.762  23.869  34.416  1.00  0.00     0.055 A 
ATOM     92  C   UNL A   1      47.804  24.784  33.593  1.00  0.00     0.041 A 
ATOM     93  F   UNL A   1      47.800  26.351  31.908  1.00  0.00    -0.206 F 
ATOM     94  C   UNL A   1      47.154  23.892  34.427  1.00  0.00     0.022 A 
BRANCH  91  95
ATOM     95  S   UNL A   1      44.854  22.636  35.373  1.00  0.00     0.124 S 
ATOM     96  O   UNL A   1      43.527  23.232  35.480  1.00  0.00    -0.237 OA
ATOM     97  O   UNL A   1      44.952  21.463  34.507  1.00  0.00    -0.237 OA
ATOM     98  O   UNL A   1      45.605  22.550  36.623  1.00  0.00    -0.744 OA
ENDBRANCH  91  95
ENDBRANCH  65  88
ENDBRANCH  39  40
ENDBRANCH  32  34
ENDBRANCH  31  32
ENDBRANCH  30  31
ENDBRANCH   1  30
TORSDOF 19
ENDMDL
