MODEL 1
REMARK VINA RESULT:     -12.0      0.000      0.000
REMARK SMILES O=Cc1c(OCc2ccc(C(=O)OCCOC(=O)c3ccc(-c4c5nc(c(-c6cc(S(=O)(=O)[O-])ccc6F)c6ccc([nH]6)c(-c6cc(S(=O)(=O)[O-])ccc6F)c6nc(c(-c7cc(S(=O)(=O)[O-])ccc7F)c7ccc4[nH]7)C=C6)C=C5)cc3)cc2)ccc2ccccc12
REMARK SMILES IDX 14 1 13 2 11 3 12 4 10 5 7 6 8 7 83 8 9 9 82 10 6 11 5 12
REMARK SMILES IDX 4 13 3 14 91 15 84 16 86 17 90 18 85 19 87 20 89 21 88 22
REMARK SMILES IDX 2 23 1 24 15 25 16 26 17 27 18 28 19 29 20 30 81 31 21 32
REMARK SMILES IDX 80 33 22 34 23 35 24 36 74 37 25 38 79 39 73 40 75 41 26 42
REMARK SMILES IDX 78 43 72 44 71 45 27 47 59 48 39 49 58 50 40 51 43 52 57 53
REMARK SMILES IDX 76 54 41 55 42 56 56 58 77 59 44 60 28 61 29 62 37 63 30 64
REMARK SMILES IDX 36 65 38 66 35 67 31 68 32 69 33 70 34 71 60 72 61 73 69 74
REMARK SMILES IDX 62 75 68 76 70 77 67 78 63 79 64 80 65 81 66 82 45 83 46 84
REMARK SMILES IDX 54 85 47 86 53 87 55 88 52 89 48 90 49 91 50 92 51 93
REMARK H PARENT 75 46 43 57
REMARK Flexibility Score: inf
ROOT
ATOM      1  C   UNL A   1      36.483  19.333  25.014  1.00  0.00     0.275 C 
ENDROOT
BRANCH   1   2
ATOM      2  O   UNL A   1      35.289  19.956  24.503  1.00  0.00    -0.458 OA
BRANCH   2   3
ATOM      3  C   UNL A   1      34.764  20.963  25.248  1.00  0.00     0.338 C 
ATOM      4  O   UNL A   1      34.823  21.064  26.464  1.00  0.00    -0.246 OA
BRANCH   3   5
ATOM      5  C   UNL A   1      34.136  21.991  24.378  1.00  0.00     0.060 A 
ATOM      6  C   UNL A   1      32.950  24.007  22.783  1.00  0.00    -0.011 A 
ATOM      7  C   UNL A   1      34.263  24.147  23.244  1.00  0.00     0.008 A 
ATOM      8  C   UNL A   1      32.267  22.819  23.098  1.00  0.00     0.008 A 
ATOM      9  C   UNL A   1      34.842  23.157  24.047  1.00  0.00     0.016 A 
ATOM     10  C   UNL A   1      32.841  21.828  23.897  1.00  0.00     0.016 A 
BRANCH   6  11
ATOM     11  C   UNL A   1      32.295  25.124  21.984  1.00  0.00     0.265 C 
BRANCH  11  12
ATOM     12  O   UNL A   1      31.021  25.559  22.497  1.00  0.00    -0.488 OA
BRANCH  12  13
ATOM     13  C   UNL A   1      30.973  26.236  23.687  1.00  0.00     0.130 A 
ATOM     14  C   UNL A   1      31.104  27.636  23.671  1.00  0.00     0.064 A 
ATOM     15  C   UNL A   1      31.328  28.379  24.868  1.00  0.00    -0.004 A 
ATOM     16  C   UNL A   1      30.862  25.602  24.919  1.00  0.00     0.048 A 
ATOM     17  C   UNL A   1      31.425  27.656  26.081  1.00  0.00    -0.017 A 
ATOM     18  C   UNL A   1      31.462  29.788  24.947  1.00  0.00     0.009 A 
ATOM     19  C   UNL A   1      31.149  26.287  26.096  1.00  0.00     0.012 A 
ATOM     20  C   UNL A   1      31.765  28.308  27.276  1.00  0.00     0.009 A 
ATOM     21  C   UNL A   1      31.758  30.432  26.153  1.00  0.00     0.001 A 
ATOM     22  C   UNL A   1      31.941  29.688  27.311  1.00  0.00     0.001 A 
BRANCH  14  23
ATOM     23  C   UNL A   1      31.029  28.355  22.381  1.00  0.00     0.264 C 
ATOM     24  O   UNL A   1      29.969  28.735  21.899  1.00  0.00    -0.298 OA
ENDBRANCH  14  23
ENDBRANCH  12  13
ENDBRANCH  11  12
ENDBRANCH   6  11
ENDBRANCH   3   5
ENDBRANCH   2   3
ENDBRANCH   1   2
BRANCH   1  25
ATOM     25  C   UNL A   1      37.731  20.143  24.661  1.00  0.00     0.275 C 
BRANCH  25  26
ATOM     26  O   UNL A   1      38.028  21.108  25.686  1.00  0.00    -0.458 OA
BRANCH  26  27
ATOM     27  C   UNL A   1      39.288  21.040  26.174  1.00  0.00     0.338 C 
ATOM     28  O   UNL A   1      40.049  20.089  26.123  1.00  0.00    -0.246 OA
BRANCH  27  29
ATOM     29  C   UNL A   1      39.694  22.344  26.712  1.00  0.00     0.060 A 
ATOM     30  C   UNL A   1      39.028  23.469  26.239  1.00  0.00     0.016 A 
ATOM     31  C   UNL A   1      40.828  22.486  27.503  1.00  0.00     0.016 A 
ATOM     32  C   UNL A   1      39.553  24.738  26.442  1.00  0.00     0.010 A 
ATOM     33  C   UNL A   1      41.288  23.774  27.810  1.00  0.00     0.010 A 
ATOM     34  C   UNL A   1      40.682  24.916  27.248  1.00  0.00    -0.014 A 
BRANCH  34  35
ATOM     35  C   UNL A   1      41.251  26.281  27.461  1.00  0.00     0.031 A 
ATOM     36  C   UNL A   1      42.597  26.633  26.880  1.00  0.00     0.074 A 
ATOM     37  C   UNL A   1      40.565  27.211  28.159  1.00  0.00     0.049 A 
ATOM     38  N   UNL A   1      43.371  27.657  27.134  1.00  0.00    -0.248 NA
ATOM     39  C   UNL A   1      43.155  25.689  25.900  1.00  0.00     0.031 C 
ATOM     40  C   UNL A   1      39.220  27.040  28.712  1.00  0.00     0.029 A 
ATOM     41  N   UNL A   1      40.906  28.492  28.524  1.00  0.00    -0.354 N 
ATOM     42  C   UNL A   1      44.532  27.451  26.395  1.00  0.00     0.074 A 
ATOM     43  C   UNL A   1      44.365  26.192  25.700  1.00  0.00     0.031 C 
ATOM     44  C   UNL A   1      38.836  28.176  29.310  1.00  0.00     0.029 A 
ATOM     45  C   UNL A   1      39.950  29.115  29.297  1.00  0.00     0.049 A 
ATOM     46  H   UNL A   1      41.750  28.922  28.261  1.00  0.00     0.167 HD
ATOM     47  C   UNL A   1      45.633  28.241  26.309  1.00  0.00     0.034 A 
ATOM     48  C   UNL A   1      39.984  30.277  29.978  1.00  0.00     0.034 A 
ATOM     49  C   UNL A   1      45.757  29.512  26.984  1.00  0.00     0.049 A 
ATOM     50  C   UNL A   1      41.246  31.098  29.942  1.00  0.00     0.074 A 
ATOM     51  C   UNL A   1      46.818  30.400  26.964  1.00  0.00     0.029 A 
ATOM     52  N   UNL A   1      44.782  30.080  27.799  1.00  0.00    -0.354 N 
ATOM     53  N   UNL A   1      42.368  30.858  29.303  1.00  0.00    -0.248 NA
ATOM     54  C   UNL A   1      41.251  32.337  30.726  1.00  0.00     0.031 C 
ATOM     55  C   UNL A   1      46.519  31.462  27.825  1.00  0.00     0.029 A 
ATOM     56  C   UNL A   1      45.233  31.288  28.310  1.00  0.00     0.049 A 
ATOM     57  H   UNL A   1      43.901  29.683  27.985  1.00  0.00     0.167 HD
ATOM     58  C   UNL A   1      43.201  31.936  29.584  1.00  0.00     0.074 A 
ATOM     59  C   UNL A   1      42.447  32.830  30.440  1.00  0.00     0.031 C 
ATOM     60  C   UNL A   1      44.473  32.169  29.168  1.00  0.00     0.034 A 
BRANCH  47  61
ATOM     61  C   UNL A   1      46.810  27.718  25.516  1.00  0.00     0.023 A 
ATOM     62  C   UNL A   1      47.077  28.135  24.201  1.00  0.00     0.031 A 
ATOM     63  C   UNL A   1      47.662  26.747  26.079  1.00  0.00     0.131 A 
ATOM     64  C   UNL A   1      48.109  27.526  23.467  1.00  0.00     0.055 A 
ATOM     65  C   UNL A   1      48.744  26.213  25.375  1.00  0.00     0.041 A 
ATOM     66  F   UNL A   1      47.449  26.288  27.322  1.00  0.00    -0.206 F 
ATOM     67  C   UNL A   1      48.961  26.589  24.054  1.00  0.00     0.022 A 
BRANCH  64  68
ATOM     68  S   UNL A   1      48.212  27.851  21.685  1.00  0.00     0.124 S 
ATOM     69  O   UNL A   1      46.869  28.350  21.398  1.00  0.00    -0.237 OA
ATOM     70  O   UNL A   1      49.289  28.831  21.604  1.00  0.00    -0.237 OA
ATOM     71  O   UNL A   1      48.516  26.541  21.114  1.00  0.00    -0.744 OA
ENDBRANCH  64  68
ENDBRANCH  47  61
BRANCH  48  72
ATOM     72  C   UNL A   1      38.820  30.695  30.815  1.00  0.00     0.023 A 
ATOM     73  C   UNL A   1      37.696  31.307  30.239  1.00  0.00     0.031 A 
ATOM     74  C   UNL A   1      38.827  30.516  32.212  1.00  0.00     0.131 A 
ATOM     75  C   UNL A   1      36.645  31.750  31.057  1.00  0.00     0.055 A 
ATOM     76  C   UNL A   1      37.750  30.896  33.013  1.00  0.00     0.041 A 
ATOM     77  F   UNL A   1      39.879  29.943  32.818  1.00  0.00    -0.206 F 
ATOM     78  C   UNL A   1      36.655  31.530  32.436  1.00  0.00     0.022 A 
BRANCH  75  79
ATOM     79  S   UNL A   1      35.301  32.703  30.302  1.00  0.00     0.124 S 
ATOM     80  O   UNL A   1      35.990  33.926  29.907  1.00  0.00    -0.237 OA
ATOM     81  O   UNL A   1      34.879  31.825  29.215  1.00  0.00    -0.237 OA
ATOM     82  O   UNL A   1      34.336  32.853  31.389  1.00  0.00    -0.744 OA
ENDBRANCH  75  79
ENDBRANCH  48  72
BRANCH  60  83
ATOM     83  C   UNL A   1      45.100  33.478  29.580  1.00  0.00     0.023 A 
ATOM     84  C   UNL A   1      44.985  34.640  28.798  1.00  0.00     0.031 A 
ATOM     85  C   UNL A   1      45.836  33.557  30.776  1.00  0.00     0.131 A 
ATOM     86  C   UNL A   1      45.642  35.815  29.192  1.00  0.00     0.055 A 
ATOM     87  C   UNL A   1      46.431  34.745  31.197  1.00  0.00     0.041 A 
ATOM     88  F   UNL A   1      45.985  32.475  31.559  1.00  0.00    -0.206 F 
ATOM     89  C   UNL A   1      46.347  35.880  30.397  1.00  0.00     0.022 A 
BRANCH  86  90
ATOM     90  S   UNL A   1      45.649  37.233  28.061  1.00  0.00     0.124 S 
ATOM     91  O   UNL A   1      46.947  37.838  28.344  1.00  0.00    -0.237 OA
ATOM     92  O   UNL A   1      45.516  36.593  26.756  1.00  0.00    -0.237 OA
ATOM     93  O   UNL A   1      44.493  38.018  28.486  1.00  0.00    -0.744 OA
ENDBRANCH  86  90
ENDBRANCH  60  83
ENDBRANCH  34  35
ENDBRANCH  27  29
ENDBRANCH  26  27
ENDBRANCH  25  26
ENDBRANCH   1  25
TORSDOF 18
ENDMDL
MODEL 2
REMARK VINA RESULT:     -12.0      6.221     13.637
REMARK SMILES O=Cc1c(OCc2ccc(C(=O)OCCOC(=O)c3ccc(-c4c5nc(c(-c6cc(S(=O)(=O)[O-])ccc6F)c6ccc([nH]6)c(-c6cc(S(=O)(=O)[O-])ccc6F)c6nc(c(-c7cc(S(=O)(=O)[O-])ccc7F)c7ccc4[nH]7)C=C6)C=C5)cc3)cc2)ccc2ccccc12
REMARK SMILES IDX 14 1 13 2 11 3 12 4 10 5 7 6 8 7 83 8 9 9 82 10 6 11 5 12
REMARK SMILES IDX 4 13 3 14 91 15 84 16 86 17 90 18 85 19 87 20 89 21 88 22
REMARK SMILES IDX 2 23 1 24 15 25 16 26 17 27 18 28 19 29 20 30 81 31 21 32
REMARK SMILES IDX 80 33 22 34 23 35 24 36 74 37 25 38 79 39 73 40 75 41 26 42
REMARK SMILES IDX 78 43 72 44 71 45 27 47 59 48 39 49 58 50 40 51 43 52 57 53
REMARK SMILES IDX 76 54 41 55 42 56 56 58 77 59 44 60 28 61 29 62 37 63 30 64
REMARK SMILES IDX 36 65 38 66 35 67 31 68 32 69 33 70 34 71 60 72 61 73 69 74
REMARK SMILES IDX 62 75 68 76 70 77 67 78 63 79 64 80 65 81 66 82 45 83 46 84
REMARK SMILES IDX 54 85 47 86 53 87 55 88 52 89 48 90 49 91 50 92 51 93
REMARK H PARENT 75 46 43 57
REMARK Flexibility Score: inf
ROOT
ATOM      1  C   UNL A   1      45.804  39.661  26.119  1.00  0.00     0.275 C 
ENDROOT
BRANCH   1   2
ATOM      2  O   UNL A   1      45.766  41.064  26.447  1.00  0.00    -0.458 OA
BRANCH   2   3
ATOM      3  C   UNL A   1      44.553  41.578  26.773  1.00  0.00     0.338 C 
ATOM      4  O   UNL A   1      44.130  41.762  27.905  1.00  0.00    -0.246 OA
BRANCH   3   5
ATOM      5  C   UNL A   1      43.794  41.957  25.552  1.00  0.00     0.060 A 
ATOM      6  C   UNL A   1      42.347  42.595  23.205  1.00  0.00    -0.011 A 
ATOM      7  C   UNL A   1      41.809  41.722  24.155  1.00  0.00     0.008 A 
ATOM      8  C   UNL A   1      43.598  43.175  23.481  1.00  0.00     0.008 A 
ATOM      9  C   UNL A   1      42.533  41.393  25.307  1.00  0.00     0.016 A 
ATOM     10  C   UNL A   1      44.324  42.852  24.629  1.00  0.00     0.016 A 
BRANCH   6  11
ATOM     11  C   UNL A   1      41.595  42.882  21.913  1.00  0.00     0.265 C 
BRANCH  11  12
ATOM     12  O   UNL A   1      42.355  42.643  20.713  1.00  0.00    -0.488 OA
BRANCH  12  13
ATOM     13  C   UNL A   1      42.244  43.515  19.663  1.00  0.00     0.130 A 
ATOM     14  C   UNL A   1      43.396  44.191  19.225  1.00  0.00     0.064 A 
ATOM     15  C   UNL A   1      43.317  45.297  18.327  1.00  0.00    -0.004 A 
ATOM     16  C   UNL A   1      41.035  43.813  19.047  1.00  0.00     0.048 A 
ATOM     17  C   UNL A   1      42.032  45.702  17.896  1.00  0.00    -0.017 A 
ATOM     18  C   UNL A   1      44.423  46.029  17.826  1.00  0.00     0.009 A 
ATOM     19  C   UNL A   1      40.914  44.931  18.226  1.00  0.00     0.012 A 
ATOM     20  C   UNL A   1      41.871  46.855  17.112  1.00  0.00     0.009 A 
ATOM     21  C   UNL A   1      44.252  47.152  17.008  1.00  0.00     0.001 A 
ATOM     22  C   UNL A   1      42.974  47.583  16.679  1.00  0.00     0.001 A 
BRANCH  14  23
ATOM     23  C   UNL A   1      44.721  43.761  19.721  1.00  0.00     0.264 C 
ATOM     24  O   UNL A   1      45.258  44.273  20.696  1.00  0.00    -0.298 OA
ENDBRANCH  14  23
ENDBRANCH  12  13
ENDBRANCH  11  12
ENDBRANCH   6  11
ENDBRANCH   3   5
ENDBRANCH   2   3
ENDBRANCH   1   2
BRANCH   1  25
ATOM     25  C   UNL A   1      46.384  38.835  27.268  1.00  0.00     0.275 C 
BRANCH  25  26
ATOM     26  O   UNL A   1      45.419  37.889  27.762  1.00  0.00    -0.458 OA
BRANCH  26  27
ATOM     27  C   UNL A   1      45.792  37.245  28.893  1.00  0.00     0.338 C 
ATOM     28  O   UNL A   1      46.158  37.748  29.941  1.00  0.00    -0.246 OA
BRANCH  27  29
ATOM     29  C   UNL A   1      45.601  35.798  28.738  1.00  0.00     0.060 A 
ATOM     30  C   UNL A   1      44.901  35.360  27.620  1.00  0.00     0.016 A 
ATOM     31  C   UNL A   1      45.917  34.907  29.757  1.00  0.00     0.016 A 
ATOM     32  C   UNL A   1      44.402  34.065  27.563  1.00  0.00     0.010 A 
ATOM     33  C   UNL A   1      45.517  33.569  29.641  1.00  0.00     0.010 A 
ATOM     34  C   UNL A   1      44.718  33.140  28.563  1.00  0.00    -0.014 A 
BRANCH  34  35
ATOM     35  C   UNL A   1      44.175  31.749  28.505  1.00  0.00     0.031 A 
ATOM     36  C   UNL A   1      44.944  30.672  27.782  1.00  0.00     0.074 A 
ATOM     37  C   UNL A   1      43.006  31.441  29.105  1.00  0.00     0.049 A 
ATOM     38  N   UNL A   1      44.556  29.478  27.413  1.00  0.00    -0.248 NA
ATOM     39  C   UNL A   1      46.328  30.995  27.406  1.00  0.00     0.031 C 
ATOM     40  C   UNL A   1      42.192  32.359  29.905  1.00  0.00     0.029 A 
ATOM     41  N   UNL A   1      42.294  30.265  29.137  1.00  0.00    -0.354 N 
ATOM     42  C   UNL A   1      45.624  28.931  26.706  1.00  0.00     0.074 A 
ATOM     43  C   UNL A   1      46.666  29.936  26.684  1.00  0.00     0.031 C 
ATOM     44  C   UNL A   1      41.120  31.708  30.376  1.00  0.00     0.029 A 
ATOM     45  C   UNL A   1      41.098  30.365  29.812  1.00  0.00     0.049 A 
ATOM     46  H   UNL A   1      42.608  29.433  28.716  1.00  0.00     0.167 HD
ATOM     47  C   UNL A   1      45.718  27.705  26.131  1.00  0.00     0.034 A 
ATOM     48  C   UNL A   1      40.066  29.505  29.914  1.00  0.00     0.034 A 
ATOM     49  C   UNL A   1      44.676  26.708  26.201  1.00  0.00     0.049 A 
ATOM     50  C   UNL A   1      40.153  28.184  29.196  1.00  0.00     0.074 A 
ATOM     51  C   UNL A   1      44.665  25.432  25.665  1.00  0.00     0.029 A 
ATOM     52  N   UNL A   1      43.459  26.872  26.855  1.00  0.00    -0.354 N 
ATOM     53  N   UNL A   1      41.135  27.706  28.466  1.00  0.00    -0.248 NA
ATOM     54  C   UNL A   1      38.993  27.295  29.306  1.00  0.00     0.031 C 
ATOM     55  C   UNL A   1      43.416  24.857  25.925  1.00  0.00     0.029 A 
ATOM     56  C   UNL A   1      42.680  25.734  26.705  1.00  0.00     0.049 A 
ATOM     57  H   UNL A   1      43.189  27.679  27.351  1.00  0.00     0.167 HD
ATOM     58  C   UNL A   1      40.719  26.444  28.055  1.00  0.00     0.074 A 
ATOM     59  C   UNL A   1      39.405  26.233  28.630  1.00  0.00     0.031 C 
ATOM     60  C   UNL A   1      41.368  25.538  27.279  1.00  0.00     0.034 A 
BRANCH  47  61
ATOM     61  C   UNL A   1      46.959  27.408  25.318  1.00  0.00     0.023 A 
ATOM     62  C   UNL A   1      47.132  27.883  24.006  1.00  0.00     0.031 A 
ATOM     63  C   UNL A   1      47.976  26.596  25.857  1.00  0.00     0.131 A 
ATOM     64  C   UNL A   1      48.245  27.475  23.252  1.00  0.00     0.055 A 
ATOM     65  C   UNL A   1      49.126  26.270  25.134  1.00  0.00     0.041 A 
ATOM     66  F   UNL A   1      47.863  26.090  27.095  1.00  0.00    -0.206 F 
ATOM     67  C   UNL A   1      49.256  26.694  23.817  1.00  0.00     0.022 A 
BRANCH  64  68
ATOM     68  S   UNL A   1      48.266  27.837  21.475  1.00  0.00     0.124 S 
ATOM     69  O   UNL A   1      46.896  28.292  21.249  1.00  0.00    -0.237 OA
ATOM     70  O   UNL A   1      49.304  28.855  21.371  1.00  0.00    -0.237 OA
ATOM     71  O   UNL A   1      48.593  26.548  20.866  1.00  0.00    -0.744 OA
ENDBRANCH  64  68
ENDBRANCH  47  61
BRANCH  48  72
ATOM     72  C   UNL A   1      38.831  29.894  30.659  1.00  0.00     0.023 A 
ATOM     73  C   UNL A   1      37.870  30.737  30.080  1.00  0.00     0.031 A 
ATOM     74  C   UNL A   1      38.607  29.450  31.977  1.00  0.00     0.131 A 
ATOM     75  C   UNL A   1      36.752  31.139  30.827  1.00  0.00     0.055 A 
ATOM     76  C   UNL A   1      37.460  29.798  32.691  1.00  0.00     0.041 A 
ATOM     77  F   UNL A   1      39.496  28.648  32.584  1.00  0.00    -0.206 F 
ATOM     78  C   UNL A   1      36.530  30.659  32.120  1.00  0.00     0.022 A 
BRANCH  75  79
ATOM     79  S   UNL A   1      35.634  32.377  30.116  1.00  0.00     0.124 S 
ATOM     80  O   UNL A   1      36.455  33.580  30.163  1.00  0.00    -0.237 OA
ATOM     81  O   UNL A   1      35.376  31.827  28.789  1.00  0.00    -0.237 OA
ATOM     82  O   UNL A   1      34.490  32.365  31.025  1.00  0.00    -0.744 OA
ENDBRANCH  75  79
ENDBRANCH  48  72
BRANCH  60  83
ATOM     83  C   UNL A   1      40.689  24.207  27.065  1.00  0.00     0.023 A 
ATOM     84  C   UNL A   1      39.511  24.085  26.308  1.00  0.00     0.031 A 
ATOM     85  C   UNL A   1      41.228  23.044  27.641  1.00  0.00     0.131 A 
ATOM     86  C   UNL A   1      38.881  22.836  26.194  1.00  0.00     0.055 A 
ATOM     87  C   UNL A   1      40.636  21.794  27.468  1.00  0.00     0.041 A 
ATOM     88  F   UNL A   1      42.349  23.104  28.380  1.00  0.00    -0.206 F 
ATOM     89  C   UNL A   1      39.447  21.687  26.752  1.00  0.00     0.022 A 
BRANCH  86  90
ATOM     90  S   UNL A   1      37.257  22.747  25.392  1.00  0.00     0.124 S 
ATOM     91  O   UNL A   1      37.450  23.601  24.223  1.00  0.00    -0.237 OA
ATOM     92  O   UNL A   1      37.120  21.320  25.121  1.00  0.00    -0.237 OA
ATOM     93  O   UNL A   1      36.345  23.276  26.403  1.00  0.00    -0.744 OA
ENDBRANCH  86  90
ENDBRANCH  60  83
ENDBRANCH  34  35
ENDBRANCH  27  29
ENDBRANCH  26  27
ENDBRANCH  25  26
ENDBRANCH   1  25
TORSDOF 18
ENDMDL
MODEL 3
REMARK VINA RESULT:     -12.0      4.777      7.126
REMARK SMILES O=Cc1c(OCc2ccc(C(=O)OCCOC(=O)c3ccc(-c4c5nc(c(-c6cc(S(=O)(=O)[O-])ccc6F)c6ccc([nH]6)c(-c6cc(S(=O)(=O)[O-])ccc6F)c6nc(c(-c7cc(S(=O)(=O)[O-])ccc7F)c7ccc4[nH]7)C=C6)C=C5)cc3)cc2)ccc2ccccc12
REMARK SMILES IDX 14 1 13 2 11 3 12 4 10 5 7 6 8 7 83 8 9 9 82 10 6 11 5 12
REMARK SMILES IDX 4 13 3 14 91 15 84 16 86 17 90 18 85 19 87 20 89 21 88 22
REMARK SMILES IDX 2 23 1 24 15 25 16 26 17 27 18 28 19 29 20 30 81 31 21 32
REMARK SMILES IDX 80 33 22 34 23 35 24 36 74 37 25 38 79 39 73 40 75 41 26 42
REMARK SMILES IDX 78 43 72 44 71 45 27 47 59 48 39 49 58 50 40 51 43 52 57 53
REMARK SMILES IDX 76 54 41 55 42 56 56 58 77 59 44 60 28 61 29 62 37 63 30 64
REMARK SMILES IDX 36 65 38 66 35 67 31 68 32 69 33 70 34 71 60 72 61 73 69 74
REMARK SMILES IDX 62 75 68 76 70 77 67 78 63 79 64 80 65 81 66 82 45 83 46 84
REMARK SMILES IDX 54 85 47 86 53 87 55 88 52 89 48 90 49 91 50 92 51 93
REMARK H PARENT 75 46 43 57
REMARK Flexibility Score: inf
ROOT
ATOM      1  C   UNL A   1      41.905  20.062  26.271  1.00  0.00     0.275 C 
ENDROOT
BRANCH   1   2
ATOM      2  O   UNL A   1      40.643  20.674  26.599  1.00  0.00    -0.458 OA
BRANCH   2   3
ATOM      3  C   UNL A   1      39.573  20.295  25.854  1.00  0.00     0.338 C 
ATOM      4  O   UNL A   1      39.419  19.208  25.317  1.00  0.00    -0.246 OA
BRANCH   3   5
ATOM      5  C   UNL A   1      38.550  21.372  25.811  1.00  0.00     0.060 A 
ATOM      6  C   UNL A   1      36.595  23.412  25.646  1.00  0.00    -0.011 A 
ATOM      7  C   UNL A   1      36.290  22.103  25.262  1.00  0.00     0.008 A 
ATOM      8  C   UNL A   1      37.880  23.662  26.158  1.00  0.00     0.008 A 
ATOM      9  C   UNL A   1      37.263  21.099  25.327  1.00  0.00     0.016 A 
ATOM     10  C   UNL A   1      38.854  22.664  26.227  1.00  0.00     0.016 A 
BRANCH   6  11
ATOM     11  C   UNL A   1      35.562  24.518  25.491  1.00  0.00     0.265 C 
BRANCH  11  12
ATOM     12  O   UNL A   1      34.470  24.198  24.608  1.00  0.00    -0.488 OA
BRANCH  12  13
ATOM     13  C   UNL A   1      33.555  25.167  24.293  1.00  0.00     0.130 A 
ATOM     14  C   UNL A   1      32.258  25.067  24.826  1.00  0.00     0.064 A 
ATOM     15  C   UNL A   1      31.187  25.875  24.341  1.00  0.00    -0.004 A 
ATOM     16  C   UNL A   1      33.826  26.214  23.420  1.00  0.00     0.048 A 
ATOM     17  C   UNL A   1      31.471  26.781  23.292  1.00  0.00    -0.017 A 
ATOM     18  C   UNL A   1      29.854  25.850  24.825  1.00  0.00     0.009 A 
ATOM     19  C   UNL A   1      32.791  26.969  22.876  1.00  0.00     0.012 A 
ATOM     20  C   UNL A   1      30.441  27.518  22.686  1.00  0.00     0.009 A 
ATOM     21  C   UNL A   1      28.844  26.622  24.241  1.00  0.00     0.001 A 
ATOM     22  C   UNL A   1      29.133  27.431  23.150  1.00  0.00     0.001 A 
BRANCH  14  23
ATOM     23  C   UNL A   1      31.990  24.087  25.900  1.00  0.00     0.264 C 
ATOM     24  O   UNL A   1      31.591  24.418  27.010  1.00  0.00    -0.298 OA
ENDBRANCH  14  23
ENDBRANCH  12  13
ENDBRANCH  11  12
ENDBRANCH   6  11
ENDBRANCH   3   5
ENDBRANCH   2   3
ENDBRANCH   1   2
BRANCH   1  25
ATOM     25  C   UNL A   1      42.935  21.105  25.834  1.00  0.00     0.275 C 
BRANCH  25  26
ATOM     26  O   UNL A   1      42.292  22.253  25.251  1.00  0.00    -0.458 OA
BRANCH  26  27
ATOM     27  C   UNL A   1      43.047  23.376  25.245  1.00  0.00     0.338 C 
ATOM     28  O   UNL A   1      44.044  23.591  24.578  1.00  0.00    -0.246 OA
BRANCH  27  29
ATOM     29  C   UNL A   1      42.439  24.398  26.105  1.00  0.00     0.060 A 
ATOM     30  C   UNL A   1      42.865  25.711  25.941  1.00  0.00     0.016 A 
ATOM     31  C   UNL A   1      41.626  24.058  27.180  1.00  0.00     0.016 A 
ATOM     32  C   UNL A   1      42.591  26.669  26.908  1.00  0.00     0.010 A 
ATOM     33  C   UNL A   1      41.249  25.053  28.092  1.00  0.00     0.010 A 
ATOM     34  C   UNL A   1      41.762  26.363  27.992  1.00  0.00    -0.014 A 
BRANCH  34  35
ATOM     35  C   UNL A   1      41.473  27.391  29.037  1.00  0.00     0.031 A 
ATOM     36  C   UNL A   1      42.322  27.455  30.282  1.00  0.00     0.074 A 
ATOM     37  C   UNL A   1      40.467  28.275  28.873  1.00  0.00     0.049 A 
ATOM     38  N   UNL A   1      42.109  28.097  31.401  1.00  0.00    -0.248 NA
ATOM     39  C   UNL A   1      43.564  26.668  30.270  1.00  0.00     0.031 C 
ATOM     40  C   UNL A   1      39.615  28.384  27.687  1.00  0.00     0.029 A 
ATOM     41  N   UNL A   1      39.988  29.257  29.708  1.00  0.00    -0.354 N 
ATOM     42  C   UNL A   1      43.155  27.745  32.249  1.00  0.00     0.074 A 
ATOM     43  C   UNL A   1      43.988  26.815  31.517  1.00  0.00     0.031 C 
ATOM     44  C   UNL A   1      38.748  29.392  27.853  1.00  0.00     0.029 A 
ATOM     45  C   UNL A   1      38.893  29.922  29.203  1.00  0.00     0.049 A 
ATOM     46  H   UNL A   1      40.388  29.463  30.583  1.00  0.00     0.167 HD
ATOM     47  C   UNL A   1      43.391  28.160  33.520  1.00  0.00     0.034 A 
ATOM     48  C   UNL A   1      38.053  30.806  29.776  1.00  0.00     0.034 A 
ATOM     49  C   UNL A   1      42.563  29.119  34.213  1.00  0.00     0.049 A 
ATOM     50  C   UNL A   1      38.281  31.189  31.215  1.00  0.00     0.074 A 
ATOM     51  C   UNL A   1      42.709  29.620  35.496  1.00  0.00     0.029 A 
ATOM     52  N   UNL A   1      41.432  29.729  33.679  1.00  0.00    -0.354 N 
ATOM     53  N   UNL A   1      39.228  30.791  32.034  1.00  0.00    -0.248 NA
ATOM     54  C   UNL A   1      37.323  32.127  31.808  1.00  0.00     0.031 C 
ATOM     55  C   UNL A   1      41.628  30.467  35.764  1.00  0.00     0.029 A 
ATOM     56  C   UNL A   1      40.857  30.573  34.618  1.00  0.00     0.049 A 
ATOM     57  H   UNL A   1      41.090  29.583  32.768  1.00  0.00     0.167 HD
ATOM     58  C   UNL A   1      38.995  31.459  33.232  1.00  0.00     0.074 A 
ATOM     59  C   UNL A   1      37.826  32.291  33.022  1.00  0.00     0.031 C 
ATOM     60  C   UNL A   1      39.688  31.394  34.398  1.00  0.00     0.034 A 
BRANCH  47  61
ATOM     61  C   UNL A   1      44.547  27.525  34.261  1.00  0.00     0.023 A 
ATOM     62  C   UNL A   1      44.387  26.395  35.081  1.00  0.00     0.031 A 
ATOM     63  C   UNL A   1      45.835  28.091  34.173  1.00  0.00     0.131 A 
ATOM     64  C   UNL A   1      45.468  25.920  35.842  1.00  0.00     0.055 A 
ATOM     65  C   UNL A   1      46.927  27.557  34.861  1.00  0.00     0.041 A 
ATOM     66  F   UNL A   1      46.052  29.185  33.427  1.00  0.00    -0.206 F 
ATOM     67  C   UNL A   1      46.743  26.477  35.717  1.00  0.00     0.022 A 
BRANCH  64  68
ATOM     68  S   UNL A   1      45.144  24.679  37.125  1.00  0.00     0.124 S 
ATOM     69  O   UNL A   1      43.880  25.153  37.683  1.00  0.00    -0.237 OA
ATOM     70  O   UNL A   1      45.080  23.441  36.358  1.00  0.00    -0.237 OA
ATOM     71  O   UNL A   1      46.295  24.801  38.019  1.00  0.00    -0.744 OA
ENDBRANCH  64  68
ENDBRANCH  47  61
BRANCH  48  72
ATOM     72  C   UNL A   1      36.878  31.330  29.019  1.00  0.00     0.023 A 
ATOM     73  C   UNL A   1      35.847  30.475  28.598  1.00  0.00     0.031 A 
ATOM     74  C   UNL A   1      36.781  32.693  28.678  1.00  0.00     0.131 A 
ATOM     75  C   UNL A   1      34.788  30.984  27.831  1.00  0.00     0.055 A 
ATOM     76  C   UNL A   1      35.691  33.205  27.974  1.00  0.00     0.041 A 
ATOM     77  F   UNL A   1      37.741  33.556  29.048  1.00  0.00    -0.206 F 
ATOM     78  C   UNL A   1      34.691  32.345  27.534  1.00  0.00     0.022 A 
BRANCH  75  79
ATOM     79  S   UNL A   1      33.578  29.820  27.144  1.00  0.00     0.124 S 
ATOM     80  O   UNL A   1      33.770  28.655  27.999  1.00  0.00    -0.237 OA
ATOM     81  O   UNL A   1      32.324  30.546  27.321  1.00  0.00    -0.237 OA
ATOM     82  O   UNL A   1      34.010  29.657  25.758  1.00  0.00    -0.744 OA
ENDBRANCH  75  79
ENDBRANCH  48  72
BRANCH  60  83
ATOM     83  C   UNL A   1      39.235  32.303  35.515  1.00  0.00     0.023 A 
ATOM     84  C   UNL A   1      39.695  33.626  35.633  1.00  0.00     0.031 A 
ATOM     85  C   UNL A   1      38.335  31.827  36.485  1.00  0.00     0.131 A 
ATOM     86  C   UNL A   1      39.296  34.408  36.726  1.00  0.00     0.055 A 
ATOM     87  C   UNL A   1      37.889  32.631  37.532  1.00  0.00     0.041 A 
ATOM     88  F   UNL A   1      37.869  30.568  36.425  1.00  0.00    -0.206 F 
ATOM     89  C   UNL A   1      38.380  33.926  37.666  1.00  0.00     0.022 A 
BRANCH  86  90
ATOM     90  S   UNL A   1      40.066  36.033  36.965  1.00  0.00     0.124 S 
ATOM     91  O   UNL A   1      39.378  36.521  38.157  1.00  0.00    -0.237 OA
ATOM     92  O   UNL A   1      41.473  35.689  37.138  1.00  0.00    -0.237 OA
ATOM     93  O   UNL A   1      39.751  36.747  35.730  1.00  0.00    -0.744 OA
ENDBRANCH  86  90
ENDBRANCH  60  83
ENDBRANCH  34  35
ENDBRANCH  27  29
ENDBRANCH  26  27
ENDBRANCH  25  26
ENDBRANCH   1  25
TORSDOF 18
ENDMDL
