MODEL 1
REMARK VINA RESULT:     -12.8      0.000      0.000
REMARK SMILES Cc1c(NCc2ccccn2)cccc1C(=O)N1CCOC[C@@H]1CC(=O)OCCOC(=O)c1ccc(-c2c3nc(c(-c4cc(S(=O)(=O)[O-])ccc4F)c4ccc([nH]4)c(-c4cc(S(=O)(=O)[O-])ccc4F)c4nc(c(-c5cc(S(=O)(=O)[O-])ccc5F)c5ccc2[nH]5)C=C4)C=C3)cc1
REMARK SMILES IDX 27 1 25 2 26 3 24 4 23 5 18 6 19 7 20 8 22 9 21 10 16 11
REMARK SMILES IDX 17 12 15 13 1 14 2 15 3 16 12 17 14 18 13 19 4 20 5 22 6 23
REMARK SMILES IDX 7 24 11 25 8 26 10 27 9 28 28 29 29 30 30 31 31 32 32 33
REMARK SMILES IDX 33 34 34 35 95 36 35 37 94 38 36 39 37 40 38 41 88 42 39 43
REMARK SMILES IDX 93 44 87 45 89 46 40 47 92 48 86 49 85 50 41 52 73 53 53 54
REMARK SMILES IDX 72 55 54 56 57 57 71 58 90 59 55 60 56 61 70 63 91 64 58 65
REMARK SMILES IDX 42 66 43 67 51 68 44 69 50 70 52 71 49 72 45 73 46 74 47 75
REMARK SMILES IDX 48 76 74 77 75 78 83 79 76 80 82 81 84 82 81 83 77 84 78 85
REMARK SMILES IDX 79 86 80 87 59 88 60 89 68 90 61 91 67 92 69 93 66 94 62 95
REMARK SMILES IDX 63 96 64 97 65 98
REMARK H PARENT 4 21 89 51 57 62
REMARK Flexibility Score: inf
ROOT
ATOM      1  O   UNL A   1      32.701  30.252  27.253  1.00  0.00    -0.462 OA
ENDROOT
BRANCH   1   2
ATOM      2  C   UNL A   1      32.156  29.012  27.188  1.00  0.00     0.308 C 
ATOM      3  O   UNL A   1      31.318  28.588  27.954  1.00  0.00    -0.252 OA
BRANCH   2   4
ATOM      4  C   UNL A   1      32.726  28.206  26.046  1.00  0.00     0.150 C 
BRANCH   4   5
ATOM      5  C   UNL A   1      31.747  27.956  24.904  1.00  0.00     0.122 C 
ATOM      6  N   UNL A   1      31.503  26.533  24.579  1.00  0.00    -0.330 N 
ATOM      7  C   UNL A   1      30.526  26.372  23.507  1.00  0.00     0.148 C 
ATOM      8  C   UNL A   1      30.921  27.198  22.276  1.00  0.00     0.181 C 
ATOM      9  C   UNL A   1      32.140  28.721  23.614  1.00  0.00     0.185 C 
ATOM     10  O   UNL A   1      31.107  28.579  22.617  1.00  0.00    -0.377 OA
BRANCH   6  11
ATOM     11  C   UNL A   1      31.521  25.569  25.580  1.00  0.00     0.254 C 
ATOM     12  O   UNL A   1      30.761  25.651  26.541  1.00  0.00    -0.269 OA
BRANCH  11  13
ATOM     13  C   UNL A   1      32.619  24.511  25.530  1.00  0.00     0.045 A 
ATOM     14  C   UNL A   1      31.072  22.471  25.464  1.00  0.00     0.047 C 
ATOM     15  C   UNL A   1      32.446  23.096  25.466  1.00  0.00    -0.015 A 
ATOM     16  C   UNL A   1      33.586  22.245  25.296  1.00  0.00     0.038 A 
ATOM     17  C   UNL A   1      34.851  22.829  25.151  1.00  0.00     0.026 A 
ATOM     18  C   UNL A   1      33.915  25.038  25.378  1.00  0.00     0.014 A 
ATOM     19  C   UNL A   1      35.015  24.210  25.170  1.00  0.00     0.003 A 
BRANCH  16  20
ATOM     20  N   UNL A   1      33.433  20.866  25.173  1.00  0.00    -0.379 N 
ATOM     21  H   UNL A   1      32.533  20.494  25.324  1.00  0.00     0.160 HD
BRANCH  20  22
ATOM     22  C   UNL A   1      34.499  19.933  24.839  1.00  0.00     0.169 C 
BRANCH  22  23
ATOM     23  C   UNL A   1      33.988  18.503  24.782  1.00  0.00     0.059 A 
ATOM     24  C   UNL A   1      34.533  17.565  23.900  1.00  0.00     0.026 A 
ATOM     25  N   UNL A   1      32.968  18.182  25.619  1.00  0.00    -0.259 NA
ATOM     26  C   UNL A   1      34.039  16.268  23.883  1.00  0.00     0.004 A 
ATOM     27  C   UNL A   1      32.498  16.918  25.570  1.00  0.00     0.111 A 
ATOM     28  C   UNL A   1      32.996  15.936  24.731  1.00  0.00     0.020 A 
ENDBRANCH  22  23
ENDBRANCH  20  22
ENDBRANCH  16  20
ENDBRANCH  11  13
ENDBRANCH   6  11
ENDBRANCH   4   5
ENDBRANCH   2   4
ENDBRANCH   1   2
BRANCH   1  29
ATOM     29  C   UNL A   1      34.129  30.307  27.225  1.00  0.00     0.274 C 
BRANCH  29  30
ATOM     30  C   UNL A   1      34.640  31.579  27.899  1.00  0.00     0.275 C 
BRANCH  30  31
ATOM     31  O   UNL A   1      35.973  31.520  28.498  1.00  0.00    -0.458 OA
BRANCH  31  32
ATOM     32  C   UNL A   1      36.471  30.687  29.464  1.00  0.00     0.338 C 
ATOM     33  O   UNL A   1      35.985  30.666  30.591  1.00  0.00    -0.246 OA
BRANCH  32  34
ATOM     34  C   UNL A   1      37.438  29.641  29.067  1.00  0.00     0.060 A 
ATOM     35  C   UNL A   1      38.089  29.674  27.816  1.00  0.00     0.016 A 
ATOM     36  C   UNL A   1      37.867  28.769  30.033  1.00  0.00     0.016 A 
ATOM     37  C   UNL A   1      39.267  28.938  27.614  1.00  0.00     0.010 A 
ATOM     38  C   UNL A   1      39.162  28.347  29.948  1.00  0.00     0.010 A 
ATOM     39  C   UNL A   1      39.834  28.315  28.719  1.00  0.00    -0.014 A 
BRANCH  39  40
ATOM     40  C   UNL A   1      40.949  27.370  28.753  1.00  0.00     0.031 A 
ATOM     41  C   UNL A   1      40.821  25.912  28.582  1.00  0.00     0.074 A 
ATOM     42  C   UNL A   1      42.139  28.028  28.791  1.00  0.00     0.049 A 
ATOM     43  N   UNL A   1      41.767  25.098  28.888  1.00  0.00    -0.248 NA
ATOM     44  C   UNL A   1      39.660  25.207  28.046  1.00  0.00     0.031 C 
ATOM     45  C   UNL A   1      43.517  27.630  28.608  1.00  0.00     0.029 A 
ATOM     46  N   UNL A   1      42.265  29.376  29.163  1.00  0.00    -0.354 N 
ATOM     47  C   UNL A   1      41.499  23.871  28.315  1.00  0.00     0.074 A 
ATOM     48  C   UNL A   1      40.138  23.967  27.859  1.00  0.00     0.031 C 
ATOM     49  C   UNL A   1      44.304  28.565  29.194  1.00  0.00     0.029 A 
ATOM     50  C   UNL A   1      43.441  29.535  29.869  1.00  0.00     0.049 A 
ATOM     51  H   UNL A   1      41.621  30.091  28.952  1.00  0.00     0.167 HD
ATOM     52  C   UNL A   1      42.534  22.991  28.193  1.00  0.00     0.034 A 
ATOM     53  C   UNL A   1      43.233  29.739  31.206  1.00  0.00     0.034 A 
ATOM     54  C   UNL A   1      43.719  23.540  28.862  1.00  0.00     0.049 A 
ATOM     55  C   UNL A   1      43.551  28.465  31.973  1.00  0.00     0.074 A 
ATOM     56  C   UNL A   1      44.831  24.239  28.427  1.00  0.00     0.029 A 
ATOM     57  N   UNL A   1      43.641  23.763  30.225  1.00  0.00    -0.354 N 
ATOM     58  N   UNL A   1      43.868  27.329  31.411  1.00  0.00    -0.248 NA
ATOM     59  C   UNL A   1      43.496  28.363  33.425  1.00  0.00     0.031 C 
ATOM     60  C   UNL A   1      45.346  24.976  29.545  1.00  0.00     0.029 A 
ATOM     61  C   UNL A   1      44.571  24.690  30.656  1.00  0.00     0.049 A 
ATOM     62  H   UNL A   1      42.997  23.315  30.819  1.00  0.00     0.167 HD
ATOM     63  C   UNL A   1      44.084  26.372  32.354  1.00  0.00     0.074 A 
ATOM     64  C   UNL A   1      43.782  27.062  33.605  1.00  0.00     0.031 C 
ATOM     65  C   UNL A   1      44.510  25.104  32.052  1.00  0.00     0.034 A 
BRANCH  52  66
ATOM     66  C   UNL A   1      42.591  21.765  27.309  1.00  0.00     0.023 A 
ATOM     67  C   UNL A   1      43.662  21.663  26.395  1.00  0.00     0.031 A 
ATOM     68  C   UNL A   1      41.668  20.702  27.269  1.00  0.00     0.131 A 
ATOM     69  C   UNL A   1      43.759  20.611  25.468  1.00  0.00     0.055 A 
ATOM     70  C   UNL A   1      41.750  19.658  26.329  1.00  0.00     0.041 A 
ATOM     71  F   UNL A   1      40.671  20.596  28.156  1.00  0.00    -0.206 F 
ATOM     72  C   UNL A   1      42.795  19.612  25.415  1.00  0.00     0.022 A 
BRANCH  69  73
ATOM     73  S   UNL A   1      45.174  20.581  24.332  1.00  0.00     0.124 S 
ATOM     74  O   UNL A   1      44.657  19.792  23.218  1.00  0.00    -0.237 OA
ATOM     75  O   UNL A   1      45.392  21.999  24.071  1.00  0.00    -0.237 OA
ATOM     76  O   UNL A   1      46.223  19.930  25.114  1.00  0.00    -0.744 OA
ENDBRANCH  69  73
ENDBRANCH  52  66
BRANCH  53  77
ATOM     77  C   UNL A   1      42.062  30.693  31.470  1.00  0.00     0.023 A 
ATOM     78  C   UNL A   1      40.919  30.172  32.141  1.00  0.00     0.031 A 
ATOM     79  C   UNL A   1      42.161  32.093  31.421  1.00  0.00     0.131 A 
ATOM     80  C   UNL A   1      40.034  31.008  32.851  1.00  0.00     0.055 A 
ATOM     81  C   UNL A   1      41.219  32.930  32.050  1.00  0.00     0.041 A 
ATOM     82  F   UNL A   1      43.220  32.692  30.857  1.00  0.00    -0.206 F 
ATOM     83  C   UNL A   1      40.172  32.393  32.799  1.00  0.00     0.022 A 
BRANCH  80  84
ATOM     84  S   UNL A   1      38.929  30.257  34.097  1.00  0.00     0.124 S 
ATOM     85  O   UNL A   1      38.537  29.008  33.456  1.00  0.00    -0.237 OA
ATOM     86  O   UNL A   1      39.802  30.134  35.264  1.00  0.00    -0.237 OA
ATOM     87  O   UNL A   1      37.866  31.247  34.257  1.00  0.00    -0.744 OA
ENDBRANCH  80  84
ENDBRANCH  53  77
BRANCH  65  88
ATOM     88  C   UNL A   1      44.881  24.119  33.126  1.00  0.00     0.023 A 
ATOM     89  C   UNL A   1      46.127  24.207  33.751  1.00  0.00     0.031 A 
ATOM     90  C   UNL A   1      44.057  23.046  33.531  1.00  0.00     0.131 A 
ATOM     91  C   UNL A   1      46.427  23.413  34.860  1.00  0.00     0.055 A 
ATOM     92  C   UNL A   1      44.413  22.171  34.557  1.00  0.00     0.041 A 
ATOM     93  F   UNL A   1      42.858  22.808  32.984  1.00  0.00    -0.206 F 
ATOM     94  C   UNL A   1      45.588  22.379  35.260  1.00  0.00     0.022 A 
BRANCH  91  95
ATOM     95  S   UNL A   1      47.870  23.874  35.838  1.00  0.00     0.124 S 
ATOM     96  O   UNL A   1      48.089  22.691  36.664  1.00  0.00    -0.237 OA
ATOM     97  O   UNL A   1      48.866  24.107  34.793  1.00  0.00    -0.237 OA
ATOM     98  O   UNL A   1      47.429  25.066  36.556  1.00  0.00    -0.744 OA
ENDBRANCH  91  95
ENDBRANCH  65  88
ENDBRANCH  39  40
ENDBRANCH  32  34
ENDBRANCH  31  32
ENDBRANCH  30  31
ENDBRANCH  29  30
ENDBRANCH   1  29
TORSDOF 20
ENDMDL
MODEL 2
REMARK VINA RESULT:     -12.5      1.823      2.357
REMARK SMILES Cc1c(NCc2ccccn2)cccc1C(=O)N1CCOC[C@@H]1CC(=O)OCCOC(=O)c1ccc(-c2c3nc(c(-c4cc(S(=O)(=O)[O-])ccc4F)c4ccc([nH]4)c(-c4cc(S(=O)(=O)[O-])ccc4F)c4nc(c(-c5cc(S(=O)(=O)[O-])ccc5F)c5ccc2[nH]5)C=C4)C=C3)cc1
REMARK SMILES IDX 27 1 25 2 26 3 24 4 23 5 18 6 19 7 20 8 22 9 21 10 16 11
REMARK SMILES IDX 17 12 15 13 1 14 2 15 3 16 12 17 14 18 13 19 4 20 5 22 6 23
REMARK SMILES IDX 7 24 11 25 8 26 10 27 9 28 28 29 29 30 30 31 31 32 32 33
REMARK SMILES IDX 33 34 34 35 95 36 35 37 94 38 36 39 37 40 38 41 88 42 39 43
REMARK SMILES IDX 93 44 87 45 89 46 40 47 92 48 86 49 85 50 41 52 73 53 53 54
REMARK SMILES IDX 72 55 54 56 57 57 71 58 90 59 55 60 56 61 70 63 91 64 58 65
REMARK SMILES IDX 42 66 43 67 51 68 44 69 50 70 52 71 49 72 45 73 46 74 47 75
REMARK SMILES IDX 48 76 74 77 75 78 83 79 76 80 82 81 84 82 81 83 77 84 78 85
REMARK SMILES IDX 79 86 80 87 59 88 60 89 68 90 61 91 67 92 69 93 66 94 62 95
REMARK SMILES IDX 63 96 64 97 65 98
REMARK H PARENT 4 21 89 51 57 62
REMARK Flexibility Score: inf
ROOT
ATOM      1  O   UNL A   1      32.269  29.693  27.501  1.00  0.00    -0.462 OA
ENDROOT
BRANCH   1   2
ATOM      2  C   UNL A   1      31.900  28.402  27.313  1.00  0.00     0.308 C 
ATOM      3  O   UNL A   1      31.457  27.680  28.180  1.00  0.00    -0.252 OA
BRANCH   2   4
ATOM      4  C   UNL A   1      32.117  27.957  25.887  1.00  0.00     0.150 C 
BRANCH   4   5
ATOM      5  C   UNL A   1      30.968  28.293  24.943  1.00  0.00     0.122 C 
ATOM      6  N   UNL A   1      30.371  27.138  24.234  1.00  0.00    -0.330 N 
ATOM      7  C   UNL A   1      29.254  27.531  23.383  1.00  0.00     0.148 C 
ATOM      8  C   UNL A   1      29.662  28.661  22.429  1.00  0.00     0.181 C 
ATOM      9  C   UNL A   1      31.353  29.387  23.914  1.00  0.00     0.185 C 
ATOM     10  O   UNL A   1      30.194  29.781  23.150  1.00  0.00    -0.377 OA
BRANCH   6  11
ATOM     11  C   UNL A   1      30.302  25.893  24.850  1.00  0.00     0.254 C 
ATOM     12  O   UNL A   1      29.493  25.685  25.750  1.00  0.00    -0.269 OA
BRANCH  11  13
ATOM     13  C   UNL A   1      31.366  24.861  24.491  1.00  0.00     0.045 A 
ATOM     14  C   UNL A   1      31.737  23.971  26.864  1.00  0.00     0.047 C 
ATOM     15  C   UNL A   1      32.029  23.966  25.383  1.00  0.00    -0.015 A 
ATOM     16  C   UNL A   1      32.914  22.966  24.863  1.00  0.00     0.038 A 
ATOM     17  C   UNL A   1      33.077  22.863  23.475  1.00  0.00     0.026 A 
ATOM     18  C   UNL A   1      31.569  24.707  23.107  1.00  0.00     0.014 A 
ATOM     19  C   UNL A   1      32.397  23.707  22.603  1.00  0.00     0.003 A 
BRANCH  16  20
ATOM     20  N   UNL A   1      33.526  22.046  25.710  1.00  0.00    -0.379 N 
ATOM     21  H   UNL A   1      33.441  22.196  26.680  1.00  0.00     0.160 HD
BRANCH  20  22
ATOM     22  C   UNL A   1      34.281  20.881  25.273  1.00  0.00     0.169 C 
BRANCH  22  23
ATOM     23  C   UNL A   1      35.779  21.128  25.350  1.00  0.00     0.059 A 
ATOM     24  C   UNL A   1      36.297  22.356  25.770  1.00  0.00     0.026 A 
ATOM     25  N   UNL A   1      36.589  20.103  24.978  1.00  0.00    -0.259 NA
ATOM     26  C   UNL A   1      37.672  22.538  25.829  1.00  0.00     0.004 A 
ATOM     27  C   UNL A   1      37.921  20.314  25.031  1.00  0.00     0.111 A 
ATOM     28  C   UNL A   1      38.504  21.498  25.447  1.00  0.00     0.020 A 
ENDBRANCH  22  23
ENDBRANCH  20  22
ENDBRANCH  16  20
ENDBRANCH  11  13
ENDBRANCH   6  11
ENDBRANCH   4   5
ENDBRANCH   2   4
ENDBRANCH   1   2
BRANCH   1  29
ATOM     29  C   UNL A   1      33.637  29.997  27.224  1.00  0.00     0.274 C 
BRANCH  29  30
ATOM     30  C   UNL A   1      33.977  31.424  27.648  1.00  0.00     0.275 C 
BRANCH  30  31
ATOM     31  O   UNL A   1      35.316  31.653  28.190  1.00  0.00    -0.458 OA
BRANCH  31  32
ATOM     32  C   UNL A   1      36.004  30.973  29.159  1.00  0.00     0.338 C 
ATOM     33  O   UNL A   1      35.655  31.026  30.335  1.00  0.00    -0.246 OA
BRANCH  32  34
ATOM     34  C   UNL A   1      37.020  29.982  28.744  1.00  0.00     0.060 A 
ATOM     35  C   UNL A   1      37.561  29.981  27.441  1.00  0.00     0.016 A 
ATOM     36  C   UNL A   1      37.600  29.215  29.721  1.00  0.00     0.016 A 
ATOM     37  C   UNL A   1      38.777  29.329  27.182  1.00  0.00     0.010 A 
ATOM     38  C   UNL A   1      38.915  28.893  29.549  1.00  0.00     0.010 A 
ATOM     39  C   UNL A   1      39.484  28.831  28.270  1.00  0.00    -0.014 A 
BRANCH  39  40
ATOM     40  C   UNL A   1      40.674  27.981  28.263  1.00  0.00     0.031 A 
ATOM     41  C   UNL A   1      40.657  26.509  28.319  1.00  0.00     0.074 A 
ATOM     42  C   UNL A   1      41.793  28.719  28.027  1.00  0.00     0.049 A 
ATOM     43  N   UNL A   1      41.707  25.819  28.586  1.00  0.00    -0.248 NA
ATOM     44  C   UNL A   1      39.502  25.651  28.070  1.00  0.00     0.031 C 
ATOM     45  C   UNL A   1      43.162  28.395  27.692  1.00  0.00     0.029 A 
ATOM     46  N   UNL A   1      41.846  30.114  28.184  1.00  0.00    -0.354 N 
ATOM     47  C   UNL A   1      41.475  24.504  28.237  1.00  0.00     0.074 A 
ATOM     48  C   UNL A   1      40.060  24.434  27.987  1.00  0.00     0.031 C 
ATOM     49  C   UNL A   1      43.934  29.461  28.015  1.00  0.00     0.029 A 
ATOM     50  C   UNL A   1      43.089  30.459  28.673  1.00  0.00     0.049 A 
ATOM     51  H   UNL A   1      41.116  30.742  27.977  1.00  0.00     0.167 HD
ATOM     52  C   UNL A   1      42.558  23.690  28.082  1.00  0.00     0.034 A 
ATOM     53  C   UNL A   1      43.055  30.848  29.984  1.00  0.00     0.034 A 
ATOM     54  C   UNL A   1      43.770  24.416  28.479  1.00  0.00     0.049 A 
ATOM     55  C   UNL A   1      43.593  29.731  30.863  1.00  0.00     0.074 A 
ATOM     56  C   UNL A   1      44.741  25.117  27.786  1.00  0.00     0.029 A 
ATOM     57  N   UNL A   1      43.865  24.836  29.793  1.00  0.00    -0.354 N 
ATOM     58  N   UNL A   1      43.930  28.547  30.423  1.00  0.00    -0.248 NA
ATOM     59  C   UNL A   1      43.754  29.845  32.306  1.00  0.00     0.031 C 
ATOM     60  C   UNL A   1      45.340  26.048  28.698  1.00  0.00     0.029 A 
ATOM     61  C   UNL A   1      44.759  25.880  29.944  1.00  0.00     0.049 A 
ATOM     62  H   UNL A   1      43.356  24.439  30.536  1.00  0.00     0.167 HD
ATOM     63  C   UNL A   1      44.364  27.761  31.445  1.00  0.00     0.074 A 
ATOM     64  C   UNL A   1      44.180  28.609  32.619  1.00  0.00     0.031 C 
ATOM     65  C   UNL A   1      44.857  26.495  31.262  1.00  0.00     0.034 A 
BRANCH  52  66
ATOM     66  C   UNL A   1      42.602  22.351  27.380  1.00  0.00     0.023 A 
ATOM     67  C   UNL A   1      43.660  22.119  26.473  1.00  0.00     0.031 A 
ATOM     68  C   UNL A   1      41.679  21.295  27.503  1.00  0.00     0.131 A 
ATOM     69  C   UNL A   1      43.742  20.947  25.702  1.00  0.00     0.055 A 
ATOM     70  C   UNL A   1      41.747  20.129  26.719  1.00  0.00     0.041 A 
ATOM     71  F   UNL A   1      40.695  21.318  28.411  1.00  0.00    -0.206 F 
ATOM     72  C   UNL A   1      42.777  19.953  25.805  1.00  0.00     0.022 A 
BRANCH  69  73
ATOM     73  S   UNL A   1      45.140  20.754  24.561  1.00  0.00     0.124 S 
ATOM     74  O   UNL A   1      45.359  19.311  24.585  1.00  0.00    -0.237 OA
ATOM     75  O   UNL A   1      44.605  21.304  23.320  1.00  0.00    -0.237 OA
ATOM     76  O   UNL A   1      46.197  21.549  25.181  1.00  0.00    -0.744 OA
ENDBRANCH  69  73
ENDBRANCH  52  66
BRANCH  53  77
ATOM     77  C   UNL A   1      41.851  31.747  30.289  1.00  0.00     0.023 A 
ATOM     78  C   UNL A   1      40.813  31.212  31.105  1.00  0.00     0.031 A 
ATOM     79  C   UNL A   1      41.849  33.141  30.126  1.00  0.00     0.131 A 
ATOM     80  C   UNL A   1      39.942  32.048  31.834  1.00  0.00     0.055 A 
ATOM     81  C   UNL A   1      40.913  33.968  30.780  1.00  0.00     0.041 A 
ATOM     82  F   UNL A   1      42.807  33.756  29.419  1.00  0.00    -0.206 F 
ATOM     83  C   UNL A   1      39.979  33.429  31.665  1.00  0.00     0.022 A 
BRANCH  80  84
ATOM     84  S   UNL A   1      39.011  31.333  33.234  1.00  0.00     0.124 S 
ATOM     85  O   UNL A   1      39.365  29.922  33.159  1.00  0.00    -0.237 OA
ATOM     86  O   UNL A   1      39.544  32.070  34.380  1.00  0.00    -0.237 OA
ATOM     87  O   UNL A   1      37.620  31.655  32.923  1.00  0.00    -0.744 OA
ENDBRANCH  80  84
ENDBRANCH  53  77
BRANCH  65  88
ATOM     88  C   UNL A   1      45.466  25.712  32.392  1.00  0.00     0.023 A 
ATOM     89  C   UNL A   1      44.645  25.142  33.367  1.00  0.00     0.031 A 
ATOM     90  C   UNL A   1      46.857  25.546  32.576  1.00  0.00     0.131 A 
ATOM     91  C   UNL A   1      45.171  24.276  34.327  1.00  0.00     0.055 A 
ATOM     92  C   UNL A   1      47.391  24.783  33.614  1.00  0.00     0.041 A 
ATOM     93  F   UNL A   1      47.765  26.079  31.750  1.00  0.00    -0.206 F 
ATOM     94  C   UNL A   1      46.543  24.104  34.474  1.00  0.00     0.022 A 
BRANCH  91  95
ATOM     95  S   UNL A   1      44.000  23.282  35.271  1.00  0.00     0.124 S 
ATOM     96  O   UNL A   1      42.962  22.989  34.288  1.00  0.00    -0.237 OA
ATOM     97  O   UNL A   1      44.833  22.148  35.666  1.00  0.00    -0.237 OA
ATOM     98  O   UNL A   1      43.599  24.169  36.359  1.00  0.00    -0.744 OA
ENDBRANCH  91  95
ENDBRANCH  65  88
ENDBRANCH  39  40
ENDBRANCH  32  34
ENDBRANCH  31  32
ENDBRANCH  30  31
ENDBRANCH  29  30
ENDBRANCH   1  29
TORSDOF 20
ENDMDL
MODEL 3
REMARK VINA RESULT:     -12.3      1.944      2.318
REMARK SMILES Cc1c(NCc2ccccn2)cccc1C(=O)N1CCOC[C@@H]1CC(=O)OCCOC(=O)c1ccc(-c2c3nc(c(-c4cc(S(=O)(=O)[O-])ccc4F)c4ccc([nH]4)c(-c4cc(S(=O)(=O)[O-])ccc4F)c4nc(c(-c5cc(S(=O)(=O)[O-])ccc5F)c5ccc2[nH]5)C=C4)C=C3)cc1
REMARK SMILES IDX 27 1 25 2 26 3 24 4 23 5 18 6 19 7 20 8 22 9 21 10 16 11
REMARK SMILES IDX 17 12 15 13 1 14 2 15 3 16 12 17 14 18 13 19 4 20 5 22 6 23
REMARK SMILES IDX 7 24 11 25 8 26 10 27 9 28 28 29 29 30 30 31 31 32 32 33
REMARK SMILES IDX 33 34 34 35 95 36 35 37 94 38 36 39 37 40 38 41 88 42 39 43
REMARK SMILES IDX 93 44 87 45 89 46 40 47 92 48 86 49 85 50 41 52 73 53 53 54
REMARK SMILES IDX 72 55 54 56 57 57 71 58 90 59 55 60 56 61 70 63 91 64 58 65
REMARK SMILES IDX 42 66 43 67 51 68 44 69 50 70 52 71 49 72 45 73 46 74 47 75
REMARK SMILES IDX 48 76 74 77 75 78 83 79 76 80 82 81 84 82 81 83 77 84 78 85
REMARK SMILES IDX 79 86 80 87 59 88 60 89 68 90 61 91 67 92 69 93 66 94 62 95
REMARK SMILES IDX 63 96 64 97 65 98
REMARK H PARENT 4 21 89 51 57 62
REMARK Flexibility Score: inf
ROOT
ATOM      1  O   UNL A   1      34.245  28.859  25.940  1.00  0.00    -0.462 OA
ENDROOT
BRANCH   1   2
ATOM      2  C   UNL A   1      33.595  27.714  25.617  1.00  0.00     0.308 C 
ATOM      3  O   UNL A   1      34.046  26.846  24.900  1.00  0.00    -0.252 OA
BRANCH   2   4
ATOM      4  C   UNL A   1      32.227  27.645  26.251  1.00  0.00     0.150 C 
BRANCH   4   5
ATOM      5  C   UNL A   1      31.078  27.967  25.301  1.00  0.00     0.122 C 
ATOM      6  N   UNL A   1      30.506  26.807  24.582  1.00  0.00    -0.330 N 
ATOM      7  C   UNL A   1      29.387  27.185  23.727  1.00  0.00     0.148 C 
ATOM      8  C   UNL A   1      29.781  28.328  22.781  1.00  0.00     0.181 C 
ATOM      9  C   UNL A   1      31.451  29.075  24.281  1.00  0.00     0.185 C 
ATOM     10  O   UNL A   1      30.290  29.452  23.512  1.00  0.00    -0.377 OA
BRANCH   6  11
ATOM     11  C   UNL A   1      30.455  25.557  25.190  1.00  0.00     0.254 C 
ATOM     12  O   UNL A   1      29.861  25.404  26.254  1.00  0.00    -0.269 OA
BRANCH  11  13
ATOM     13  C   UNL A   1      31.293  24.436  24.586  1.00  0.00     0.045 A 
ATOM     14  C   UNL A   1      30.564  22.600  26.216  1.00  0.00     0.047 C 
ATOM     15  C   UNL A   1      31.356  23.079  25.023  1.00  0.00    -0.015 A 
ATOM     16  C   UNL A   1      32.099  22.118  24.263  1.00  0.00     0.038 A 
ATOM     17  C   UNL A   1      32.716  22.528  23.074  1.00  0.00     0.026 A 
ATOM     18  C   UNL A   1      31.934  24.786  23.382  1.00  0.00     0.014 A 
ATOM     19  C   UNL A   1      32.619  23.840  22.624  1.00  0.00     0.003 A 
BRANCH  16  20
ATOM     20  N   UNL A   1      32.125  20.778  24.641  1.00  0.00    -0.379 N 
ATOM     21  H   UNL A   1      31.372  20.211  24.355  1.00  0.00     0.160 HD
BRANCH  20  22
ATOM     22  C   UNL A   1      33.178  20.151  25.425  1.00  0.00     0.169 C 
BRANCH  22  23
ATOM     23  C   UNL A   1      33.272  18.661  25.140  1.00  0.00     0.059 A 
ATOM     24  C   UNL A   1      34.228  18.143  24.261  1.00  0.00     0.026 A 
ATOM     25  N   UNL A   1      32.375  17.859  25.768  1.00  0.00    -0.259 NA
ATOM     26  C   UNL A   1      34.281  16.775  24.031  1.00  0.00     0.004 A 
ATOM     27  C   UNL A   1      32.440  16.535  25.514  1.00  0.00     0.111 A 
ATOM     28  C   UNL A   1      33.366  15.952  24.665  1.00  0.00     0.020 A 
ENDBRANCH  22  23
ENDBRANCH  20  22
ENDBRANCH  16  20
ENDBRANCH  11  13
ENDBRANCH   6  11
ENDBRANCH   4   5
ENDBRANCH   2   4
ENDBRANCH   1   2
BRANCH   1  29
ATOM     29  C   UNL A   1      34.458  29.082  27.336  1.00  0.00     0.274 C 
BRANCH  29  30
ATOM     30  C   UNL A   1      35.261  30.359  27.569  1.00  0.00     0.275 C 
BRANCH  30  31
ATOM     31  O   UNL A   1      35.506  30.741  28.960  1.00  0.00    -0.458 OA
BRANCH  31  32
ATOM     32  C   UNL A   1      36.332  30.180  29.897  1.00  0.00     0.338 C 
ATOM     33  O   UNL A   1      35.988  30.098  31.073  1.00  0.00    -0.246 OA
BRANCH  32  34
ATOM     34  C   UNL A   1      37.536  29.455  29.437  1.00  0.00     0.060 A 
ATOM     35  C   UNL A   1      38.476  30.058  28.574  1.00  0.00     0.016 A 
ATOM     36  C   UNL A   1      37.843  28.271  30.054  1.00  0.00     0.016 A 
ATOM     37  C   UNL A   1      39.776  29.537  28.472  1.00  0.00     0.010 A 
ATOM     38  C   UNL A   1      39.168  27.987  30.215  1.00  0.00     0.010 A 
ATOM     39  C   UNL A   1      40.133  28.523  29.353  1.00  0.00    -0.014 A 
BRANCH  39  40
ATOM     40  C   UNL A   1      41.348  27.709  29.350  1.00  0.00     0.031 A 
ATOM     41  C   UNL A   1      41.435  26.329  28.840  1.00  0.00     0.074 A 
ATOM     42  C   UNL A   1      42.427  28.450  29.723  1.00  0.00     0.049 A 
ATOM     43  N   UNL A   1      42.430  25.560  29.103  1.00  0.00    -0.248 NA
ATOM     44  C   UNL A   1      40.457  25.665  27.984  1.00  0.00     0.031 C 
ATOM     45  C   UNL A   1      43.857  28.242  29.675  1.00  0.00     0.029 A 
ATOM     46  N   UNL A   1      42.326  29.675  30.401  1.00  0.00    -0.354 N 
ATOM     47  C   UNL A   1      42.402  24.487  28.235  1.00  0.00     0.074 A 
ATOM     48  C   UNL A   1      41.112  24.558  27.603  1.00  0.00     0.031 C 
ATOM     49  C   UNL A   1      44.431  29.080  30.573  1.00  0.00     0.029 A 
ATOM     50  C   UNL A   1      43.367  29.772  31.301  1.00  0.00     0.049 A 
ATOM     51  H   UNL A   1      41.627  30.355  30.256  1.00  0.00     0.167 HD
ATOM     52  C   UNL A   1      43.550  23.766  28.085  1.00  0.00     0.034 A 
ATOM     53  C   UNL A   1      42.961  29.629  32.600  1.00  0.00     0.034 A 
ATOM     54  C   UNL A   1      44.555  24.249  29.039  1.00  0.00     0.049 A 
ATOM     55  C   UNL A   1      43.339  28.244  33.104  1.00  0.00     0.074 A 
ATOM     56  C   UNL A   1      45.614  25.136  28.952  1.00  0.00     0.029 A 
ATOM     57  N   UNL A   1      44.270  24.131  30.387  1.00  0.00    -0.354 N 
ATOM     58  N   UNL A   1      43.872  27.312  32.359  1.00  0.00    -0.248 NA
ATOM     59  C   UNL A   1      43.108  27.792  34.469  1.00  0.00     0.031 C 
ATOM     60  C   UNL A   1      45.877  25.629  30.273  1.00  0.00     0.029 A 
ATOM     61  C   UNL A   1      45.007  25.011  31.156  1.00  0.00     0.049 A 
ATOM     62  H   UNL A   1      43.618  23.493  30.757  1.00  0.00     0.167 HD
ATOM     63  C   UNL A   1      44.086  26.182  33.087  1.00  0.00     0.074 A 
ATOM     64  C   UNL A   1      43.534  26.519  34.397  1.00  0.00     0.031 C 
ATOM     65  C   UNL A   1      44.709  25.070  32.581  1.00  0.00     0.034 A 
BRANCH  52  66
ATOM     66  C   UNL A   1      43.882  22.798  26.971  1.00  0.00     0.023 A 
ATOM     67  C   UNL A   1      43.182  21.572  26.935  1.00  0.00     0.031 A 
ATOM     68  C   UNL A   1      44.845  22.966  25.958  1.00  0.00     0.131 A 
ATOM     69  C   UNL A   1      43.478  20.568  25.997  1.00  0.00     0.055 A 
ATOM     70  C   UNL A   1      45.158  21.956  25.030  1.00  0.00     0.041 A 
ATOM     71  F   UNL A   1      45.500  24.122  25.788  1.00  0.00    -0.206 F 
ATOM     72  C   UNL A   1      44.479  20.744  25.050  1.00  0.00     0.022 A 
BRANCH  69  73
ATOM     73  S   UNL A   1      42.523  19.026  26.044  1.00  0.00     0.124 S 
ATOM     74  O   UNL A   1      43.379  18.110  25.297  1.00  0.00    -0.237 OA
ATOM     75  O   UNL A   1      42.407  18.776  27.477  1.00  0.00    -0.237 OA
ATOM     76  O   UNL A   1      41.271  19.381  25.379  1.00  0.00    -0.744 OA
ENDBRANCH  69  73
ENDBRANCH  52  66
BRANCH  53  77
ATOM     77  C   UNL A   1      41.652  30.374  32.882  1.00  0.00     0.023 A 
ATOM     78  C   UNL A   1      41.626  31.781  32.657  1.00  0.00     0.031 A 
ATOM     79  C   UNL A   1      40.401  29.748  33.004  1.00  0.00     0.131 A 
ATOM     80  C   UNL A   1      40.420  32.467  32.409  1.00  0.00     0.055 A 
ATOM     81  C   UNL A   1      39.193  30.457  32.854  1.00  0.00     0.041 A 
ATOM     82  F   UNL A   1      40.305  28.421  33.170  1.00  0.00    -0.206 F 
ATOM     83  C   UNL A   1      39.196  31.812  32.519  1.00  0.00     0.022 A 
BRANCH  80  84
ATOM     84  S   UNL A   1      40.496  34.114  31.621  1.00  0.00     0.124 S 
ATOM     85  O   UNL A   1      39.202  34.688  31.970  1.00  0.00    -0.237 OA
ATOM     86  O   UNL A   1      41.662  34.720  32.263  1.00  0.00    -0.237 OA
ATOM     87  O   UNL A   1      40.693  33.810  30.206  1.00  0.00    -0.744 OA
ENDBRANCH  80  84
ENDBRANCH  53  77
BRANCH  65  88
ATOM     88  C   UNL A   1      45.062  23.897  33.453  1.00  0.00     0.023 A 
ATOM     89  C   UNL A   1      46.398  23.630  33.755  1.00  0.00     0.031 A 
ATOM     90  C   UNL A   1      44.113  22.986  33.969  1.00  0.00     0.131 A 
ATOM     91  C   UNL A   1      46.737  22.653  34.693  1.00  0.00     0.055 A 
ATOM     92  C   UNL A   1      44.467  21.929  34.807  1.00  0.00     0.041 A 
ATOM     93  F   UNL A   1      42.802  23.087  33.721  1.00  0.00    -0.206 F 
ATOM     94  C   UNL A   1      45.785  21.782  35.210  1.00  0.00     0.022 A 
BRANCH  91  95
ATOM     95  S   UNL A   1      48.430  22.657  35.314  1.00  0.00     0.124 S 
ATOM     96  O   UNL A   1      48.961  23.910  34.787  1.00  0.00    -0.237 OA
ATOM     97  O   UNL A   1      48.211  22.623  36.758  1.00  0.00    -0.237 OA
ATOM     98  O   UNL A   1      49.006  21.444  34.742  1.00  0.00    -0.744 OA
ENDBRANCH  91  95
ENDBRANCH  65  88
ENDBRANCH  39  40
ENDBRANCH  32  34
ENDBRANCH  31  32
ENDBRANCH  30  31
ENDBRANCH  29  30
ENDBRANCH   1  29
TORSDOF 20
ENDMDL
