MODEL 1
REMARK VINA RESULT:     -12.8      0.000      0.000
REMARK SMILES CN(C)c1nccnc1N1CCC(Oc2ccc3ccccc3c2)(C(=O)OCCOC(=O)c2ccc(-c3c4nc(c(-c5cc(S(=O)(=O)[O-])ccc5F)c5ccc([nH]5)c(-c5cc(S(=O)(=O)[O-])ccc5F)c5nc(c(-c6cc(S(=O)(=O)[O-])ccc6F)c6ccc3[nH]6)C=C5)C=C4)cc2)CC1
REMARK SMILES IDX 29 1 28 2 27 3 25 4 26 5 13 6 10 7 11 8 97 9 12 10 96 11
REMARK SMILES IDX 9 12 4 13 5 14 6 15 8 16 7 17 2 18 1 19 3 20 14 21 15 22
REMARK SMILES IDX 16 23 24 24 17 25 23 26 18 27 22 28 19 29 21 30 20 31 30 32
REMARK SMILES IDX 31 33 32 34 33 35 34 36 95 37 35 38 94 39 36 40 37 41 38 42
REMARK SMILES IDX 88 43 39 44 93 45 87 46 89 47 40 48 92 49 86 50 85 51 41 53
REMARK SMILES IDX 73 54 53 55 72 56 54 57 57 58 71 59 90 60 55 61 56 62 70 64
REMARK SMILES IDX 91 65 58 66 42 67 43 68 51 69 44 70 50 71 52 72 49 73 45 74
REMARK SMILES IDX 46 75 47 76 48 77 74 78 75 79 83 80 76 81 82 82 84 83 81 84
REMARK SMILES IDX 77 85 78 86 79 87 80 88 59 89 60 90 68 91 61 92 67 93 69 94
REMARK SMILES IDX 66 95 62 96 63 97 64 98 65 99
REMARK H PARENT 89 52 57 63
REMARK Flexibility Score: inf
ROOT
ATOM      1  C   UNL A   1      31.895  30.155  26.970  1.00  0.00     0.275 C 
ENDROOT
BRANCH   1   2
ATOM      2  C   UNL A   1      31.897  28.776  27.619  1.00  0.00     0.274 C 
BRANCH   2   3
ATOM      3  O   UNL A   1      32.592  27.797  26.820  1.00  0.00    -0.459 OA
BRANCH   3   4
ATOM      4  C   UNL A   1      31.808  26.851  26.225  1.00  0.00     0.350 C 
ATOM      5  O   UNL A   1      30.734  26.482  26.694  1.00  0.00    -0.247 OA
BRANCH   4   6
ATOM      6  C   UNL A   1      32.464  26.199  24.989  1.00  0.00     0.209 C 
ATOM      7  N   UNL A   1      33.044  23.448  25.272  1.00  0.00    -0.353 N 
ATOM      8  C   UNL A   1      31.649  23.768  25.092  1.00  0.00     0.123 C 
ATOM      9  C   UNL A   1      33.803  24.341  26.120  1.00  0.00     0.123 C 
ATOM     10  C   UNL A   1      31.591  25.096  24.344  1.00  0.00     0.082 C 
ATOM     11  C   UNL A   1      33.870  25.686  25.409  1.00  0.00     0.082 C 
BRANCH   7  12
ATOM     12  C   UNL A   1      33.451  22.124  25.259  1.00  0.00     0.171 A 
ATOM     13  C   UNL A   1      34.769  21.705  24.915  1.00  0.00     0.171 A 
ATOM     14  N   UNL A   1      35.059  20.395  24.735  1.00  0.00    -0.234 NA
ATOM     15  C   UNL A   1      34.046  19.518  24.858  1.00  0.00     0.134 A 
ATOM     16  N   UNL A   1      32.457  21.216  25.448  1.00  0.00    -0.234 NA
ATOM     17  C   UNL A   1      32.779  19.922  25.217  1.00  0.00     0.134 A 
BRANCH  13  18
ATOM     18  N   UNL A   1      35.815  22.627  24.717  1.00  0.00    -0.360 N 
ATOM     19  C   UNL A   1      36.139  22.774  23.307  1.00  0.00     0.145 C 
ATOM     20  C   UNL A   1      36.954  22.357  25.581  1.00  0.00     0.145 C 
ENDBRANCH  13  18
ENDBRANCH   7  12
BRANCH   6  21
ATOM     21  O   UNL A   1      32.486  27.383  24.119  1.00  0.00    -0.475 OA
BRANCH  21  22
ATOM     22  C   UNL A   1      31.270  27.920  23.806  1.00  0.00     0.121 A 
ATOM     23  C   UNL A   1      30.238  27.118  23.333  1.00  0.00     0.047 A 
ATOM     24  C   UNL A   1      31.055  29.280  24.031  1.00  0.00     0.055 A 
ATOM     25  C   UNL A   1      29.019  27.691  22.978  1.00  0.00     0.012 A 
ATOM     26  C   UNL A   1      29.822  29.870  23.699  1.00  0.00    -0.015 A 
ATOM     27  C   UNL A   1      28.799  29.064  23.146  1.00  0.00    -0.018 A 
ATOM     28  C   UNL A   1      29.580  31.239  23.890  1.00  0.00     0.009 A 
ATOM     29  C   UNL A   1      27.577  29.650  22.780  1.00  0.00     0.009 A 
ATOM     30  C   UNL A   1      28.355  31.805  23.532  1.00  0.00     0.001 A 
ATOM     31  C   UNL A   1      27.357  31.013  22.972  1.00  0.00     0.001 A 
ENDBRANCH  21  22
ENDBRANCH   6  21
ENDBRANCH   4   6
ENDBRANCH   3   4
ENDBRANCH   2   3
ENDBRANCH   1   2
BRANCH   1  32
ATOM     32  O   UNL A   1      33.229  30.541  26.605  1.00  0.00    -0.458 OA
BRANCH  32  33
ATOM     33  C   UNL A   1      33.810  31.454  27.417  1.00  0.00     0.338 C 
ATOM     34  O   UNL A   1      33.348  32.529  27.761  1.00  0.00    -0.246 OA
BRANCH  33  35
ATOM     35  C   UNL A   1      35.145  30.987  27.826  1.00  0.00     0.060 A 
ATOM     36  C   UNL A   1      35.358  29.641  28.110  1.00  0.00     0.016 A 
ATOM     37  C   UNL A   1      36.152  31.922  28.061  1.00  0.00     0.016 A 
ATOM     38  C   UNL A   1      36.525  29.249  28.763  1.00  0.00     0.010 A 
ATOM     39  C   UNL A   1      37.372  31.504  28.604  1.00  0.00     0.010 A 
ATOM     40  C   UNL A   1      37.552  30.173  29.016  1.00  0.00    -0.014 A 
BRANCH  40  41
ATOM     41  C   UNL A   1      38.802  29.731  29.694  1.00  0.00     0.031 A 
ATOM     42  C   UNL A   1      39.277  30.376  30.972  1.00  0.00     0.074 A 
ATOM     43  C   UNL A   1      39.495  28.693  29.184  1.00  0.00     0.049 A 
ATOM     44  N   UNL A   1      40.213  29.979  31.797  1.00  0.00    -0.248 NA
ATOM     45  C   UNL A   1      38.585  31.592  31.417  1.00  0.00     0.031 C 
ATOM     46  C   UNL A   1      39.133  27.940  27.980  1.00  0.00     0.029 A 
ATOM     47  N   UNL A   1      40.658  28.102  29.607  1.00  0.00    -0.354 N 
ATOM     48  C   UNL A   1      40.127  30.816  32.905  1.00  0.00     0.074 A 
ATOM     49  C   UNL A   1      39.087  31.778  32.629  1.00  0.00     0.031 C 
ATOM     50  C   UNL A   1      40.063  27.002  27.755  1.00  0.00     0.029 A 
ATOM     51  C   UNL A   1      41.120  27.134  28.750  1.00  0.00     0.049 A 
ATOM     52  H   UNL A   1      41.115  28.349  30.443  1.00  0.00     0.167 HD
ATOM     53  C   UNL A   1      40.866  30.810  34.040  1.00  0.00     0.034 A 
ATOM     54  C   UNL A   1      42.295  26.475  28.729  1.00  0.00     0.034 A 
ATOM     55  C   UNL A   1      42.067  30.031  34.195  1.00  0.00     0.049 A 
ATOM     56  C   UNL A   1      43.292  26.748  29.820  1.00  0.00     0.074 A 
ATOM     57  C   UNL A   1      42.960  30.014  35.252  1.00  0.00     0.029 A 
ATOM     58  N   UNL A   1      42.600  29.212  33.210  1.00  0.00    -0.354 N 
ATOM     59  N   UNL A   1      43.150  27.478  30.902  1.00  0.00    -0.248 NA
ATOM     60  C   UNL A   1      44.615  26.129  29.678  1.00  0.00     0.031 C 
ATOM     61  C   UNL A   1      44.084  29.276  34.857  1.00  0.00     0.029 A 
ATOM     62  C   UNL A   1      43.856  28.768  33.586  1.00  0.00     0.049 A 
ATOM     63  H   UNL A   1      42.150  28.979  32.366  1.00  0.00     0.167 HD
ATOM     64  C   UNL A   1      44.361  27.392  31.581  1.00  0.00     0.074 A 
ATOM     65  C   UNL A   1      45.221  26.538  30.785  1.00  0.00     0.031 C 
ATOM     66  C   UNL A   1      44.722  27.958  32.762  1.00  0.00     0.034 A 
BRANCH  53  67
ATOM     67  C   UNL A   1      40.456  31.763  35.130  1.00  0.00     0.023 A 
ATOM     68  C   UNL A   1      39.433  31.441  36.042  1.00  0.00     0.031 A 
ATOM     69  C   UNL A   1      41.078  33.019  35.243  1.00  0.00     0.131 A 
ATOM     70  C   UNL A   1      39.052  32.374  37.024  1.00  0.00     0.055 A 
ATOM     71  C   UNL A   1      40.712  33.930  36.233  1.00  0.00     0.041 A 
ATOM     72  F   UNL A   1      42.036  33.383  34.377  1.00  0.00    -0.206 F 
ATOM     73  C   UNL A   1      39.693  33.613  37.128  1.00  0.00     0.022 A 
BRANCH  70  74
ATOM     74  S   UNL A   1      37.678  31.977  38.145  1.00  0.00     0.124 S 
ATOM     75  O   UNL A   1      36.692  32.996  37.799  1.00  0.00    -0.237 OA
ATOM     76  O   UNL A   1      37.343  30.610  37.762  1.00  0.00    -0.237 OA
ATOM     77  O   UNL A   1      38.269  32.121  39.474  1.00  0.00    -0.744 OA
ENDBRANCH  70  74
ENDBRANCH  53  67
BRANCH  54  78
ATOM     78  C   UNL A   1      42.628  25.603  27.569  1.00  0.00     0.023 A 
ATOM     79  C   UNL A   1      42.190  24.275  27.493  1.00  0.00     0.031 A 
ATOM     80  C   UNL A   1      43.410  26.106  26.509  1.00  0.00     0.131 A 
ATOM     81  C   UNL A   1      42.542  23.491  26.381  1.00  0.00     0.055 A 
ATOM     82  C   UNL A   1      43.718  25.337  25.388  1.00  0.00     0.041 A 
ATOM     83  F   UNL A   1      43.863  27.369  26.539  1.00  0.00    -0.206 F 
ATOM     84  C   UNL A   1      43.288  24.018  25.323  1.00  0.00     0.022 A 
BRANCH  81  85
ATOM     85  S   UNL A   1      42.053  21.744  26.354  1.00  0.00     0.124 S 
ATOM     86  O   UNL A   1      42.335  21.334  27.726  1.00  0.00    -0.237 OA
ATOM     87  O   UNL A   1      40.644  21.829  25.985  1.00  0.00    -0.237 OA
ATOM     88  O   UNL A   1      42.927  21.162  25.337  1.00  0.00    -0.744 OA
ENDBRANCH  81  85
ENDBRANCH  54  78
BRANCH  66  89
ATOM     89  C   UNL A   1      46.111  27.662  33.258  1.00  0.00     0.023 A 
ATOM     90  C   UNL A   1      46.387  26.514  34.020  1.00  0.00     0.031 A 
ATOM     91  C   UNL A   1      47.167  28.545  32.975  1.00  0.00     0.131 A 
ATOM     92  C   UNL A   1      47.684  26.301  34.512  1.00  0.00     0.055 A 
ATOM     93  C   UNL A   1      48.465  28.302  33.425  1.00  0.00     0.041 A 
ATOM     94  F   UNL A   1      46.954  29.657  32.255  1.00  0.00    -0.206 F 
ATOM     95  C   UNL A   1      48.727  27.179  34.206  1.00  0.00     0.022 A 
BRANCH  92  96
ATOM     96  S   UNL A   1      47.976  24.893  35.617  1.00  0.00     0.124 S 
ATOM     97  O   UNL A   1      48.447  23.871  34.689  1.00  0.00    -0.237 OA
ATOM     98  O   UNL A   1      48.973  25.421  36.543  1.00  0.00    -0.237 OA
ATOM     99  O   UNL A   1      46.661  24.639  36.203  1.00  0.00    -0.744 OA
ENDBRANCH  92  96
ENDBRANCH  66  89
ENDBRANCH  40  41
ENDBRANCH  33  35
ENDBRANCH  32  33
ENDBRANCH   1  32
TORSDOF 18
ENDMDL
MODEL 2
REMARK VINA RESULT:     -12.7      0.752      7.230
REMARK SMILES CN(C)c1nccnc1N1CCC(Oc2ccc3ccccc3c2)(C(=O)OCCOC(=O)c2ccc(-c3c4nc(c(-c5cc(S(=O)(=O)[O-])ccc5F)c5ccc([nH]5)c(-c5cc(S(=O)(=O)[O-])ccc5F)c5nc(c(-c6cc(S(=O)(=O)[O-])ccc6F)c6ccc3[nH]6)C=C5)C=C4)cc2)CC1
REMARK SMILES IDX 29 1 28 2 27 3 25 4 26 5 13 6 10 7 11 8 97 9 12 10 96 11
REMARK SMILES IDX 9 12 4 13 5 14 6 15 8 16 7 17 2 18 1 19 3 20 14 21 15 22
REMARK SMILES IDX 16 23 24 24 17 25 23 26 18 27 22 28 19 29 21 30 20 31 30 32
REMARK SMILES IDX 31 33 32 34 33 35 34 36 95 37 35 38 94 39 36 40 37 41 38 42
REMARK SMILES IDX 88 43 39 44 93 45 87 46 89 47 40 48 92 49 86 50 85 51 41 53
REMARK SMILES IDX 73 54 53 55 72 56 54 57 57 58 71 59 90 60 55 61 56 62 70 64
REMARK SMILES IDX 91 65 58 66 42 67 43 68 51 69 44 70 50 71 52 72 49 73 45 74
REMARK SMILES IDX 46 75 47 76 48 77 74 78 75 79 83 80 76 81 82 82 84 83 81 84
REMARK SMILES IDX 77 85 78 86 79 87 80 88 59 89 60 90 68 91 61 92 67 93 69 94
REMARK SMILES IDX 66 95 62 96 63 97 64 98 65 99
REMARK H PARENT 89 52 57 63
REMARK Flexibility Score: inf
ROOT
ATOM      1  C   UNL A   1      31.998  29.994  26.937  1.00  0.00     0.275 C 
ENDROOT
BRANCH   1   2
ATOM      2  C   UNL A   1      32.039  28.644  27.644  1.00  0.00     0.274 C 
BRANCH   2   3
ATOM      3  O   UNL A   1      32.687  27.630  26.849  1.00  0.00    -0.459 OA
BRANCH   3   4
ATOM      4  C   UNL A   1      31.856  26.753  26.214  1.00  0.00     0.350 C 
ATOM      5  O   UNL A   1      30.749  26.446  26.648  1.00  0.00    -0.247 OA
BRANCH   4   6
ATOM      6  C   UNL A   1      32.497  26.089  24.976  1.00  0.00     0.209 C 
ATOM      7  N   UNL A   1      33.054  23.334  25.270  1.00  0.00    -0.353 N 
ATOM      8  C   UNL A   1      31.660  23.666  25.098  1.00  0.00     0.123 C 
ATOM      9  C   UNL A   1      33.828  24.224  26.107  1.00  0.00     0.123 C 
ATOM     10  C   UNL A   1      31.609  24.990  24.344  1.00  0.00     0.082 C 
ATOM     11  C   UNL A   1      33.902  25.565  25.389  1.00  0.00     0.082 C 
BRANCH   7  12
ATOM     12  C   UNL A   1      33.449  22.006  25.260  1.00  0.00     0.171 A 
ATOM     13  C   UNL A   1      34.772  21.577  24.953  1.00  0.00     0.171 A 
ATOM     14  N   UNL A   1      35.055  20.265  24.774  1.00  0.00    -0.234 NA
ATOM     15  C   UNL A   1      34.031  19.398  24.861  1.00  0.00     0.134 A 
ATOM     16  N   UNL A   1      32.441  21.107  25.415  1.00  0.00    -0.234 NA
ATOM     17  C   UNL A   1      32.758  19.811  25.185  1.00  0.00     0.134 A 
BRANCH  13  18
ATOM     18  N   UNL A   1      35.833  22.489  24.791  1.00  0.00    -0.360 N 
ATOM     19  C   UNL A   1      36.057  22.807  23.391  1.00  0.00     0.145 C 
ATOM     20  C   UNL A   1      37.022  22.083  25.524  1.00  0.00     0.145 C 
ENDBRANCH  13  18
ENDBRANCH   7  12
BRANCH   6  21
ATOM     21  O   UNL A   1      32.523  27.268  24.100  1.00  0.00    -0.475 OA
BRANCH  21  22
ATOM     22  C   UNL A   1      31.310  27.819  23.800  1.00  0.00     0.121 A 
ATOM     23  C   UNL A   1      30.269  27.031  23.324  1.00  0.00     0.047 A 
ATOM     24  C   UNL A   1      31.109  29.179  24.040  1.00  0.00     0.055 A 
ATOM     25  C   UNL A   1      29.053  27.619  22.981  1.00  0.00     0.012 A 
ATOM     26  C   UNL A   1      29.880  29.783  23.721  1.00  0.00    -0.015 A 
ATOM     27  C   UNL A   1      28.846  28.992  23.165  1.00  0.00    -0.018 A 
ATOM     28  C   UNL A   1      29.651  31.152  23.929  1.00  0.00     0.009 A 
ATOM     29  C   UNL A   1      27.628  29.593  22.812  1.00  0.00     0.009 A 
ATOM     30  C   UNL A   1      28.429  31.733  23.583  1.00  0.00     0.001 A 
ATOM     31  C   UNL A   1      27.421  30.956  23.020  1.00  0.00     0.001 A 
ENDBRANCH  21  22
ENDBRANCH   6  21
ENDBRANCH   4   6
ENDBRANCH   3   4
ENDBRANCH   2   3
ENDBRANCH   1   2
BRANCH   1  32
ATOM     32  O   UNL A   1      33.324  30.415  26.580  1.00  0.00    -0.458 OA
BRANCH  32  33
ATOM     33  C   UNL A   1      33.856  31.379  27.367  1.00  0.00     0.338 C 
ATOM     34  O   UNL A   1      33.359  32.457  27.643  1.00  0.00    -0.246 OA
BRANCH  33  35
ATOM     35  C   UNL A   1      35.186  30.963  27.842  1.00  0.00     0.060 A 
ATOM     36  C   UNL A   1      35.414  29.641  28.213  1.00  0.00     0.016 A 
ATOM     37  C   UNL A   1      36.169  31.930  28.051  1.00  0.00     0.016 A 
ATOM     38  C   UNL A   1      36.567  29.311  28.923  1.00  0.00     0.010 A 
ATOM     39  C   UNL A   1      37.378  31.568  28.654  1.00  0.00     0.010 A 
ATOM     40  C   UNL A   1      37.568  30.269  29.151  1.00  0.00    -0.014 A 
BRANCH  40  41
ATOM     41  C   UNL A   1      38.805  29.892  29.891  1.00  0.00     0.031 A 
ATOM     42  C   UNL A   1      39.743  28.830  29.374  1.00  0.00     0.074 A 
ATOM     43  C   UNL A   1      39.122  30.556  31.021  1.00  0.00     0.049 A 
ATOM     44  N   UNL A   1      40.954  28.534  29.774  1.00  0.00    -0.248 NA
ATOM     45  C   UNL A   1      39.295  28.030  28.227  1.00  0.00     0.031 C 
ATOM     46  C   UNL A   1      38.337  31.639  31.619  1.00  0.00     0.029 A 
ATOM     47  N   UNL A   1      40.184  30.405  31.876  1.00  0.00    -0.354 N 
ATOM     48  C   UNL A   1      41.447  27.615  28.853  1.00  0.00     0.074 A 
ATOM     49  C   UNL A   1      40.390  27.359  27.902  1.00  0.00     0.031 C 
ATOM     50  C   UNL A   1      38.935  32.040  32.750  1.00  0.00     0.029 A 
ATOM     51  C   UNL A   1      40.100  31.198  32.994  1.00  0.00     0.049 A 
ATOM     52  H   UNL A   1      40.931  29.789  31.705  1.00  0.00     0.167 HD
ATOM     53  C   UNL A   1      42.658  27.012  28.813  1.00  0.00     0.034 A 
ATOM     54  C   UNL A   1      40.836  31.199  34.122  1.00  0.00     0.034 A 
ATOM     55  C   UNL A   1      43.600  27.062  29.901  1.00  0.00     0.049 A 
ATOM     56  C   UNL A   1      41.993  30.244  34.226  1.00  0.00     0.074 A 
ATOM     57  C   UNL A   1      44.815  26.411  30.027  1.00  0.00     0.029 A 
ATOM     58  N   UNL A   1      43.376  27.723  31.100  1.00  0.00    -0.354 N 
ATOM     59  N   UNL A   1      42.491  29.449  33.306  1.00  0.00    -0.248 NA
ATOM     60  C   UNL A   1      42.674  30.168  35.523  1.00  0.00     0.031 C 
ATOM     61  C   UNL A   1      45.265  26.588  31.343  1.00  0.00     0.029 A 
ATOM     62  C   UNL A   1      44.371  27.413  32.010  1.00  0.00     0.049 A 
ATOM     63  H   UNL A   1      42.617  28.326  31.277  1.00  0.00     0.167 HD
ATOM     64  C   UNL A   1      43.556  28.790  33.910  1.00  0.00     0.074 A 
ATOM     65  C   UNL A   1      43.628  29.282  35.271  1.00  0.00     0.031 C 
ATOM     66  C   UNL A   1      44.404  27.871  33.379  1.00  0.00     0.034 A 
BRANCH  53  67
ATOM     67  C   UNL A   1      42.958  26.153  27.614  1.00  0.00     0.023 A 
ATOM     68  C   UNL A   1      42.712  24.766  27.622  1.00  0.00     0.031 A 
ATOM     69  C   UNL A   1      43.519  26.722  26.458  1.00  0.00     0.131 A 
ATOM     70  C   UNL A   1      43.040  23.991  26.496  1.00  0.00     0.055 A 
ATOM     71  C   UNL A   1      43.822  25.952  25.335  1.00  0.00     0.041 A 
ATOM     72  F   UNL A   1      43.801  28.033  26.414  1.00  0.00    -0.206 F 
ATOM     73  C   UNL A   1      43.586  24.580  25.351  1.00  0.00     0.022 A 
BRANCH  70  74
ATOM     74  S   UNL A   1      42.791  22.192  26.549  1.00  0.00     0.124 S 
ATOM     75  O   UNL A   1      44.027  21.689  25.958  1.00  0.00    -0.237 OA
ATOM     76  O   UNL A   1      42.617  21.939  27.975  1.00  0.00    -0.237 OA
ATOM     77  O   UNL A   1      41.595  21.988  25.734  1.00  0.00    -0.744 OA
ENDBRANCH  70  74
ENDBRANCH  53  67
BRANCH  54  78
ATOM     78  C   UNL A   1      40.414  32.041  35.276  1.00  0.00     0.023 A 
ATOM     79  C   UNL A   1      39.390  31.644  36.145  1.00  0.00     0.031 A 
ATOM     80  C   UNL A   1      41.045  33.279  35.514  1.00  0.00     0.131 A 
ATOM     81  C   UNL A   1      39.023  32.481  37.212  1.00  0.00     0.055 A 
ATOM     82  C   UNL A   1      40.707  34.084  36.600  1.00  0.00     0.041 A 
ATOM     83  F   UNL A   1      42.025  33.709  34.702  1.00  0.00    -0.206 F 
ATOM     84  C   UNL A   1      39.685  33.689  37.453  1.00  0.00     0.022 A 
BRANCH  81  85
ATOM     85  S   UNL A   1      37.625  31.997  38.261  1.00  0.00     0.124 S 
ATOM     86  O   UNL A   1      36.648  33.037  37.956  1.00  0.00    -0.237 OA
ATOM     87  O   UNL A   1      37.319  30.661  37.760  1.00  0.00    -0.237 OA
ATOM     88  O   UNL A   1      38.181  32.041  39.612  1.00  0.00    -0.744 OA
ENDBRANCH  81  85
ENDBRANCH  54  78
BRANCH  66  89
ATOM     89  C   UNL A   1      45.485  27.346  34.284  1.00  0.00     0.023 A 
ATOM     90  C   UNL A   1      45.256  26.259  35.145  1.00  0.00     0.031 A 
ATOM     91  C   UNL A   1      46.755  27.947  34.293  1.00  0.00     0.131 A 
ATOM     92  C   UNL A   1      46.272  25.833  36.013  1.00  0.00     0.055 A 
ATOM     93  C   UNL A   1      47.778  27.486  35.123  1.00  0.00     0.041 A 
ATOM     94  F   UNL A   1      47.023  28.990  33.492  1.00  0.00    -0.206 F 
ATOM     95  C   UNL A   1      47.535  26.429  35.997  1.00  0.00     0.022 A 
BRANCH  92  96
ATOM     96  S   UNL A   1      45.898  24.530  37.218  1.00  0.00     0.124 S 
ATOM     97  O   UNL A   1      44.439  24.522  37.215  1.00  0.00    -0.237 OA
ATOM     98  O   UNL A   1      46.543  23.361  36.627  1.00  0.00    -0.237 OA
ATOM     99  O   UNL A   1      46.513  25.017  38.452  1.00  0.00    -0.744 OA
ENDBRANCH  92  96
ENDBRANCH  66  89
ENDBRANCH  40  41
ENDBRANCH  33  35
ENDBRANCH  32  33
ENDBRANCH   1  32
TORSDOF 18
ENDMDL
MODEL 3
REMARK VINA RESULT:     -12.6      1.683      7.446
REMARK SMILES CN(C)c1nccnc1N1CCC(Oc2ccc3ccccc3c2)(C(=O)OCCOC(=O)c2ccc(-c3c4nc(c(-c5cc(S(=O)(=O)[O-])ccc5F)c5ccc([nH]5)c(-c5cc(S(=O)(=O)[O-])ccc5F)c5nc(c(-c6cc(S(=O)(=O)[O-])ccc6F)c6ccc3[nH]6)C=C5)C=C4)cc2)CC1
REMARK SMILES IDX 29 1 28 2 27 3 25 4 26 5 13 6 10 7 11 8 97 9 12 10 96 11
REMARK SMILES IDX 9 12 4 13 5 14 6 15 8 16 7 17 2 18 1 19 3 20 14 21 15 22
REMARK SMILES IDX 16 23 24 24 17 25 23 26 18 27 22 28 19 29 21 30 20 31 30 32
REMARK SMILES IDX 31 33 32 34 33 35 34 36 95 37 35 38 94 39 36 40 37 41 38 42
REMARK SMILES IDX 88 43 39 44 93 45 87 46 89 47 40 48 92 49 86 50 85 51 41 53
REMARK SMILES IDX 73 54 53 55 72 56 54 57 57 58 71 59 90 60 55 61 56 62 70 64
REMARK SMILES IDX 91 65 58 66 42 67 43 68 51 69 44 70 50 71 52 72 49 73 45 74
REMARK SMILES IDX 46 75 47 76 48 77 74 78 75 79 83 80 76 81 82 82 84 83 81 84
REMARK SMILES IDX 77 85 78 86 79 87 80 88 59 89 60 90 68 91 61 92 67 93 69 94
REMARK SMILES IDX 66 95 62 96 63 97 64 98 65 99
REMARK H PARENT 89 52 57 63
REMARK Flexibility Score: inf
ROOT
ATOM      1  C   UNL A   1      31.711  29.965  26.919  1.00  0.00     0.275 C 
ENDROOT
BRANCH   1   2
ATOM      2  C   UNL A   1      31.851  28.563  27.502  1.00  0.00     0.274 C 
BRANCH   2   3
ATOM      3  O   UNL A   1      32.519  27.659  26.599  1.00  0.00    -0.459 OA
BRANCH   3   4
ATOM      4  C   UNL A   1      31.759  26.634  26.115  1.00  0.00     0.350 C 
ATOM      5  O   UNL A   1      30.745  26.230  26.678  1.00  0.00    -0.247 OA
BRANCH   4   6
ATOM      6  C   UNL A   1      32.372  25.949  24.874  1.00  0.00     0.209 C 
ATOM      7  N   UNL A   1      32.963  23.206  25.210  1.00  0.00    -0.353 N 
ATOM      8  C   UNL A   1      31.562  23.522  25.070  1.00  0.00     0.123 C 
ATOM      9  C   UNL A   1      33.751  24.121  26.006  1.00  0.00     0.123 C 
ATOM     10  C   UNL A   1      31.477  24.829  24.290  1.00  0.00     0.082 C 
ATOM     11  C   UNL A   1      33.792  25.447  25.258  1.00  0.00     0.082 C 
BRANCH   7  12
ATOM     12  C   UNL A   1      33.370  21.882  25.218  1.00  0.00     0.171 A 
ATOM     13  C   UNL A   1      34.711  21.466  24.973  1.00  0.00     0.171 A 
ATOM     14  N   UNL A   1      35.014  20.157  24.807  1.00  0.00    -0.234 NA
ATOM     15  C   UNL A   1      33.996  19.280  24.843  1.00  0.00     0.134 A 
ATOM     16  N   UNL A   1      32.365  20.973  25.323  1.00  0.00    -0.234 NA
ATOM     17  C   UNL A   1      32.704  19.681  25.107  1.00  0.00     0.134 A 
BRANCH  13  18
ATOM     18  N   UNL A   1      35.769  22.388  24.864  1.00  0.00    -0.360 N 
ATOM     19  C   UNL A   1      36.084  22.679  23.475  1.00  0.00     0.145 C 
ATOM     20  C   UNL A   1      36.911  22.014  25.685  1.00  0.00     0.145 C 
ENDBRANCH  13  18
ENDBRANCH   7  12
BRANCH   6  21
ATOM     21  O   UNL A   1      32.361  27.109  23.972  1.00  0.00    -0.475 OA
BRANCH  21  22
ATOM     22  C   UNL A   1      31.144  27.689  23.754  1.00  0.00     0.121 A 
ATOM     23  C   UNL A   1      30.032  26.914  23.452  1.00  0.00     0.047 A 
ATOM     24  C   UNL A   1      31.019  29.070  23.904  1.00  0.00     0.055 A 
ATOM     25  C   UNL A   1      28.808  27.526  23.189  1.00  0.00     0.012 A 
ATOM     26  C   UNL A   1      29.785  29.702  23.665  1.00  0.00    -0.015 A 
ATOM     27  C   UNL A   1      28.671  28.917  23.282  1.00  0.00    -0.018 A 
ATOM     28  C   UNL A   1      29.629  31.092  23.784  1.00  0.00     0.009 A 
ATOM     29  C   UNL A   1      27.445  29.543  23.009  1.00  0.00     0.009 A 
ATOM     30  C   UNL A   1      28.399  31.698  23.519  1.00  0.00     0.001 A 
ATOM     31  C   UNL A   1      27.310  30.925  23.127  1.00  0.00     0.001 A 
ENDBRANCH  21  22
ENDBRANCH   6  21
ENDBRANCH   4   6
ENDBRANCH   3   4
ENDBRANCH   2   3
ENDBRANCH   1   2
BRANCH   1  32
ATOM     32  O   UNL A   1      32.989  30.460  26.489  1.00  0.00    -0.458 OA
BRANCH  32  33
ATOM     33  C   UNL A   1      33.505  31.459  27.243  1.00  0.00     0.338 C 
ATOM     34  O   UNL A   1      33.010  32.554  27.447  1.00  0.00    -0.246 OA
BRANCH  33  35
ATOM     35  C   UNL A   1      34.814  31.056  27.782  1.00  0.00     0.060 A 
ATOM     36  C   UNL A   1      35.048  29.729  28.133  1.00  0.00     0.016 A 
ATOM     37  C   UNL A   1      35.764  32.036  28.070  1.00  0.00     0.016 A 
ATOM     38  C   UNL A   1      36.166  29.403  28.899  1.00  0.00     0.010 A 
ATOM     39  C   UNL A   1      36.945  31.682  28.732  1.00  0.00     0.010 A 
ATOM     40  C   UNL A   1      37.133  30.374  29.206  1.00  0.00    -0.014 A 
BRANCH  40  41
ATOM     41  C   UNL A   1      38.334  30.002  30.006  1.00  0.00     0.031 A 
ATOM     42  C   UNL A   1      39.302  28.947  29.533  1.00  0.00     0.074 A 
ATOM     43  C   UNL A   1      38.591  30.665  31.152  1.00  0.00     0.049 A 
ATOM     44  N   UNL A   1      40.493  28.656  29.992  1.00  0.00    -0.248 NA
ATOM     45  C   UNL A   1      38.916  28.147  28.364  1.00  0.00     0.031 C 
ATOM     46  C   UNL A   1      37.771  31.742  31.712  1.00  0.00     0.029 A 
ATOM     47  N   UNL A   1      39.610  30.517  32.058  1.00  0.00    -0.354 N 
ATOM     48  C   UNL A   1      41.036  27.742  29.094  1.00  0.00     0.074 A 
ATOM     49  C   UNL A   1      40.029  27.483  28.092  1.00  0.00     0.031 C 
ATOM     50  C   UNL A   1      38.310  32.144  32.873  1.00  0.00     0.029 A 
ATOM     51  C   UNL A   1      39.466  31.307  33.173  1.00  0.00     0.049 A 
ATOM     52  H   UNL A   1      40.368  29.906  31.923  1.00  0.00     0.167 HD
ATOM     53  C   UNL A   1      42.251  27.146  29.113  1.00  0.00     0.034 A 
ATOM     54  C   UNL A   1      40.146  31.309  34.335  1.00  0.00     0.034 A 
ATOM     55  C   UNL A   1      43.138  27.198  30.246  1.00  0.00     0.049 A 
ATOM     56  C   UNL A   1      41.302  30.360  34.494  1.00  0.00     0.074 A 
ATOM     57  C   UNL A   1      44.348  26.554  30.431  1.00  0.00     0.029 A 
ATOM     58  N   UNL A   1      42.851  27.855  31.434  1.00  0.00    -0.354 N 
ATOM     59  N   UNL A   1      41.848  29.570  33.598  1.00  0.00    -0.248 NA
ATOM     60  C   UNL A   1      41.918  30.284  35.823  1.00  0.00     0.031 C 
ATOM     61  C   UNL A   1      44.732  26.729  31.768  1.00  0.00     0.029 A 
ATOM     62  C   UNL A   1      43.802  27.548  32.392  1.00  0.00     0.049 A 
ATOM     63  H   UNL A   1      42.081  28.453  31.575  1.00  0.00     0.167 HD
ATOM     64  C   UNL A   1      42.886  28.915  34.252  1.00  0.00     0.074 A 
ATOM     65  C   UNL A   1      42.888  29.404  35.617  1.00  0.00     0.031 C 
ATOM     66  C   UNL A   1      43.765  28.003  33.762  1.00  0.00     0.034 A 
BRANCH  53  67
ATOM     67  C   UNL A   1      42.615  26.292  27.928  1.00  0.00     0.023 A 
ATOM     68  C   UNL A   1      42.145  24.970  27.803  1.00  0.00     0.031 A 
ATOM     69  C   UNL A   1      43.460  26.795  26.925  1.00  0.00     0.131 A 
ATOM     70  C   UNL A   1      42.537  24.190  26.700  1.00  0.00     0.055 A 
ATOM     71  C   UNL A   1      43.827  26.025  25.821  1.00  0.00     0.041 A 
ATOM     72  F   UNL A   1      43.958  28.038  27.016  1.00  0.00    -0.206 F 
ATOM     73  C   UNL A   1      43.369  24.716  25.705  1.00  0.00     0.022 A 
BRANCH  70  74
ATOM     74  S   UNL A   1      41.988  22.461  26.591  1.00  0.00     0.124 S 
ATOM     75  O   UNL A   1      40.541  22.603  26.465  1.00  0.00    -0.237 OA
ATOM     76  O   UNL A   1      42.688  21.982  25.404  1.00  0.00    -0.237 OA
ATOM     77  O   UNL A   1      42.440  21.879  27.853  1.00  0.00    -0.744 OA
ENDBRANCH  70  74
ENDBRANCH  53  67
BRANCH  54  78
ATOM     78  C   UNL A   1      39.663  32.145  35.469  1.00  0.00     0.023 A 
ATOM     79  C   UNL A   1      40.081  33.471  35.640  1.00  0.00     0.031 A 
ATOM     80  C   UNL A   1      38.764  31.605  36.411  1.00  0.00     0.131 A 
ATOM     81  C   UNL A   1      39.603  34.213  36.733  1.00  0.00     0.055 A 
ATOM     82  C   UNL A   1      38.259  32.360  37.468  1.00  0.00     0.041 A 
ATOM     83  F   UNL A   1      38.342  30.335  36.298  1.00  0.00    -0.206 F 
ATOM     84  C   UNL A   1      38.684  33.672  37.637  1.00  0.00     0.022 A 
BRANCH  81  85
ATOM     85  S   UNL A   1      40.238  35.892  36.994  1.00  0.00     0.124 S 
ATOM     86  O   UNL A   1      39.594  36.263  38.250  1.00  0.00    -0.237 OA
ATOM     87  O   UNL A   1      41.679  35.665  37.053  1.00  0.00    -0.237 OA
ATOM     88  O   UNL A   1      39.772  36.620  35.816  1.00  0.00    -0.744 OA
ENDBRANCH  81  85
ENDBRANCH  54  78
BRANCH  66  89
ATOM     89  C   UNL A   1      44.802  27.480  34.718  1.00  0.00     0.023 A 
ATOM     90  C   UNL A   1      46.025  28.147  34.908  1.00  0.00     0.031 A 
ATOM     91  C   UNL A   1      44.570  26.295  35.437  1.00  0.00     0.131 A 
ATOM     92  C   UNL A   1      46.990  27.599  35.766  1.00  0.00     0.055 A 
ATOM     93  C   UNL A   1      45.514  25.782  36.327  1.00  0.00     0.041 A 
ATOM     94  F   UNL A   1      43.420  25.620  35.287  1.00  0.00    -0.206 F 
ATOM     95  C   UNL A   1      46.736  26.430  36.488  1.00  0.00     0.022 A 
BRANCH  92  96
ATOM     96  S   UNL A   1      48.614  28.399  35.875  1.00  0.00     0.124 S 
ATOM     97  O   UNL A   1      48.425  29.584  35.044  1.00  0.00    -0.237 OA
ATOM     98  O   UNL A   1      48.750  28.641  37.308  1.00  0.00    -0.237 OA
ATOM     99  O   UNL A   1      49.527  27.397  35.327  1.00  0.00    -0.744 OA
ENDBRANCH  92  96
ENDBRANCH  66  89
ENDBRANCH  40  41
ENDBRANCH  33  35
ENDBRANCH  32  33
ENDBRANCH   1  32
TORSDOF 18
ENDMDL
