MODEL 1
REMARK VINA RESULT:     -11.6      0.000      0.000
REMARK SMILES Cc1ccc(O[C@H](C)C(=O)Nc2ccsc2C(=O)OCCOC(=O)c2ccc(-c3c4nc(c(-c5cc(S(=O)(=O)[O-])ccc5F)c5ccc([nH]5)c(-c5cc(S(=O)(=O)[O-])ccc5F)c5nc(c(-c6cc(S(=O)(=O)[O-])ccc6F)c6ccc3[nH]6)C=C5)C=C4)cc2)cc1
REMARK SMILES IDX 20 1 19 2 17 3 18 4 16 5 12 6 13 7 14 8 15 9 11 10 9 11
REMARK SMILES IDX 10 12 7 14 8 15 6 16 5 17 1 18 2 19 3 20 89 21 4 22 88 23
REMARK SMILES IDX 21 24 22 25 23 26 24 27 25 28 26 29 87 30 27 31 86 32 28 33
REMARK SMILES IDX 29 34 30 35 80 36 31 37 85 38 79 39 81 40 32 41 84 42 78 43
REMARK SMILES IDX 77 44 33 46 65 47 45 48 64 49 46 50 49 51 63 52 82 53 47 54
REMARK SMILES IDX 48 55 62 57 83 58 50 59 34 60 35 61 43 62 36 63 42 64 44 65
REMARK SMILES IDX 41 66 37 67 38 68 39 69 40 70 66 71 67 72 75 73 68 74 74 75
REMARK SMILES IDX 76 76 73 77 69 78 70 79 71 80 72 81 51 82 52 83 60 84 53 85
REMARK SMILES IDX 59 86 61 87 58 88 54 89 55 90 56 91 57 92
REMARK H PARENT 11 13 81 45 49 56
REMARK Flexibility Score: inf
ROOT
ATOM      1  C   UNL A   1      33.511  28.988  27.098  1.00  0.00     0.275 C 
ENDROOT
BRANCH   1   2
ATOM      2  O   UNL A   1      33.564  28.703  25.693  1.00  0.00    -0.458 OA
BRANCH   2   3
ATOM      3  C   UNL A   1      33.062  27.466  25.397  1.00  0.00     0.350 C 
ATOM      4  O   UNL A   1      33.412  26.447  25.961  1.00  0.00    -0.245 OA
BRANCH   3   5
ATOM      5  C   UNL A   1      32.129  27.471  24.282  1.00  0.00     0.136 A 
ATOM      6  C   UNL A   1      32.241  26.626  23.196  1.00  0.00     0.066 A 
ATOM      7  C   UNL A   1      31.062  26.584  22.405  1.00  0.00     0.039 A 
ATOM      8  C   UNL A   1      30.181  27.573  22.780  1.00  0.00     0.068 A 
ATOM      9  S   UNL A   1      30.805  28.513  24.064  1.00  0.00    -0.135 S 
BRANCH   6  10
ATOM     10  N   UNL A   1      33.437  25.965  22.947  1.00  0.00    -0.321 N 
ATOM     11  C   UNL A   1      33.394  24.576  22.869  1.00  0.00     0.265 C 
ATOM     12  O   UNL A   1      34.051  23.989  22.006  1.00  0.00    -0.270 OA
ATOM     13  H   UNL A   1      34.280  26.458  22.829  1.00  0.00     0.170 HD
BRANCH  11  14
ATOM     14  C   UNL A   1      32.579  23.797  23.944  1.00  0.00     0.259 C 
ATOM     15  C   UNL A   1      31.738  22.790  23.169  1.00  0.00     0.064 C 
BRANCH  14  16
ATOM     16  O   UNL A   1      33.380  23.407  25.060  1.00  0.00    -0.481 OA
BRANCH  16  17
ATOM     17  C   UNL A   1      34.708  23.109  25.109  1.00  0.00     0.120 A 
ATOM     18  C   UNL A   1      38.713  21.542  25.717  1.00  0.00     0.044 C 
ATOM     19  C   UNL A   1      37.341  22.075  25.431  1.00  0.00    -0.051 A 
ATOM     20  C   UNL A   1      37.049  23.412  25.699  1.00  0.00     0.007 A 
ATOM     21  C   UNL A   1      36.314  21.258  24.960  1.00  0.00     0.007 A 
ATOM     22  C   UNL A   1      35.754  23.922  25.523  1.00  0.00     0.047 A 
ATOM     23  C   UNL A   1      35.018  21.776  24.794  1.00  0.00     0.047 A 
ENDBRANCH  16  17
ENDBRANCH  14  16
ENDBRANCH  11  14
ENDBRANCH   6  10
ENDBRANCH   3   5
ENDBRANCH   2   3
ENDBRANCH   1   2
BRANCH   1  24
ATOM     24  C   UNL A   1      34.282  30.263  27.459  1.00  0.00     0.275 C 
BRANCH  24  25
ATOM     25  O   UNL A   1      35.719  30.265  27.247  1.00  0.00    -0.458 OA
BRANCH  25  26
ATOM     26  C   UNL A   1      36.711  30.495  28.156  1.00  0.00     0.338 C 
ATOM     27  O   UNL A   1      36.565  31.330  29.043  1.00  0.00    -0.246 OA
BRANCH  26  28
ATOM     28  C   UNL A   1      37.870  29.569  28.178  1.00  0.00     0.060 A 
ATOM     29  C   UNL A   1      38.776  29.580  27.106  1.00  0.00     0.016 A 
ATOM     30  C   UNL A   1      38.148  28.812  29.301  1.00  0.00     0.016 A 
ATOM     31  C   UNL A   1      40.026  28.988  27.222  1.00  0.00     0.010 A 
ATOM     32  C   UNL A   1      39.426  28.364  29.503  1.00  0.00     0.010 A 
ATOM     33  C   UNL A   1      40.337  28.404  28.442  1.00  0.00    -0.014 A 
BRANCH  33  34
ATOM     34  C   UNL A   1      41.422  27.456  28.595  1.00  0.00     0.031 A 
ATOM     35  C   UNL A   1      41.176  26.020  28.446  1.00  0.00     0.074 A 
ATOM     36  C   UNL A   1      42.592  28.095  28.820  1.00  0.00     0.049 A 
ATOM     37  N   UNL A   1      41.760  25.104  29.132  1.00  0.00    -0.248 NA
ATOM     38  C   UNL A   1      40.154  25.477  27.547  1.00  0.00     0.031 C 
ATOM     39  C   UNL A   1      43.974  27.670  28.834  1.00  0.00     0.029 A 
ATOM     40  N   UNL A   1      42.660  29.406  29.301  1.00  0.00    -0.354 N 
ATOM     41  C   UNL A   1      41.550  23.929  28.437  1.00  0.00     0.074 A 
ATOM     42  C   UNL A   1      40.378  24.159  27.634  1.00  0.00     0.031 C 
ATOM     43  C   UNL A   1      44.678  28.553  29.579  1.00  0.00     0.029 A 
ATOM     44  C   UNL A   1      43.734  29.499  30.170  1.00  0.00     0.049 A 
ATOM     45  H   UNL A   1      42.048  30.139  29.061  1.00  0.00     0.167 HD
ATOM     46  C   UNL A   1      42.561  23.017  28.374  1.00  0.00     0.034 A 
ATOM     47  C   UNL A   1      43.405  29.626  31.495  1.00  0.00     0.034 A 
ATOM     48  C   UNL A   1      43.730  23.537  29.083  1.00  0.00     0.049 A 
ATOM     49  C   UNL A   1      43.694  28.340  32.249  1.00  0.00     0.074 A 
ATOM     50  C   UNL A   1      44.882  24.184  28.667  1.00  0.00     0.029 A 
ATOM     51  N   UNL A   1      43.620  23.783  30.434  1.00  0.00    -0.354 N 
ATOM     52  N   UNL A   1      43.895  27.182  31.676  1.00  0.00    -0.248 NA
ATOM     53  C   UNL A   1      43.763  28.253  33.702  1.00  0.00     0.031 C 
ATOM     54  C   UNL A   1      45.444  24.848  29.798  1.00  0.00     0.029 A 
ATOM     55  C   UNL A   1      44.628  24.606  30.887  1.00  0.00     0.049 A 
ATOM     56  H   UNL A   1      42.907  23.417  31.006  1.00  0.00     0.167 HD
ATOM     57  C   UNL A   1      44.208  26.240  32.616  1.00  0.00     0.074 A 
ATOM     58  C   UNL A   1      44.032  26.948  33.877  1.00  0.00     0.031 C 
ATOM     59  C   UNL A   1      44.607  24.970  32.290  1.00  0.00     0.034 A 
BRANCH  46  60
ATOM     60  C   UNL A   1      42.647  21.852  27.422  1.00  0.00     0.023 A 
ATOM     61  C   UNL A   1      43.677  21.855  26.459  1.00  0.00     0.031 A 
ATOM     62  C   UNL A   1      41.805  20.725  27.407  1.00  0.00     0.131 A 
ATOM     63  C   UNL A   1      43.806  20.835  25.504  1.00  0.00     0.055 A 
ATOM     64  C   UNL A   1      41.916  19.714  26.437  1.00  0.00     0.041 A 
ATOM     65  F   UNL A   1      40.872  20.532  28.350  1.00  0.00    -0.206 F 
ATOM     66  C   UNL A   1      42.917  19.768  25.473  1.00  0.00     0.022 A 
BRANCH  63  67
ATOM     67  S   UNL A   1      45.173  20.937  24.317  1.00  0.00     0.124 S 
ATOM     68  O   UNL A   1      45.332  19.542  23.913  1.00  0.00    -0.237 OA
ATOM     69  O   UNL A   1      44.639  21.843  23.305  1.00  0.00    -0.237 OA
ATOM     70  O   UNL A   1      46.273  21.480  25.112  1.00  0.00    -0.744 OA
ENDBRANCH  63  67
ENDBRANCH  46  60
BRANCH  47  71
ATOM     71  C   UNL A   1      42.240  30.567  31.744  1.00  0.00     0.023 A 
ATOM     72  C   UNL A   1      40.969  29.981  31.985  1.00  0.00     0.031 A 
ATOM     73  C   UNL A   1      42.361  31.930  32.041  1.00  0.00     0.131 A 
ATOM     74  C   UNL A   1      39.959  30.676  32.671  1.00  0.00     0.055 A 
ATOM     75  C   UNL A   1      41.306  32.658  32.626  1.00  0.00     0.041 A 
ATOM     76  F   UNL A   1      43.525  32.572  31.869  1.00  0.00    -0.206 F 
ATOM     77  C   UNL A   1      40.111  32.023  32.983  1.00  0.00     0.022 A 
BRANCH  74  78
ATOM     78  S   UNL A   1      38.609  29.688  33.394  1.00  0.00     0.124 S 
ATOM     79  O   UNL A   1      37.475  30.046  32.550  1.00  0.00    -0.237 OA
ATOM     80  O   UNL A   1      39.110  28.322  33.241  1.00  0.00    -0.237 OA
ATOM     81  O   UNL A   1      38.530  30.150  34.776  1.00  0.00    -0.744 OA
ENDBRANCH  74  78
ENDBRANCH  47  71
BRANCH  59  82
ATOM     82  C   UNL A   1      44.979  23.914  33.300  1.00  0.00     0.023 A 
ATOM     83  C   UNL A   1      46.309  23.683  33.647  1.00  0.00     0.031 A 
ATOM     84  C   UNL A   1      44.023  23.077  33.928  1.00  0.00     0.131 A 
ATOM     85  C   UNL A   1      46.634  22.816  34.698  1.00  0.00     0.055 A 
ATOM     86  C   UNL A   1      44.357  22.142  34.905  1.00  0.00     0.041 A 
ATOM     87  F   UNL A   1      42.713  23.135  33.653  1.00  0.00    -0.206 F 
ATOM     88  C   UNL A   1      45.669  22.034  35.326  1.00  0.00     0.022 A 
BRANCH  85  89
ATOM     89  S   UNL A   1      48.337  22.831  35.290  1.00  0.00     0.124 S 
ATOM     90  O   UNL A   1      48.186  23.253  36.679  1.00  0.00    -0.237 OA
ATOM     91  O   UNL A   1      48.727  21.437  35.091  1.00  0.00    -0.237 OA
ATOM     92  O   UNL A   1      48.997  23.793  34.411  1.00  0.00    -0.744 OA
ENDBRANCH  85  89
ENDBRANCH  59  82
ENDBRANCH  33  34
ENDBRANCH  26  28
ENDBRANCH  25  26
ENDBRANCH  24  25
ENDBRANCH   1  24
TORSDOF 18
ENDMDL
MODEL 2
REMARK VINA RESULT:     -11.4      4.564     10.374
REMARK SMILES Cc1ccc(O[C@H](C)C(=O)Nc2ccsc2C(=O)OCCOC(=O)c2ccc(-c3c4nc(c(-c5cc(S(=O)(=O)[O-])ccc5F)c5ccc([nH]5)c(-c5cc(S(=O)(=O)[O-])ccc5F)c5nc(c(-c6cc(S(=O)(=O)[O-])ccc6F)c6ccc3[nH]6)C=C5)C=C4)cc2)cc1
REMARK SMILES IDX 20 1 19 2 17 3 18 4 16 5 12 6 13 7 14 8 15 9 11 10 9 11
REMARK SMILES IDX 10 12 7 14 8 15 6 16 5 17 1 18 2 19 3 20 89 21 4 22 88 23
REMARK SMILES IDX 21 24 22 25 23 26 24 27 25 28 26 29 87 30 27 31 86 32 28 33
REMARK SMILES IDX 29 34 30 35 80 36 31 37 85 38 79 39 81 40 32 41 84 42 78 43
REMARK SMILES IDX 77 44 33 46 65 47 45 48 64 49 46 50 49 51 63 52 82 53 47 54
REMARK SMILES IDX 48 55 62 57 83 58 50 59 34 60 35 61 43 62 36 63 42 64 44 65
REMARK SMILES IDX 41 66 37 67 38 68 39 69 40 70 66 71 67 72 75 73 68 74 74 75
REMARK SMILES IDX 76 76 73 77 69 78 70 79 71 80 72 81 51 82 52 83 60 84 53 85
REMARK SMILES IDX 59 86 61 87 58 88 54 89 55 90 56 91 57 92
REMARK H PARENT 11 13 81 45 49 56
REMARK Flexibility Score: inf
ROOT
ATOM      1  C   UNL A   1      36.862  23.029  25.788  1.00  0.00     0.275 C 
ENDROOT
BRANCH   1   2
ATOM      2  O   UNL A   1      35.479  23.370  25.621  1.00  0.00    -0.458 OA
BRANCH   2   3
ATOM      3  C   UNL A   1      34.668  22.677  26.477  1.00  0.00     0.350 C 
ATOM      4  O   UNL A   1      34.731  22.775  27.688  1.00  0.00    -0.245 OA
BRANCH   3   5
ATOM      5  C   UNL A   1      33.777  21.746  25.805  1.00  0.00     0.136 A 
ATOM      6  C   UNL A   1      32.402  21.805  25.907  1.00  0.00     0.066 A 
ATOM      7  C   UNL A   1      31.741  21.015  24.929  1.00  0.00     0.039 A 
ATOM      8  C   UNL A   1      32.632  20.199  24.270  1.00  0.00     0.068 A 
ATOM      9  S   UNL A   1      34.225  20.412  24.852  1.00  0.00    -0.135 S 
BRANCH   6  10
ATOM     10  N   UNL A   1      31.809  22.543  26.924  1.00  0.00    -0.321 N 
ATOM     11  C   UNL A   1      31.053  23.650  26.551  1.00  0.00     0.265 C 
ATOM     12  O   UNL A   1      29.987  23.887  27.124  1.00  0.00    -0.270 OA
ATOM     13  H   UNL A   1      31.918  22.293  27.870  1.00  0.00     0.170 HD
BRANCH  11  14
ATOM     14  C   UNL A   1      31.630  24.614  25.473  1.00  0.00     0.259 C 
ATOM     15  C   UNL A   1      30.419  25.212  24.768  1.00  0.00     0.064 C 
BRANCH  14  16
ATOM     16  O   UNL A   1      32.684  25.433  25.981  1.00  0.00    -0.481 OA
BRANCH  16  17
ATOM     17  C   UNL A   1      32.685  26.766  26.260  1.00  0.00     0.120 A 
ATOM     18  C   UNL A   1      33.401  30.873  27.483  1.00  0.00     0.044 C 
ATOM     19  C   UNL A   1      33.148  29.480  26.987  1.00  0.00    -0.051 A 
ATOM     20  C   UNL A   1      31.961  28.830  27.325  1.00  0.00     0.007 A 
ATOM     21  C   UNL A   1      34.095  28.776  26.245  1.00  0.00     0.007 A 
ATOM     22  C   UNL A   1      31.730  27.498  26.951  1.00  0.00     0.047 A 
ATOM     23  C   UNL A   1      33.858  27.440  25.880  1.00  0.00     0.047 A 
ENDBRANCH  16  17
ENDBRANCH  14  16
ENDBRANCH  11  14
ENDBRANCH   6  10
ENDBRANCH   3   5
ENDBRANCH   2   3
ENDBRANCH   1   2
BRANCH   1  24
ATOM     24  C   UNL A   1      37.686  24.202  26.330  1.00  0.00     0.275 C 
BRANCH  24  25
ATOM     25  O   UNL A   1      39.080  24.290  25.927  1.00  0.00    -0.458 OA
BRANCH  25  26
ATOM     26  C   UNL A   1      40.153  24.699  26.664  1.00  0.00     0.338 C 
ATOM     27  O   UNL A   1      41.235  24.131  26.561  1.00  0.00    -0.246 OA
BRANCH  26  28
ATOM     28  C   UNL A   1      40.039  25.969  27.422  1.00  0.00     0.060 A 
ATOM     29  C   UNL A   1      39.703  25.926  28.785  1.00  0.00     0.016 A 
ATOM     30  C   UNL A   1      40.407  27.172  26.846  1.00  0.00     0.016 A 
ATOM     31  C   UNL A   1      39.900  27.028  29.604  1.00  0.00     0.010 A 
ATOM     32  C   UNL A   1      40.764  28.217  27.655  1.00  0.00     0.010 A 
ATOM     33  C   UNL A   1      40.455  28.158  29.019  1.00  0.00    -0.014 A 
BRANCH  33  34
ATOM     34  C   UNL A   1      40.384  29.467  29.637  1.00  0.00     0.031 A 
ATOM     35  C   UNL A   1      39.237  30.342  29.386  1.00  0.00     0.074 A 
ATOM     36  C   UNL A   1      41.444  29.675  30.449  1.00  0.00     0.049 A 
ATOM     37  N   UNL A   1      39.301  31.621  29.285  1.00  0.00    -0.248 NA
ATOM     38  C   UNL A   1      37.887  29.830  29.130  1.00  0.00     0.031 C 
ATOM     39  C   UNL A   1      41.760  30.680  31.440  1.00  0.00     0.029 A 
ATOM     40  N   UNL A   1      42.637  28.956  30.338  1.00  0.00    -0.354 N 
ATOM     41  C   UNL A   1      38.006  32.072  29.442  1.00  0.00     0.074 A 
ATOM     42  C   UNL A   1      37.164  30.957  29.096  1.00  0.00     0.031 C 
ATOM     43  C   UNL A   1      43.104  30.712  31.592  1.00  0.00     0.029 A 
ATOM     44  C   UNL A   1      43.693  29.812  30.602  1.00  0.00     0.049 A 
ATOM     45  H   UNL A   1      42.714  28.000  30.110  1.00  0.00     0.167 HD
ATOM     46  C   UNL A   1      37.794  33.220  30.147  1.00  0.00     0.034 A 
ATOM     47  C   UNL A   1      44.453  30.157  29.515  1.00  0.00     0.034 A 
ATOM     48  C   UNL A   1      39.073  33.735  30.634  1.00  0.00     0.049 A 
ATOM     49  C   UNL A   1      44.189  31.595  29.105  1.00  0.00     0.074 A 
ATOM     50  C   UNL A   1      39.736  33.636  31.846  1.00  0.00     0.029 A 
ATOM     51  N   UNL A   1      40.022  34.111  29.709  1.00  0.00    -0.354 N 
ATOM     52  N   UNL A   1      43.155  32.293  29.497  1.00  0.00    -0.248 NA
ATOM     53  C   UNL A   1      45.057  32.353  28.213  1.00  0.00     0.031 C 
ATOM     54  C   UNL A   1      41.113  33.935  31.618  1.00  0.00     0.029 A 
ATOM     55  C   UNL A   1      41.276  34.206  30.272  1.00  0.00     0.049 A 
ATOM     56  H   UNL A   1      39.828  34.290  28.760  1.00  0.00     0.167 HD
ATOM     57  C   UNL A   1      43.244  33.572  29.024  1.00  0.00     0.074 A 
ATOM     58  C   UNL A   1      44.416  33.533  28.158  1.00  0.00     0.031 C 
ATOM     59  C   UNL A   1      42.373  34.563  29.395  1.00  0.00     0.034 A 
BRANCH  46  60
ATOM     60  C   UNL A   1      36.472  33.694  30.695  1.00  0.00     0.023 A 
ATOM     61  C   UNL A   1      35.560  34.295  29.803  1.00  0.00     0.031 A 
ATOM     62  C   UNL A   1      36.032  33.576  32.026  1.00  0.00     0.131 A 
ATOM     63  C   UNL A   1      34.327  34.806  30.232  1.00  0.00     0.055 A 
ATOM     64  C   UNL A   1      34.807  34.109  32.465  1.00  0.00     0.041 A 
ATOM     65  F   UNL A   1      36.743  32.907  32.945  1.00  0.00    -0.206 F 
ATOM     66  C   UNL A   1      33.948  34.735  31.568  1.00  0.00     0.022 A 
BRANCH  63  67
ATOM     67  S   UNL A   1      33.228  35.552  28.998  1.00  0.00     0.124 S 
ATOM     68  O   UNL A   1      32.323  36.341  29.829  1.00  0.00    -0.237 OA
ATOM     69  O   UNL A   1      34.161  36.306  28.167  1.00  0.00    -0.237 OA
ATOM     70  O   UNL A   1      32.617  34.396  28.345  1.00  0.00    -0.744 OA
ENDBRANCH  63  67
ENDBRANCH  46  60
BRANCH  47  71
ATOM     71  C   UNL A   1      44.733  28.996  28.577  1.00  0.00     0.023 A 
ATOM     72  C   UNL A   1      45.373  27.854  29.125  1.00  0.00     0.031 A 
ATOM     73  C   UNL A   1      44.161  28.837  27.308  1.00  0.00     0.131 A 
ATOM     74  C   UNL A   1      45.263  26.590  28.524  1.00  0.00     0.055 A 
ATOM     75  C   UNL A   1      44.150  27.590  26.652  1.00  0.00     0.041 A 
ATOM     76  F   UNL A   1      43.514  29.848  26.711  1.00  0.00    -0.206 F 
ATOM     77  C   UNL A   1      44.664  26.448  27.276  1.00  0.00     0.022 A 
BRANCH  74  78
ATOM     78  S   UNL A   1      45.641  25.137  29.557  1.00  0.00     0.124 S 
ATOM     79  O   UNL A   1      44.423  24.990  30.345  1.00  0.00    -0.237 OA
ATOM     80  O   UNL A   1      45.879  24.098  28.554  1.00  0.00    -0.237 OA
ATOM     81  O   UNL A   1      46.827  25.532  30.307  1.00  0.00    -0.744 OA
ENDBRANCH  74  78
ENDBRANCH  47  71
BRANCH  59  82
ATOM     82  C   UNL A   1      42.454  35.987  28.909  1.00  0.00     0.023 A 
ATOM     83  C   UNL A   1      43.098  36.971  29.659  1.00  0.00     0.031 A 
ATOM     84  C   UNL A   1      41.864  36.424  27.697  1.00  0.00     0.131 A 
ATOM     85  C   UNL A   1      43.309  38.250  29.130  1.00  0.00     0.055 A 
ATOM     86  C   UNL A   1      41.989  37.726  27.216  1.00  0.00     0.041 A 
ATOM     87  F   UNL A   1      41.159  35.613  26.897  1.00  0.00    -0.206 F 
ATOM     88  C   UNL A   1      42.751  38.641  27.917  1.00  0.00     0.022 A 
BRANCH  85  89
ATOM     89  S   UNL A   1      44.428  39.344  30.026  1.00  0.00     0.124 S 
ATOM     90  O   UNL A   1      43.962  39.216  31.403  1.00  0.00    -0.237 OA
ATOM     91  O   UNL A   1      45.724  38.735  29.738  1.00  0.00    -0.237 OA
ATOM     92  O   UNL A   1      44.201  40.647  29.406  1.00  0.00    -0.744 OA
ENDBRANCH  85  89
ENDBRANCH  59  82
ENDBRANCH  33  34
ENDBRANCH  26  28
ENDBRANCH  25  26
ENDBRANCH  24  25
ENDBRANCH   1  24
TORSDOF 18
ENDMDL
MODEL 3
REMARK VINA RESULT:     -11.3      1.942      2.314
REMARK SMILES Cc1ccc(O[C@H](C)C(=O)Nc2ccsc2C(=O)OCCOC(=O)c2ccc(-c3c4nc(c(-c5cc(S(=O)(=O)[O-])ccc5F)c5ccc([nH]5)c(-c5cc(S(=O)(=O)[O-])ccc5F)c5nc(c(-c6cc(S(=O)(=O)[O-])ccc6F)c6ccc3[nH]6)C=C5)C=C4)cc2)cc1
REMARK SMILES IDX 20 1 19 2 17 3 18 4 16 5 12 6 13 7 14 8 15 9 11 10 9 11
REMARK SMILES IDX 10 12 7 14 8 15 6 16 5 17 1 18 2 19 3 20 89 21 4 22 88 23
REMARK SMILES IDX 21 24 22 25 23 26 24 27 25 28 26 29 87 30 27 31 86 32 28 33
REMARK SMILES IDX 29 34 30 35 80 36 31 37 85 38 79 39 81 40 32 41 84 42 78 43
REMARK SMILES IDX 77 44 33 46 65 47 45 48 64 49 46 50 49 51 63 52 82 53 47 54
REMARK SMILES IDX 48 55 62 57 83 58 50 59 34 60 35 61 43 62 36 63 42 64 44 65
REMARK SMILES IDX 41 66 37 67 38 68 39 69 40 70 66 71 67 72 75 73 68 74 74 75
REMARK SMILES IDX 76 76 73 77 69 78 70 79 71 80 72 81 51 82 52 83 60 84 53 85
REMARK SMILES IDX 59 86 61 87 58 88 54 89 55 90 56 91 57 92
REMARK H PARENT 11 13 81 45 49 56
REMARK Flexibility Score: inf
ROOT
ATOM      1  C   UNL A   1      34.368  28.206  26.100  1.00  0.00     0.275 C 
ENDROOT
BRANCH   1   2
ATOM      2  O   UNL A   1      33.102  27.605  25.797  1.00  0.00    -0.458 OA
BRANCH   2   3
ATOM      3  C   UNL A   1      32.960  27.342  24.463  1.00  0.00     0.350 C 
ATOM      4  O   UNL A   1      33.896  27.271  23.689  1.00  0.00    -0.245 OA
BRANCH   3   5
ATOM      5  C   UNL A   1      31.574  27.239  24.037  1.00  0.00     0.136 A 
ATOM      6  C   UNL A   1      30.960  26.039  23.739  1.00  0.00     0.066 A 
ATOM      7  C   UNL A   1      29.546  26.145  23.662  1.00  0.00     0.039 A 
ATOM      8  C   UNL A   1      29.150  27.464  23.668  1.00  0.00     0.068 A 
ATOM      9  S   UNL A   1      30.491  28.520  23.765  1.00  0.00    -0.135 S 
BRANCH   6  10
ATOM     10  N   UNL A   1      31.725  24.903  23.502  1.00  0.00    -0.321 N 
ATOM     11  C   UNL A   1      31.589  23.845  24.397  1.00  0.00     0.265 C 
ATOM     12  O   UNL A   1      31.555  22.687  23.976  1.00  0.00    -0.270 OA
ATOM     13  H   UNL A   1      32.337  24.849  22.735  1.00  0.00     0.170 HD
BRANCH  11  14
ATOM     14  C   UNL A   1      31.575  24.159  25.922  1.00  0.00     0.259 C 
ATOM     15  C   UNL A   1      30.634  23.134  26.542  1.00  0.00     0.064 C 
BRANCH  14  16
ATOM     16  O   UNL A   1      32.884  24.389  26.444  1.00  0.00    -0.481 OA
BRANCH  16  17
ATOM     17  C   UNL A   1      34.027  23.673  26.259  1.00  0.00     0.120 A 
ATOM     18  C   UNL A   1      37.616  21.630  24.910  1.00  0.00     0.044 C 
ATOM     19  C   UNL A   1      36.420  22.374  25.428  1.00  0.00    -0.051 A 
ATOM     20  C   UNL A   1      35.424  21.686  26.120  1.00  0.00     0.007 A 
ATOM     21  C   UNL A   1      36.233  23.733  25.183  1.00  0.00     0.007 A 
ATOM     22  C   UNL A   1      34.253  22.333  26.543  1.00  0.00     0.047 A 
ATOM     23  C   UNL A   1      35.054  24.372  25.604  1.00  0.00     0.047 A 
ENDBRANCH  16  17
ENDBRANCH  14  16
ENDBRANCH  11  14
ENDBRANCH   6  10
ENDBRANCH   3   5
ENDBRANCH   2   3
ENDBRANCH   1   2
BRANCH   1  24
ATOM     24  C   UNL A   1      34.232  29.387  27.068  1.00  0.00     0.275 C 
BRANCH  24  25
ATOM     25  O   UNL A   1      35.025  29.356  28.285  1.00  0.00    -0.458 OA
BRANCH  25  26
ATOM     26  C   UNL A   1      36.159  30.057  28.577  1.00  0.00     0.338 C 
ATOM     27  O   UNL A   1      36.092  31.203  29.011  1.00  0.00    -0.246 OA
BRANCH  26  28
ATOM     28  C   UNL A   1      37.454  29.333  28.564  1.00  0.00     0.060 A 
ATOM     29  C   UNL A   1      38.404  29.647  27.580  1.00  0.00     0.016 A 
ATOM     30  C   UNL A   1      37.792  28.470  29.591  1.00  0.00     0.016 A 
ATOM     31  C   UNL A   1      39.727  29.249  27.712  1.00  0.00     0.010 A 
ATOM     32  C   UNL A   1      39.113  28.205  29.831  1.00  0.00     0.010 A 
ATOM     33  C   UNL A   1      40.063  28.546  28.861  1.00  0.00    -0.014 A 
BRANCH  33  34
ATOM     34  C   UNL A   1      41.282  27.769  28.968  1.00  0.00     0.031 A 
ATOM     35  C   UNL A   1      41.300  26.363  28.561  1.00  0.00     0.074 A 
ATOM     36  C   UNL A   1      42.303  28.534  29.416  1.00  0.00     0.049 A 
ATOM     37  N   UNL A   1      41.980  25.442  29.144  1.00  0.00    -0.248 NA
ATOM     38  C   UNL A   1      40.458  25.836  27.483  1.00  0.00     0.031 C 
ATOM     39  C   UNL A   1      43.732  28.336  29.503  1.00  0.00     0.029 A 
ATOM     40  N   UNL A   1      42.106  29.731  30.110  1.00  0.00    -0.354 N 
ATOM     41  C   UNL A   1      42.030  24.393  28.248  1.00  0.00     0.074 A 
ATOM     42  C   UNL A   1      40.900  24.576  27.376  1.00  0.00     0.031 C 
ATOM     43  C   UNL A   1      44.214  29.171  30.453  1.00  0.00     0.029 A 
ATOM     44  C   UNL A   1      43.079  29.835  31.090  1.00  0.00     0.049 A 
ATOM     45  H   UNL A   1      41.395  30.389  29.931  1.00  0.00     0.167 HD
ATOM     46  C   UNL A   1      43.186  23.678  28.141  1.00  0.00     0.034 A 
ATOM     47  C   UNL A   1      42.635  29.669  32.376  1.00  0.00     0.034 A 
ATOM     48  C   UNL A   1      44.191  24.240  29.043  1.00  0.00     0.049 A 
ATOM     49  C   UNL A   1      43.084  28.330  32.934  1.00  0.00     0.074 A 
ATOM     50  C   UNL A   1      45.241  25.124  28.861  1.00  0.00     0.029 A 
ATOM     51  N   UNL A   1      43.938  24.220  30.398  1.00  0.00    -0.354 N 
ATOM     52  N   UNL A   1      43.526  27.340  32.203  1.00  0.00    -0.248 NA
ATOM     53  C   UNL A   1      43.058  27.996  34.352  1.00  0.00     0.031 C 
ATOM     54  C   UNL A   1      45.592  25.656  30.138  1.00  0.00     0.029 A 
ATOM     55  C   UNL A   1      44.751  25.096  31.082  1.00  0.00     0.049 A 
ATOM     56  H   UNL A   1      43.259  23.648  30.824  1.00  0.00     0.167 HD
ATOM     57  C   UNL A   1      43.926  26.306  33.002  1.00  0.00     0.074 A 
ATOM     58  C   UNL A   1      43.535  26.740  34.338  1.00  0.00     0.031 C 
ATOM     59  C   UNL A   1      44.563  25.194  32.516  1.00  0.00     0.034 A 
BRANCH  46  60
ATOM     60  C   UNL A   1      43.544  22.731  27.025  1.00  0.00     0.023 A 
ATOM     61  C   UNL A   1      42.976  21.441  27.039  1.00  0.00     0.031 A 
ATOM     62  C   UNL A   1      44.386  23.011  25.932  1.00  0.00     0.131 A 
ATOM     63  C   UNL A   1      43.287  20.479  26.067  1.00  0.00     0.055 A 
ATOM     64  C   UNL A   1      44.720  22.042  24.970  1.00  0.00     0.041 A 
ATOM     65  F   UNL A   1      44.884  24.238  25.725  1.00  0.00    -0.206 F 
ATOM     66  C   UNL A   1      44.175  20.764  25.037  1.00  0.00     0.022 A 
BRANCH  63  67
ATOM     67  S   UNL A   1      42.492  18.854  26.179  1.00  0.00     0.124 S 
ATOM     68  O   UNL A   1      41.141  19.140  25.704  1.00  0.00    -0.237 OA
ATOM     69  O   UNL A   1      43.324  18.038  25.301  1.00  0.00    -0.237 OA
ATOM     70  O   UNL A   1      42.590  18.525  27.600  1.00  0.00    -0.744 OA
ENDBRANCH  63  67
ENDBRANCH  46  60
BRANCH  47  71
ATOM     71  C   UNL A   1      41.308  30.354  32.653  1.00  0.00     0.023 A 
ATOM     72  C   UNL A   1      41.251  31.761  32.475  1.00  0.00     0.031 A 
ATOM     73  C   UNL A   1      40.079  29.695  32.783  1.00  0.00     0.131 A 
ATOM     74  C   UNL A   1      40.035  32.423  32.240  1.00  0.00     0.055 A 
ATOM     75  C   UNL A   1      38.854  30.381  32.659  1.00  0.00     0.041 A 
ATOM     76  F   UNL A   1      40.022  28.364  32.933  1.00  0.00    -0.206 F 
ATOM     77  C   UNL A   1      38.826  31.743  32.344  1.00  0.00     0.022 A 
BRANCH  74  78
ATOM     78  S   UNL A   1      40.120  34.087  31.501  1.00  0.00     0.124 S 
ATOM     79  O   UNL A   1      41.238  34.689  32.217  1.00  0.00    -0.237 OA
ATOM     80  O   UNL A   1      40.356  33.786  30.088  1.00  0.00    -0.237 OA
ATOM     81  O   UNL A   1      38.812  34.668  31.781  1.00  0.00    -0.744 OA
ENDBRANCH  74  78
ENDBRANCH  47  71
BRANCH  59  82
ATOM     82  C   UNL A   1      45.035  24.047  33.371  1.00  0.00     0.023 A 
ATOM     83  C   UNL A   1      46.358  23.965  33.804  1.00  0.00     0.031 A 
ATOM     84  C   UNL A   1      44.192  22.975  33.758  1.00  0.00     0.131 A 
ATOM     85  C   UNL A   1      46.749  22.987  34.726  1.00  0.00     0.055 A 
ATOM     86  C   UNL A   1      44.609  21.945  34.598  1.00  0.00     0.041 A 
ATOM     87  F   UNL A   1      42.913  22.879  33.370  1.00  0.00    -0.206 F 
ATOM     88  C   UNL A   1      45.888  21.967  35.122  1.00  0.00     0.022 A 
BRANCH  85  89
ATOM     89  S   UNL A   1      48.380  23.157  35.476  1.00  0.00     0.124 S 
ATOM     90  O   UNL A   1      48.501  24.602  35.645  1.00  0.00    -0.237 OA
ATOM     91  O   UNL A   1      48.217  22.388  36.707  1.00  0.00    -0.237 OA
ATOM     92  O   UNL A   1      49.276  22.566  34.486  1.00  0.00    -0.744 OA
ENDBRANCH  85  89
ENDBRANCH  59  82
ENDBRANCH  33  34
ENDBRANCH  26  28
ENDBRANCH  25  26
ENDBRANCH  24  25
ENDBRANCH   1  24
TORSDOF 18
ENDMDL
