MODEL 1
REMARK VINA RESULT:     -10.7      0.000      0.000
REMARK SMILES COc1cccc([C@@H]2CN(C(=O)CCSC)C[C@H]2C(=O)OCCOC(=O)c2ccc(-c3c4nc(c(-c5cc(S(=O)(=O)[O-])ccc5F)c5ccc([nH]5)c(-c5cc(S(=O)(=O)[O-])ccc5F)c5nc(c(-c6cc(S(=O)(=O)[O-])ccc6F)c6ccc3[nH]6)C=C5)C=C4)cc2)c1OC
REMARK SMILES IDX 22 1 21 2 19 3 20 4 18 5 8 6 9 7 10 8 17 9 7 10 3 11 4 12
REMARK SMILES IDX 90 13 5 14 6 15 2 16 1 17 91 18 92 19 11 20 12 21 13 22
REMARK SMILES IDX 14 23 15 24 16 25 23 26 24 27 25 28 26 29 27 30 28 31 89 32
REMARK SMILES IDX 29 33 88 34 30 35 31 36 32 37 82 38 33 39 87 40 81 41 83 42
REMARK SMILES IDX 34 43 86 44 80 45 79 46 35 48 67 49 47 50 66 51 48 52 51 53
REMARK SMILES IDX 65 54 84 55 49 56 50 57 64 59 85 60 52 61 36 62 37 63 45 64
REMARK SMILES IDX 38 65 44 66 46 67 43 68 39 69 40 70 41 71 42 72 68 73 69 74
REMARK SMILES IDX 77 75 70 76 76 77 78 78 75 79 71 80 72 81 73 82 74 83 53 84
REMARK SMILES IDX 54 85 62 86 55 87 61 88 63 89 60 90 56 91 57 92 58 93 59 94
REMARK H PARENT 83 47 51 58
REMARK Flexibility Score: inf
ROOT
ATOM      1  C   UNL A   1      38.713  20.885  25.530  1.00  0.00     0.274 C 
ENDROOT
BRANCH   1   2
ATOM      2  O   UNL A   1      37.370  20.775  25.022  1.00  0.00    -0.462 OA
BRANCH   2   3
ATOM      3  C   UNL A   1      36.753  21.954  24.750  1.00  0.00     0.311 C 
ATOM      4  O   UNL A   1      37.335  22.977  24.402  1.00  0.00    -0.252 OA
BRANCH   3   5
ATOM      5  C   UNL A   1      35.267  21.933  25.003  1.00  0.00     0.128 C 
ATOM      6  C   UNL A   1      34.356  22.661  23.995  1.00  0.00     0.059 C 
ATOM      7  C   UNL A   1      33.127  21.749  23.858  1.00  0.00     0.129 C 
ATOM      8  N   UNL A   1      33.503  20.459  24.408  1.00  0.00    -0.341 N 
ATOM      9  C   UNL A   1      34.839  20.475  24.957  1.00  0.00     0.135 C 
BRANCH   6  10
ATOM     10  C   UNL A   1      33.915  24.089  24.316  1.00  0.00     0.004 A 
ATOM     11  C   UNL A   1      33.541  26.441  23.755  1.00  0.00     0.161 A 
ATOM     12  C   UNL A   1      33.399  26.747  25.111  1.00  0.00     0.050 A 
ATOM     13  C   UNL A   1      33.789  25.115  23.346  1.00  0.00     0.164 A 
ATOM     14  C   UNL A   1      33.484  25.741  26.065  1.00  0.00     0.004 A 
ATOM     15  C   UNL A   1      33.744  24.428  25.673  1.00  0.00     0.008 A 
BRANCH  11  16
ATOM     16  O   UNL A   1      33.585  27.464  22.841  1.00  0.00    -0.493 OA
ATOM     17  C   UNL A   1      32.631  28.492  23.114  1.00  0.00     0.278 C 
ENDBRANCH  11  16
BRANCH  13  18
ATOM     18  O   UNL A   1      33.995  24.727  22.045  1.00  0.00    -0.493 OA
ATOM     19  C   UNL A   1      32.847  24.624  21.205  1.00  0.00     0.278 C 
ENDBRANCH  13  18
ENDBRANCH   6  10
BRANCH   8  20
ATOM     20  C   UNL A   1      32.722  19.333  24.502  1.00  0.00     0.223 C 
ATOM     21  O   UNL A   1      32.206  18.989  25.568  1.00  0.00    -0.275 OA
BRANCH  20  22
ATOM     22  C   UNL A   1      32.498  18.510  23.254  1.00  0.00     0.111 C 
BRANCH  22  23
ATOM     23  C   UNL A   1      33.541  17.406  23.124  1.00  0.00     0.079 C 
BRANCH  23  24
ATOM     24  S   UNL A   1      33.361  16.095  24.379  1.00  0.00    -0.165 SA
ATOM     25  C   UNL A   1      34.975  16.224  25.192  1.00  0.00     0.085 C 
ENDBRANCH  23  24
ENDBRANCH  22  23
ENDBRANCH  20  22
ENDBRANCH   8  20
ENDBRANCH   3   5
ENDBRANCH   2   3
ENDBRANCH   1   2
BRANCH   1  26
ATOM     26  C   UNL A   1      39.297  19.500  25.791  1.00  0.00     0.275 C 
BRANCH  26  27
ATOM     27  O   UNL A   1      40.728  19.535  25.650  1.00  0.00    -0.458 OA
BRANCH  27  28
ATOM     28  C   UNL A   1      41.428  19.738  26.790  1.00  0.00     0.338 C 
ATOM     29  O   UNL A   1      41.725  18.904  27.632  1.00  0.00    -0.246 OA
BRANCH  28  30
ATOM     30  C   UNL A   1      41.741  21.170  26.907  1.00  0.00     0.060 A 
ATOM     31  C   UNL A   1      42.046  21.928  25.777  1.00  0.00     0.016 A 
ATOM     32  C   UNL A   1      41.755  21.757  28.171  1.00  0.00     0.016 A 
ATOM     33  C   UNL A   1      42.386  23.273  25.910  1.00  0.00     0.010 A 
ATOM     34  C   UNL A   1      42.036  23.119  28.294  1.00  0.00     0.010 A 
ATOM     35  C   UNL A   1      42.365  23.892  27.166  1.00  0.00    -0.014 A 
BRANCH  35  36
ATOM     36  C   UNL A   1      42.677  25.340  27.312  1.00  0.00     0.031 A 
ATOM     37  C   UNL A   1      44.037  25.865  26.935  1.00  0.00     0.074 A 
ATOM     38  C   UNL A   1      41.747  26.182  27.805  1.00  0.00     0.049 A 
ATOM     39  N   UNL A   1      44.538  27.061  27.100  1.00  0.00    -0.248 NA
ATOM     40  C   UNL A   1      44.947  24.918  26.276  1.00  0.00     0.031 C 
ATOM     41  C   UNL A   1      40.374  25.816  28.159  1.00  0.00     0.029 A 
ATOM     42  N   UNL A   1      41.821  27.520  28.110  1.00  0.00    -0.354 N 
ATOM     43  C   UNL A   1      45.820  27.016  26.562  1.00  0.00     0.074 A 
ATOM     44  C   UNL A   1      46.025  25.664  26.085  1.00  0.00     0.031 C 
ATOM     45  C   UNL A   1      39.738  26.898  28.632  1.00  0.00     0.029 A 
ATOM     46  C   UNL A   1      40.678  28.011  28.698  1.00  0.00     0.049 A 
ATOM     47  H   UNL A   1      42.615  28.072  27.928  1.00  0.00     0.167 HD
ATOM     48  C   UNL A   1      46.742  28.007  26.476  1.00  0.00     0.034 A 
ATOM     49  C   UNL A   1      40.430  29.201  29.280  1.00  0.00     0.034 A 
ATOM     50  C   UNL A   1      46.548  29.333  27.008  1.00  0.00     0.049 A 
ATOM     51  C   UNL A   1      41.530  30.228  29.337  1.00  0.00     0.074 A 
ATOM     52  C   UNL A   1      47.421  30.408  26.991  1.00  0.00     0.029 A 
ATOM     53  N   UNL A   1      45.412  29.758  27.683  1.00  0.00    -0.354 N 
ATOM     54  N   UNL A   1      42.743  30.165  28.840  1.00  0.00    -0.248 NA
ATOM     55  C   UNL A   1      41.233  31.476  30.052  1.00  0.00     0.031 C 
ATOM     56  C   UNL A   1      46.846  31.452  27.725  1.00  0.00     0.029 A 
ATOM     57  C   UNL A   1      45.582  31.059  28.134  1.00  0.00     0.049 A 
ATOM     58  H   UNL A   1      44.603  29.215  27.823  1.00  0.00     0.167 HD
ATOM     59  C   UNL A   1      43.348  31.376  29.166  1.00  0.00     0.074 A 
ATOM     60  C   UNL A   1      42.362  32.151  29.892  1.00  0.00     0.031 C 
ATOM     61  C   UNL A   1      44.603  31.809  28.883  1.00  0.00     0.034 A 
BRANCH  48  62
ATOM     62  C   UNL A   1      48.066  27.659  25.843  1.00  0.00     0.023 A 
ATOM     63  C   UNL A   1      48.277  27.791  24.459  1.00  0.00     0.031 A 
ATOM     64  C   UNL A   1      49.117  27.146  26.623  1.00  0.00     0.131 A 
ATOM     65  C   UNL A   1      49.480  27.348  23.890  1.00  0.00     0.055 A 
ATOM     66  C   UNL A   1      50.340  26.777  26.061  1.00  0.00     0.041 A 
ATOM     67  F   UNL A   1      48.963  26.974  27.946  1.00  0.00    -0.206 F 
ATOM     68  C   UNL A   1      50.523  26.863  24.684  1.00  0.00     0.022 A 
BRANCH  65  69
ATOM     69  S   UNL A   1      49.602  27.267  22.082  1.00  0.00     0.124 S 
ATOM     70  O   UNL A   1      51.041  27.095  21.891  1.00  0.00    -0.237 OA
ATOM     71  O   UNL A   1      48.772  26.111  21.764  1.00  0.00    -0.237 OA
ATOM     72  O   UNL A   1      49.073  28.558  21.645  1.00  0.00    -0.744 OA
ENDBRANCH  65  69
ENDBRANCH  48  62
BRANCH  49  73
ATOM     73  C   UNL A   1      39.115  29.454  29.937  1.00  0.00     0.023 A 
ATOM     74  C   UNL A   1      38.120  30.211  29.300  1.00  0.00     0.031 A 
ATOM     75  C   UNL A   1      38.847  28.965  31.228  1.00  0.00     0.131 A 
ATOM     76  C   UNL A   1      36.914  30.479  29.967  1.00  0.00     0.055 A 
ATOM     77  C   UNL A   1      37.627  29.190  31.867  1.00  0.00     0.041 A 
ATOM     78  F   UNL A   1      39.768  28.241  31.885  1.00  0.00    -0.206 F 
ATOM     79  C   UNL A   1      36.655  29.960  31.238  1.00  0.00     0.022 A 
BRANCH  76  80
ATOM     80  S   UNL A   1      35.708  31.577  29.174  1.00  0.00     0.124 S 
ATOM     81  O   UNL A   1      34.943  32.053  30.320  1.00  0.00    -0.237 OA
ATOM     82  O   UNL A   1      36.573  32.558  28.527  1.00  0.00    -0.237 OA
ATOM     83  O   UNL A   1      34.986  30.689  28.265  1.00  0.00    -0.744 OA
ENDBRANCH  76  80
ENDBRANCH  49  73
BRANCH  61  84
ATOM     84  C   UNL A   1      44.963  33.199  29.342  1.00  0.00     0.023 A 
ATOM     85  C   UNL A   1      44.729  34.326  28.535  1.00  0.00     0.031 A 
ATOM     86  C   UNL A   1      45.560  33.395  30.599  1.00  0.00     0.131 A 
ATOM     87  C   UNL A   1      45.131  35.595  28.977  1.00  0.00     0.055 A 
ATOM     88  C   UNL A   1      45.909  34.666  31.056  1.00  0.00     0.041 A 
ATOM     89  F   UNL A   1      45.809  32.352  31.407  1.00  0.00    -0.206 F 
ATOM     90  C   UNL A   1      45.704  35.775  30.239  1.00  0.00     0.022 A 
BRANCH  87  91
ATOM     91  S   UNL A   1      44.961  37.006  27.850  1.00  0.00     0.124 S 
ATOM     92  O   UNL A   1      45.419  38.114  28.681  1.00  0.00    -0.237 OA
ATOM     93  O   UNL A   1      45.838  36.632  26.745  1.00  0.00    -0.237 OA
ATOM     94  O   UNL A   1      43.535  37.020  27.529  1.00  0.00    -0.744 OA
ENDBRANCH  87  91
ENDBRANCH  61  84
ENDBRANCH  35  36
ENDBRANCH  28  30
ENDBRANCH  27  28
ENDBRANCH  26  27
ENDBRANCH   1  26
TORSDOF 21
ENDMDL
MODEL 2
REMARK VINA RESULT:     -10.6      1.846      7.498
REMARK SMILES COc1cccc([C@@H]2CN(C(=O)CCSC)C[C@H]2C(=O)OCCOC(=O)c2ccc(-c3c4nc(c(-c5cc(S(=O)(=O)[O-])ccc5F)c5ccc([nH]5)c(-c5cc(S(=O)(=O)[O-])ccc5F)c5nc(c(-c6cc(S(=O)(=O)[O-])ccc6F)c6ccc3[nH]6)C=C5)C=C4)cc2)c1OC
REMARK SMILES IDX 22 1 21 2 19 3 20 4 18 5 8 6 9 7 10 8 17 9 7 10 3 11 4 12
REMARK SMILES IDX 90 13 5 14 6 15 2 16 1 17 91 18 92 19 11 20 12 21 13 22
REMARK SMILES IDX 14 23 15 24 16 25 23 26 24 27 25 28 26 29 27 30 28 31 89 32
REMARK SMILES IDX 29 33 88 34 30 35 31 36 32 37 82 38 33 39 87 40 81 41 83 42
REMARK SMILES IDX 34 43 86 44 80 45 79 46 35 48 67 49 47 50 66 51 48 52 51 53
REMARK SMILES IDX 65 54 84 55 49 56 50 57 64 59 85 60 52 61 36 62 37 63 45 64
REMARK SMILES IDX 38 65 44 66 46 67 43 68 39 69 40 70 41 71 42 72 68 73 69 74
REMARK SMILES IDX 77 75 70 76 76 77 78 78 75 79 71 80 72 81 73 82 74 83 53 84
REMARK SMILES IDX 54 85 62 86 55 87 61 88 63 89 60 90 56 91 57 92 58 93 59 94
REMARK H PARENT 83 47 51 58
REMARK Flexibility Score: inf
ROOT
ATOM      1  C   UNL A   1      38.416  21.127  25.489  1.00  0.00     0.274 C 
ENDROOT
BRANCH   1   2
ATOM      2  O   UNL A   1      37.356  21.002  24.522  1.00  0.00    -0.462 OA
BRANCH   2   3
ATOM      3  C   UNL A   1      36.680  22.148  24.250  1.00  0.00     0.311 C 
ATOM      4  O   UNL A   1      37.186  23.151  23.757  1.00  0.00    -0.252 OA
BRANCH   3   5
ATOM      5  C   UNL A   1      35.240  22.122  24.695  1.00  0.00     0.128 C 
ATOM      6  C   UNL A   1      34.207  22.873  23.833  1.00  0.00     0.059 C 
ATOM      7  C   UNL A   1      32.967  21.965  23.838  1.00  0.00     0.129 C 
ATOM      8  N   UNL A   1      33.408  20.663  24.305  1.00  0.00    -0.341 N 
ATOM      9  C   UNL A   1      34.804  20.665  24.673  1.00  0.00     0.135 C 
BRANCH   6  10
ATOM     10  C   UNL A   1      33.818  24.294  24.240  1.00  0.00     0.004 A 
ATOM     11  C   UNL A   1      33.533  26.688  23.825  1.00  0.00     0.161 A 
ATOM     12  C   UNL A   1      33.395  26.915  25.198  1.00  0.00     0.050 A 
ATOM     13  C   UNL A   1      33.734  25.382  23.336  1.00  0.00     0.164 A 
ATOM     14  C   UNL A   1      33.439  25.849  26.088  1.00  0.00     0.004 A 
ATOM     15  C   UNL A   1      33.652  24.554  25.615  1.00  0.00     0.008 A 
BRANCH  11  16
ATOM     16  O   UNL A   1      33.619  27.763  22.977  1.00  0.00    -0.493 OA
ATOM     17  C   UNL A   1      32.720  28.818  23.327  1.00  0.00     0.278 C 
ENDBRANCH  11  16
BRANCH  13  18
ATOM     18  O   UNL A   1      33.931  25.068  22.014  1.00  0.00    -0.493 OA
ATOM     19  C   UNL A   1      32.776  24.995  21.181  1.00  0.00     0.278 C 
ENDBRANCH  13  18
ENDBRANCH   6  10
BRANCH   8  20
ATOM     20  C   UNL A   1      32.642  19.536  24.476  1.00  0.00     0.223 C 
ATOM     21  O   UNL A   1      32.090  19.283  25.550  1.00  0.00    -0.275 OA
BRANCH  20  22
ATOM     22  C   UNL A   1      32.480  18.595  23.304  1.00  0.00     0.111 C 
BRANCH  22  23
ATOM     23  C   UNL A   1      33.567  17.526  23.298  1.00  0.00     0.079 C 
BRANCH  23  24
ATOM     24  S   UNL A   1      33.281  16.203  24.520  1.00  0.00    -0.165 SA
ATOM     25  C   UNL A   1      34.958  16.031  25.184  1.00  0.00     0.085 C 
ENDBRANCH  23  24
ENDBRANCH  22  23
ENDBRANCH  20  22
ENDBRANCH   8  20
ENDBRANCH   3   5
ENDBRANCH   2   3
ENDBRANCH   1   2
BRANCH   1  26
ATOM     26  C   UNL A   1      39.282  19.870  25.494  1.00  0.00     0.275 C 
BRANCH  26  27
ATOM     27  O   UNL A   1      40.293  19.974  26.510  1.00  0.00    -0.458 OA
BRANCH  27  28
ATOM     28  C   UNL A   1      41.542  20.257  26.073  1.00  0.00     0.338 C 
ATOM     29  O   UNL A   1      42.276  19.532  25.417  1.00  0.00    -0.246 OA
BRANCH  28  30
ATOM     30  C   UNL A   1      41.931  21.585  26.572  1.00  0.00     0.060 A 
ATOM     31  C   UNL A   1      42.197  21.788  27.926  1.00  0.00     0.016 A 
ATOM     32  C   UNL A   1      42.002  22.648  25.673  1.00  0.00     0.016 A 
ATOM     33  C   UNL A   1      42.517  23.063  28.389  1.00  0.00     0.010 A 
ATOM     34  C   UNL A   1      42.384  23.910  26.132  1.00  0.00     0.010 A 
ATOM     35  C   UNL A   1      42.636  24.136  27.497  1.00  0.00    -0.014 A 
BRANCH  35  36
ATOM     36  C   UNL A   1      43.027  25.490  27.975  1.00  0.00     0.031 A 
ATOM     37  C   UNL A   1      41.981  26.450  28.474  1.00  0.00     0.074 A 
ATOM     38  C   UNL A   1      44.321  25.867  27.943  1.00  0.00     0.049 A 
ATOM     39  N   UNL A   1      42.105  27.707  28.817  1.00  0.00    -0.248 NA
ATOM     40  C   UNL A   1      40.617  25.922  28.612  1.00  0.00     0.031 C 
ATOM     41  C   UNL A   1      45.442  25.017  27.535  1.00  0.00     0.029 A 
ATOM     42  N   UNL A   1      44.912  27.071  28.242  1.00  0.00    -0.354 N 
ATOM     43  C   UNL A   1      40.838  28.120  29.217  1.00  0.00     0.074 A 
ATOM     44  C   UNL A   1      39.957  26.983  29.052  1.00  0.00     0.031 C 
ATOM     45  C   UNL A   1      46.580  25.723  27.608  1.00  0.00     0.029 A 
ATOM     46  C   UNL A   1      46.263  27.097  27.983  1.00  0.00     0.049 A 
ATOM     47  H   UNL A   1      44.416  27.840  28.605  1.00  0.00     0.167 HD
ATOM     48  C   UNL A   1      40.446  29.334  29.677  1.00  0.00     0.034 A 
ATOM     49  C   UNL A   1      47.139  28.121  27.985  1.00  0.00     0.034 A 
ATOM     50  C   UNL A   1      41.321  30.475  29.780  1.00  0.00     0.049 A 
ATOM     51  C   UNL A   1      46.645  29.503  28.322  1.00  0.00     0.074 A 
ATOM     52  C   UNL A   1      41.025  31.756  30.216  1.00  0.00     0.029 A 
ATOM     53  N   UNL A   1      42.660  30.484  29.413  1.00  0.00    -0.354 N 
ATOM     54  N   UNL A   1      45.441  29.883  28.682  1.00  0.00    -0.248 NA
ATOM     55  C   UNL A   1      47.622  30.595  28.233  1.00  0.00     0.031 C 
ATOM     56  C   UNL A   1      42.160  32.555  30.035  1.00  0.00     0.029 A 
ATOM     57  C   UNL A   1      43.189  31.757  29.561  1.00  0.00     0.049 A 
ATOM     58  H   UNL A   1      43.162  29.699  29.093  1.00  0.00     0.167 HD
ATOM     59  C   UNL A   1      45.523  31.258  28.881  1.00  0.00     0.074 A 
ATOM     60  C   UNL A   1      46.895  31.636  28.611  1.00  0.00     0.031 C 
ATOM     61  C   UNL A   1      44.552  32.127  29.260  1.00  0.00     0.034 A 
BRANCH  48  62
ATOM     62  C   UNL A   1      38.989  29.496  30.030  1.00  0.00     0.023 A 
ATOM     63  C   UNL A   1      38.080  30.103  29.146  1.00  0.00     0.031 A 
ATOM     64  C   UNL A   1      38.509  29.079  31.284  1.00  0.00     0.131 A 
ATOM     65  C   UNL A   1      36.760  30.342  29.555  1.00  0.00     0.055 A 
ATOM     66  C   UNL A   1      37.175  29.251  31.656  1.00  0.00     0.041 A 
ATOM     67  F   UNL A   1      39.337  28.516  32.179  1.00  0.00    -0.206 F 
ATOM     68  C   UNL A   1      36.294  29.900  30.796  1.00  0.00     0.022 A 
BRANCH  65  69
ATOM     69  S   UNL A   1      35.705  31.379  28.506  1.00  0.00     0.124 S 
ATOM     70  O   UNL A   1      36.657  32.381  28.030  1.00  0.00    -0.237 OA
ATOM     71  O   UNL A   1      35.225  30.429  27.508  1.00  0.00    -0.237 OA
ATOM     72  O   UNL A   1      34.691  31.883  29.430  1.00  0.00    -0.744 OA
ENDBRANCH  65  69
ENDBRANCH  48  62
BRANCH  49  73
ATOM     73  C   UNL A   1      48.554  27.897  27.569  1.00  0.00     0.023 A 
ATOM     74  C   UNL A   1      49.565  27.691  28.519  1.00  0.00     0.031 A 
ATOM     75  C   UNL A   1      48.919  27.917  26.210  1.00  0.00     0.131 A 
ATOM     76  C   UNL A   1      50.896  27.539  28.099  1.00  0.00     0.055 A 
ATOM     77  C   UNL A   1      50.235  27.714  25.794  1.00  0.00     0.041 A 
ATOM     78  F   UNL A   1      47.991  28.118  25.261  1.00  0.00    -0.206 F 
ATOM     79  C   UNL A   1      51.234  27.533  26.744  1.00  0.00     0.022 A 
BRANCH  76  80
ATOM     80  S   UNL A   1      52.196  27.416  29.358  1.00  0.00     0.124 S 
ATOM     81  O   UNL A   1      52.063  26.029  29.786  1.00  0.00    -0.237 OA
ATOM     82  O   UNL A   1      53.392  27.740  28.589  1.00  0.00    -0.237 OA
ATOM     83  O   UNL A   1      51.804  28.416  30.350  1.00  0.00    -0.744 OA
ENDBRANCH  76  80
ENDBRANCH  49  73
BRANCH  61  84
ATOM     84  C   UNL A   1      44.956  33.570  29.429  1.00  0.00     0.023 A 
ATOM     85  C   UNL A   1      44.839  34.496  28.379  1.00  0.00     0.031 A 
ATOM     86  C   UNL A   1      45.477  34.017  30.655  1.00  0.00     0.131 A 
ATOM     87  C   UNL A   1      45.280  35.815  28.561  1.00  0.00     0.055 A 
ATOM     88  C   UNL A   1      45.864  35.344  30.848  1.00  0.00     0.041 A 
ATOM     89  F   UNL A   1      45.614  33.172  31.690  1.00  0.00    -0.206 F 
ATOM     90  C   UNL A   1      45.776  36.250  29.794  1.00  0.00     0.022 A 
BRANCH  87  91
ATOM     91  S   UNL A   1      45.263  36.945  27.143  1.00  0.00     0.124 S 
ATOM     92  O   UNL A   1      46.111  36.242  26.185  1.00  0.00    -0.237 OA
ATOM     93  O   UNL A   1      43.843  37.010  26.810  1.00  0.00    -0.237 OA
ATOM     94  O   UNL A   1      45.829  38.181  27.680  1.00  0.00    -0.744 OA
ENDBRANCH  87  91
ENDBRANCH  61  84
ENDBRANCH  35  36
ENDBRANCH  28  30
ENDBRANCH  27  28
ENDBRANCH  26  27
ENDBRANCH   1  26
TORSDOF 21
ENDMDL
MODEL 3
REMARK VINA RESULT:     -10.5      1.611      7.673
REMARK SMILES COc1cccc([C@@H]2CN(C(=O)CCSC)C[C@H]2C(=O)OCCOC(=O)c2ccc(-c3c4nc(c(-c5cc(S(=O)(=O)[O-])ccc5F)c5ccc([nH]5)c(-c5cc(S(=O)(=O)[O-])ccc5F)c5nc(c(-c6cc(S(=O)(=O)[O-])ccc6F)c6ccc3[nH]6)C=C5)C=C4)cc2)c1OC
REMARK SMILES IDX 22 1 21 2 19 3 20 4 18 5 8 6 9 7 10 8 17 9 7 10 3 11 4 12
REMARK SMILES IDX 90 13 5 14 6 15 2 16 1 17 91 18 92 19 11 20 12 21 13 22
REMARK SMILES IDX 14 23 15 24 16 25 23 26 24 27 25 28 26 29 27 30 28 31 89 32
REMARK SMILES IDX 29 33 88 34 30 35 31 36 32 37 82 38 33 39 87 40 81 41 83 42
REMARK SMILES IDX 34 43 86 44 80 45 79 46 35 48 67 49 47 50 66 51 48 52 51 53
REMARK SMILES IDX 65 54 84 55 49 56 50 57 64 59 85 60 52 61 36 62 37 63 45 64
REMARK SMILES IDX 38 65 44 66 46 67 43 68 39 69 40 70 41 71 42 72 68 73 69 74
REMARK SMILES IDX 77 75 70 76 76 77 78 78 75 79 71 80 72 81 73 82 74 83 53 84
REMARK SMILES IDX 54 85 62 86 55 87 61 88 63 89 60 90 56 91 57 92 58 93 59 94
REMARK H PARENT 83 47 51 58
REMARK Flexibility Score: inf
ROOT
ATOM      1  C   UNL A   1      35.605  21.191  26.193  1.00  0.00     0.274 C 
ENDROOT
BRANCH   1   2
ATOM      2  O   UNL A   1      34.836  22.407  26.233  1.00  0.00    -0.462 OA
BRANCH   2   3
ATOM      3  C   UNL A   1      33.534  22.260  26.593  1.00  0.00     0.311 C 
ATOM      4  O   UNL A   1      33.127  22.292  27.750  1.00  0.00    -0.252 OA
BRANCH   3   5
ATOM      5  C   UNL A   1      32.616  21.958  25.435  1.00  0.00     0.128 C 
ATOM      6  C   UNL A   1      32.908  22.648  24.088  1.00  0.00     0.059 C 
ATOM      7  C   UNL A   1      32.620  21.568  23.032  1.00  0.00     0.129 C 
ATOM      8  N   UNL A   1      32.577  20.300  23.737  1.00  0.00    -0.341 N 
ATOM      9  C   UNL A   1      32.737  20.467  25.162  1.00  0.00     0.135 C 
BRANCH   6  10
ATOM     10  C   UNL A   1      32.146  23.928  23.749  1.00  0.00     0.004 A 
ATOM     11  C   UNL A   1      31.897  26.360  23.632  1.00  0.00     0.161 A 
ATOM     12  C   UNL A   1      30.526  26.214  23.403  1.00  0.00     0.050 A 
ATOM     13  C   UNL A   1      32.717  25.225  23.796  1.00  0.00     0.164 A 
ATOM     14  C   UNL A   1      29.965  24.945  23.318  1.00  0.00     0.004 A 
ATOM     15  C   UNL A   1      30.765  23.816  23.494  1.00  0.00     0.008 A 
BRANCH  11  16
ATOM     16  O   UNL A   1      32.408  27.616  23.844  1.00  0.00    -0.493 OA
ATOM     17  C   UNL A   1      31.778  28.613  23.037  1.00  0.00     0.278 C 
ENDBRANCH  11  16
BRANCH  13  18
ATOM     18  O   UNL A   1      34.060  25.270  24.077  1.00  0.00    -0.493 OA
ATOM     19  C   UNL A   1      34.439  25.660  25.395  1.00  0.00     0.278 C 
ENDBRANCH  13  18
ENDBRANCH   6  10
BRANCH   8  20
ATOM     20  C   UNL A   1      32.344  19.057  23.201  1.00  0.00     0.223 C 
ATOM     21  O   UNL A   1      32.064  18.906  22.009  1.00  0.00    -0.275 OA
BRANCH  20  22
ATOM     22  C   UNL A   1      32.441  17.854  24.111  1.00  0.00     0.111 C 
BRANCH  22  23
ATOM     23  C   UNL A   1      33.702  17.044  23.828  1.00  0.00     0.079 C 
BRANCH  23  24
ATOM     24  S   UNL A   1      34.185  15.959  25.212  1.00  0.00    -0.165 SA
ATOM     25  C   UNL A   1      32.599  15.143  25.530  1.00  0.00     0.085 C 
ENDBRANCH  23  24
ENDBRANCH  22  23
ENDBRANCH  20  22
ENDBRANCH   8  20
ENDBRANCH   3   5
ENDBRANCH   2   3
ENDBRANCH   1   2
BRANCH   1  26
ATOM     26  C   UNL A   1      36.595  21.226  25.032  1.00  0.00     0.275 C 
BRANCH  26  27
ATOM     27  O   UNL A   1      37.602  22.223  25.273  1.00  0.00    -0.458 OA
BRANCH  27  28
ATOM     28  C   UNL A   1      38.655  21.828  26.026  1.00  0.00     0.338 C 
ATOM     29  O   UNL A   1      38.976  20.682  26.301  1.00  0.00    -0.246 OA
BRANCH  28  30
ATOM     30  C   UNL A   1      39.347  23.021  26.536  1.00  0.00     0.060 A 
ATOM     31  C   UNL A   1      40.336  22.907  27.513  1.00  0.00     0.016 A 
ATOM     32  C   UNL A   1      38.981  24.274  26.049  1.00  0.00     0.016 A 
ATOM     33  C   UNL A   1      40.950  24.051  28.021  1.00  0.00     0.010 A 
ATOM     34  C   UNL A   1      39.642  25.412  26.516  1.00  0.00     0.010 A 
ATOM     35  C   UNL A   1      40.627  25.316  27.514  1.00  0.00    -0.014 A 
BRANCH  35  36
ATOM     36  C   UNL A   1      41.312  26.539  28.014  1.00  0.00     0.031 A 
ATOM     37  C   UNL A   1      40.534  27.600  28.745  1.00  0.00     0.074 A 
ATOM     38  C   UNL A   1      42.632  26.708  27.794  1.00  0.00     0.049 A 
ATOM     39  N   UNL A   1      40.923  28.782  29.149  1.00  0.00    -0.248 NA
ATOM     40  C   UNL A   1      39.137  27.284  29.071  1.00  0.00     0.031 C 
ATOM     41  C   UNL A   1      43.514  25.734  27.147  1.00  0.00     0.029 A 
ATOM     42  N   UNL A   1      43.459  27.769  28.073  1.00  0.00    -0.354 N 
ATOM     43  C   UNL A   1      39.822  29.350  29.782  1.00  0.00     0.074 A 
ATOM     44  C   UNL A   1      38.744  28.389  29.687  1.00  0.00     0.031 C 
ATOM     45  C   UNL A   1      44.754  26.241  27.079  1.00  0.00     0.029 A 
ATOM     46  C   UNL A   1      44.739  27.606  27.596  1.00  0.00     0.049 A 
ATOM     47  H   UNL A   1      43.163  28.568  28.566  1.00  0.00     0.167 HD
ATOM     48  C   UNL A   1      39.719  30.562  30.384  1.00  0.00     0.034 A 
ATOM     49  C   UNL A   1      45.768  28.473  27.524  1.00  0.00     0.034 A 
ATOM     50  C   UNL A   1      40.782  31.534  30.419  1.00  0.00     0.049 A 
ATOM     51  C   UNL A   1      45.575  29.877  28.033  1.00  0.00     0.074 A 
ATOM     52  C   UNL A   1      40.780  32.798  30.986  1.00  0.00     0.029 A 
ATOM     53  N   UNL A   1      42.031  31.366  29.836  1.00  0.00    -0.354 N 
ATOM     54  N   UNL A   1      44.523  30.406  28.613  1.00  0.00    -0.248 NA
ATOM     55  C   UNL A   1      46.700  30.804  27.859  1.00  0.00     0.031 C 
ATOM     56  C   UNL A   1      41.994  33.421  30.675  1.00  0.00     0.029 A 
ATOM     57  C   UNL A   1      42.787  32.520  29.982  1.00  0.00     0.049 A 
ATOM     58  H   UNL A   1      42.336  30.547  29.384  1.00  0.00     0.167 HD
ATOM     59  C   UNL A   1      44.869  31.725  28.891  1.00  0.00     0.074 A 
ATOM     60  C   UNL A   1      46.229  31.906  28.425  1.00  0.00     0.031 C 
ATOM     61  C   UNL A   1      44.131  32.697  29.486  1.00  0.00     0.034 A 
BRANCH  48  62
ATOM     62  C   UNL A   1      38.382  30.917  30.984  1.00  0.00     0.023 A 
ATOM     63  C   UNL A   1      37.369  31.523  30.220  1.00  0.00     0.031 A 
ATOM     64  C   UNL A   1      38.130  30.689  32.349  1.00  0.00     0.131 A 
ATOM     65  C   UNL A   1      36.184  31.946  30.840  1.00  0.00     0.055 A 
ATOM     66  C   UNL A   1      36.918  31.044  32.943  1.00  0.00     0.041 A 
ATOM     67  F   UNL A   1      39.070  30.137  33.133  1.00  0.00    -0.206 F 
ATOM     68  C   UNL A   1      35.941  31.690  32.192  1.00  0.00     0.022 A 
BRANCH  65  69
ATOM     69  S   UNL A   1      35.032  32.975  29.889  1.00  0.00     0.124 S 
ATOM     70  O   UNL A   1      34.463  32.000  28.960  1.00  0.00    -0.237 OA
ATOM     71  O   UNL A   1      34.132  33.474  30.923  1.00  0.00    -0.237 OA
ATOM     72  O   UNL A   1      35.898  33.979  29.274  1.00  0.00    -0.744 OA
ENDBRANCH  65  69
ENDBRANCH  48  62
BRANCH  49  73
ATOM     73  C   UNL A   1      47.043  28.070  26.864  1.00  0.00     0.023 A 
ATOM     74  C   UNL A   1      47.166  28.060  25.467  1.00  0.00     0.031 A 
ATOM     75  C   UNL A   1      48.151  27.658  27.627  1.00  0.00     0.131 A 
ATOM     76  C   UNL A   1      48.361  27.623  24.875  1.00  0.00     0.055 A 
ATOM     77  C   UNL A   1      49.355  27.272  27.036  1.00  0.00     0.041 A 
ATOM     78  F   UNL A   1      48.084  27.641  28.968  1.00  0.00    -0.206 F 
ATOM     79  C   UNL A   1      49.460  27.244  25.649  1.00  0.00     0.022 A 
BRANCH  76  80
ATOM     80  S   UNL A   1      48.437  27.488  23.067  1.00  0.00     0.124 S 
ATOM     81  O   UNL A   1      48.354  26.045  22.874  1.00  0.00    -0.237 OA
ATOM     82  O   UNL A   1      47.269  28.260  22.658  1.00  0.00    -0.237 OA
ATOM     83  O   UNL A   1      49.727  28.090  22.736  1.00  0.00    -0.744 OA
ENDBRANCH  76  80
ENDBRANCH  49  73
BRANCH  61  84
ATOM     84  C   UNL A   1      44.798  34.034  29.685  1.00  0.00     0.023 A 
ATOM     85  C   UNL A   1      44.619  35.090  28.776  1.00  0.00     0.031 A 
ATOM     86  C   UNL A   1      45.632  34.248  30.796  1.00  0.00     0.131 A 
ATOM     87  C   UNL A   1      45.303  36.300  28.969  1.00  0.00     0.055 A 
ATOM     88  C   UNL A   1      46.268  35.471  31.012  1.00  0.00     0.041 A 
ATOM     89  F   UNL A   1      45.840  33.270  31.693  1.00  0.00    -0.206 F 
ATOM     90  C   UNL A   1      46.113  36.503  30.089  1.00  0.00     0.022 A 
BRANCH  87  91
ATOM     91  S   UNL A   1      45.178  37.586  27.696  1.00  0.00     0.124 S 
ATOM     92  O   UNL A   1      44.026  37.135  26.923  1.00  0.00    -0.237 OA
ATOM     93  O   UNL A   1      44.979  38.795  28.491  1.00  0.00    -0.237 OA
ATOM     94  O   UNL A   1      46.461  37.508  27.001  1.00  0.00    -0.744 OA
ENDBRANCH  87  91
ENDBRANCH  61  84
ENDBRANCH  35  36
ENDBRANCH  28  30
ENDBRANCH  27  28
ENDBRANCH  26  27
ENDBRANCH   1  26
TORSDOF 21
ENDMDL
