MODEL 1
REMARK VINA RESULT:     -11.0      0.000      0.000
REMARK SMILES Cc1cc(C(=O)OCCOC(=O)c2ccc(-c3c4nc(c(-c5cc(S(=O)(=O)[O-])ccc5F)c5ccc([nH]5)c(-c5cc(S(=O)(=O)[O-])ccc5F)c5nc(c(-c6cc(S(=O)(=O)[O-])ccc6F)c6ccc3[nH]6)C=C5)C=C4)cc2)nn1[C@H]1CCS(=O)(=O)C1
REMARK SMILES IDX 9 1 8 2 7 3 5 4 6 5 4 6 1 7 2 8 3 9 77 10 76 11 78 12 79 13
REMARK SMILES IDX 84 14 80 15 81 16 82 17 83 18 10 19 11 20 12 21 13 22 14 23
REMARK SMILES IDX 75 24 15 25 74 26 16 27 17 28 18 29 68 30 19 31 73 32 67 33
REMARK SMILES IDX 69 34 20 35 72 36 66 37 65 38 21 40 53 41 33 42 52 43 34 44
REMARK SMILES IDX 37 45 51 46 70 47 35 48 36 49 50 51 71 52 38 53 22 54 23 55
REMARK SMILES IDX 31 56 24 57 30 58 32 59 29 60 25 61 26 62 27 63 28 64 54 65
REMARK SMILES IDX 55 66 63 67 56 68 62 69 64 70 61 71 57 72 58 73 59 74 60 75
REMARK SMILES IDX 39 76 40 77 48 78 41 79 47 80 49 81 46 82 42 83 43 84 44 85
REMARK SMILES IDX 45 86
REMARK H PARENT 69 39 37 50
REMARK Flexibility Score: inf
ROOT
ATOM      1  C   UNL A   1      34.514  34.042  27.812  1.00  0.00     0.275 C 
ENDROOT
BRANCH   1   2
ATOM      2  C   UNL A   1      33.895  34.966  28.853  1.00  0.00     0.275 C 
BRANCH   2   3
ATOM      3  O   UNL A   1      33.567  34.255  30.056  1.00  0.00    -0.457 OA
BRANCH   3   4
ATOM      4  C   UNL A   1      34.143  34.727  31.209  1.00  0.00     0.358 C 
ATOM      5  O   UNL A   1      33.835  35.797  31.735  1.00  0.00    -0.244 OA
BRANCH   4   6
ATOM      6  C   UNL A   1      35.136  33.789  31.752  1.00  0.00     0.170 A 
ATOM      7  C   UNL A   1      36.626  30.517  32.556  1.00  0.00     0.066 C 
ATOM      8  C   UNL A   1      36.200  31.924  32.385  1.00  0.00     0.037 A 
ATOM      9  C   UNL A   1      35.032  32.380  31.807  1.00  0.00     0.061 A 
ATOM     10  N   UNL A   1      36.879  33.057  32.767  1.00  0.00    -0.265 N 
ATOM     11  N   UNL A   1      36.302  34.184  32.296  1.00  0.00    -0.165 NA
BRANCH  10  12
ATOM     12  C   UNL A   1      38.092  33.252  33.543  1.00  0.00     0.123 C 
ATOM     13  C   UNL A   1      39.228  32.287  33.147  1.00  0.00     0.044 C 
ATOM     14  C   UNL A   1      38.728  34.632  33.528  1.00  0.00     0.164 C 
ATOM     15  C   UNL A   1      40.437  32.650  34.010  1.00  0.00     0.139 C 
ATOM     16  S   UNL A   1      40.266  34.392  34.381  1.00  0.00     0.152 S 
ATOM     17  O   UNL A   1      40.013  34.553  35.799  1.00  0.00    -0.229 OA
ATOM     18  O   UNL A   1      41.289  35.149  33.692  1.00  0.00    -0.229 OA
ENDBRANCH  10  12
ENDBRANCH   4   6
ENDBRANCH   3   4
ENDBRANCH   2   3
ENDBRANCH   1   2
BRANCH   1  19
ATOM     19  O   UNL A   1      35.530  33.213  28.376  1.00  0.00    -0.458 OA
BRANCH  19  20
ATOM     20  C   UNL A   1      35.419  31.899  28.069  1.00  0.00     0.338 C 
ATOM     21  O   UNL A   1      34.463  31.348  27.549  1.00  0.00    -0.246 OA
BRANCH  20  22
ATOM     22  C   UNL A   1      36.531  31.167  28.686  1.00  0.00     0.060 A 
ATOM     23  C   UNL A   1      37.626  31.904  29.149  1.00  0.00     0.016 A 
ATOM     24  C   UNL A   1      36.589  29.773  28.545  1.00  0.00     0.016 A 
ATOM     25  C   UNL A   1      38.827  31.249  29.351  1.00  0.00     0.010 A 
ATOM     26  C   UNL A   1      37.791  29.130  28.715  1.00  0.00     0.010 A 
ATOM     27  C   UNL A   1      38.911  29.881  29.066  1.00  0.00    -0.014 A 
BRANCH  27  28
ATOM     28  C   UNL A   1      40.153  29.180  29.334  1.00  0.00     0.031 A 
ATOM     29  C   UNL A   1      40.426  29.058  30.785  1.00  0.00     0.074 A 
ATOM     30  C   UNL A   1      40.886  28.572  28.380  1.00  0.00     0.049 A 
ATOM     31  N   UNL A   1      41.370  29.638  31.443  1.00  0.00    -0.248 NA
ATOM     32  C   UNL A   1      39.428  28.392  31.640  1.00  0.00     0.031 C 
ATOM     33  C   UNL A   1      40.577  28.437  26.956  1.00  0.00     0.029 A 
ATOM     34  N   UNL A   1      42.028  27.843  28.511  1.00  0.00    -0.354 N 
ATOM     35  C   UNL A   1      41.238  29.202  32.755  1.00  0.00     0.074 A 
ATOM     36  C   UNL A   1      39.919  28.641  32.855  1.00  0.00     0.031 C 
ATOM     37  C   UNL A   1      41.376  27.488  26.416  1.00  0.00     0.029 A 
ATOM     38  C   UNL A   1      42.317  27.020  27.423  1.00  0.00     0.049 A 
ATOM     39  H   UNL A   1      42.602  27.893  29.310  1.00  0.00     0.167 HD
ATOM     40  C   UNL A   1      42.324  29.107  33.568  1.00  0.00     0.034 A 
ATOM     41  C   UNL A   1      43.212  25.991  27.386  1.00  0.00     0.034 A 
ATOM     42  C   UNL A   1      43.441  29.845  33.018  1.00  0.00     0.049 A 
ATOM     43  C   UNL A   1      44.194  26.246  28.473  1.00  0.00     0.074 A 
ATOM     44  C   UNL A   1      43.636  31.163  32.656  1.00  0.00     0.029 A 
ATOM     45  N   UNL A   1      44.436  29.131  32.385  1.00  0.00    -0.354 N 
ATOM     46  N   UNL A   1      45.019  27.257  28.462  1.00  0.00    -0.248 NA
ATOM     47  C   UNL A   1      43.913  25.700  29.796  1.00  0.00     0.031 C 
ATOM     48  C   UNL A   1      44.394  31.104  31.452  1.00  0.00     0.029 A 
ATOM     49  C   UNL A   1      44.710  29.767  31.199  1.00  0.00     0.049 A 
ATOM     50  H   UNL A   1      44.871  28.315  32.721  1.00  0.00     0.167 HD
ATOM     51  C   UNL A   1      44.986  27.761  29.754  1.00  0.00     0.074 A 
ATOM     52  C   UNL A   1      44.371  26.703  30.554  1.00  0.00     0.031 C 
ATOM     53  C   UNL A   1      45.177  29.091  30.001  1.00  0.00     0.034 A 
BRANCH  40  54
ATOM     54  C   UNL A   1      42.508  28.058  34.638  1.00  0.00     0.023 A 
ATOM     55  C   UNL A   1      43.281  26.935  34.293  1.00  0.00     0.031 A 
ATOM     56  C   UNL A   1      41.751  27.943  35.825  1.00  0.00     0.131 A 
ATOM     57  C   UNL A   1      43.187  25.742  35.026  1.00  0.00     0.055 A 
ATOM     58  C   UNL A   1      41.719  26.777  36.595  1.00  0.00     0.041 A 
ATOM     59  F   UNL A   1      40.926  28.902  36.260  1.00  0.00    -0.206 F 
ATOM     60  C   UNL A   1      42.411  25.655  36.178  1.00  0.00     0.022 A 
BRANCH  57  61
ATOM     61  S   UNL A   1      43.947  24.255  34.330  1.00  0.00     0.124 S 
ATOM     62  O   UNL A   1      44.036  24.608  32.918  1.00  0.00    -0.237 OA
ATOM     63  O   UNL A   1      45.208  24.192  35.060  1.00  0.00    -0.237 OA
ATOM     64  O   UNL A   1      42.986  23.203  34.653  1.00  0.00    -0.744 OA
ENDBRANCH  57  61
ENDBRANCH  40  54
BRANCH  41  65
ATOM     65  C   UNL A   1      43.090  24.681  26.669  1.00  0.00     0.023 A 
ATOM     66  C   UNL A   1      44.117  24.146  25.853  1.00  0.00     0.031 A 
ATOM     67  C   UNL A   1      42.027  23.803  26.981  1.00  0.00     0.131 A 
ATOM     68  C   UNL A   1      44.051  22.803  25.398  1.00  0.00     0.055 A 
ATOM     69  C   UNL A   1      41.965  22.482  26.528  1.00  0.00     0.041 A 
ATOM     70  F   UNL A   1      41.042  24.165  27.818  1.00  0.00    -0.206 F 
ATOM     71  C   UNL A   1      42.984  21.972  25.744  1.00  0.00     0.022 A 
BRANCH  68  72
ATOM     72  S   UNL A   1      45.410  22.064  24.428  1.00  0.00     0.124 S 
ATOM     73  O   UNL A   1      46.214  21.422  25.459  1.00  0.00    -0.237 OA
ATOM     74  O   UNL A   1      44.702  21.179  23.509  1.00  0.00    -0.237 OA
ATOM     75  O   UNL A   1      46.041  23.222  23.789  1.00  0.00    -0.744 OA
ENDBRANCH  68  72
ENDBRANCH  41  65
BRANCH  53  76
ATOM     76  C   UNL A   1      45.715  29.973  28.890  1.00  0.00     0.023 A 
ATOM     77  C   UNL A   1      44.951  30.897  28.140  1.00  0.00     0.031 A 
ATOM     78  C   UNL A   1      47.106  29.962  28.681  1.00  0.00     0.131 A 
ATOM     79  C   UNL A   1      45.586  31.756  27.218  1.00  0.00     0.055 A 
ATOM     80  C   UNL A   1      47.734  30.830  27.789  1.00  0.00     0.041 A 
ATOM     81  F   UNL A   1      47.893  29.125  29.377  1.00  0.00    -0.206 F 
ATOM     82  C   UNL A   1      46.974  31.727  27.049  1.00  0.00     0.022 A 
BRANCH  79  83
ATOM     83  S   UNL A   1      44.616  32.917  26.203  1.00  0.00     0.124 S 
ATOM     84  O   UNL A   1      45.621  33.563  25.367  1.00  0.00    -0.237 OA
ATOM     85  O   UNL A   1      43.682  32.031  25.513  1.00  0.00    -0.237 OA
ATOM     86  O   UNL A   1      43.993  33.797  27.194  1.00  0.00    -0.744 OA
ENDBRANCH  79  83
ENDBRANCH  53  76
ENDBRANCH  27  28
ENDBRANCH  20  22
ENDBRANCH  19  20
ENDBRANCH   1  19
TORSDOF 15
ENDMDL
MODEL 2
REMARK VINA RESULT:     -10.8      1.338      1.624
REMARK SMILES Cc1cc(C(=O)OCCOC(=O)c2ccc(-c3c4nc(c(-c5cc(S(=O)(=O)[O-])ccc5F)c5ccc([nH]5)c(-c5cc(S(=O)(=O)[O-])ccc5F)c5nc(c(-c6cc(S(=O)(=O)[O-])ccc6F)c6ccc3[nH]6)C=C5)C=C4)cc2)nn1[C@H]1CCS(=O)(=O)C1
REMARK SMILES IDX 9 1 8 2 7 3 5 4 6 5 4 6 1 7 2 8 3 9 77 10 76 11 78 12 79 13
REMARK SMILES IDX 84 14 80 15 81 16 82 17 83 18 10 19 11 20 12 21 13 22 14 23
REMARK SMILES IDX 75 24 15 25 74 26 16 27 17 28 18 29 68 30 19 31 73 32 67 33
REMARK SMILES IDX 69 34 20 35 72 36 66 37 65 38 21 40 53 41 33 42 52 43 34 44
REMARK SMILES IDX 37 45 51 46 70 47 35 48 36 49 50 51 71 52 38 53 22 54 23 55
REMARK SMILES IDX 31 56 24 57 30 58 32 59 29 60 25 61 26 62 27 63 28 64 54 65
REMARK SMILES IDX 55 66 63 67 56 68 62 69 64 70 61 71 57 72 58 73 59 74 60 75
REMARK SMILES IDX 39 76 40 77 48 78 41 79 47 80 49 81 46 82 42 83 43 84 44 85
REMARK SMILES IDX 45 86
REMARK H PARENT 69 39 37 50
REMARK Flexibility Score: inf
ROOT
ATOM      1  C   UNL A   1      34.634  34.136  27.709  1.00  0.00     0.275 C 
ENDROOT
BRANCH   1   2
ATOM      2  C   UNL A   1      33.619  34.222  28.840  1.00  0.00     0.275 C 
BRANCH   2   3
ATOM      3  O   UNL A   1      34.001  35.204  29.814  1.00  0.00    -0.457 OA
BRANCH   3   4
ATOM      4  C   UNL A   1      33.794  34.862  31.128  1.00  0.00     0.358 C 
ATOM      5  O   UNL A   1      32.818  35.230  31.781  1.00  0.00    -0.244 OA
BRANCH   4   6
ATOM      6  C   UNL A   1      34.853  33.980  31.640  1.00  0.00     0.170 A 
ATOM      7  C   UNL A   1      36.513  30.795  32.459  1.00  0.00     0.066 C 
ATOM      8  C   UNL A   1      36.024  32.179  32.268  1.00  0.00     0.037 A 
ATOM      9  C   UNL A   1      34.807  32.571  31.747  1.00  0.00     0.061 A 
ATOM     10  N   UNL A   1      36.680  33.349  32.571  1.00  0.00    -0.265 N 
ATOM     11  N   UNL A   1      36.033  34.437  32.099  1.00  0.00    -0.165 NA
BRANCH  10  12
ATOM     12  C   UNL A   1      37.928  33.615  33.266  1.00  0.00     0.123 C 
ATOM     13  C   UNL A   1      38.907  34.478  32.446  1.00  0.00     0.044 C 
ATOM     14  C   UNL A   1      37.852  34.291  34.624  1.00  0.00     0.164 C 
ATOM     15  C   UNL A   1      40.136  34.709  33.326  1.00  0.00     0.139 C 
ATOM     16  S   UNL A   1      39.549  34.636  35.014  1.00  0.00     0.152 S 
ATOM     17  O   UNL A   1      40.101  33.463  35.659  1.00  0.00    -0.229 OA
ATOM     18  O   UNL A   1      39.617  35.950  35.619  1.00  0.00    -0.229 OA
ENDBRANCH  10  12
ENDBRANCH   4   6
ENDBRANCH   3   4
ENDBRANCH   2   3
ENDBRANCH   1   2
BRANCH   1  19
ATOM     19  O   UNL A   1      35.728  33.281  28.042  1.00  0.00    -0.458 OA
BRANCH  19  20
ATOM     20  C   UNL A   1      35.439  31.958  28.012  1.00  0.00     0.338 C 
ATOM     21  O   UNL A   1      34.370  31.451  27.714  1.00  0.00    -0.246 OA
BRANCH  20  22
ATOM     22  C   UNL A   1      36.536  31.213  28.640  1.00  0.00     0.060 A 
ATOM     23  C   UNL A   1      37.630  31.938  29.124  1.00  0.00     0.016 A 
ATOM     24  C   UNL A   1      36.584  29.820  28.491  1.00  0.00     0.016 A 
ATOM     25  C   UNL A   1      38.823  31.272  29.338  1.00  0.00     0.010 A 
ATOM     26  C   UNL A   1      37.778  29.166  28.674  1.00  0.00     0.010 A 
ATOM     27  C   UNL A   1      38.900  29.905  29.046  1.00  0.00    -0.014 A 
BRANCH  27  28
ATOM     28  C   UNL A   1      40.132  29.192  29.327  1.00  0.00     0.031 A 
ATOM     29  C   UNL A   1      40.393  29.076  30.780  1.00  0.00     0.074 A 
ATOM     30  C   UNL A   1      40.864  28.571  28.381  1.00  0.00     0.049 A 
ATOM     31  N   UNL A   1      41.340  29.650  31.441  1.00  0.00    -0.248 NA
ATOM     32  C   UNL A   1      39.382  28.427  31.632  1.00  0.00     0.031 C 
ATOM     33  C   UNL A   1      40.564  28.430  26.957  1.00  0.00     0.029 A 
ATOM     34  N   UNL A   1      41.997  27.830  28.526  1.00  0.00    -0.354 N 
ATOM     35  C   UNL A   1      41.193  29.224  32.755  1.00  0.00     0.074 A 
ATOM     36  C   UNL A   1      39.867  28.678  32.849  1.00  0.00     0.031 C 
ATOM     37  C   UNL A   1      41.356  27.468  26.428  1.00  0.00     0.029 A 
ATOM     38  C   UNL A   1      42.284  26.997  27.445  1.00  0.00     0.049 A 
ATOM     39  H   UNL A   1      42.566  27.878  29.327  1.00  0.00     0.167 HD
ATOM     40  C   UNL A   1      42.273  29.123  33.576  1.00  0.00     0.034 A 
ATOM     41  C   UNL A   1      43.168  25.957  27.420  1.00  0.00     0.034 A 
ATOM     42  C   UNL A   1      43.401  29.844  33.029  1.00  0.00     0.049 A 
ATOM     43  C   UNL A   1      44.146  26.208  28.512  1.00  0.00     0.074 A 
ATOM     44  C   UNL A   1      43.613  31.158  32.659  1.00  0.00     0.029 A 
ATOM     45  N   UNL A   1      44.393  29.116  32.407  1.00  0.00    -0.354 N 
ATOM     46  N   UNL A   1      44.982  27.210  28.500  1.00  0.00    -0.248 NA
ATOM     47  C   UNL A   1      43.849  25.674  29.837  1.00  0.00     0.031 C 
ATOM     48  C   UNL A   1      44.380  31.083  31.461  1.00  0.00     0.029 A 
ATOM     49  C   UNL A   1      44.682  29.741  31.219  1.00  0.00     0.049 A 
ATOM     50  H   UNL A   1      44.817  28.297  32.752  1.00  0.00     0.167 HD
ATOM     51  C   UNL A   1      44.945  27.723  29.788  1.00  0.00     0.074 A 
ATOM     52  C   UNL A   1      44.313  26.676  30.592  1.00  0.00     0.031 C 
ATOM     53  C   UNL A   1      45.150  29.052  30.029  1.00  0.00     0.034 A 
BRANCH  40  54
ATOM     54  C   UNL A   1      42.438  28.078  34.654  1.00  0.00     0.023 A 
ATOM     55  C   UNL A   1      43.218  26.955  34.328  1.00  0.00     0.031 A 
ATOM     56  C   UNL A   1      41.659  27.968  35.827  1.00  0.00     0.131 A 
ATOM     57  C   UNL A   1      43.111  25.765  35.065  1.00  0.00     0.055 A 
ATOM     58  C   UNL A   1      41.614  26.806  36.602  1.00  0.00     0.041 A 
ATOM     59  F   UNL A   1      40.825  28.928  36.242  1.00  0.00    -0.206 F 
ATOM     60  C   UNL A   1      42.314  25.682  36.202  1.00  0.00     0.022 A 
BRANCH  57  61
ATOM     61  S   UNL A   1      43.886  24.276  34.390  1.00  0.00     0.124 S 
ATOM     62  O   UNL A   1      43.796  24.527  32.955  1.00  0.00    -0.237 OA
ATOM     63  O   UNL A   1      45.220  24.340  34.974  1.00  0.00    -0.237 OA
ATOM     64  O   UNL A   1      43.036  23.198  34.890  1.00  0.00    -0.744 OA
ENDBRANCH  57  61
ENDBRANCH  40  54
BRANCH  41  65
ATOM     65  C   UNL A   1      43.036  24.644  26.711  1.00  0.00     0.023 A 
ATOM     66  C   UNL A   1      44.047  24.112  25.872  1.00  0.00     0.031 A 
ATOM     67  C   UNL A   1      41.986  23.761  27.051  1.00  0.00     0.131 A 
ATOM     68  C   UNL A   1      43.977  22.767  25.423  1.00  0.00     0.055 A 
ATOM     69  C   UNL A   1      41.921  22.438  26.604  1.00  0.00     0.041 A 
ATOM     70  F   UNL A   1      41.020  24.120  27.911  1.00  0.00    -0.206 F 
ATOM     71  C   UNL A   1      42.924  21.931  25.798  1.00  0.00     0.022 A 
BRANCH  68  72
ATOM     72  S   UNL A   1      45.317  22.033  24.423  1.00  0.00     0.124 S 
ATOM     73  O   UNL A   1      45.913  23.205  23.795  1.00  0.00    -0.237 OA
ATOM     74  O   UNL A   1      46.126  21.349  25.426  1.00  0.00    -0.237 OA
ATOM     75  O   UNL A   1      44.606  21.140  23.504  1.00  0.00    -0.744 OA
ENDBRANCH  68  72
ENDBRANCH  41  65
BRANCH  53  76
ATOM     76  C   UNL A   1      45.705  29.921  28.916  1.00  0.00     0.023 A 
ATOM     77  C   UNL A   1      47.079  30.087  28.620  1.00  0.00     0.031 A 
ATOM     78  C   UNL A   1      44.777  30.498  28.031  1.00  0.00     0.131 A 
ATOM     79  C   UNL A   1      47.472  30.818  27.479  1.00  0.00     0.055 A 
ATOM     80  C   UNL A   1      45.168  31.197  26.890  1.00  0.00     0.041 A 
ATOM     81  F   UNL A   1      43.458  30.357  28.240  1.00  0.00    -0.206 F 
ATOM     82  C   UNL A   1      46.520  31.364  26.613  1.00  0.00     0.022 A 
BRANCH  79  83
ATOM     83  S   UNL A   1      49.235  31.090  27.107  1.00  0.00     0.124 S 
ATOM     84  O   UNL A   1      49.587  29.954  26.263  1.00  0.00    -0.237 OA
ATOM     85  O   UNL A   1      49.222  32.396  26.451  1.00  0.00    -0.237 OA
ATOM     86  O   UNL A   1      49.866  31.084  28.428  1.00  0.00    -0.744 OA
ENDBRANCH  79  83
ENDBRANCH  53  76
ENDBRANCH  27  28
ENDBRANCH  20  22
ENDBRANCH  19  20
ENDBRANCH   1  19
TORSDOF 15
ENDMDL
MODEL 3
REMARK VINA RESULT:     -10.7      4.242      9.173
REMARK SMILES Cc1cc(C(=O)OCCOC(=O)c2ccc(-c3c4nc(c(-c5cc(S(=O)(=O)[O-])ccc5F)c5ccc([nH]5)c(-c5cc(S(=O)(=O)[O-])ccc5F)c5nc(c(-c6cc(S(=O)(=O)[O-])ccc6F)c6ccc3[nH]6)C=C5)C=C4)cc2)nn1[C@H]1CCS(=O)(=O)C1
REMARK SMILES IDX 9 1 8 2 7 3 5 4 6 5 4 6 1 7 2 8 3 9 77 10 76 11 78 12 79 13
REMARK SMILES IDX 84 14 80 15 81 16 82 17 83 18 10 19 11 20 12 21 13 22 14 23
REMARK SMILES IDX 75 24 15 25 74 26 16 27 17 28 18 29 68 30 19 31 73 32 67 33
REMARK SMILES IDX 69 34 20 35 72 36 66 37 65 38 21 40 53 41 33 42 52 43 34 44
REMARK SMILES IDX 37 45 51 46 70 47 35 48 36 49 50 51 71 52 38 53 22 54 23 55
REMARK SMILES IDX 31 56 24 57 30 58 32 59 29 60 25 61 26 62 27 63 28 64 54 65
REMARK SMILES IDX 55 66 63 67 56 68 62 69 64 70 61 71 57 72 58 73 59 74 60 75
REMARK SMILES IDX 39 76 40 77 48 78 41 79 47 80 49 81 46 82 42 83 43 84 44 85
REMARK SMILES IDX 45 86
REMARK H PARENT 69 39 37 50
REMARK Flexibility Score: inf
ROOT
ATOM      1  C   UNL A   1      34.783  30.945  28.099  1.00  0.00     0.275 C 
ENDROOT
BRANCH   1   2
ATOM      2  C   UNL A   1      33.785  30.283  27.159  1.00  0.00     0.275 C 
BRANCH   2   3
ATOM      3  O   UNL A   1      33.703  28.870  27.392  1.00  0.00    -0.457 OA
BRANCH   3   4
ATOM      4  C   UNL A   1      32.469  28.299  27.200  1.00  0.00     0.358 C 
ATOM      5  O   UNL A   1      31.765  27.876  28.118  1.00  0.00    -0.244 OA
BRANCH   4   6
ATOM      6  C   UNL A   1      32.081  28.290  25.782  1.00  0.00     0.170 A 
ATOM      7  C   UNL A   1      32.247  27.340  22.227  1.00  0.00     0.066 C 
ATOM      8  C   UNL A   1      32.023  27.897  23.580  1.00  0.00     0.037 A 
ATOM      9  C   UNL A   1      32.752  27.637  24.722  1.00  0.00     0.061 A 
ATOM     10  N   UNL A   1      31.046  28.784  23.969  1.00  0.00    -0.265 N 
ATOM     11  N   UNL A   1      31.004  28.943  25.310  1.00  0.00    -0.165 NA
BRANCH  10  12
ATOM     12  C   UNL A   1      30.058  29.538  23.217  1.00  0.00     0.123 C 
ATOM     13  C   UNL A   1      28.812  28.708  22.849  1.00  0.00     0.044 C 
ATOM     14  C   UNL A   1      29.511  30.810  23.843  1.00  0.00     0.164 C 
ATOM     15  C   UNL A   1      27.856  29.649  22.114  1.00  0.00     0.139 C 
ATOM     16  S   UNL A   1      28.202  31.287  22.744  1.00  0.00     0.152 S 
ATOM     17  O   UNL A   1      28.784  32.090  21.688  1.00  0.00    -0.229 OA
ATOM     18  O   UNL A   1      27.089  31.756  23.541  1.00  0.00    -0.229 OA
ENDBRANCH  10  12
ENDBRANCH   4   6
ENDBRANCH   3   4
ENDBRANCH   2   3
ENDBRANCH   1   2
BRANCH   1  19
ATOM     19  O   UNL A   1      36.090  30.388  27.963  1.00  0.00    -0.458 OA
BRANCH  19  20
ATOM     20  C   UNL A   1      36.554  29.763  29.071  1.00  0.00     0.338 C 
ATOM     21  O   UNL A   1      36.156  29.912  30.215  1.00  0.00    -0.246 OA
BRANCH  20  22
ATOM     22  C   UNL A   1      37.793  29.052  28.737  1.00  0.00     0.060 A 
ATOM     23  C   UNL A   1      38.365  28.233  29.717  1.00  0.00     0.016 A 
ATOM     24  C   UNL A   1      38.497  29.419  27.582  1.00  0.00     0.016 A 
ATOM     25  C   UNL A   1      39.698  27.886  29.594  1.00  0.00     0.010 A 
ATOM     26  C   UNL A   1      39.830  29.099  27.478  1.00  0.00     0.010 A 
ATOM     27  C   UNL A   1      40.432  28.380  28.508  1.00  0.00    -0.014 A 
BRANCH  27  28
ATOM     28  C   UNL A   1      41.813  27.969  28.345  1.00  0.00     0.031 A 
ATOM     29  C   UNL A   1      41.932  26.669  27.644  1.00  0.00     0.074 A 
ATOM     30  C   UNL A   1      42.865  28.754  28.651  1.00  0.00     0.049 A 
ATOM     31  N   UNL A   1      42.342  25.556  28.148  1.00  0.00    -0.248 NA
ATOM     32  C   UNL A   1      41.339  26.532  26.302  1.00  0.00     0.031 C 
ATOM     33  C   UNL A   1      42.848  30.138  29.127  1.00  0.00     0.029 A 
ATOM     34  N   UNL A   1      44.194  28.506  28.493  1.00  0.00    -0.354 N 
ATOM     35  C   UNL A   1      42.301  24.635  27.110  1.00  0.00     0.074 A 
ATOM     36  C   UNL A   1      41.474  25.222  26.091  1.00  0.00     0.031 C 
ATOM     37  C   UNL A   1      44.086  30.669  28.993  1.00  0.00     0.029 A 
ATOM     38  C   UNL A   1      45.002  29.642  28.519  1.00  0.00     0.049 A 
ATOM     39  H   UNL A   1      44.555  27.598  28.370  1.00  0.00     0.167 HD
ATOM     40  C   UNL A   1      43.167  23.587  27.078  1.00  0.00     0.034 A 
ATOM     41  C   UNL A   1      46.301  29.737  28.114  1.00  0.00     0.034 A 
ATOM     42  C   UNL A   1      43.786  23.394  28.371  1.00  0.00     0.049 A 
ATOM     43  C   UNL A   1      46.863  28.361  28.171  1.00  0.00     0.074 A 
ATOM     44  C   UNL A   1      43.300  23.152  29.641  1.00  0.00     0.029 A 
ATOM     45  N   UNL A   1      45.075  23.849  28.544  1.00  0.00    -0.354 N 
ATOM     46  N   UNL A   1      47.026  27.707  29.289  1.00  0.00    -0.248 NA
ATOM     47  C   UNL A   1      46.753  27.523  26.982  1.00  0.00     0.031 C 
ATOM     48  C   UNL A   1      44.115  23.941  30.502  1.00  0.00     0.029 A 
ATOM     49  C   UNL A   1      45.115  24.539  29.731  1.00  0.00     0.049 A 
ATOM     50  H   UNL A   1      45.831  23.706  27.929  1.00  0.00     0.167 HD
ATOM     51  C   UNL A   1      46.577  26.422  29.021  1.00  0.00     0.074 A 
ATOM     52  C   UNL A   1      46.519  26.340  27.562  1.00  0.00     0.031 C 
ATOM     53  C   UNL A   1      46.009  25.652  29.997  1.00  0.00     0.034 A 
BRANCH  40  54
ATOM     54  C   UNL A   1      43.745  22.987  25.818  1.00  0.00     0.023 A 
ATOM     55  C   UNL A   1      43.773  21.583  25.743  1.00  0.00     0.031 A 
ATOM     56  C   UNL A   1      44.522  23.671  24.856  1.00  0.00     0.131 A 
ATOM     57  C   UNL A   1      44.629  20.926  24.845  1.00  0.00     0.055 A 
ATOM     58  C   UNL A   1      45.315  23.011  23.912  1.00  0.00     0.041 A 
ATOM     59  F   UNL A   1      44.642  25.002  24.827  1.00  0.00    -0.206 F 
ATOM     60  C   UNL A   1      45.401  21.631  23.927  1.00  0.00     0.022 A 
BRANCH  57  61
ATOM     61  S   UNL A   1      44.853  19.141  25.039  1.00  0.00     0.124 S 
ATOM     62  O   UNL A   1      44.844  18.695  23.650  1.00  0.00    -0.237 OA
ATOM     63  O   UNL A   1      46.135  19.073  25.730  1.00  0.00    -0.237 OA
ATOM     64  O   UNL A   1      43.694  18.740  25.832  1.00  0.00    -0.744 OA
ENDBRANCH  57  61
ENDBRANCH  40  54
BRANCH  41  65
ATOM     65  C   UNL A   1      46.974  30.878  27.414  1.00  0.00     0.023 A 
ATOM     66  C   UNL A   1      46.270  31.992  26.893  1.00  0.00     0.031 A 
ATOM     67  C   UNL A   1      48.381  31.005  27.466  1.00  0.00     0.131 A 
ATOM     68  C   UNL A   1      46.968  33.149  26.462  1.00  0.00     0.055 A 
ATOM     69  C   UNL A   1      49.064  32.147  27.037  1.00  0.00     0.041 A 
ATOM     70  F   UNL A   1      49.150  30.056  28.021  1.00  0.00    -0.206 F 
ATOM     71  C   UNL A   1      48.359  33.230  26.544  1.00  0.00     0.022 A 
BRANCH  68  72
ATOM     72  S   UNL A   1      46.075  34.631  25.879  1.00  0.00     0.124 S 
ATOM     73  O   UNL A   1      45.054  34.802  26.905  1.00  0.00    -0.237 OA
ATOM     74  O   UNL A   1      47.127  35.641  25.833  1.00  0.00    -0.237 OA
ATOM     75  O   UNL A   1      45.564  34.227  24.567  1.00  0.00    -0.744 OA
ENDBRANCH  68  72
ENDBRANCH  41  65
BRANCH  53  76
ATOM     76  C   UNL A   1      46.132  26.094  31.443  1.00  0.00     0.023 A 
ATOM     77  C   UNL A   1      45.079  26.622  32.227  1.00  0.00     0.031 A 
ATOM     78  C   UNL A   1      47.355  25.835  32.089  1.00  0.00     0.131 A 
ATOM     79  C   UNL A   1      45.281  26.879  33.599  1.00  0.00     0.055 A 
ATOM     80  C   UNL A   1      47.542  26.064  33.451  1.00  0.00     0.041 A 
ATOM     81  F   UNL A   1      48.387  25.310  31.409  1.00  0.00    -0.206 F 
ATOM     82  C   UNL A   1      46.506  26.593  34.211  1.00  0.00     0.022 A 
BRANCH  79  83
ATOM     83  S   UNL A   1      43.957  27.609  34.616  1.00  0.00     0.124 S 
ATOM     84  O   UNL A   1      44.361  27.294  35.982  1.00  0.00    -0.237 OA
ATOM     85  O   UNL A   1      44.012  29.020  34.242  1.00  0.00    -0.237 OA
ATOM     86  O   UNL A   1      42.754  26.909  34.162  1.00  0.00    -0.744 OA
ENDBRANCH  79  83
ENDBRANCH  53  76
ENDBRANCH  27  28
ENDBRANCH  20  22
ENDBRANCH  19  20
ENDBRANCH   1  19
TORSDOF 15
ENDMDL
