MODEL 1
REMARK VINA RESULT:     -13.2      0.000      0.000
REMARK SMILES Cc1c(CC(=O)OCCOC(=O)c2ccc(-c3c4nc(c(-c5cc(S(=O)(=O)[O-])ccc5F)c5ccc([nH]5)c(-c5cc(S(=O)(=O)[O-])ccc5F)c5nc(c(-c6cc(S(=O)(=O)[O-])ccc6F)c6ccc3[nH]6)C=C5)C=C4)cc2)cccc1-c1ccn(C(F)F)c(=O)c1
REMARK SMILES IDX 8 1 7 2 5 3 6 4 4 5 3 6 1 7 2 8 79 9 76 10 78 11 77 12 80 13
REMARK SMILES IDX 81 14 89 15 82 16 87 17 83 18 88 19 84 20 85 21 86 22 9 23
REMARK SMILES IDX 10 24 11 25 12 26 13 27 14 28 75 29 15 30 74 31 16 32 17 33
REMARK SMILES IDX 18 34 68 35 19 36 73 37 67 38 69 39 20 40 72 41 66 42 65 43
REMARK SMILES IDX 21 45 53 46 33 47 52 48 34 49 37 50 51 51 70 52 35 53 36 54
REMARK SMILES IDX 50 56 71 57 38 58 22 59 23 60 31 61 24 62 30 63 32 64 29 65
REMARK SMILES IDX 25 66 26 67 27 68 28 69 54 70 55 71 63 72 56 73 62 74 64 75
REMARK SMILES IDX 61 76 57 77 58 78 59 79 60 80 39 81 40 82 48 83 41 84 47 85
REMARK SMILES IDX 49 86 46 87 42 88 43 89 44 90 45 91
REMARK H PARENT 69 44 37 55
REMARK Flexibility Score: inf
ROOT
ATOM      1  C   UNL A   1      43.974  18.455  25.597  1.00  0.00     0.274 C 
ENDROOT
BRANCH   1   2
ATOM      2  O   UNL A   1      42.640  18.000  25.879  1.00  0.00    -0.462 OA
BRANCH   2   3
ATOM      3  C   UNL A   1      41.789  18.933  26.586  1.00  0.00     0.310 C 
ATOM      4  O   UNL A   1      42.311  19.032  27.740  1.00  0.00    -0.252 OA
BRANCH   3   5
ATOM      5  C   UNL A   1      40.053  19.916  25.748  1.00  0.00     0.158 C 
BRANCH   5   6
ATOM      6  C   UNL A   1      39.262  21.436  26.004  1.00  0.00    -0.033 A 
ATOM      7  C   UNL A   1      37.052  20.563  25.046  1.00  0.00     0.045 C 
ATOM      8  C   UNL A   1      37.941  21.682  25.529  1.00  0.00    -0.039 A 
ATOM      9  C   UNL A   1      37.443  23.009  25.584  1.00  0.00    -0.015 A 
ATOM     10  C   UNL A   1      39.857  22.424  26.815  1.00  0.00     0.004 A 
ATOM     11  C   UNL A   1      38.207  24.033  26.156  1.00  0.00     0.009 A 
ATOM     12  C   UNL A   1      39.387  23.730  26.816  1.00  0.00     0.001 A 
BRANCH   9  13
ATOM     13  C   UNL A   1      36.091  23.350  25.107  1.00  0.00    -0.011 A 
ATOM     14  C   UNL A   1      35.012  23.644  26.030  1.00  0.00     0.027 A 
ATOM     15  C   UNL A   1      35.844  23.299  23.788  1.00  0.00     0.080 A 
ATOM     16  C   UNL A   1      33.755  23.734  25.587  1.00  0.00     0.095 A 
ATOM     17  C   UNL A   1      34.459  23.487  23.276  1.00  0.00     0.255 A 
ATOM     18  N   UNL A   1      33.471  23.625  24.239  1.00  0.00    -0.258 N 
ATOM     19  O   UNL A   1      34.275  23.481  22.062  1.00  0.00    -0.269 OA
BRANCH  18  20
ATOM     20  C   UNL A   1      32.109  23.647  23.780  1.00  0.00     0.451 C 
ATOM     21  F   UNL A   1      31.619  22.392  23.629  1.00  0.00    -0.185 F 
ATOM     22  F   UNL A   1      31.310  24.307  24.653  1.00  0.00    -0.185 F 
ENDBRANCH  18  20
ENDBRANCH   9  13
ENDBRANCH   5   6
ENDBRANCH   3   5
ENDBRANCH   2   3
ENDBRANCH   1   2
BRANCH   1  23
ATOM     23  C   UNL A   1      43.880  19.886  25.054  1.00  0.00     0.275 C 
BRANCH  23  24
ATOM     24  O   UNL A   1      45.120  20.648  24.960  1.00  0.00    -0.458 OA
BRANCH  24  25
ATOM     25  C   UNL A   1      45.328  21.883  25.481  1.00  0.00     0.338 C 
ATOM     26  O   UNL A   1      46.411  22.321  25.844  1.00  0.00    -0.246 OA
BRANCH  25  27
ATOM     27  C   UNL A   1      44.098  22.610  25.833  1.00  0.00     0.060 A 
ATOM     28  C   UNL A   1      43.626  23.984  24.756  1.00  0.00     0.016 A 
ATOM     29  C   UNL A   1      43.585  22.578  27.559  1.00  0.00     0.016 A 
ATOM     30  C   UNL A   1      42.836  25.458  25.491  1.00  0.00     0.010 A 
ATOM     31  C   UNL A   1      42.795  24.030  28.272  1.00  0.00     0.010 A 
ATOM     32  C   UNL A   1      42.527  25.500  27.255  1.00  0.00    -0.014 A 
BRANCH  32  33
ATOM     33  C   UNL A   1      42.616  26.718  28.045  1.00  0.00     0.031 A 
ATOM     34  C   UNL A   1      41.442  27.595  28.092  1.00  0.00     0.074 A 
ATOM     35  C   UNL A   1      43.654  26.865  28.905  1.00  0.00     0.049 A 
ATOM     36  N   UNL A   1      41.477  28.805  28.512  1.00  0.00    -0.248 NA
ATOM     37  C   UNL A   1      40.125  27.219  27.585  1.00  0.00     0.031 C 
ATOM     38  C   UNL A   1      43.750  27.749  30.064  1.00  0.00     0.029 A 
ATOM     39  N   UNL A   1      44.918  26.294  28.884  1.00  0.00    -0.354 N 
ATOM     40  C   UNL A   1      40.175  29.195  28.705  1.00  0.00     0.074 A 
ATOM     41  C   UNL A   1      39.394  28.285  27.918  1.00  0.00     0.031 C 
ATOM     42  C   UNL A   1      45.044  27.880  30.410  1.00  0.00     0.029 A 
ATOM     43  C   UNL A   1      45.835  27.206  29.398  1.00  0.00     0.049 A 
ATOM     44  H   UNL A   1      45.131  25.391  28.557  1.00  0.00     0.167 HD
ATOM     45  C   UNL A   1      39.924  30.131  29.658  1.00  0.00     0.034 A 
ATOM     46  C   UNL A   1      46.785  27.780  28.599  1.00  0.00     0.034 A 
ATOM     47  C   UNL A   1      41.183  30.721  30.134  1.00  0.00     0.049 A 
ATOM     48  C   UNL A   1      46.471  29.258  28.347  1.00  0.00     0.074 A 
ATOM     49  C   UNL A   1      41.938  30.644  31.291  1.00  0.00     0.029 A 
ATOM     50  N   UNL A   1      42.020  31.283  29.186  1.00  0.00    -0.354 N 
ATOM     51  N   UNL A   1      45.447  29.883  28.869  1.00  0.00    -0.248 NA
ATOM     52  C   UNL A   1      47.228  30.131  27.453  1.00  0.00     0.031 C 
ATOM     53  C   UNL A   1      43.270  31.079  30.972  1.00  0.00     0.029 A 
ATOM     54  C   UNL A   1      43.302  31.482  29.646  1.00  0.00     0.049 A 
ATOM     55  H   UNL A   1      41.728  31.517  28.275  1.00  0.00     0.167 HD
ATOM     56  C   UNL A   1      45.337  31.149  28.367  1.00  0.00     0.074 A 
ATOM     57  C   UNL A   1      46.481  31.253  27.469  1.00  0.00     0.031 C 
ATOM     58  C   UNL A   1      44.302  31.989  28.703  1.00  0.00     0.034 A 
BRANCH  45  59
ATOM     59  C   UNL A   1      38.577  30.406  30.283  1.00  0.00     0.023 A 
ATOM     60  C   UNL A   1      37.688  31.237  29.575  1.00  0.00     0.031 A 
ATOM     61  C   UNL A   1      38.127  29.996  31.560  1.00  0.00     0.131 A 
ATOM     62  C   UNL A   1      36.452  31.626  30.122  1.00  0.00     0.055 A 
ATOM     63  C   UNL A   1      36.873  30.339  32.081  1.00  0.00     0.041 A 
ATOM     64  F   UNL A   1      38.886  29.294  32.408  1.00  0.00    -0.206 F 
ATOM     65  C   UNL A   1      36.028  31.166  31.365  1.00  0.00     0.022 A 
BRANCH  62  66
ATOM     66  S   UNL A   1      35.425  32.795  29.200  1.00  0.00     0.124 S 
ATOM     67  O   UNL A   1      34.342  33.056  30.143  1.00  0.00    -0.237 OA
ATOM     68  O   UNL A   1      36.353  33.893  28.956  1.00  0.00    -0.237 OA
ATOM     69  O   UNL A   1      35.037  32.038  28.010  1.00  0.00    -0.744 OA
ENDBRANCH  62  66
ENDBRANCH  45  59
BRANCH  46  70
ATOM     70  C   UNL A   1      47.409  26.795  27.653  1.00  0.00     0.023 A 
ATOM     71  C   UNL A   1      47.258  27.069  26.271  1.00  0.00     0.031 A 
ATOM     72  C   UNL A   1      48.440  25.921  28.024  1.00  0.00     0.131 A 
ATOM     73  C   UNL A   1      48.229  26.651  25.346  1.00  0.00     0.055 A 
ATOM     74  C   UNL A   1      49.367  25.442  27.082  1.00  0.00     0.041 A 
ATOM     75  F   UNL A   1      48.674  25.644  29.316  1.00  0.00    -0.206 F 
ATOM     76  C   UNL A   1      49.295  25.850  25.750  1.00  0.00     0.022 A 
BRANCH  73  77
ATOM     77  S   UNL A   1      48.234  27.392  23.679  1.00  0.00     0.124 S 
ATOM     78  O   UNL A   1      49.485  28.143  23.691  1.00  0.00    -0.237 OA
ATOM     79  O   UNL A   1      48.208  26.229  22.795  1.00  0.00    -0.237 OA
ATOM     80  O   UNL A   1      47.021  28.207  23.667  1.00  0.00    -0.744 OA
ENDBRANCH  73  77
ENDBRANCH  46  70
BRANCH  58  81
ATOM     81  C   UNL A   1      44.125  33.378  28.119  1.00  0.00     0.023 A 
ATOM     82  C   UNL A   1      44.180  34.518  28.927  1.00  0.00     0.031 A 
ATOM     83  C   UNL A   1      43.847  33.620  26.748  1.00  0.00     0.131 A 
ATOM     84  C   UNL A   1      44.103  35.804  28.370  1.00  0.00     0.055 A 
ATOM     85  C   UNL A   1      43.653  34.897  26.216  1.00  0.00     0.041 A 
ATOM     86  F   UNL A   1      43.798  32.643  25.834  1.00  0.00    -0.206 F 
ATOM     87  C   UNL A   1      43.811  36.005  27.023  1.00  0.00     0.022 A 
BRANCH  84  88
ATOM     88  S   UNL A   1      44.510  37.211  29.428  1.00  0.00     0.124 S 
ATOM     89  O   UNL A   1      44.121  38.351  28.605  1.00  0.00    -0.237 OA
ATOM     90  O   UNL A   1      43.665  36.952  30.591  1.00  0.00    -0.237 OA
ATOM     91  O   UNL A   1      45.944  37.065  29.658  1.00  0.00    -0.744 OA
ENDBRANCH  84  88
ENDBRANCH  58  81
ENDBRANCH  32  33
ENDBRANCH  25  27
ENDBRANCH  24  25
ENDBRANCH  23  24
ENDBRANCH   1  23
TORSDOF 17
ENDMDL
MODEL 2
REMARK VINA RESULT:     -13.1      3.266      4.801
REMARK SMILES Cc1c(CC(=O)OCCOC(=O)c2ccc(-c3c4nc(c(-c5cc(S(=O)(=O)[O-])ccc5F)c5ccc([nH]5)c(-c5cc(S(=O)(=O)[O-])ccc5F)c5nc(c(-c6cc(S(=O)(=O)[O-])ccc6F)c6ccc3[nH]6)C=C5)C=C4)cc2)cccc1-c1ccn(C(F)F)c(=O)c1
REMARK SMILES IDX 8 1 7 2 5 3 6 4 4 5 3 6 1 7 2 8 79 9 76 10 78 11 77 12 80 13
REMARK SMILES IDX 81 14 89 15 82 16 87 17 83 18 88 19 84 20 85 21 86 22 9 23
REMARK SMILES IDX 10 24 11 25 12 26 13 27 14 28 75 29 15 30 74 31 16 32 17 33
REMARK SMILES IDX 18 34 68 35 19 36 73 37 67 38 69 39 20 40 72 41 66 42 65 43
REMARK SMILES IDX 21 45 53 46 33 47 52 48 34 49 37 50 51 51 70 52 35 53 36 54
REMARK SMILES IDX 50 56 71 57 38 58 22 59 23 60 31 61 24 62 30 63 32 64 29 65
REMARK SMILES IDX 25 66 26 67 27 68 28 69 54 70 55 71 63 72 56 73 62 74 64 75
REMARK SMILES IDX 61 76 57 77 58 78 59 79 60 80 39 81 40 82 48 83 41 84 47 85
REMARK SMILES IDX 49 86 46 87 42 88 43 89 44 90 45 91
REMARK H PARENT 69 44 37 55
REMARK Flexibility Score: inf
ROOT
ATOM      1  C   UNL A   1      39.266  21.115  25.962  1.00  0.00     0.274 C 
ENDROOT
BRANCH   1   2
ATOM      2  O   UNL A   1      38.053  21.604  25.363  1.00  0.00    -0.462 OA
BRANCH   2   3
ATOM      3  C   UNL A   1      37.074  20.600  25.008  1.00  0.00     0.310 C 
ATOM      4  O   UNL A   1      37.760  19.574  24.708  1.00  0.00    -0.252 OA
BRANCH   3   5
ATOM      5  C   UNL A   1      34.929  20.884  25.050  1.00  0.00     0.158 C 
BRANCH   5   6
ATOM      6  C   UNL A   1      33.843  22.112  24.489  1.00  0.00    -0.033 A 
ATOM      7  C   UNL A   1      35.042  23.932  25.836  1.00  0.00     0.045 C 
ATOM      8  C   UNL A   1      33.883  23.440  25.004  1.00  0.00    -0.039 A 
ATOM      9  C   UNL A   1      32.832  24.328  24.659  1.00  0.00    -0.015 A 
ATOM     10  C   UNL A   1      32.981  21.862  23.401  1.00  0.00     0.004 A 
ATOM     11  C   UNL A   1      31.822  23.926  23.778  1.00  0.00     0.009 A 
ATOM     12  C   UNL A   1      31.926  22.716  23.111  1.00  0.00     0.001 A 
BRANCH   9  13
ATOM     13  C   UNL A   1      32.794  25.715  25.156  1.00  0.00    -0.011 A 
ATOM     14  C   UNL A   1      33.612  26.755  24.565  1.00  0.00     0.027 A 
ATOM     15  C   UNL A   1      32.045  25.989  26.236  1.00  0.00     0.080 A 
ATOM     16  C   UNL A   1      33.725  27.944  25.165  1.00  0.00     0.095 A 
ATOM     17  C   UNL A   1      32.096  27.339  26.862  1.00  0.00     0.255 A 
ATOM     18  N   UNL A   1      33.009  28.226  26.312  1.00  0.00    -0.258 N 
ATOM     19  O   UNL A   1      31.364  27.571  27.819  1.00  0.00    -0.269 OA
BRANCH  18  20
ATOM     20  C   UNL A   1      33.194  29.479  26.994  1.00  0.00     0.451 C 
ATOM     21  F   UNL A   1      34.434  29.566  27.535  1.00  0.00    -0.185 F 
ATOM     22  F   UNL A   1      33.031  30.524  26.147  1.00  0.00    -0.185 F 
ENDBRANCH  18  20
ENDBRANCH   9  13
ENDBRANCH   5   6
ENDBRANCH   3   5
ENDBRANCH   2   3
ENDBRANCH   1   2
BRANCH   1  23
ATOM     23  C   UNL A   1      39.733  22.148  26.994  1.00  0.00     0.275 C 
BRANCH  23  24
ATOM     24  O   UNL A   1      40.953  22.889  26.694  1.00  0.00    -0.458 OA
BRANCH  24  25
ATOM     25  C   UNL A   1      41.385  23.996  27.348  1.00  0.00     0.338 C 
ATOM     26  O   UNL A   1      42.344  24.038  28.105  1.00  0.00    -0.246 OA
BRANCH  25  27
ATOM     27  C   UNL A   1      40.453  25.136  27.295  1.00  0.00     0.060 A 
ATOM     28  C   UNL A   1      40.846  26.455  26.122  1.00  0.00     0.016 A 
ATOM     29  C   UNL A   1      39.483  25.479  28.773  1.00  0.00     0.016 A 
ATOM     30  C   UNL A   1      40.463  28.184  26.569  1.00  0.00     0.010 A 
ATOM     31  C   UNL A   1      39.098  27.185  29.198  1.00  0.00     0.010 A 
ATOM     32  C   UNL A   1      39.689  28.531  28.147  1.00  0.00    -0.014 A 
BRANCH  32  33
ATOM     33  C   UNL A   1      39.975  29.727  28.923  1.00  0.00     0.031 A 
ATOM     34  C   UNL A   1      38.946  30.770  28.986  1.00  0.00     0.074 A 
ATOM     35  C   UNL A   1      41.043  29.724  29.759  1.00  0.00     0.049 A 
ATOM     36  N   UNL A   1      39.170  31.964  29.394  1.00  0.00    -0.248 NA
ATOM     37  C   UNL A   1      37.577  30.590  28.511  1.00  0.00     0.031 C 
ATOM     38  C   UNL A   1      41.294  30.591  30.908  1.00  0.00     0.029 A 
ATOM     39  N   UNL A   1      42.207  28.971  29.717  1.00  0.00    -0.354 N 
ATOM     40  C   UNL A   1      37.945  32.544  29.610  1.00  0.00     0.074 A 
ATOM     41  C   UNL A   1      37.020  31.756  28.849  1.00  0.00     0.031 C 
ATOM     42  C   UNL A   1      42.601  30.530  31.225  1.00  0.00     0.029 A 
ATOM     43  C   UNL A   1      43.260  29.739  30.203  1.00  0.00     0.049 A 
ATOM     44  H   UNL A   1      42.276  28.043  29.395  1.00  0.00     0.167 HD
ATOM     45  C   UNL A   1      37.857  33.513  30.560  1.00  0.00     0.034 A 
ATOM     46  C   UNL A   1      44.267  30.161  29.379  1.00  0.00     0.034 A 
ATOM     47  C   UNL A   1      39.201  33.912  31.003  1.00  0.00     0.049 A 
ATOM     48  C   UNL A   1      44.171  31.667  29.119  1.00  0.00     0.074 A 
ATOM     49  C   UNL A   1      39.961  33.731  32.144  1.00  0.00     0.029 A 
ATOM     50  N   UNL A   1      40.090  34.338  30.032  1.00  0.00    -0.354 N 
ATOM     51  N   UNL A   1      43.263  32.441  29.656  1.00  0.00    -0.248 NA
ATOM     52  C   UNL A   1      45.029  32.412  28.201  1.00  0.00     0.031 C 
ATOM     53  C   UNL A   1      41.336  33.961  31.793  1.00  0.00     0.029 A 
ATOM     54  C   UNL A   1      41.398  34.346  30.463  1.00  0.00     0.049 A 
ATOM     55  H   UNL A   1      39.817  34.606  29.126  1.00  0.00     0.167 HD
ATOM     56  C   UNL A   1      43.332  33.706  29.144  1.00  0.00     0.074 A 
ATOM     57  C   UNL A   1      44.458  33.633  28.221  1.00  0.00     0.031 C 
ATOM     58  C   UNL A   1      42.440  34.692  29.494  1.00  0.00     0.034 A 
BRANCH  45  59
ATOM     59  C   UNL A   1      36.580  33.990  31.210  1.00  0.00     0.023 A 
ATOM     60  C   UNL A   1      35.565  34.482  30.368  1.00  0.00     0.031 A 
ATOM     61  C   UNL A   1      36.312  34.089  32.595  1.00  0.00     0.131 A 
ATOM     62  C   UNL A   1      34.382  35.036  30.890  1.00  0.00     0.055 A 
ATOM     63  C   UNL A   1      35.111  34.590  33.113  1.00  0.00     0.041 A 
ATOM     64  F   UNL A   1      37.207  33.768  33.535  1.00  0.00    -0.206 F 
ATOM     65  C   UNL A   1      34.138  35.076  32.259  1.00  0.00     0.022 A 
BRANCH  62  66
ATOM     66  S   UNL A   1      33.184  35.758  29.743  1.00  0.00     0.124 S 
ATOM     67  O   UNL A   1      32.531  34.571  29.200  1.00  0.00    -0.237 OA
ATOM     68  O   UNL A   1      32.380  36.596  30.625  1.00  0.00    -0.237 OA
ATOM     69  O   UNL A   1      34.024  36.489  28.793  1.00  0.00    -0.744 OA
ENDBRANCH  62  66
ENDBRANCH  45  59
BRANCH  46  70
ATOM     70  C   UNL A   1      44.716  29.087  28.429  1.00  0.00     0.023 A 
ATOM     71  C   UNL A   1      45.411  27.992  29.002  1.00  0.00     0.031 A 
ATOM     72  C   UNL A   1      44.146  28.893  27.164  1.00  0.00     0.131 A 
ATOM     73  C   UNL A   1      45.344  26.716  28.419  1.00  0.00     0.055 A 
ATOM     74  C   UNL A   1      44.146  27.630  26.547  1.00  0.00     0.041 A 
ATOM     75  F   UNL A   1      43.437  29.868  26.573  1.00  0.00    -0.206 F 
ATOM     76  C   UNL A   1      44.698  26.527  27.199  1.00  0.00     0.022 A 
BRANCH  73  77
ATOM     77  S   UNL A   1      45.862  25.271  29.404  1.00  0.00     0.124 S 
ATOM     78  O   UNL A   1      44.700  25.063  30.261  1.00  0.00    -0.237 OA
ATOM     79  O   UNL A   1      46.090  24.240  28.393  1.00  0.00    -0.237 OA
ATOM     80  O   UNL A   1      47.063  25.741  30.090  1.00  0.00    -0.744 OA
ENDBRANCH  73  77
ENDBRANCH  46  70
BRANCH  58  81
ATOM     81  C   UNL A   1      42.459  36.088  28.901  1.00  0.00     0.023 A 
ATOM     82  C   UNL A   1      42.974  37.175  29.616  1.00  0.00     0.031 A 
ATOM     83  C   UNL A   1      41.923  36.403  27.625  1.00  0.00     0.131 A 
ATOM     84  C   UNL A   1      43.069  38.447  29.029  1.00  0.00     0.055 A 
ATOM     85  C   UNL A   1      41.912  37.694  27.091  1.00  0.00     0.041 A 
ATOM     86  F   UNL A   1      41.427  35.475  26.797  1.00  0.00    -0.206 F 
ATOM     87  C   UNL A   1      42.516  38.724  27.782  1.00  0.00     0.022 A 
BRANCH  84  88
ATOM     88  S   UNL A   1      44.039  39.706  29.891  1.00  0.00     0.124 S 
ATOM     89  O   UNL A   1      45.086  38.917  30.530  1.00  0.00    -0.237 OA
ATOM     90  O   UNL A   1      44.470  40.550  28.779  1.00  0.00    -0.237 OA
ATOM     91  O   UNL A   1      43.075  40.320  30.799  1.00  0.00    -0.744 OA
ENDBRANCH  84  88
ENDBRANCH  58  81
ENDBRANCH  32  33
ENDBRANCH  25  27
ENDBRANCH  24  25
ENDBRANCH  23  24
ENDBRANCH   1  23
TORSDOF 17
ENDMDL
MODEL 3
REMARK VINA RESULT:     -13.0      2.249      3.290
REMARK SMILES Cc1c(CC(=O)OCCOC(=O)c2ccc(-c3c4nc(c(-c5cc(S(=O)(=O)[O-])ccc5F)c5ccc([nH]5)c(-c5cc(S(=O)(=O)[O-])ccc5F)c5nc(c(-c6cc(S(=O)(=O)[O-])ccc6F)c6ccc3[nH]6)C=C5)C=C4)cc2)cccc1-c1ccn(C(F)F)c(=O)c1
REMARK SMILES IDX 8 1 7 2 5 3 6 4 4 5 3 6 1 7 2 8 79 9 76 10 78 11 77 12 80 13
REMARK SMILES IDX 81 14 89 15 82 16 87 17 83 18 88 19 84 20 85 21 86 22 9 23
REMARK SMILES IDX 10 24 11 25 12 26 13 27 14 28 75 29 15 30 74 31 16 32 17 33
REMARK SMILES IDX 18 34 68 35 19 36 73 37 67 38 69 39 20 40 72 41 66 42 65 43
REMARK SMILES IDX 21 45 53 46 33 47 52 48 34 49 37 50 51 51 70 52 35 53 36 54
REMARK SMILES IDX 50 56 71 57 38 58 22 59 23 60 31 61 24 62 30 63 32 64 29 65
REMARK SMILES IDX 25 66 26 67 27 68 28 69 54 70 55 71 63 72 56 73 62 74 64 75
REMARK SMILES IDX 61 76 57 77 58 78 59 79 60 80 39 81 40 82 48 83 41 84 47 85
REMARK SMILES IDX 49 86 46 87 42 88 43 89 44 90 45 91
REMARK H PARENT 69 44 37 55
REMARK Flexibility Score: inf
ROOT
ATOM      1  C   UNL A   1      41.315  19.584  26.353  1.00  0.00     0.274 C 
ENDROOT
BRANCH   1   2
ATOM      2  O   UNL A   1      40.219  20.513  26.292  1.00  0.00    -0.462 OA
BRANCH   2   3
ATOM      3  C   UNL A   1      39.030  20.045  25.614  1.00  0.00     0.310 C 
ATOM      4  O   UNL A   1      39.246  18.811  25.402  1.00  0.00    -0.252 OA
BRANCH   3   5
ATOM      5  C   UNL A   1      37.302  21.262  25.147  1.00  0.00     0.158 C 
BRANCH   5   6
ATOM      6  C   UNL A   1      35.611  20.959  24.931  1.00  0.00    -0.033 A 
ATOM      7  C   UNL A   1      35.099  23.449  24.616  1.00  0.00     0.045 C 
ATOM      8  C   UNL A   1      34.665  22.020  24.834  1.00  0.00    -0.039 A 
ATOM      9  C   UNL A   1      33.285  21.698  24.876  1.00  0.00    -0.015 A 
ATOM     10  C   UNL A   1      35.143  19.647  24.706  1.00  0.00     0.004 A 
ATOM     11  C   UNL A   1      32.867  20.363  24.940  1.00  0.00     0.009 A 
ATOM     12  C   UNL A   1      33.793  19.342  24.802  1.00  0.00     0.001 A 
BRANCH   9  13
ATOM     13  C   UNL A   1      32.243  22.736  24.789  1.00  0.00    -0.011 A 
ATOM     14  C   UNL A   1      31.961  23.426  23.545  1.00  0.00     0.027 A 
ATOM     15  C   UNL A   1      31.607  23.104  25.913  1.00  0.00     0.080 A 
ATOM     16  C   UNL A   1      31.174  24.506  23.539  1.00  0.00     0.095 A 
ATOM     17  C   UNL A   1      30.659  24.251  25.899  1.00  0.00     0.255 A 
ATOM     18  N   UNL A   1      30.557  24.937  24.698  1.00  0.00    -0.258 N 
ATOM     19  O   UNL A   1      30.059  24.531  26.932  1.00  0.00    -0.269 OA
BRANCH  18  20
ATOM     20  C   UNL A   1      29.774  26.142  24.698  1.00  0.00     0.451 C 
ATOM     21  F   UNL A   1      30.549  27.234  24.908  1.00  0.00    -0.185 F 
ATOM     22  F   UNL A   1      29.129  26.306  23.518  1.00  0.00    -0.185 F 
ENDBRANCH  18  20
ENDBRANCH   9  13
ENDBRANCH   5   6
ENDBRANCH   3   5
ENDBRANCH   2   3
ENDBRANCH   1   2
BRANCH   1  23
ATOM     23  C   UNL A   1      42.572  20.304  25.851  1.00  0.00     0.275 C 
BRANCH  23  24
ATOM     24  O   UNL A   1      42.419  21.685  25.405  1.00  0.00    -0.458 OA
BRANCH  24  25
ATOM     25  C   UNL A   1      42.802  22.785  26.100  1.00  0.00     0.338 C 
ATOM     26  O   UNL A   1      43.822  22.877  26.768  1.00  0.00    -0.246 OA
BRANCH  25  27
ATOM     27  C   UNL A   1      41.764  23.823  26.216  1.00  0.00     0.060 A 
ATOM     28  C   UNL A   1      42.067  25.380  25.349  1.00  0.00     0.016 A 
ATOM     29  C   UNL A   1      40.706  23.773  27.673  1.00  0.00     0.016 A 
ATOM     30  C   UNL A   1      41.494  26.943  26.103  1.00  0.00     0.010 A 
ATOM     31  C   UNL A   1      40.135  25.317  28.401  1.00  0.00     0.010 A 
ATOM     32  C   UNL A   1      40.628  26.895  27.670  1.00  0.00    -0.014 A 
BRANCH  32  33
ATOM     33  C   UNL A   1      40.762  27.931  28.681  1.00  0.00     0.031 A 
ATOM     34  C   UNL A   1      39.767  29.009  28.698  1.00  0.00     0.074 A 
ATOM     35  C   UNL A   1      41.618  27.731  29.713  1.00  0.00     0.049 A 
ATOM     36  N   UNL A   1      39.922  30.107  29.340  1.00  0.00    -0.248 NA
ATOM     37  C   UNL A   1      38.533  28.988  27.917  1.00  0.00     0.031 C 
ATOM     38  C   UNL A   1      41.629  28.387  31.019  1.00  0.00     0.029 A 
ATOM     39  N   UNL A   1      42.746  26.928  29.794  1.00  0.00    -0.354 N 
ATOM     40  C   UNL A   1      38.692  30.716  29.384  1.00  0.00     0.074 A 
ATOM     41  C   UNL A   1      37.942  30.115  28.320  1.00  0.00     0.031 C 
ATOM     42  C   UNL A   1      42.831  28.199  31.594  1.00  0.00     0.029 A 
ATOM     43  C   UNL A   1      43.682  27.546  30.618  1.00  0.00     0.049 A 
ATOM     44  H   UNL A   1      42.864  26.062  29.342  1.00  0.00     0.167 HD
ATOM     45  C   UNL A   1      38.418  31.523  30.443  1.00  0.00     0.034 A 
ATOM     46  C   UNL A   1      44.856  28.035  30.112  1.00  0.00     0.034 A 
ATOM     47  C   UNL A   1      39.639  31.767  31.224  1.00  0.00     0.049 A 
ATOM     48  C   UNL A   1      44.852  29.566  30.097  1.00  0.00     0.074 A 
ATOM     49  C   UNL A   1      40.124  31.360  32.455  1.00  0.00     0.029 A 
ATOM     50  N   UNL A   1      40.730  32.289  30.554  1.00  0.00    -0.354 N 
ATOM     51  N   UNL A   1      43.865  30.296  30.550  1.00  0.00    -0.248 NA
ATOM     52  C   UNL A   1      45.908  30.397  29.523  1.00  0.00     0.031 C 
ATOM     53  C   UNL A   1      41.547  31.563  32.450  1.00  0.00     0.029 A 
ATOM     54  C   UNL A   1      41.910  32.153  31.249  1.00  0.00     0.049 A 
ATOM     55  H   UNL A   1      40.669  32.715  29.668  1.00  0.00     0.167 HD
ATOM     56  C   UNL A   1      44.073  31.620  30.287  1.00  0.00     0.074 A 
ATOM     57  C   UNL A   1      45.373  31.630  29.627  1.00  0.00     0.031 C 
ATOM     58  C   UNL A   1      43.148  32.588  30.599  1.00  0.00     0.034 A 
BRANCH  45  59
ATOM     59  C   UNL A   1      37.039  31.963  30.875  1.00  0.00     0.023 A 
ATOM     60  C   UNL A   1      36.234  32.613  29.921  1.00  0.00     0.031 A 
ATOM     61  C   UNL A   1      36.485  31.881  32.174  1.00  0.00     0.131 A 
ATOM     62  C   UNL A   1      34.976  33.143  30.261  1.00  0.00     0.055 A 
ATOM     63  C   UNL A   1      35.209  32.360  32.498  1.00  0.00     0.041 A 
ATOM     64  F   UNL A   1      37.155  31.392  33.223  1.00  0.00    -0.206 F 
ATOM     65  C   UNL A   1      34.448  33.004  31.540  1.00  0.00     0.022 A 
BRANCH  62  66
ATOM     66  S   UNL A   1      34.060  34.072  29.008  1.00  0.00     0.124 S 
ATOM     67  O   UNL A   1      35.072  35.007  28.525  1.00  0.00    -0.237 OA
ATOM     68  O   UNL A   1      33.653  33.021  28.082  1.00  0.00    -0.237 OA
ATOM     69  O   UNL A   1      32.970  34.682  29.769  1.00  0.00    -0.744 OA
ENDBRANCH  62  66
ENDBRANCH  45  59
BRANCH  46  70
ATOM     70  C   UNL A   1      45.480  27.103  29.113  1.00  0.00     0.023 A 
ATOM     71  C   UNL A   1      45.216  27.378  27.748  1.00  0.00     0.031 A 
ATOM     72  C   UNL A   1      46.592  26.300  29.402  1.00  0.00     0.131 A 
ATOM     73  C   UNL A   1      46.148  27.036  26.754  1.00  0.00     0.055 A 
ATOM     74  C   UNL A   1      47.484  25.895  28.393  1.00  0.00     0.041 A 
ATOM     75  F   UNL A   1      46.932  26.030  30.671  1.00  0.00    -0.206 F 
ATOM     76  C   UNL A   1      47.293  26.308  27.075  1.00  0.00     0.022 A 
BRANCH  73  77
ATOM     77  S   UNL A   1      45.988  27.790  25.100  1.00  0.00     0.124 S 
ATOM     78  O   UNL A   1      46.668  26.809  24.260  1.00  0.00    -0.237 OA
ATOM     79  O   UNL A   1      44.542  27.883  24.912  1.00  0.00    -0.237 OA
ATOM     80  O   UNL A   1      46.678  29.069  25.243  1.00  0.00    -0.744 OA
ENDBRANCH  73  77
ENDBRANCH  46  70
BRANCH  58  81
ATOM     81  C   UNL A   1      43.328  34.058  30.269  1.00  0.00     0.023 A 
ATOM     82  C   UNL A   1      43.296  34.514  28.947  1.00  0.00     0.031 A 
ATOM     83  C   UNL A   1      43.589  35.053  31.247  1.00  0.00     0.131 A 
ATOM     84  C   UNL A   1      43.376  35.885  28.653  1.00  0.00     0.055 A 
ATOM     85  C   UNL A   1      43.786  36.401  30.940  1.00  0.00     0.041 A 
ATOM     86  F   UNL A   1      43.615  34.791  32.560  1.00  0.00    -0.206 F 
ATOM     87  C   UNL A   1      43.650  36.832  29.636  1.00  0.00     0.022 A 
BRANCH  84  88
ATOM     88  S   UNL A   1      42.997  36.412  26.967  1.00  0.00     0.124 S 
ATOM     89  O   UNL A   1      43.688  37.693  26.872  1.00  0.00    -0.237 OA
ATOM     90  O   UNL A   1      43.576  35.321  26.186  1.00  0.00    -0.237 OA
ATOM     91  O   UNL A   1      41.539  36.484  26.948  1.00  0.00    -0.744 OA
ENDBRANCH  84  88
ENDBRANCH  58  81
ENDBRANCH  32  33
ENDBRANCH  25  27
ENDBRANCH  24  25
ENDBRANCH  23  24
ENDBRANCH   1  23
TORSDOF 17
ENDMDL
