MODEL 1
REMARK VINA RESULT:     -12.5      0.000      0.000
REMARK SMILES COc1ccc(NC(=O)[C@H]2[C@@H]3CC[C@@H](C3)[C@@H]2C(=O)OCCOC(=O)c2ccc(-c3c4nc(c(-c5cc(S(=O)(=O)[O-])ccc5F)c5ccc([nH]5)c(-c5cc(S(=O)(=O)[O-])ccc5F)c5nc(c(-c6cc(S(=O)(=O)[O-])ccc6F)c6ccc3[nH]6)C=C5)C=C4)cc2)c(C)c1
REMARK SMILES IDX 20 1 19 2 17 3 18 4 16 5 10 6 11 7 12 8 15 9 14 10 13 11
REMARK SMILES IDX 8 12 7 13 9 15 6 16 3 17 4 18 90 19 5 20 88 21 89 22 2 23
REMARK SMILES IDX 1 24 21 25 22 26 23 27 24 28 25 29 26 30 87 31 27 32 86 33
REMARK SMILES IDX 28 34 29 35 30 36 80 37 31 38 85 39 79 40 81 41 32 42 84 43
REMARK SMILES IDX 78 44 77 45 33 47 65 48 45 49 64 50 46 51 49 52 63 53 82 54
REMARK SMILES IDX 47 55 48 56 62 58 83 59 50 60 34 61 35 62 43 63 36 64 42 65
REMARK SMILES IDX 44 66 41 67 37 68 38 69 39 70 40 71 66 72 67 73 75 74 68 75
REMARK SMILES IDX 74 76 76 77 73 78 69 79 70 80 71 81 72 82 51 83 52 84 60 85
REMARK SMILES IDX 53 86 59 87 61 88 58 89 54 90 55 91 56 92 57 93
REMARK H PARENT 7 14 81 46 49 57
REMARK Flexibility Score: inf
ROOT
ATOM      1  C   UNL A   1      31.954  29.646  26.615  1.00  0.00     0.274 C 
ENDROOT
BRANCH   1   2
ATOM      2  O   UNL A   1      32.320  28.728  25.577  1.00  0.00    -0.462 OA
BRANCH   2   3
ATOM      3  C   UNL A   1      31.321  28.389  24.739  1.00  0.00     0.310 C 
ATOM      4  O   UNL A   1      30.578  29.233  24.262  1.00  0.00    -0.252 OA
BRANCH   3   5
ATOM      5  C   UNL A   1      31.091  26.906  24.575  1.00  0.00     0.115 C 
ATOM      6  C   UNL A   1      32.394  26.138  24.882  1.00  0.00     0.096 C 
ATOM      7  C   UNL A   1      32.567  25.342  23.537  1.00  0.00     0.003 C 
ATOM      8  C   UNL A   1      32.894  26.304  22.367  1.00  0.00     0.005 C 
ATOM      9  C   UNL A   1      31.121  24.950  23.208  1.00  0.00     0.009 C 
ATOM     10  C   UNL A   1      30.654  26.404  23.165  1.00  0.00     0.004 C 
ATOM     11  C   UNL A   1      31.533  26.915  22.019  1.00  0.00     0.005 C 
BRANCH   6  12
ATOM     12  C   UNL A   1      32.315  25.160  26.074  1.00  0.00     0.228 C 
ATOM     13  N   UNL A   1      33.169  24.141  26.370  1.00  0.00    -0.326 N 
ATOM     14  H   UNL A   1      32.902  23.691  27.203  1.00  0.00     0.169 HD
ATOM     15  O   UNL A   1      31.380  25.275  26.883  1.00  0.00    -0.274 OA
BRANCH  13  16
ATOM     16  C   UNL A   1      34.325  23.543  25.824  1.00  0.00     0.044 A 
ATOM     17  C   UNL A   1      36.662  22.083  25.161  1.00  0.00     0.119 A 
ATOM     18  C   UNL A   1      36.735  23.423  25.504  1.00  0.00     0.048 A 
ATOM     19  C   UNL A   1      35.411  21.516  24.976  1.00  0.00     0.052 A 
ATOM     20  C   UNL A   1      35.568  24.150  25.812  1.00  0.00     0.030 A 
ATOM     21  C   UNL A   1      34.234  22.249  25.258  1.00  0.00    -0.024 A 
ATOM     22  C   UNL A   1      32.934  21.618  24.835  1.00  0.00     0.047 C 
BRANCH  17  23
ATOM     23  O   UNL A   1      37.767  21.343  24.846  1.00  0.00    -0.497 OA
ATOM     24  C   UNL A   1      38.861  21.591  25.730  1.00  0.00     0.278 C 
ENDBRANCH  17  23
ENDBRANCH  13  16
ENDBRANCH   6  12
ENDBRANCH   3   5
ENDBRANCH   2   3
ENDBRANCH   1   2
BRANCH   1  25
ATOM     25  C   UNL A   1      33.015  30.708  26.918  1.00  0.00     0.275 C 
BRANCH  25  26
ATOM     26  O   UNL A   1      34.087  30.260  27.788  1.00  0.00    -0.458 OA
BRANCH  26  27
ATOM     27  C   UNL A   1      35.200  30.895  28.263  1.00  0.00     0.338 C 
ATOM     28  O   UNL A   1      35.079  31.978  28.837  1.00  0.00    -0.246 OA
BRANCH  27  29
ATOM     29  C   UNL A   1      36.517  30.203  28.350  1.00  0.00     0.060 A 
ATOM     30  C   UNL A   1      36.862  29.456  29.498  1.00  0.00     0.016 A 
ATOM     31  C   UNL A   1      37.410  30.217  27.306  1.00  0.00     0.016 A 
ATOM     32  C   UNL A   1      38.003  28.619  29.526  1.00  0.00     0.010 A 
ATOM     33  C   UNL A   1      38.404  29.259  27.255  1.00  0.00     0.010 A 
ATOM     34  C   UNL A   1      38.765  28.480  28.369  1.00  0.00    -0.014 A 
BRANCH  34  35
ATOM     35  C   UNL A   1      40.102  27.861  28.242  1.00  0.00     0.031 A 
ATOM     36  C   UNL A   1      40.457  26.425  28.085  1.00  0.00     0.074 A 
ATOM     37  C   UNL A   1      41.101  28.780  28.238  1.00  0.00     0.049 A 
ATOM     38  N   UNL A   1      41.664  25.987  28.248  1.00  0.00    -0.248 NA
ATOM     39  C   UNL A   1      39.542  25.342  27.748  1.00  0.00     0.031 C 
ATOM     40  C   UNL A   1      42.513  28.665  27.916  1.00  0.00     0.029 A 
ATOM     41  N   UNL A   1      40.994  30.085  28.694  1.00  0.00    -0.354 N 
ATOM     42  C   UNL A   1      41.765  24.700  27.764  1.00  0.00     0.074 A 
ATOM     43  C   UNL A   1      40.392  24.315  27.552  1.00  0.00     0.031 C 
ATOM     44  C   UNL A   1      43.159  29.727  28.436  1.00  0.00     0.029 A 
ATOM     45  C   UNL A   1      42.202  30.489  29.225  1.00  0.00     0.049 A 
ATOM     46  H   UNL A   1      40.181  30.640  28.647  1.00  0.00     0.167 HD
ATOM     47  C   UNL A   1      43.016  24.196  27.513  1.00  0.00     0.034 A 
ATOM     48  C   UNL A   1      42.223  30.736  30.569  1.00  0.00     0.034 A 
ATOM     49  C   UNL A   1      44.035  25.050  28.125  1.00  0.00     0.049 A 
ATOM     50  C   UNL A   1      43.061  29.707  31.295  1.00  0.00     0.074 A 
ATOM     51  C   UNL A   1      44.938  25.983  27.646  1.00  0.00     0.029 A 
ATOM     52  N   UNL A   1      44.022  25.188  29.506  1.00  0.00    -0.354 N 
ATOM     53  N   UNL A   1      43.517  28.622  30.731  1.00  0.00    -0.248 NA
ATOM     54  C   UNL A   1      43.471  29.811  32.689  1.00  0.00     0.031 C 
ATOM     55  C   UNL A   1      45.358  26.778  28.750  1.00  0.00     0.029 A 
ATOM     56  C   UNL A   1      44.742  26.298  29.894  1.00  0.00     0.049 A 
ATOM     57  H   UNL A   1      43.560  24.577  30.124  1.00  0.00     0.167 HD
ATOM     58  C   UNL A   1      44.234  27.887  31.627  1.00  0.00     0.074 A 
ATOM     59  C   UNL A   1      44.205  28.693  32.837  1.00  0.00     0.031 C 
ATOM     60  C   UNL A   1      44.767  26.672  31.301  1.00  0.00     0.034 A 
BRANCH  47  61
ATOM     61  C   UNL A   1      43.410  23.047  26.593  1.00  0.00     0.023 A 
ATOM     62  C   UNL A   1      42.835  21.765  26.812  1.00  0.00     0.031 A 
ATOM     63  C   UNL A   1      44.340  23.101  25.542  1.00  0.00     0.131 A 
ATOM     64  C   UNL A   1      43.223  20.625  26.076  1.00  0.00     0.055 A 
ATOM     65  C   UNL A   1      44.739  21.961  24.814  1.00  0.00     0.041 A 
ATOM     66  F   UNL A   1      44.897  24.253  25.154  1.00  0.00    -0.206 F 
ATOM     67  C   UNL A   1      44.190  20.715  25.085  1.00  0.00     0.022 A 
BRANCH  64  68
ATOM     68  S   UNL A   1      42.453  19.017  26.444  1.00  0.00     0.124 S 
ATOM     69  O   UNL A   1      43.478  18.074  26.010  1.00  0.00    -0.237 OA
ATOM     70  O   UNL A   1      42.219  19.103  27.881  1.00  0.00    -0.237 OA
ATOM     71  O   UNL A   1      41.240  19.026  25.625  1.00  0.00    -0.744 OA
ENDBRANCH  64  68
ENDBRANCH  47  61
BRANCH  48  72
ATOM     72  C   UNL A   1      40.946  31.392  31.052  1.00  0.00     0.023 A 
ATOM     73  C   UNL A   1      39.925  30.523  31.518  1.00  0.00     0.031 A 
ATOM     74  C   UNL A   1      40.843  32.740  31.424  1.00  0.00     0.131 A 
ATOM     75  C   UNL A   1      38.971  30.956  32.456  1.00  0.00     0.055 A 
ATOM     76  C   UNL A   1      39.818  33.193  32.278  1.00  0.00     0.041 A 
ATOM     77  F   UNL A   1      41.778  33.628  31.056  1.00  0.00    -0.206 F 
ATOM     78  C   UNL A   1      38.901  32.294  32.831  1.00  0.00     0.022 A 
BRANCH  75  79
ATOM     79  S   UNL A   1      38.078  29.685  33.411  1.00  0.00     0.124 S 
ATOM     80  O   UNL A   1      38.756  28.458  33.011  1.00  0.00    -0.237 OA
ATOM     81  O   UNL A   1      38.299  30.118  34.791  1.00  0.00    -0.237 OA
ATOM     82  O   UNL A   1      36.694  29.820  32.968  1.00  0.00    -0.744 OA
ENDBRANCH  75  79
ENDBRANCH  48  72
BRANCH  60  83
ATOM     83  C   UNL A   1      45.376  25.724  32.294  1.00  0.00     0.023 A 
ATOM     84  C   UNL A   1      44.614  24.780  32.990  1.00  0.00     0.031 A 
ATOM     85  C   UNL A   1      46.774  25.679  32.504  1.00  0.00     0.131 A 
ATOM     86  C   UNL A   1      45.208  23.931  33.933  1.00  0.00     0.055 A 
ATOM     87  C   UNL A   1      47.376  24.760  33.365  1.00  0.00     0.041 A 
ATOM     88  F   UNL A   1      47.607  26.525  31.877  1.00  0.00    -0.206 F 
ATOM     89  C   UNL A   1      46.589  23.893  34.107  1.00  0.00     0.022 A 
BRANCH  86  90
ATOM     90  S   UNL A   1      44.111  22.966  34.998  1.00  0.00     0.124 S 
ATOM     91  O   UNL A   1      44.545  21.600  34.716  1.00  0.00    -0.237 OA
ATOM     92  O   UNL A   1      44.439  23.473  36.326  1.00  0.00    -0.237 OA
ATOM     93  O   UNL A   1      42.775  23.304  34.512  1.00  0.00    -0.744 OA
ENDBRANCH  86  90
ENDBRANCH  60  83
ENDBRANCH  34  35
ENDBRANCH  27  29
ENDBRANCH  26  27
ENDBRANCH  25  26
ENDBRANCH   1  25
TORSDOF 17
ENDMDL
MODEL 2
REMARK VINA RESULT:     -12.4      1.894      2.247
REMARK SMILES COc1ccc(NC(=O)[C@H]2[C@@H]3CC[C@@H](C3)[C@@H]2C(=O)OCCOC(=O)c2ccc(-c3c4nc(c(-c5cc(S(=O)(=O)[O-])ccc5F)c5ccc([nH]5)c(-c5cc(S(=O)(=O)[O-])ccc5F)c5nc(c(-c6cc(S(=O)(=O)[O-])ccc6F)c6ccc3[nH]6)C=C5)C=C4)cc2)c(C)c1
REMARK SMILES IDX 20 1 19 2 17 3 18 4 16 5 10 6 11 7 12 8 15 9 14 10 13 11
REMARK SMILES IDX 8 12 7 13 9 15 6 16 3 17 4 18 90 19 5 20 88 21 89 22 2 23
REMARK SMILES IDX 1 24 21 25 22 26 23 27 24 28 25 29 26 30 87 31 27 32 86 33
REMARK SMILES IDX 28 34 29 35 30 36 80 37 31 38 85 39 79 40 81 41 32 42 84 43
REMARK SMILES IDX 78 44 77 45 33 47 65 48 45 49 64 50 46 51 49 52 63 53 82 54
REMARK SMILES IDX 47 55 48 56 62 58 83 59 50 60 34 61 35 62 43 63 36 64 42 65
REMARK SMILES IDX 44 66 41 67 37 68 38 69 39 70 40 71 66 72 67 73 75 74 68 75
REMARK SMILES IDX 74 76 76 77 73 78 69 79 70 80 71 81 72 82 51 83 52 84 60 85
REMARK SMILES IDX 53 86 59 87 61 88 58 89 54 90 55 91 56 92 57 93
REMARK H PARENT 7 14 81 46 49 57
REMARK Flexibility Score: inf
ROOT
ATOM      1  C   UNL A   1      32.203  30.262  26.904  1.00  0.00     0.274 C 
ENDROOT
BRANCH   1   2
ATOM      2  O   UNL A   1      32.010  30.127  25.490  1.00  0.00    -0.462 OA
BRANCH   2   3
ATOM      3  C   UNL A   1      32.464  28.973  24.962  1.00  0.00     0.310 C 
ATOM      4  O   UNL A   1      33.521  28.926  24.351  1.00  0.00    -0.252 OA
BRANCH   3   5
ATOM      5  C   UNL A   1      31.506  27.808  25.036  1.00  0.00     0.115 C 
ATOM      6  C   UNL A   1      32.267  26.490  24.778  1.00  0.00     0.096 C 
ATOM      7  C   UNL A   1      31.437  25.927  23.568  1.00  0.00     0.003 C 
ATOM      8  C   UNL A   1      31.642  26.801  22.305  1.00  0.00     0.005 C 
ATOM      9  C   UNL A   1      30.002  26.300  23.961  1.00  0.00     0.009 C 
ATOM     10  C   UNL A   1      30.323  27.792  24.022  1.00  0.00     0.004 C 
ATOM     11  C   UNL A   1      30.744  28.016  22.566  1.00  0.00     0.005 C 
BRANCH   6  12
ATOM     12  C   UNL A   1      32.253  25.483  25.949  1.00  0.00     0.228 C 
ATOM     13  N   UNL A   1      33.103  24.440  26.157  1.00  0.00    -0.326 N 
ATOM     14  H   UNL A   1      32.887  23.974  26.996  1.00  0.00     0.169 HD
ATOM     15  O   UNL A   1      31.380  25.596  26.826  1.00  0.00    -0.274 OA
BRANCH  13  16
ATOM     16  C   UNL A   1      34.204  23.834  25.515  1.00  0.00     0.044 A 
ATOM     17  C   UNL A   1      36.405  22.292  24.614  1.00  0.00     0.119 A 
ATOM     18  C   UNL A   1      36.596  23.553  25.157  1.00  0.00     0.048 A 
ATOM     19  C   UNL A   1      35.109  21.873  24.356  1.00  0.00     0.052 A 
ATOM     20  C   UNL A   1      35.496  24.323  25.585  1.00  0.00     0.030 A 
ATOM     21  C   UNL A   1      34.001  22.655  24.759  1.00  0.00    -0.024 A 
ATOM     22  C   UNL A   1      32.652  22.213  24.256  1.00  0.00     0.047 C 
BRANCH  17  23
ATOM     23  O   UNL A   1      37.441  21.515  24.178  1.00  0.00    -0.497 OA
ATOM     24  C   UNL A   1      37.552  20.293  24.909  1.00  0.00     0.278 C 
ENDBRANCH  17  23
ENDBRANCH  13  16
ENDBRANCH   6  12
ENDBRANCH   3   5
ENDBRANCH   2   3
ENDBRANCH   1   2
BRANCH   1  25
ATOM     25  C   UNL A   1      33.426  31.097  27.294  1.00  0.00     0.275 C 
BRANCH  25  26
ATOM     26  O   UNL A   1      34.449  30.367  28.019  1.00  0.00    -0.458 OA
BRANCH  26  27
ATOM     27  C   UNL A   1      35.463  30.787  28.834  1.00  0.00     0.338 C 
ATOM     28  O   UNL A   1      35.244  31.670  29.664  1.00  0.00    -0.246 OA
BRANCH  27  29
ATOM     29  C   UNL A   1      36.745  30.034  28.939  1.00  0.00     0.060 A 
ATOM     30  C   UNL A   1      37.042  29.277  30.093  1.00  0.00     0.016 A 
ATOM     31  C   UNL A   1      37.648  30.000  27.904  1.00  0.00     0.016 A 
ATOM     32  C   UNL A   1      38.142  28.387  30.137  1.00  0.00     0.010 A 
ATOM     33  C   UNL A   1      38.597  28.995  27.868  1.00  0.00     0.010 A 
ATOM     34  C   UNL A   1      38.908  28.205  28.989  1.00  0.00    -0.014 A 
BRANCH  34  35
ATOM     35  C   UNL A   1      40.216  27.524  28.879  1.00  0.00     0.031 A 
ATOM     36  C   UNL A   1      40.505  26.109  28.525  1.00  0.00     0.074 A 
ATOM     37  C   UNL A   1      41.259  28.361  29.108  1.00  0.00     0.049 A 
ATOM     38  N   UNL A   1      41.666  25.568  28.718  1.00  0.00    -0.248 NA
ATOM     39  C   UNL A   1      39.569  25.156  27.941  1.00  0.00     0.031 C 
ATOM     40  C   UNL A   1      42.687  28.201  28.894  1.00  0.00     0.029 A 
ATOM     41  N   UNL A   1      41.180  29.585  29.757  1.00  0.00    -0.354 N 
ATOM     42  C   UNL A   1      41.742  24.369  28.043  1.00  0.00     0.074 A 
ATOM     43  C   UNL A   1      40.377  24.116  27.655  1.00  0.00     0.031 C 
ATOM     44  C   UNL A   1      43.338  29.123  29.631  1.00  0.00     0.029 A 
ATOM     45  C   UNL A   1      42.352  29.817  30.447  1.00  0.00     0.049 A 
ATOM     46  H   UNL A   1      40.407  30.194  29.731  1.00  0.00     0.167 HD
ATOM     47  C   UNL A   1      42.982  23.825  27.823  1.00  0.00     0.034 A 
ATOM     48  C   UNL A   1      42.258  29.851  31.810  1.00  0.00     0.034 A 
ATOM     49  C   UNL A   1      43.983  24.501  28.649  1.00  0.00     0.049 A 
ATOM     50  C   UNL A   1      42.967  28.667  32.430  1.00  0.00     0.074 A 
ATOM     51  C   UNL A   1      44.977  25.433  28.404  1.00  0.00     0.029 A 
ATOM     52  N   UNL A   1      43.846  24.424  30.028  1.00  0.00    -0.354 N 
ATOM     53  N   UNL A   1      43.415  27.653  31.741  1.00  0.00    -0.248 NA
ATOM     54  C   UNL A   1      43.247  28.525  33.853  1.00  0.00     0.031 C 
ATOM     55  C   UNL A   1      45.333  26.016  29.654  1.00  0.00     0.029 A 
ATOM     56  C   UNL A   1      44.586  25.408  30.649  1.00  0.00     0.049 A 
ATOM     57  H   UNL A   1      43.295  23.758  30.498  1.00  0.00     0.167 HD
ATOM     58  C   UNL A   1      44.002  26.741  32.564  1.00  0.00     0.074 A 
ATOM     59  C   UNL A   1      43.902  27.350  33.881  1.00  0.00     0.031 C 
ATOM     60  C   UNL A   1      44.496  25.557  32.094  1.00  0.00     0.034 A 
BRANCH  47  61
ATOM     61  C   UNL A   1      43.400  22.807  26.767  1.00  0.00     0.023 A 
ATOM     62  C   UNL A   1      42.868  21.490  26.836  1.00  0.00     0.031 A 
ATOM     63  C   UNL A   1      44.313  23.017  25.721  1.00  0.00     0.131 A 
ATOM     64  C   UNL A   1      43.281  20.460  25.965  1.00  0.00     0.055 A 
ATOM     65  C   UNL A   1      44.737  21.987  24.857  1.00  0.00     0.041 A 
ATOM     66  F   UNL A   1      44.828  24.225  25.469  1.00  0.00    -0.206 F 
ATOM     67  C   UNL A   1      44.230  20.700  24.982  1.00  0.00     0.022 A 
BRANCH  64  68
ATOM     68  S   UNL A   1      42.566  18.796  26.145  1.00  0.00     0.124 S 
ATOM     69  O   UNL A   1      41.213  18.980  25.628  1.00  0.00    -0.237 OA
ATOM     70  O   UNL A   1      43.462  17.980  25.334  1.00  0.00    -0.237 OA
ATOM     71  O   UNL A   1      42.644  18.546  27.585  1.00  0.00    -0.744 OA
ENDBRANCH  64  68
ENDBRANCH  47  61
BRANCH  48  72
ATOM     72  C   UNL A   1      40.979  30.510  32.281  1.00  0.00     0.023 A 
ATOM     73  C   UNL A   1      40.703  31.802  31.758  1.00  0.00     0.031 A 
ATOM     74  C   UNL A   1      39.902  29.823  32.859  1.00  0.00     0.131 A 
ATOM     75  C   UNL A   1      39.386  32.281  31.657  1.00  0.00     0.055 A 
ATOM     76  C   UNL A   1      38.599  30.358  32.854  1.00  0.00     0.041 A 
ATOM     77  F   UNL A   1      40.061  28.586  33.350  1.00  0.00    -0.206 F 
ATOM     78  C   UNL A   1      38.328  31.572  32.216  1.00  0.00     0.022 A 
BRANCH  75  79
ATOM     79  S   UNL A   1      39.065  33.649  30.495  1.00  0.00     0.124 S 
ATOM     80  O   UNL A   1      40.314  34.397  30.538  1.00  0.00    -0.237 OA
ATOM     81  O   UNL A   1      38.785  32.939  29.246  1.00  0.00    -0.237 OA
ATOM     82  O   UNL A   1      37.900  34.324  31.060  1.00  0.00    -0.744 OA
ENDBRANCH  75  79
ENDBRANCH  48  72
BRANCH  60  83
ATOM     83  C   UNL A   1      44.956  24.427  32.971  1.00  0.00     0.023 A 
ATOM     84  C   UNL A   1      46.153  24.481  33.692  1.00  0.00     0.031 A 
ATOM     85  C   UNL A   1      44.148  23.286  33.182  1.00  0.00     0.131 A 
ATOM     86  C   UNL A   1      46.569  23.398  34.477  1.00  0.00     0.055 A 
ATOM     87  C   UNL A   1      44.515  22.254  34.048  1.00  0.00     0.041 A 
ATOM     88  F   UNL A   1      42.970  23.134  32.557  1.00  0.00    -0.206 F 
ATOM     89  C   UNL A   1      45.746  22.293  34.683  1.00  0.00     0.022 A 
BRANCH  86  90
ATOM     90  S   UNL A   1      48.258  23.430  35.120  1.00  0.00     0.124 S 
ATOM     91  O   UNL A   1      48.550  22.005  35.264  1.00  0.00    -0.237 OA
ATOM     92  O   UNL A   1      48.984  24.120  34.060  1.00  0.00    -0.237 OA
ATOM     93  O   UNL A   1      48.134  24.166  36.376  1.00  0.00    -0.744 OA
ENDBRANCH  86  90
ENDBRANCH  60  83
ENDBRANCH  34  35
ENDBRANCH  27  29
ENDBRANCH  26  27
ENDBRANCH  25  26
ENDBRANCH   1  25
TORSDOF 17
ENDMDL
MODEL 3
REMARK VINA RESULT:     -12.3      3.833      9.588
REMARK SMILES COc1ccc(NC(=O)[C@H]2[C@@H]3CC[C@@H](C3)[C@@H]2C(=O)OCCOC(=O)c2ccc(-c3c4nc(c(-c5cc(S(=O)(=O)[O-])ccc5F)c5ccc([nH]5)c(-c5cc(S(=O)(=O)[O-])ccc5F)c5nc(c(-c6cc(S(=O)(=O)[O-])ccc6F)c6ccc3[nH]6)C=C5)C=C4)cc2)c(C)c1
REMARK SMILES IDX 20 1 19 2 17 3 18 4 16 5 10 6 11 7 12 8 15 9 14 10 13 11
REMARK SMILES IDX 8 12 7 13 9 15 6 16 3 17 4 18 90 19 5 20 88 21 89 22 2 23
REMARK SMILES IDX 1 24 21 25 22 26 23 27 24 28 25 29 26 30 87 31 27 32 86 33
REMARK SMILES IDX 28 34 29 35 30 36 80 37 31 38 85 39 79 40 81 41 32 42 84 43
REMARK SMILES IDX 78 44 77 45 33 47 65 48 45 49 64 50 46 51 49 52 63 53 82 54
REMARK SMILES IDX 47 55 48 56 62 58 83 59 50 60 34 61 35 62 43 63 36 64 42 65
REMARK SMILES IDX 44 66 41 67 37 68 38 69 39 70 40 71 66 72 67 73 75 74 68 75
REMARK SMILES IDX 74 76 76 77 73 78 69 79 70 80 71 81 72 82 51 83 52 84 60 85
REMARK SMILES IDX 53 86 59 87 61 88 58 89 54 90 55 91 56 92 57 93
REMARK H PARENT 7 14 81 46 49 57
REMARK Flexibility Score: inf
ROOT
ATOM      1  C   UNL A   1      36.313  22.526  26.371  1.00  0.00     0.274 C 
ENDROOT
BRANCH   1   2
ATOM      2  O   UNL A   1      35.242  23.459  26.564  1.00  0.00    -0.462 OA
BRANCH   2   3
ATOM      3  C   UNL A   1      34.047  22.903  26.846  1.00  0.00     0.310 C 
ATOM      4  O   UNL A   1      33.935  22.036  27.700  1.00  0.00    -0.252 OA
BRANCH   3   5
ATOM      5  C   UNL A   1      32.916  23.302  25.929  1.00  0.00     0.115 C 
ATOM      6  C   UNL A   1      31.600  22.652  26.409  1.00  0.00     0.096 C 
ATOM      7  C   UNL A   1      31.183  21.882  25.103  1.00  0.00     0.003 C 
ATOM      8  C   UNL A   1      32.163  20.717  24.815  1.00  0.00     0.005 C 
ATOM      9  C   UNL A   1      31.570  22.879  24.004  1.00  0.00     0.009 C 
ATOM     10  C   UNL A   1      33.038  22.897  24.429  1.00  0.00     0.004 C 
ATOM     11  C   UNL A   1      33.380  21.421  24.204  1.00  0.00     0.005 C 
BRANCH   6  12
ATOM     12  C   UNL A   1      30.490  23.643  26.821  1.00  0.00     0.228 C 
ATOM     13  N   UNL A   1      30.459  24.988  26.612  1.00  0.00    -0.326 N 
ATOM     14  H   UNL A   1      29.621  25.376  26.951  1.00  0.00     0.169 HD
ATOM     15  O   UNL A   1      29.490  23.209  27.417  1.00  0.00    -0.274 OA
BRANCH  13  16
ATOM     16  C   UNL A   1      31.284  25.986  26.052  1.00  0.00     0.044 A 
ATOM     17  C   UNL A   1      33.163  27.607  24.682  1.00  0.00     0.119 A 
ATOM     18  C   UNL A   1      33.303  27.347  26.036  1.00  0.00     0.048 A 
ATOM     19  C   UNL A   1      31.995  27.209  24.050  1.00  0.00     0.052 A 
ATOM     20  C   UNL A   1      32.355  26.558  26.716  1.00  0.00     0.030 A 
ATOM     21  C   UNL A   1      31.027  26.439  24.735  1.00  0.00    -0.024 A 
ATOM     22  C   UNL A   1      29.713  26.231  24.029  1.00  0.00     0.047 C 
BRANCH  17  23
ATOM     23  O   UNL A   1      34.053  28.375  23.985  1.00  0.00    -0.497 OA
ATOM     24  C   UNL A   1      33.552  28.766  22.706  1.00  0.00     0.278 C 
ENDBRANCH  17  23
ENDBRANCH  13  16
ENDBRANCH   6  12
ENDBRANCH   3   5
ENDBRANCH   2   3
ENDBRANCH   1   2
BRANCH   1  25
ATOM     25  C   UNL A   1      37.507  23.092  25.598  1.00  0.00     0.275 C 
BRANCH  25  26
ATOM     26  O   UNL A   1      38.788  22.511  25.955  1.00  0.00    -0.458 OA
BRANCH  26  27
ATOM     27  C   UNL A   1      39.959  23.077  26.376  1.00  0.00     0.338 C 
ATOM     28  O   UNL A   1      41.029  22.630  25.962  1.00  0.00    -0.246 OA
BRANCH  27  29
ATOM     29  C   UNL A   1      39.981  24.378  27.104  1.00  0.00     0.060 A 
ATOM     30  C   UNL A   1      40.567  25.520  26.515  1.00  0.00     0.016 A 
ATOM     31  C   UNL A   1      39.388  24.527  28.334  1.00  0.00     0.016 A 
ATOM     32  C   UNL A   1      40.417  26.808  27.082  1.00  0.00     0.010 A 
ATOM     33  C   UNL A   1      39.071  25.795  28.781  1.00  0.00     0.010 A 
ATOM     34  C   UNL A   1      39.616  26.960  28.210  1.00  0.00    -0.014 A 
BRANCH  34  35
ATOM     35  C   UNL A   1      39.514  28.145  29.089  1.00  0.00     0.031 A 
ATOM     36  C   UNL A   1      38.641  29.341  28.947  1.00  0.00     0.074 A 
ATOM     37  C   UNL A   1      40.323  28.057  30.175  1.00  0.00     0.049 A 
ATOM     38  N   UNL A   1      38.831  30.423  29.632  1.00  0.00    -0.248 NA
ATOM     39  C   UNL A   1      37.498  29.475  28.053  1.00  0.00     0.031 C 
ATOM     40  C   UNL A   1      40.391  28.849  31.391  1.00  0.00     0.029 A 
ATOM     41  N   UNL A   1      41.413  27.208  30.299  1.00  0.00    -0.354 N 
ATOM     42  C   UNL A   1      37.730  31.245  29.525  1.00  0.00     0.074 A 
ATOM     43  C   UNL A   1      36.971  30.648  28.454  1.00  0.00     0.031 C 
ATOM     44  C   UNL A   1      41.588  28.640  31.973  1.00  0.00     0.029 A 
ATOM     45  C   UNL A   1      42.380  27.810  31.077  1.00  0.00     0.049 A 
ATOM     46  H   UNL A   1      41.486  26.313  29.894  1.00  0.00     0.167 HD
ATOM     47  C   UNL A   1      37.578  32.252  30.444  1.00  0.00     0.034 A 
ATOM     48  C   UNL A   1      43.554  28.125  30.451  1.00  0.00     0.034 A 
ATOM     49  C   UNL A   1      38.823  32.445  31.189  1.00  0.00     0.049 A 
ATOM     50  C   UNL A   1      43.723  29.624  30.344  1.00  0.00     0.074 A 
ATOM     51  C   UNL A   1      39.253  32.120  32.465  1.00  0.00     0.029 A 
ATOM     52  N   UNL A   1      39.950  32.832  30.480  1.00  0.00    -0.354 N 
ATOM     53  N   UNL A   1      42.776  30.478  30.622  1.00  0.00    -0.248 NA
ATOM     54  C   UNL A   1      44.955  30.289  29.940  1.00  0.00     0.031 C 
ATOM     55  C   UNL A   1      40.675  32.184  32.465  1.00  0.00     0.029 A 
ATOM     56  C   UNL A   1      41.096  32.585  31.207  1.00  0.00     0.049 A 
ATOM     57  H   UNL A   1      39.935  33.230  29.580  1.00  0.00     0.167 HD
ATOM     58  C   UNL A   1      43.215  31.753  30.432  1.00  0.00     0.074 A 
ATOM     59  C   UNL A   1      44.604  31.585  30.035  1.00  0.00     0.031 C 
ATOM     60  C   UNL A   1      42.393  32.832  30.594  1.00  0.00     0.034 A 
BRANCH  47  61
ATOM     61  C   UNL A   1      36.305  32.988  30.845  1.00  0.00     0.023 A 
ATOM     62  C   UNL A   1      35.567  33.677  29.844  1.00  0.00     0.031 A 
ATOM     63  C   UNL A   1      35.781  33.103  32.143  1.00  0.00     0.131 A 
ATOM     64  C   UNL A   1      34.439  34.469  30.145  1.00  0.00     0.055 A 
ATOM     65  C   UNL A   1      34.663  33.905  32.449  1.00  0.00     0.041 A 
ATOM     66  F   UNL A   1      36.310  32.438  33.176  1.00  0.00    -0.206 F 
ATOM     67  C   UNL A   1      33.992  34.600  31.452  1.00  0.00     0.022 A 
BRANCH  64  68
ATOM     68  S   UNL A   1      33.571  35.338  28.801  1.00  0.00     0.124 S 
ATOM     69  O   UNL A   1      34.667  35.709  27.911  1.00  0.00    -0.237 OA
ATOM     70  O   UNL A   1      32.655  34.318  28.307  1.00  0.00    -0.237 OA
ATOM     71  O   UNL A   1      32.928  36.462  29.483  1.00  0.00    -0.744 OA
ENDBRANCH  64  68
ENDBRANCH  47  61
BRANCH  48  72
ATOM     72  C   UNL A   1      43.965  27.076  29.440  1.00  0.00     0.023 A 
ATOM     73  C   UNL A   1      43.784  27.410  28.072  1.00  0.00     0.031 A 
ATOM     74  C   UNL A   1      44.830  26.008  29.717  1.00  0.00     0.131 A 
ATOM     75  C   UNL A   1      44.575  26.826  27.068  1.00  0.00     0.055 A 
ATOM     76  C   UNL A   1      45.541  25.350  28.693  1.00  0.00     0.041 A 
ATOM     77  F   UNL A   1      45.087  25.642  30.982  1.00  0.00    -0.206 F 
ATOM     78  C   UNL A   1      45.447  25.784  27.368  1.00  0.00     0.022 A 
BRANCH  75  79
ATOM     79  S   UNL A   1      44.686  27.685  25.464  1.00  0.00     0.124 S 
ATOM     80  O   UNL A   1      43.288  27.785  25.064  1.00  0.00    -0.237 OA
ATOM     81  O   UNL A   1      45.341  28.942  25.826  1.00  0.00    -0.237 OA
ATOM     82  O   UNL A   1      45.518  26.803  24.650  1.00  0.00    -0.744 OA
ENDBRANCH  75  79
ENDBRANCH  48  72
BRANCH  60  83
ATOM     83  C   UNL A   1      42.752  34.235  30.195  1.00  0.00     0.023 A 
ATOM     84  C   UNL A   1      42.573  34.709  28.892  1.00  0.00     0.031 A 
ATOM     85  C   UNL A   1      43.204  35.177  31.148  1.00  0.00     0.131 A 
ATOM     86  C   UNL A   1      42.946  36.014  28.544  1.00  0.00     0.055 A 
ATOM     87  C   UNL A   1      43.474  36.507  30.822  1.00  0.00     0.041 A 
ATOM     88  F   UNL A   1      43.395  34.840  32.434  1.00  0.00    -0.206 F 
ATOM     89  C   UNL A   1      43.371  36.928  29.505  1.00  0.00     0.022 A 
BRANCH  86  90
ATOM     90  S   UNL A   1      42.969  36.437  26.786  1.00  0.00     0.124 S 
ATOM     91  O   UNL A   1      42.665  35.150  26.165  1.00  0.00    -0.237 OA
ATOM     92  O   UNL A   1      41.921  37.447  26.693  1.00  0.00    -0.237 OA
ATOM     93  O   UNL A   1      44.329  36.924  26.567  1.00  0.00    -0.744 OA
ENDBRANCH  86  90
ENDBRANCH  60  83
ENDBRANCH  34  35
ENDBRANCH  27  29
ENDBRANCH  26  27
ENDBRANCH  25  26
ENDBRANCH   1  25
TORSDOF 17
ENDMDL
