MODEL 1
REMARK VINA RESULT:     -11.8      0.000      0.000
REMARK SMILES COc1cc2c(CC(=O)OCCOC(=O)c3ccc(-c4c5nc(c(-c6cc(S(=O)(=O)[O-])ccc6F)c6ccc([nH]6)c(-c6cc(S(=O)(=O)[O-])ccc6F)c6nc(c(-c7cc(S(=O)(=O)[O-])ccc7F)c7ccc4[nH]7)C=C6)C=C5)cc3)c(C)n(C(=O)c3ccc(Cl)cc3)c2cc1Cl
REMARK SMILES IDX 11 1 10 2 8 3 9 4 7 5 6 6 3 7 4 8 93 9 5 10 92 11 94 12
REMARK SMILES IDX 91 13 79 14 81 15 80 16 2 17 1 18 82 19 83 20 84 21 85 22
REMARK SMILES IDX 90 23 86 24 89 25 87 26 88 27 12 28 13 29 14 30 15 31 16 32
REMARK SMILES IDX 17 33 78 34 18 35 77 36 19 37 20 38 21 39 71 40 22 41 76 42
REMARK SMILES IDX 70 43 72 44 23 45 75 46 69 47 68 48 24 50 56 51 36 52 55 53
REMARK SMILES IDX 37 54 40 55 54 56 73 57 38 58 39 59 53 61 74 62 41 63 25 64
REMARK SMILES IDX 26 65 34 66 27 67 33 68 35 69 32 70 28 71 29 72 30 73 31 74
REMARK SMILES IDX 57 75 58 76 66 77 59 78 65 79 67 80 64 81 60 82 61 83 62 84
REMARK SMILES IDX 63 85 42 86 43 87 51 88 44 89 50 90 52 91 49 92 45 93 46 94
REMARK SMILES IDX 47 95 48 96
REMARK H PARENT 72 49 40 60
REMARK Flexibility Score: inf
ROOT
ATOM      1  C   UNL A   1      41.342  20.197  27.468  1.00  0.00     0.274 C 
ENDROOT
BRANCH   1   2
ATOM      2  O   UNL A   1      40.039  20.692  27.087  1.00  0.00    -0.462 OA
BRANCH   2   3
ATOM      3  C   UNL A   1      39.501  20.084  26.003  1.00  0.00     0.310 C 
ATOM      4  O   UNL A   1      39.726  18.915  25.698  1.00  0.00    -0.252 OA
BRANCH   3   5
ATOM      5  C   UNL A   1      38.674  20.961  25.110  1.00  0.00     0.160 C 
BRANCH   5   6
ATOM      6  C   UNL A   1      37.185  21.106  25.264  1.00  0.00    -0.008 A 
ATOM      7  C   UNL A   1      34.792  18.163  24.435  1.00  0.00     0.138 A 
ATOM      8  C   UNL A   1      36.007  18.773  24.821  1.00  0.00     0.058 A 
ATOM      9  C   UNL A   1      33.648  18.944  24.345  1.00  0.00     0.085 A 
ATOM     10  C   UNL A   1      36.116  20.168  25.056  1.00  0.00     0.008 A 
ATOM     11  C   UNL A   1      33.719  20.316  24.598  1.00  0.00     0.051 A 
ATOM     12  Cl  UNL A   1      32.055  18.321  24.074  1.00  0.00    -0.080 Cl
ATOM     13  C   UNL A   1      34.931  20.910  25.012  1.00  0.00     0.058 A 
ATOM     14  C   UNL A   1      36.591  22.357  25.407  1.00  0.00     0.028 A 
ATOM     15  N   UNL A   1      35.220  22.188  25.505  1.00  0.00    -0.280 N 
ATOM     16  C   UNL A   1      37.271  23.694  25.454  1.00  0.00     0.065 C 
BRANCH   7  17
ATOM     17  O   UNL A   1      34.875  16.806  24.244  1.00  0.00    -0.495 OA
ATOM     18  C   UNL A   1      35.256  16.016  25.370  1.00  0.00     0.278 C 
ENDBRANCH   7  17
BRANCH  15  19
ATOM     19  C   UNL A   1      34.289  23.112  26.051  1.00  0.00     0.262 C 
ATOM     20  O   UNL A   1      33.757  22.880  27.133  1.00  0.00    -0.268 OA
BRANCH  19  21
ATOM     21  C   UNL A   1      33.835  24.314  25.343  1.00  0.00     0.040 A 
ATOM     22  C   UNL A   1      33.894  24.354  23.944  1.00  0.00     0.015 A 
ATOM     23  C   UNL A   1      33.470  25.438  26.089  1.00  0.00     0.015 A 
ATOM     24  C   UNL A   1      33.647  25.558  23.289  1.00  0.00     0.021 A 
ATOM     25  C   UNL A   1      33.221  26.638  25.425  1.00  0.00     0.021 A 
ATOM     26  C   UNL A   1      33.323  26.696  24.031  1.00  0.00     0.041 A 
ATOM     27  Cl  UNL A   1      33.077  28.194  23.222  1.00  0.00    -0.084 Cl
ENDBRANCH  19  21
ENDBRANCH  15  19
ENDBRANCH   5   6
ENDBRANCH   3   5
ENDBRANCH   2   3
ENDBRANCH   1   2
BRANCH   1  28
ATOM     28  C   UNL A   1      42.441  20.815  26.599  1.00  0.00     0.275 C 
BRANCH  28  29
ATOM     29  O   UNL A   1      42.418  22.240  26.750  1.00  0.00    -0.458 OA
BRANCH  29  30
ATOM     30  C   UNL A   1      42.912  22.972  25.710  1.00  0.00     0.338 C 
ATOM     31  O   UNL A   1      43.036  22.628  24.566  1.00  0.00    -0.246 OA
BRANCH  30  32
ATOM     32  C   UNL A   1      42.914  24.372  26.194  1.00  0.00     0.060 A 
ATOM     33  C   UNL A   1      43.656  24.749  27.312  1.00  0.00     0.016 A 
ATOM     34  C   UNL A   1      41.942  25.218  25.657  1.00  0.00     0.016 A 
ATOM     35  C   UNL A   1      43.303  25.912  27.986  1.00  0.00     0.010 A 
ATOM     36  C   UNL A   1      41.553  26.344  26.360  1.00  0.00     0.010 A 
ATOM     37  C   UNL A   1      42.192  26.651  27.556  1.00  0.00    -0.014 A 
BRANCH  37  38
ATOM     38  C   UNL A   1      41.806  27.850  28.277  1.00  0.00     0.031 A 
ATOM     39  C   UNL A   1      42.658  29.019  27.985  1.00  0.00     0.074 A 
ATOM     40  C   UNL A   1      40.704  28.026  29.028  1.00  0.00     0.049 A 
ATOM     41  N   UNL A   1      43.637  29.466  28.697  1.00  0.00    -0.248 NA
ATOM     42  C   UNL A   1      42.493  29.679  26.686  1.00  0.00     0.031 C 
ATOM     43  C   UNL A   1      39.527  27.176  29.179  1.00  0.00     0.029 A 
ATOM     44  N   UNL A   1      40.410  29.105  29.808  1.00  0.00    -0.354 N 
ATOM     45  C   UNL A   1      44.115  30.580  28.018  1.00  0.00     0.074 A 
ATOM     46  C   UNL A   1      43.502  30.549  26.713  1.00  0.00     0.031 C 
ATOM     47  C   UNL A   1      38.566  27.851  29.856  1.00  0.00     0.029 A 
ATOM     48  C   UNL A   1      39.139  29.094  30.347  1.00  0.00     0.049 A 
ATOM     49  H   UNL A   1      41.052  29.833  29.972  1.00  0.00     0.167 HD
ATOM     50  C   UNL A   1      44.826  31.555  28.650  1.00  0.00     0.034 A 
ATOM     51  C   UNL A   1      38.607  30.040  31.154  1.00  0.00     0.034 A 
ATOM     52  C   UNL A   1      45.169  31.168  29.993  1.00  0.00     0.049 A 
ATOM     53  C   UNL A   1      39.721  30.783  31.789  1.00  0.00     0.074 A 
ATOM     54  C   UNL A   1      46.005  30.235  30.564  1.00  0.00     0.029 A 
ATOM     55  N   UNL A   1      44.289  31.565  30.971  1.00  0.00    -0.354 N 
ATOM     56  N   UNL A   1      40.546  30.268  32.660  1.00  0.00    -0.248 NA
ATOM     57  C   UNL A   1      40.146  32.049  31.208  1.00  0.00     0.031 C 
ATOM     58  C   UNL A   1      45.366  29.842  31.776  1.00  0.00     0.029 A 
ATOM     59  C   UNL A   1      44.172  30.561  31.899  1.00  0.00     0.049 A 
ATOM     60  H   UNL A   1      43.819  32.430  31.002  1.00  0.00     0.167 HD
ATOM     61  C   UNL A   1      41.754  30.901  32.417  1.00  0.00     0.074 A 
ATOM     62  C   UNL A   1      41.406  32.088  31.647  1.00  0.00     0.031 C 
ATOM     63  C   UNL A   1      42.945  30.264  32.623  1.00  0.00     0.034 A 
BRANCH  50  64
ATOM     64  C   UNL A   1      44.923  32.981  28.177  1.00  0.00     0.023 A 
ATOM     65  C   UNL A   1      46.029  33.474  27.462  1.00  0.00     0.031 A 
ATOM     66  C   UNL A   1      43.810  33.840  28.262  1.00  0.00     0.131 A 
ATOM     67  C   UNL A   1      46.038  34.763  26.919  1.00  0.00     0.055 A 
ATOM     68  C   UNL A   1      43.790  35.102  27.654  1.00  0.00     0.041 A 
ATOM     69  F   UNL A   1      42.692  33.462  28.901  1.00  0.00    -0.206 F 
ATOM     70  C   UNL A   1      44.912  35.575  26.985  1.00  0.00     0.022 A 
BRANCH  67  71
ATOM     71  S   UNL A   1      47.539  35.408  26.130  1.00  0.00     0.124 S 
ATOM     72  O   UNL A   1      47.131  36.763  25.778  1.00  0.00    -0.237 OA
ATOM     73  O   UNL A   1      48.515  35.299  27.212  1.00  0.00    -0.237 OA
ATOM     74  O   UNL A   1      47.754  34.493  25.013  1.00  0.00    -0.744 OA
ENDBRANCH  67  71
ENDBRANCH  50  64
BRANCH  51  75
ATOM     75  C   UNL A   1      37.238  30.591  31.087  1.00  0.00     0.023 A 
ATOM     76  C   UNL A   1      36.684  30.904  29.831  1.00  0.00     0.031 A 
ATOM     77  C   UNL A   1      36.606  31.114  32.227  1.00  0.00     0.131 A 
ATOM     78  C   UNL A   1      35.581  31.763  29.740  1.00  0.00     0.055 A 
ATOM     79  C   UNL A   1      35.493  31.956  32.133  1.00  0.00     0.041 A 
ATOM     80  F   UNL A   1      37.103  30.872  33.449  1.00  0.00    -0.206 F 
ATOM     81  C   UNL A   1      34.986  32.300  30.884  1.00  0.00     0.022 A 
BRANCH  78  82
ATOM     82  S   UNL A   1      34.949  32.277  28.119  1.00  0.00     0.124 S 
ATOM     83  O   UNL A   1      34.901  31.011  27.391  1.00  0.00    -0.237 OA
ATOM     84  O   UNL A   1      33.655  32.847  28.472  1.00  0.00    -0.237 OA
ATOM     85  O   UNL A   1      35.956  33.222  27.644  1.00  0.00    -0.744 OA
ENDBRANCH  78  82
ENDBRANCH  51  75
BRANCH  63  86
ATOM     86  C   UNL A   1      42.955  29.007  33.466  1.00  0.00     0.023 A 
ATOM     87  C   UNL A   1      43.354  29.128  34.809  1.00  0.00     0.031 A 
ATOM     88  C   UNL A   1      42.791  27.707  32.952  1.00  0.00     0.131 A 
ATOM     89  C   UNL A   1      43.618  27.987  35.575  1.00  0.00     0.055 A 
ATOM     90  C   UNL A   1      42.988  26.569  33.741  1.00  0.00     0.041 A 
ATOM     91  F   UNL A   1      42.516  27.497  31.659  1.00  0.00    -0.206 F 
ATOM     92  C   UNL A   1      43.419  26.705  35.056  1.00  0.00     0.022 A 
BRANCH  89  93
ATOM     93  S   UNL A   1      44.364  28.135  37.219  1.00  0.00     0.124 S 
ATOM     94  O   UNL A   1      43.637  27.124  37.984  1.00  0.00    -0.237 OA
ATOM     95  O   UNL A   1      45.767  27.826  36.951  1.00  0.00    -0.237 OA
ATOM     96  O   UNL A   1      44.099  29.518  37.606  1.00  0.00    -0.744 OA
ENDBRANCH  89  93
ENDBRANCH  63  86
ENDBRANCH  37  38
ENDBRANCH  30  32
ENDBRANCH  29  30
ENDBRANCH  28  29
ENDBRANCH   1  28
TORSDOF 18
ENDMDL
MODEL 2
REMARK VINA RESULT:     -11.5      1.786      2.151
REMARK SMILES COc1cc2c(CC(=O)OCCOC(=O)c3ccc(-c4c5nc(c(-c6cc(S(=O)(=O)[O-])ccc6F)c6ccc([nH]6)c(-c6cc(S(=O)(=O)[O-])ccc6F)c6nc(c(-c7cc(S(=O)(=O)[O-])ccc7F)c7ccc4[nH]7)C=C6)C=C5)cc3)c(C)n(C(=O)c3ccc(Cl)cc3)c2cc1Cl
REMARK SMILES IDX 11 1 10 2 8 3 9 4 7 5 6 6 3 7 4 8 93 9 5 10 92 11 94 12
REMARK SMILES IDX 91 13 79 14 81 15 80 16 2 17 1 18 82 19 83 20 84 21 85 22
REMARK SMILES IDX 90 23 86 24 89 25 87 26 88 27 12 28 13 29 14 30 15 31 16 32
REMARK SMILES IDX 17 33 78 34 18 35 77 36 19 37 20 38 21 39 71 40 22 41 76 42
REMARK SMILES IDX 70 43 72 44 23 45 75 46 69 47 68 48 24 50 56 51 36 52 55 53
REMARK SMILES IDX 37 54 40 55 54 56 73 57 38 58 39 59 53 61 74 62 41 63 25 64
REMARK SMILES IDX 26 65 34 66 27 67 33 68 35 69 32 70 28 71 29 72 30 73 31 74
REMARK SMILES IDX 57 75 58 76 66 77 59 78 65 79 67 80 64 81 60 82 61 83 62 84
REMARK SMILES IDX 63 85 42 86 43 87 51 88 44 89 50 90 52 91 49 92 45 93 46 94
REMARK SMILES IDX 47 95 48 96
REMARK H PARENT 72 49 40 60
REMARK Flexibility Score: inf
ROOT
ATOM      1  C   UNL A   1      39.345  21.164  26.342  1.00  0.00     0.274 C 
ENDROOT
BRANCH   1   2
ATOM      2  O   UNL A   1      38.815  22.326  25.667  1.00  0.00    -0.462 OA
BRANCH   2   3
ATOM      3  C   UNL A   1      37.586  22.149  25.123  1.00  0.00     0.310 C 
ATOM      4  O   UNL A   1      37.344  22.300  23.928  1.00  0.00    -0.252 OA
BRANCH   3   5
ATOM      5  C   UNL A   1      36.483  21.851  26.094  1.00  0.00     0.160 C 
BRANCH   5   6
ATOM      6  C   UNL A   1      35.068  21.583  25.661  1.00  0.00    -0.008 A 
ATOM      7  C   UNL A   1      34.081  18.201  24.029  1.00  0.00     0.138 A 
ATOM      8  C   UNL A   1      34.841  19.073  24.842  1.00  0.00     0.058 A 
ATOM      9  C   UNL A   1      32.885  18.657  23.491  1.00  0.00     0.085 A 
ATOM     10  C   UNL A   1      34.461  20.419  25.075  1.00  0.00     0.008 A 
ATOM     11  C   UNL A   1      32.470  19.971  23.728  1.00  0.00     0.051 A 
ATOM     12  Cl  UNL A   1      31.750  17.664  22.640  1.00  0.00    -0.080 Cl
ATOM     13  C   UNL A   1      33.222  20.823  24.565  1.00  0.00     0.058 A 
ATOM     14  C   UNL A   1      34.140  22.615  25.542  1.00  0.00     0.028 A 
ATOM     15  N   UNL A   1      32.937  22.082  25.108  1.00  0.00    -0.280 N 
ATOM     16  C   UNL A   1      34.351  24.073  25.822  1.00  0.00     0.065 C 
BRANCH   7  17
ATOM     17  O   UNL A   1      34.604  16.938  23.909  1.00  0.00    -0.495 OA
ATOM     18  C   UNL A   1      34.756  16.183  25.111  1.00  0.00     0.278 C 
ENDBRANCH   7  17
BRANCH  15  19
ATOM     19  C   UNL A   1      31.652  22.673  25.237  1.00  0.00     0.262 C 
ATOM     20  O   UNL A   1      30.796  22.135  25.933  1.00  0.00    -0.268 OA
BRANCH  19  21
ATOM     21  C   UNL A   1      31.236  23.870  24.496  1.00  0.00     0.040 A 
ATOM     22  C   UNL A   1      31.622  24.020  23.158  1.00  0.00     0.015 A 
ATOM     23  C   UNL A   1      30.570  24.889  25.182  1.00  0.00     0.015 A 
ATOM     24  C   UNL A   1      31.392  25.237  22.520  1.00  0.00     0.021 A 
ATOM     25  C   UNL A   1      30.341  26.102  24.534  1.00  0.00     0.021 A 
ATOM     26  C   UNL A   1      30.764  26.275  23.212  1.00  0.00     0.041 A 
ATOM     27  Cl  UNL A   1      30.537  27.794  22.438  1.00  0.00    -0.084 Cl
ENDBRANCH  19  21
ENDBRANCH  15  19
ENDBRANCH   5   6
ENDBRANCH   3   5
ENDBRANCH   2   3
ENDBRANCH   1   2
BRANCH   1  28
ATOM     28  C   UNL A   1      40.860  21.058  26.148  1.00  0.00     0.275 C 
BRANCH  28  29
ATOM     29  O   UNL A   1      41.388  22.352  25.826  1.00  0.00    -0.458 OA
BRANCH  29  30
ATOM     30  C   UNL A   1      42.401  22.811  26.616  1.00  0.00     0.338 C 
ATOM     31  O   UNL A   1      43.575  22.584  26.507  1.00  0.00    -0.246 OA
BRANCH  30  32
ATOM     32  C   UNL A   1      41.807  23.926  27.389  1.00  0.00     0.060 A 
ATOM     33  C   UNL A   1      40.688  24.615  26.923  1.00  0.00     0.016 A 
ATOM     34  C   UNL A   1      42.569  24.425  28.448  1.00  0.00     0.016 A 
ATOM     35  C   UNL A   1      40.435  25.888  27.417  1.00  0.00     0.010 A 
ATOM     36  C   UNL A   1      42.350  25.714  28.898  1.00  0.00     0.010 A 
ATOM     37  C   UNL A   1      41.324  26.465  28.334  1.00  0.00    -0.014 A 
BRANCH  37  38
ATOM     38  C   UNL A   1      41.075  27.806  28.830  1.00  0.00     0.031 A 
ATOM     39  C   UNL A   1      41.978  28.827  28.264  1.00  0.00     0.074 A 
ATOM     40  C   UNL A   1      40.048  28.209  29.599  1.00  0.00     0.049 A 
ATOM     41  N   UNL A   1      43.037  29.320  28.814  1.00  0.00    -0.248 NA
ATOM     42  C   UNL A   1      41.760  29.239  26.874  1.00  0.00     0.031 C 
ATOM     43  C   UNL A   1      38.831  27.500  29.985  1.00  0.00     0.029 A 
ATOM     44  N   UNL A   1      39.887  29.436  30.171  1.00  0.00    -0.354 N 
ATOM     45  C   UNL A   1      43.535  30.243  27.903  1.00  0.00     0.074 A 
ATOM     46  C   UNL A   1      42.824  30.015  26.669  1.00  0.00     0.031 C 
ATOM     47  C   UNL A   1      37.972  28.366  30.576  1.00  0.00     0.029 A 
ATOM     48  C   UNL A   1      38.662  29.629  30.779  1.00  0.00     0.049 A 
ATOM     49  H   UNL A   1      40.586  30.128  30.151  1.00  0.00     0.167 HD
ATOM     50  C   UNL A   1      44.356  31.260  28.288  1.00  0.00     0.034 A 
ATOM     51  C   UNL A   1      38.257  30.750  31.419  1.00  0.00     0.034 A 
ATOM     52  C   UNL A   1      44.773  31.108  29.657  1.00  0.00     0.049 A 
ATOM     53  C   UNL A   1      39.464  31.509  31.827  1.00  0.00     0.074 A 
ATOM     54  C   UNL A   1      45.585  30.236  30.346  1.00  0.00     0.029 A 
ATOM     55  N   UNL A   1      43.998  31.752  30.592  1.00  0.00    -0.354 N 
ATOM     56  N   UNL A   1      40.316  31.103  32.728  1.00  0.00    -0.248 NA
ATOM     57  C   UNL A   1      39.927  32.603  30.986  1.00  0.00     0.031 C 
ATOM     58  C   UNL A   1      45.016  30.132  31.648  1.00  0.00     0.029 A 
ATOM     59  C   UNL A   1      43.886  30.955  31.702  1.00  0.00     0.049 A 
ATOM     60  H   UNL A   1      43.591  32.642  30.482  1.00  0.00     0.167 HD
ATOM     61  C   UNL A   1      41.542  31.580  32.293  1.00  0.00     0.074 A 
ATOM     62  C   UNL A   1      41.217  32.624  31.330  1.00  0.00     0.031 C 
ATOM     63  C   UNL A   1      42.700  30.900  32.545  1.00  0.00     0.034 A 
BRANCH  50  64
ATOM     64  C   UNL A   1      44.512  32.558  27.542  1.00  0.00     0.023 A 
ATOM     65  C   UNL A   1      43.850  33.739  27.920  1.00  0.00     0.031 A 
ATOM     66  C   UNL A   1      45.491  32.694  26.539  1.00  0.00     0.131 A 
ATOM     67  C   UNL A   1      44.113  34.963  27.294  1.00  0.00     0.055 A 
ATOM     68  C   UNL A   1      45.809  33.931  25.964  1.00  0.00     0.041 A 
ATOM     69  F   UNL A   1      46.201  31.635  26.117  1.00  0.00    -0.206 F 
ATOM     70  C   UNL A   1      45.112  35.074  26.334  1.00  0.00     0.022 A 
BRANCH  67  71
ATOM     71  S   UNL A   1      43.134  36.430  27.715  1.00  0.00     0.124 S 
ATOM     72  O   UNL A   1      42.465  36.714  26.451  1.00  0.00    -0.237 OA
ATOM     73  O   UNL A   1      42.280  35.922  28.786  1.00  0.00    -0.237 OA
ATOM     74  O   UNL A   1      44.141  37.399  28.139  1.00  0.00    -0.744 OA
ENDBRANCH  67  71
ENDBRANCH  50  64
BRANCH  51  75
ATOM     75  C   UNL A   1      36.927  31.386  31.330  1.00  0.00     0.023 A 
ATOM     76  C   UNL A   1      36.462  31.836  30.080  1.00  0.00     0.031 A 
ATOM     77  C   UNL A   1      36.263  31.850  32.478  1.00  0.00     0.131 A 
ATOM     78  C   UNL A   1      35.416  32.765  30.007  1.00  0.00     0.055 A 
ATOM     79  C   UNL A   1      35.206  32.763  32.401  1.00  0.00     0.041 A 
ATOM     80  F   UNL A   1      36.678  31.478  33.699  1.00  0.00    -0.206 F 
ATOM     81  C   UNL A   1      34.790  33.240  31.162  1.00  0.00     0.022 A 
BRANCH  78  82
ATOM     82  S   UNL A   1      34.904  33.449  28.407  1.00  0.00     0.124 S 
ATOM     83  O   UNL A   1      36.023  33.080  27.542  1.00  0.00    -0.237 OA
ATOM     84  O   UNL A   1      33.659  32.731  28.162  1.00  0.00    -0.237 OA
ATOM     85  O   UNL A   1      34.776  34.879  28.672  1.00  0.00    -0.744 OA
ENDBRANCH  78  82
ENDBRANCH  51  75
BRANCH  63  86
ATOM     86  C   UNL A   1      42.690  29.828  33.614  1.00  0.00     0.023 A 
ATOM     87  C   UNL A   1      43.224  30.161  34.872  1.00  0.00     0.031 A 
ATOM     88  C   UNL A   1      42.375  28.477  33.379  1.00  0.00     0.131 A 
ATOM     89  C   UNL A   1      43.468  29.164  35.824  1.00  0.00     0.055 A 
ATOM     90  C   UNL A   1      42.555  27.494  34.357  1.00  0.00     0.041 A 
ATOM     91  F   UNL A   1      41.962  28.055  32.177  1.00  0.00    -0.206 F 
ATOM     92  C   UNL A   1      43.119  27.832  35.582  1.00  0.00     0.022 A 
BRANCH  89  93
ATOM     93  S   UNL A   1      44.376  29.545  37.344  1.00  0.00     0.124 S 
ATOM     94  O   UNL A   1      43.507  30.526  37.990  1.00  0.00    -0.237 OA
ATOM     95  O   UNL A   1      44.442  28.240  37.999  1.00  0.00    -0.237 OA
ATOM     96  O   UNL A   1      45.657  30.064  36.871  1.00  0.00    -0.744 OA
ENDBRANCH  89  93
ENDBRANCH  63  86
ENDBRANCH  37  38
ENDBRANCH  30  32
ENDBRANCH  29  30
ENDBRANCH  28  29
ENDBRANCH   1  28
TORSDOF 18
ENDMDL
MODEL 3
REMARK VINA RESULT:     -11.5      1.813      3.858
REMARK SMILES COc1cc2c(CC(=O)OCCOC(=O)c3ccc(-c4c5nc(c(-c6cc(S(=O)(=O)[O-])ccc6F)c6ccc([nH]6)c(-c6cc(S(=O)(=O)[O-])ccc6F)c6nc(c(-c7cc(S(=O)(=O)[O-])ccc7F)c7ccc4[nH]7)C=C6)C=C5)cc3)c(C)n(C(=O)c3ccc(Cl)cc3)c2cc1Cl
REMARK SMILES IDX 11 1 10 2 8 3 9 4 7 5 6 6 3 7 4 8 93 9 5 10 92 11 94 12
REMARK SMILES IDX 91 13 79 14 81 15 80 16 2 17 1 18 82 19 83 20 84 21 85 22
REMARK SMILES IDX 90 23 86 24 89 25 87 26 88 27 12 28 13 29 14 30 15 31 16 32
REMARK SMILES IDX 17 33 78 34 18 35 77 36 19 37 20 38 21 39 71 40 22 41 76 42
REMARK SMILES IDX 70 43 72 44 23 45 75 46 69 47 68 48 24 50 56 51 36 52 55 53
REMARK SMILES IDX 37 54 40 55 54 56 73 57 38 58 39 59 53 61 74 62 41 63 25 64
REMARK SMILES IDX 26 65 34 66 27 67 33 68 35 69 32 70 28 71 29 72 30 73 31 74
REMARK SMILES IDX 57 75 58 76 66 77 59 78 65 79 67 80 64 81 60 82 61 83 62 84
REMARK SMILES IDX 63 85 42 86 43 87 51 88 44 89 50 90 52 91 49 92 45 93 46 94
REMARK SMILES IDX 47 95 48 96
REMARK H PARENT 72 49 40 60
REMARK Flexibility Score: inf
ROOT
ATOM      1  C   UNL A   1      39.430  22.186  26.881  1.00  0.00     0.274 C 
ENDROOT
BRANCH   1   2
ATOM      2  O   UNL A   1      38.492  22.347  25.794  1.00  0.00    -0.462 OA
BRANCH   2   3
ATOM      3  C   UNL A   1      37.722  23.458  25.875  1.00  0.00     0.310 C 
ATOM      4  O   UNL A   1      37.580  24.113  26.905  1.00  0.00    -0.252 OA
BRANCH   3   5
ATOM      5  C   UNL A   1      36.947  23.802  24.637  1.00  0.00     0.160 C 
BRANCH   5   6
ATOM      6  C   UNL A   1      35.469  23.559  24.509  1.00  0.00    -0.008 A 
ATOM      7  C   UNL A   1      32.894  26.278  25.536  1.00  0.00     0.138 A 
ATOM      8  C   UNL A   1      34.139  25.775  25.093  1.00  0.00     0.058 A 
ATOM      9  C   UNL A   1      31.811  25.412  25.613  1.00  0.00     0.085 A 
ATOM     10  C   UNL A   1      34.340  24.405  24.787  1.00  0.00     0.008 A 
ATOM     11  C   UNL A   1      31.973  24.062  25.290  1.00  0.00     0.051 A 
ATOM     12  Cl  UNL A   1      30.185  25.905  25.949  1.00  0.00    -0.080 Cl
ATOM     13  C   UNL A   1      33.213  23.579  24.820  1.00  0.00     0.058 A 
ATOM     14  C   UNL A   1      34.962  22.275  24.317  1.00  0.00     0.028 A 
ATOM     15  N   UNL A   1      33.579  22.349  24.258  1.00  0.00    -0.280 N 
ATOM     16  C   UNL A   1      35.733  20.996  24.190  1.00  0.00     0.065 C 
BRANCH   7  17
ATOM     17  O   UNL A   1      32.885  27.626  25.792  1.00  0.00    -0.495 OA
ATOM     18  C   UNL A   1      32.809  28.025  27.160  1.00  0.00     0.278 C 
ENDBRANCH   7  17
BRANCH  15  19
ATOM     19  C   UNL A   1      32.703  21.388  23.688  1.00  0.00     0.262 C 
ATOM     20  O   UNL A   1      31.919  21.721  22.804  1.00  0.00    -0.268 OA
BRANCH  19  21
ATOM     21  C   UNL A   1      32.602  20.004  24.165  1.00  0.00     0.040 A 
ATOM     22  C   UNL A   1      32.699  19.740  25.537  1.00  0.00     0.015 A 
ATOM     23  C   UNL A   1      32.535  18.971  23.227  1.00  0.00     0.015 A 
ATOM     24  C   UNL A   1      32.795  18.418  25.968  1.00  0.00     0.021 A 
ATOM     25  C   UNL A   1      32.630  17.651  23.667  1.00  0.00     0.021 A 
ATOM     26  C   UNL A   1      32.773  17.382  25.032  1.00  0.00     0.041 A 
ATOM     27  Cl  UNL A   1      32.953  15.756  25.564  1.00  0.00    -0.084 Cl
ENDBRANCH  19  21
ENDBRANCH  15  19
ENDBRANCH   5   6
ENDBRANCH   3   5
ENDBRANCH   2   3
ENDBRANCH   1   2
BRANCH   1  28
ATOM     28  C   UNL A   1      40.639  21.352  26.447  1.00  0.00     0.275 C 
BRANCH  28  29
ATOM     29  O   UNL A   1      41.840  21.985  26.907  1.00  0.00    -0.458 OA
BRANCH  29  30
ATOM     30  C   UNL A   1      42.596  22.618  25.964  1.00  0.00     0.338 C 
ATOM     31  O   UNL A   1      42.889  22.216  24.870  1.00  0.00    -0.246 OA
BRANCH  30  32
ATOM     32  C   UNL A   1      42.665  24.028  26.411  1.00  0.00     0.060 A 
ATOM     33  C   UNL A   1      43.333  24.383  27.582  1.00  0.00     0.016 A 
ATOM     34  C   UNL A   1      41.813  24.928  25.768  1.00  0.00     0.016 A 
ATOM     35  C   UNL A   1      43.014  25.589  28.193  1.00  0.00     0.010 A 
ATOM     36  C   UNL A   1      41.453  26.101  26.405  1.00  0.00     0.010 A 
ATOM     37  C   UNL A   1      42.007  26.396  27.647  1.00  0.00    -0.014 A 
BRANCH  37  38
ATOM     38  C   UNL A   1      41.654  27.644  28.300  1.00  0.00     0.031 A 
ATOM     39  C   UNL A   1      42.503  28.784  27.903  1.00  0.00     0.074 A 
ATOM     40  C   UNL A   1      40.580  27.879  29.075  1.00  0.00     0.049 A 
ATOM     41  N   UNL A   1      43.509  29.268  28.549  1.00  0.00    -0.248 NA
ATOM     42  C   UNL A   1      42.297  29.358  26.569  1.00  0.00     0.031 C 
ATOM     43  C   UNL A   1      39.404  27.050  29.322  1.00  0.00     0.029 A 
ATOM     44  N   UNL A   1      40.321  29.008  29.792  1.00  0.00    -0.354 N 
ATOM     45  C   UNL A   1      43.971  30.330  27.782  1.00  0.00     0.074 A 
ATOM     46  C   UNL A   1      43.312  30.220  26.504  1.00  0.00     0.031 C 
ATOM     47  C   UNL A   1      38.472  27.777  29.986  1.00  0.00     0.029 A 
ATOM     48  C   UNL A   1      39.069  29.044  30.374  1.00  0.00     0.049 A 
ATOM     49  H   UNL A   1      40.973  29.740  29.886  1.00  0.00     0.167 HD
ATOM     50  C   UNL A   1      44.710  31.338  28.324  1.00  0.00     0.034 A 
ATOM     51  C   UNL A   1      38.572  30.045  31.135  1.00  0.00     0.034 A 
ATOM     52  C   UNL A   1      45.096  31.037  29.677  1.00  0.00     0.049 A 
ATOM     53  C   UNL A   1      39.712  30.819  31.681  1.00  0.00     0.074 A 
ATOM     54  C   UNL A   1      45.946  30.136  30.279  1.00  0.00     0.029 A 
ATOM     55  N   UNL A   1      44.254  31.505  30.657  1.00  0.00    -0.354 N 
ATOM     56  N   UNL A   1      40.564  30.354  32.555  1.00  0.00    -0.248 NA
ATOM     57  C   UNL A   1      40.125  32.040  31.004  1.00  0.00     0.031 C 
ATOM     58  C   UNL A   1      45.347  29.829  31.536  1.00  0.00     0.029 A 
ATOM     59  C   UNL A   1      44.163  30.565  31.652  1.00  0.00     0.049 A 
ATOM     60  H   UNL A   1      43.791  32.374  30.647  1.00  0.00     0.167 HD
ATOM     61  C   UNL A   1      41.767  30.959  32.230  1.00  0.00     0.074 A 
ATOM     62  C   UNL A   1      41.400  32.097  31.396  1.00  0.00     0.031 C 
ATOM     63  C   UNL A   1      42.960  30.327  32.436  1.00  0.00     0.034 A 
BRANCH  50  64
ATOM     64  C   UNL A   1      44.800  32.729  27.756  1.00  0.00     0.023 A 
ATOM     65  C   UNL A   1      43.851  33.729  28.033  1.00  0.00     0.031 A 
ATOM     66  C   UNL A   1      45.957  33.150  27.072  1.00  0.00     0.131 A 
ATOM     67  C   UNL A   1      44.026  35.049  27.603  1.00  0.00     0.055 A 
ATOM     68  C   UNL A   1      46.169  34.485  26.707  1.00  0.00     0.041 A 
ATOM     69  F   UNL A   1      46.939  32.283  26.777  1.00  0.00    -0.206 F 
ATOM     70  C   UNL A   1      45.196  35.443  26.964  1.00  0.00     0.022 A 
BRANCH  67  71
ATOM     71  S   UNL A   1      42.711  36.272  27.857  1.00  0.00     0.124 S 
ATOM     72  O   UNL A   1      42.617  36.886  26.538  1.00  0.00    -0.237 OA
ATOM     73  O   UNL A   1      41.586  35.425  28.245  1.00  0.00    -0.237 OA
ATOM     74  O   UNL A   1      43.239  37.120  28.923  1.00  0.00    -0.744 OA
ENDBRANCH  67  71
ENDBRANCH  50  64
BRANCH  51  75
ATOM     75  C   UNL A   1      37.205  30.602  31.079  1.00  0.00     0.023 A 
ATOM     76  C   UNL A   1      36.650  30.938  29.830  1.00  0.00     0.031 A 
ATOM     77  C   UNL A   1      36.577  31.110  32.229  1.00  0.00     0.131 A 
ATOM     78  C   UNL A   1      35.551  31.803  29.754  1.00  0.00     0.055 A 
ATOM     79  C   UNL A   1      35.467  31.958  32.151  1.00  0.00     0.041 A 
ATOM     80  F   UNL A   1      37.076  30.847  33.447  1.00  0.00    -0.206 F 
ATOM     81  C   UNL A   1      34.960  32.324  30.908  1.00  0.00     0.022 A 
BRANCH  78  82
ATOM     82  S   UNL A   1      34.918  32.345  28.143  1.00  0.00     0.124 S 
ATOM     83  O   UNL A   1      36.016  33.170  27.642  1.00  0.00    -0.237 OA
ATOM     84  O   UNL A   1      34.726  31.073  27.456  1.00  0.00    -0.237 OA
ATOM     85  O   UNL A   1      33.702  33.078  28.482  1.00  0.00    -0.744 OA
ENDBRANCH  78  82
ENDBRANCH  51  75
BRANCH  63  86
ATOM     86  C   UNL A   1      42.992  29.127  33.359  1.00  0.00     0.023 A 
ATOM     87  C   UNL A   1      43.394  29.341  34.690  1.00  0.00     0.031 A 
ATOM     88  C   UNL A   1      42.844  27.795  32.931  1.00  0.00     0.131 A 
ATOM     89  C   UNL A   1      43.678  28.256  35.527  1.00  0.00     0.055 A 
ATOM     90  C   UNL A   1      43.060  26.714  33.792  1.00  0.00     0.041 A 
ATOM     91  F   UNL A   1      42.567  27.497  31.656  1.00  0.00    -0.206 F 
ATOM     92  C   UNL A   1      43.495  26.941  35.093  1.00  0.00     0.022 A 
BRANCH  89  93
ATOM     93  S   UNL A   1      44.428  28.521  37.154  1.00  0.00     0.124 S 
ATOM     94  O   UNL A   1      43.803  27.476  37.961  1.00  0.00    -0.237 OA
ATOM     95  O   UNL A   1      45.849  28.327  36.874  1.00  0.00    -0.237 OA
ATOM     96  O   UNL A   1      44.047  29.887  37.502  1.00  0.00    -0.744 OA
ENDBRANCH  89  93
ENDBRANCH  63  86
ENDBRANCH  37  38
ENDBRANCH  30  32
ENDBRANCH  29  30
ENDBRANCH  28  29
ENDBRANCH   1  28
TORSDOF 18
ENDMDL
