MODEL 1
REMARK VINA RESULT:     -11.4      0.000      0.000
REMARK SMILES O=C(OCCOC(=O)[C@@]1(C(F)(F)F)CCN(C(=O)Cc2ccn[nH]2)C1)c1ccc(-c2c3nc(c(-c4cc(S(=O)(=O)[O-])ccc4F)c4ccc([nH]4)c(-c4cc(S(=O)(=O)[O-])ccc4F)c4nc(c(-c5cc(S(=O)(=O)[O-])ccc5F)c5ccc2[nH]5)C=C4)C=C3)cc1
REMARK SMILES IDX 4 1 3 2 2 3 1 4 26 5 27 6 88 7 28 8 87 9 29 10 30 11 31 12
REMARK SMILES IDX 81 13 32 14 86 15 80 16 82 17 33 18 85 19 79 20 78 21 34 23
REMARK SMILES IDX 66 24 46 25 65 26 47 27 50 28 64 29 83 30 48 31 49 32 63 34
REMARK SMILES IDX 84 35 51 36 35 37 36 38 44 39 37 40 43 41 45 42 42 43 38 44
REMARK SMILES IDX 39 45 40 46 41 47 67 48 68 49 76 50 69 51 75 52 77 53 74 54
REMARK SMILES IDX 70 55 71 56 72 57 73 58 52 59 53 60 61 61 54 62 60 63 62 64
REMARK SMILES IDX 59 65 55 66 56 67 57 68 58 69 5 70 6 71 7 72 8 73 9 74 14 75
REMARK SMILES IDX 25 76 15 77 16 78 10 79 11 80 12 81 13 82 17 83 18 84 19 85
REMARK SMILES IDX 20 86 21 87 24 88 22 89 23 90
REMARK H PARENT 82 22 50 33 24 91
REMARK Flexibility Score: inf
ROOT
ATOM      1  C   UNL A   1      32.388  29.749  27.248  1.00  0.00     0.275 C 
ENDROOT
BRANCH   1   2
ATOM      2  O   UNL A   1      33.460  30.585  26.795  1.00  0.00    -0.458 OA
BRANCH   2   3
ATOM      3  C   UNL A   1      34.439  31.176  27.519  1.00  0.00     0.338 C 
ATOM      4  O   UNL A   1      34.388  32.392  27.696  1.00  0.00    -0.246 OA
BRANCH   3   5
ATOM      5  C   UNL A   1      35.676  30.452  27.944  1.00  0.00     0.060 A 
ATOM      6  C   UNL A   1      36.892  30.382  27.252  1.00  0.00     0.016 A 
ATOM      7  C   UNL A   1      35.593  29.802  29.180  1.00  0.00     0.016 A 
ATOM      8  C   UNL A   1      38.032  29.808  27.834  1.00  0.00     0.010 A 
ATOM      9  C   UNL A   1      36.723  29.231  29.759  1.00  0.00     0.010 A 
ATOM     10  C   UNL A   1      37.966  29.252  29.107  1.00  0.00    -0.014 A 
BRANCH  10  11
ATOM     11  C   UNL A   1      39.121  28.545  29.723  1.00  0.00     0.031 A 
ATOM     12  C   UNL A   1      39.723  29.165  30.951  1.00  0.00     0.074 A 
ATOM     13  C   UNL A   1      39.682  27.451  29.165  1.00  0.00     0.049 A 
ATOM     14  N   UNL A   1      40.850  28.901  31.552  1.00  0.00    -0.248 NA
ATOM     15  C   UNL A   1      38.963  30.277  31.551  1.00  0.00     0.031 C 
ATOM     16  C   UNL A   1      39.197  26.740  27.980  1.00  0.00     0.029 A 
ATOM     17  N   UNL A   1      40.847  26.790  29.482  1.00  0.00    -0.354 N 
ATOM     18  C   UNL A   1      40.902  29.783  32.623  1.00  0.00     0.074 A 
ATOM     19  C   UNL A   1      39.812  30.717  32.461  1.00  0.00     0.031 C 
ATOM     20  C   UNL A   1      40.116  25.834  27.597  1.00  0.00     0.029 A 
ATOM     21  C   UNL A   1      41.241  25.881  28.520  1.00  0.00     0.049 A 
ATOM     22  H   UNL A   1      41.351  26.952  30.312  1.00  0.00     0.167 HD
ATOM     23  C   UNL A   1      41.707  29.745  33.712  1.00  0.00     0.034 A 
ATOM     24  C   UNL A   1      42.394  25.190  28.393  1.00  0.00     0.034 A 
ATOM     25  C   UNL A   1      42.764  28.786  33.868  1.00  0.00     0.049 A 
ATOM     26  C   UNL A   1      43.395  25.272  29.517  1.00  0.00     0.074 A 
ATOM     27  C   UNL A   1      43.606  28.592  34.946  1.00  0.00     0.029 A 
ATOM     28  N   UNL A   1      43.126  27.856  32.901  1.00  0.00    -0.354 N 
ATOM     29  N   UNL A   1      43.377  26.035  30.586  1.00  0.00    -0.248 NA
ATOM     30  C   UNL A   1      44.531  24.344  29.458  1.00  0.00     0.031 C 
ATOM     31  C   UNL A   1      44.515  27.582  34.607  1.00  0.00     0.029 A 
ATOM     32  C   UNL A   1      44.195  27.100  33.346  1.00  0.00     0.049 A 
ATOM     33  H   UNL A   1      42.686  27.751  32.026  1.00  0.00     0.167 HD
ATOM     34  C   UNL A   1      44.445  25.609  31.372  1.00  0.00     0.074 A 
ATOM     35  C   UNL A   1      45.104  24.551  30.634  1.00  0.00     0.031 C 
ATOM     36  C   UNL A   1      44.820  26.029  32.606  1.00  0.00     0.034 A 
BRANCH  23  37
ATOM     37  C   UNL A   1      41.410  30.744  34.802  1.00  0.00     0.023 A 
ATOM     38  C   UNL A   1      40.187  30.699  35.501  1.00  0.00     0.031 A 
ATOM     39  C   UNL A   1      42.286  31.803  35.078  1.00  0.00     0.131 A 
ATOM     40  C   UNL A   1      39.815  31.762  36.333  1.00  0.00     0.055 A 
ATOM     41  C   UNL A   1      41.954  32.805  35.995  1.00  0.00     0.041 A 
ATOM     42  F   UNL A   1      43.456  31.911  34.430  1.00  0.00    -0.206 F 
ATOM     43  C   UNL A   1      40.703  32.802  36.608  1.00  0.00     0.022 A 
BRANCH  40  44
ATOM     44  S   UNL A   1      38.087  31.861  36.873  1.00  0.00     0.124 S 
ATOM     45  O   UNL A   1      37.428  32.331  35.656  1.00  0.00    -0.237 OA
ATOM     46  O   UNL A   1      37.795  30.487  37.264  1.00  0.00    -0.237 OA
ATOM     47  O   UNL A   1      38.124  32.829  37.967  1.00  0.00    -0.744 OA
ENDBRANCH  40  44
ENDBRANCH  23  37
BRANCH  24  48
ATOM     48  C   UNL A   1      42.672  24.340  27.198  1.00  0.00     0.023 A 
ATOM     49  C   UNL A   1      42.313  22.982  27.173  1.00  0.00     0.031 A 
ATOM     50  C   UNL A   1      43.396  24.847  26.105  1.00  0.00     0.131 A 
ATOM     51  C   UNL A   1      42.726  22.164  26.106  1.00  0.00     0.055 A 
ATOM     52  C   UNL A   1      43.763  24.040  25.023  1.00  0.00     0.041 A 
ATOM     53  F   UNL A   1      43.797  26.127  26.090  1.00  0.00    -0.206 F 
ATOM     54  C   UNL A   1      43.441  22.686  25.026  1.00  0.00     0.022 A 
BRANCH  51  55
ATOM     55  S   UNL A   1      42.403  20.381  26.204  1.00  0.00     0.124 S 
ATOM     56  O   UNL A   1      42.291  20.176  27.643  1.00  0.00    -0.237 OA
ATOM     57  O   UNL A   1      41.166  20.255  25.440  1.00  0.00    -0.237 OA
ATOM     58  O   UNL A   1      43.581  19.784  25.578  1.00  0.00    -0.744 OA
ENDBRANCH  51  55
ENDBRANCH  24  48
BRANCH  36  59
ATOM     59  C   UNL A   1      45.925  25.266  33.284  1.00  0.00     0.023 A 
ATOM     60  C   UNL A   1      45.674  24.139  34.082  1.00  0.00     0.031 A 
ATOM     61  C   UNL A   1      47.260  25.680  33.118  1.00  0.00     0.131 A 
ATOM     62  C   UNL A   1      46.739  23.494  34.726  1.00  0.00     0.055 A 
ATOM     63  C   UNL A   1      48.321  24.992  33.703  1.00  0.00     0.041 A 
ATOM     64  F   UNL A   1      47.553  26.757  32.371  1.00  0.00    -0.206 F 
ATOM     65  C   UNL A   1      48.062  23.898  34.524  1.00  0.00     0.022 A 
BRANCH  62  66
ATOM     66  S   UNL A   1      46.364  22.173  35.909  1.00  0.00     0.124 S 
ATOM     67  O   UNL A   1      47.666  21.534  36.071  1.00  0.00    -0.237 OA
ATOM     68  O   UNL A   1      45.871  22.918  37.063  1.00  0.00    -0.237 OA
ATOM     69  O   UNL A   1      45.359  21.369  35.216  1.00  0.00    -0.744 OA
ENDBRANCH  62  66
ENDBRANCH  36  59
ENDBRANCH  10  11
ENDBRANCH   3   5
ENDBRANCH   2   3
ENDBRANCH   1   2
BRANCH   1  70
ATOM     70  C   UNL A   1      32.578  28.242  27.032  1.00  0.00     0.274 C 
BRANCH  70  71
ATOM     71  O   UNL A   1      32.891  27.827  25.689  1.00  0.00    -0.461 OA
BRANCH  71  72
ATOM     72  C   UNL A   1      32.430  26.599  25.324  1.00  0.00     0.323 C 
ATOM     73  O   UNL A   1      32.794  25.566  25.881  1.00  0.00    -0.251 OA
BRANCH  72  74
ATOM     74  C   UNL A   1      31.409  26.611  24.208  1.00  0.00     0.182 C 
ATOM     75  C   UNL A   1      30.175  25.788  24.617  1.00  0.00     0.052 C 
ATOM     76  C   UNL A   1      30.841  27.968  23.819  1.00  0.00     0.148 C 
ATOM     77  C   UNL A   1      28.999  26.417  23.885  1.00  0.00     0.121 C 
ATOM     78  N   UNL A   1      29.413  27.769  23.599  1.00  0.00    -0.341 N 
BRANCH  74  79
ATOM     79  C   UNL A   1      32.125  26.040  23.010  1.00  0.00     0.406 C 
ATOM     80  F   UNL A   1      32.150  24.688  23.044  1.00  0.00    -0.170 F 
ATOM     81  F   UNL A   1      31.518  26.400  21.856  1.00  0.00    -0.170 F 
ATOM     82  F   UNL A   1      33.414  26.437  22.930  1.00  0.00    -0.170 F 
ENDBRANCH  74  79
BRANCH  78  83
ATOM     83  C   UNL A   1      28.687  28.660  22.827  1.00  0.00     0.228 C 
ATOM     84  O   UNL A   1      27.458  28.628  22.838  1.00  0.00    -0.274 OA
BRANCH  83  85
ATOM     85  C   UNL A   1      29.457  29.667  21.974  1.00  0.00     0.155 C 
BRANCH  85  86
ATOM     86  C   UNL A   1      29.004  31.047  22.270  1.00  0.00     0.044 A 
ATOM     87  C   UNL A   1      28.834  31.710  23.465  1.00  0.00     0.045 A 
ATOM     88  N   UNL A   1      28.614  31.927  21.301  1.00  0.00    -0.282 N 
ATOM     89  C   UNL A   1      28.465  33.013  23.097  1.00  0.00     0.135 A 
ATOM     90  N   UNL A   1      28.365  33.160  21.772  1.00  0.00    -0.184 NA
ATOM     91  H   UNL A   1      28.526  31.682  20.351  1.00  0.00     0.190 HD
ENDBRANCH  85  86
ENDBRANCH  83  85
ENDBRANCH  78  83
ENDBRANCH  72  74
ENDBRANCH  71  72
ENDBRANCH  70  71
ENDBRANCH   1  70
TORSDOF 18
ENDMDL
MODEL 2
REMARK VINA RESULT:     -11.4      2.268      3.775
REMARK SMILES O=C(OCCOC(=O)[C@@]1(C(F)(F)F)CCN(C(=O)Cc2ccn[nH]2)C1)c1ccc(-c2c3nc(c(-c4cc(S(=O)(=O)[O-])ccc4F)c4ccc([nH]4)c(-c4cc(S(=O)(=O)[O-])ccc4F)c4nc(c(-c5cc(S(=O)(=O)[O-])ccc5F)c5ccc2[nH]5)C=C4)C=C3)cc1
REMARK SMILES IDX 4 1 3 2 2 3 1 4 26 5 27 6 88 7 28 8 87 9 29 10 30 11 31 12
REMARK SMILES IDX 81 13 32 14 86 15 80 16 82 17 33 18 85 19 79 20 78 21 34 23
REMARK SMILES IDX 66 24 46 25 65 26 47 27 50 28 64 29 83 30 48 31 49 32 63 34
REMARK SMILES IDX 84 35 51 36 35 37 36 38 44 39 37 40 43 41 45 42 42 43 38 44
REMARK SMILES IDX 39 45 40 46 41 47 67 48 68 49 76 50 69 51 75 52 77 53 74 54
REMARK SMILES IDX 70 55 71 56 72 57 73 58 52 59 53 60 61 61 54 62 60 63 62 64
REMARK SMILES IDX 59 65 55 66 56 67 57 68 58 69 5 70 6 71 7 72 8 73 9 74 14 75
REMARK SMILES IDX 25 76 15 77 16 78 10 79 11 80 12 81 13 82 17 83 18 84 19 85
REMARK SMILES IDX 20 86 21 87 24 88 22 89 23 90
REMARK H PARENT 82 22 50 33 24 91
REMARK Flexibility Score: inf
ROOT
ATOM      1  C   UNL A   1      32.164  30.389  26.710  1.00  0.00     0.275 C 
ENDROOT
BRANCH   1   2
ATOM      2  O   UNL A   1      33.316  31.238  26.630  1.00  0.00    -0.458 OA
BRANCH   2   3
ATOM      3  C   UNL A   1      34.021  31.807  27.635  1.00  0.00     0.338 C 
ATOM      4  O   UNL A   1      33.666  32.907  28.055  1.00  0.00    -0.246 OA
BRANCH   3   5
ATOM      5  C   UNL A   1      35.323  31.253  28.121  1.00  0.00     0.060 A 
ATOM      6  C   UNL A   1      36.570  31.891  28.102  1.00  0.00     0.016 A 
ATOM      7  C   UNL A   1      35.258  29.968  28.670  1.00  0.00     0.016 A 
ATOM      8  C   UNL A   1      37.687  31.330  28.738  1.00  0.00     0.010 A 
ATOM      9  C   UNL A   1      36.365  29.410  29.301  1.00  0.00     0.010 A 
ATOM     10  C   UNL A   1      37.589  30.095  29.371  1.00  0.00    -0.014 A 
BRANCH  10  11
ATOM     11  C   UNL A   1      38.768  29.416  29.970  1.00  0.00     0.031 A 
ATOM     12  C   UNL A   1      39.353  30.034  31.208  1.00  0.00     0.074 A 
ATOM     13  C   UNL A   1      39.365  28.352  29.391  1.00  0.00     0.049 A 
ATOM     14  N   UNL A   1      40.490  29.797  31.802  1.00  0.00    -0.248 NA
ATOM     15  C   UNL A   1      38.557  31.107  31.831  1.00  0.00     0.031 C 
ATOM     16  C   UNL A   1      38.900  27.648  28.194  1.00  0.00     0.029 A 
ATOM     17  N   UNL A   1      40.552  27.726  29.692  1.00  0.00    -0.354 N 
ATOM     18  C   UNL A   1      40.516  30.660  32.889  1.00  0.00     0.074 A 
ATOM     19  C   UNL A   1      39.394  31.559  32.747  1.00  0.00     0.031 C 
ATOM     20  C   UNL A   1      39.848  26.781  27.791  1.00  0.00     0.029 A 
ATOM     21  C   UNL A   1      40.974  26.848  28.713  1.00  0.00     0.049 A 
ATOM     22  H   UNL A   1      41.053  27.889  30.524  1.00  0.00     0.167 HD
ATOM     23  C   UNL A   1      41.325  30.629  33.974  1.00  0.00     0.034 A 
ATOM     24  C   UNL A   1      42.149  26.200  28.570  1.00  0.00     0.034 A 
ATOM     25  C   UNL A   1      42.414  29.704  34.110  1.00  0.00     0.049 A 
ATOM     26  C   UNL A   1      43.150  26.295  29.692  1.00  0.00     0.074 A 
ATOM     27  C   UNL A   1      43.265  29.518  35.182  1.00  0.00     0.029 A 
ATOM     28  N   UNL A   1      42.805  28.805  33.126  1.00  0.00    -0.354 N 
ATOM     29  N   UNL A   1      43.110  27.036  30.776  1.00  0.00    -0.248 NA
ATOM     30  C   UNL A   1      44.317  25.407  29.614  1.00  0.00     0.031 C 
ATOM     31  C   UNL A   1      44.207  28.546  34.823  1.00  0.00     0.029 A 
ATOM     32  C   UNL A   1      43.899  28.077  33.554  1.00  0.00     0.049 A 
ATOM     33  H   UNL A   1      42.366  28.701  32.250  1.00  0.00     0.167 HD
ATOM     34  C   UNL A   1      44.194  26.633  31.551  1.00  0.00     0.074 A 
ATOM     35  C   UNL A   1      44.886  25.611  30.792  1.00  0.00     0.031 C 
ATOM     36  C   UNL A   1      44.558  27.043  32.792  1.00  0.00     0.034 A 
BRANCH  23  37
ATOM     37  C   UNL A   1      40.997  31.597  35.084  1.00  0.00     0.023 A 
ATOM     38  C   UNL A   1      39.962  31.315  35.998  1.00  0.00     0.031 A 
ATOM     39  C   UNL A   1      41.633  32.843  35.175  1.00  0.00     0.131 A 
ATOM     40  C   UNL A   1      39.503  32.313  36.867  1.00  0.00     0.055 A 
ATOM     41  C   UNL A   1      41.241  33.795  36.120  1.00  0.00     0.041 A 
ATOM     42  F   UNL A   1      42.612  33.176  34.320  1.00  0.00    -0.206 F 
ATOM     43  C   UNL A   1      40.154  33.543  36.955  1.00  0.00     0.022 A 
BRANCH  40  44
ATOM     44  S   UNL A   1      37.923  32.046  37.716  1.00  0.00     0.124 S 
ATOM     45  O   UNL A   1      37.632  30.657  37.363  1.00  0.00    -0.237 OA
ATOM     46  O   UNL A   1      38.266  32.289  39.112  1.00  0.00    -0.237 OA
ATOM     47  O   UNL A   1      37.036  33.034  37.107  1.00  0.00    -0.744 OA
ENDBRANCH  40  44
ENDBRANCH  23  37
BRANCH  24  48
ATOM     48  C   UNL A   1      42.452  25.381  27.359  1.00  0.00     0.023 A 
ATOM     49  C   UNL A   1      42.053  24.037  27.271  1.00  0.00     0.031 A 
ATOM     50  C   UNL A   1      43.237  25.902  26.315  1.00  0.00     0.131 A 
ATOM     51  C   UNL A   1      42.487  23.243  26.195  1.00  0.00     0.055 A 
ATOM     52  C   UNL A   1      43.625  25.121  25.222  1.00  0.00     0.041 A 
ATOM     53  F   UNL A   1      43.676  27.168  26.361  1.00  0.00    -0.206 F 
ATOM     54  C   UNL A   1      43.263  23.779  25.164  1.00  0.00     0.022 A 
BRANCH  51  55
ATOM     55  S   UNL A   1      42.107  21.469  26.216  1.00  0.00     0.124 S 
ATOM     56  O   UNL A   1      42.322  21.135  27.619  1.00  0.00    -0.237 OA
ATOM     57  O   UNL A   1      40.721  21.451  25.759  1.00  0.00    -0.237 OA
ATOM     58  O   UNL A   1      43.075  20.899  25.282  1.00  0.00    -0.744 OA
ENDBRANCH  51  55
ENDBRANCH  24  48
BRANCH  36  59
ATOM     59  C   UNL A   1      45.691  26.304  33.453  1.00  0.00     0.023 A 
ATOM     60  C   UNL A   1      45.488  25.117  34.174  1.00  0.00     0.031 A 
ATOM     61  C   UNL A   1      47.002  26.806  33.350  1.00  0.00     0.131 A 
ATOM     62  C   UNL A   1      46.575  24.497  34.807  1.00  0.00     0.055 A 
ATOM     63  C   UNL A   1      48.088  26.145  33.921  1.00  0.00     0.041 A 
ATOM     64  F   UNL A   1      47.248  27.942  32.677  1.00  0.00    -0.206 F 
ATOM     65  C   UNL A   1      47.876  24.990  34.666  1.00  0.00     0.022 A 
BRANCH  62  66
ATOM     66  S   UNL A   1      46.252  23.086  35.897  1.00  0.00     0.124 S 
ATOM     67  O   UNL A   1      46.963  22.009  35.215  1.00  0.00    -0.237 OA
ATOM     68  O   UNL A   1      46.828  23.530  37.162  1.00  0.00    -0.237 OA
ATOM     69  O   UNL A   1      44.795  22.973  35.886  1.00  0.00    -0.744 OA
ENDBRANCH  62  66
ENDBRANCH  36  59
ENDBRANCH  10  11
ENDBRANCH   3   5
ENDBRANCH   2   3
ENDBRANCH   1   2
BRANCH   1  70
ATOM     70  C   UNL A   1      31.584  29.921  25.370  1.00  0.00     0.274 C 
BRANCH  70  71
ATOM     71  O   UNL A   1      31.311  28.511  25.253  1.00  0.00    -0.461 OA
BRANCH  71  72
ATOM     72  C   UNL A   1      31.928  27.870  24.223  1.00  0.00     0.323 C 
ATOM     73  O   UNL A   1      32.053  28.376  23.110  1.00  0.00    -0.251 OA
BRANCH  72  74
ATOM     74  C   UNL A   1      32.480  26.504  24.567  1.00  0.00     0.182 C 
ATOM     75  C   UNL A   1      31.357  25.608  25.117  1.00  0.00     0.052 C 
ATOM     76  C   UNL A   1      33.071  25.700  23.418  1.00  0.00     0.148 C 
ATOM     77  C   UNL A   1      31.742  24.185  24.739  1.00  0.00     0.121 C 
ATOM     78  N   UNL A   1      32.628  24.323  23.608  1.00  0.00    -0.341 N 
BRANCH  74  79
ATOM     79  C   UNL A   1      33.574  26.760  25.573  1.00  0.00     0.406 C 
ATOM     80  F   UNL A   1      34.499  25.774  25.561  1.00  0.00    -0.170 F 
ATOM     81  F   UNL A   1      34.220  27.920  25.311  1.00  0.00    -0.170 F 
ATOM     82  F   UNL A   1      33.115  26.830  26.841  1.00  0.00    -0.170 F 
ENDBRANCH  74  79
BRANCH  78  83
ATOM     83  C   UNL A   1      33.316  23.273  23.024  1.00  0.00     0.228 C 
ATOM     84  O   UNL A   1      33.710  23.361  21.863  1.00  0.00    -0.274 OA
BRANCH  83  85
ATOM     85  C   UNL A   1      33.561  22.020  23.863  1.00  0.00     0.155 C 
BRANCH  85  86
ATOM     86  C   UNL A   1      34.974  21.966  24.308  1.00  0.00     0.044 A 
ATOM     87  C   UNL A   1      35.644  21.057  25.098  1.00  0.00     0.045 A 
ATOM     88  N   UNL A   1      35.890  22.931  23.999  1.00  0.00    -0.282 N 
ATOM     89  C   UNL A   1      36.976  21.499  25.093  1.00  0.00     0.135 A 
ATOM     90  N   UNL A   1      37.138  22.625  24.391  1.00  0.00    -0.184 NA
ATOM     91  H   UNL A   1      35.659  23.767  23.534  1.00  0.00     0.190 HD
ENDBRANCH  85  86
ENDBRANCH  83  85
ENDBRANCH  78  83
ENDBRANCH  72  74
ENDBRANCH  71  72
ENDBRANCH  70  71
ENDBRANCH   1  70
TORSDOF 18
ENDMDL
MODEL 3
REMARK VINA RESULT:     -11.3      5.013     10.121
REMARK SMILES O=C(OCCOC(=O)[C@@]1(C(F)(F)F)CCN(C(=O)Cc2ccn[nH]2)C1)c1ccc(-c2c3nc(c(-c4cc(S(=O)(=O)[O-])ccc4F)c4ccc([nH]4)c(-c4cc(S(=O)(=O)[O-])ccc4F)c4nc(c(-c5cc(S(=O)(=O)[O-])ccc5F)c5ccc2[nH]5)C=C4)C=C3)cc1
REMARK SMILES IDX 4 1 3 2 2 3 1 4 26 5 27 6 88 7 28 8 87 9 29 10 30 11 31 12
REMARK SMILES IDX 81 13 32 14 86 15 80 16 82 17 33 18 85 19 79 20 78 21 34 23
REMARK SMILES IDX 66 24 46 25 65 26 47 27 50 28 64 29 83 30 48 31 49 32 63 34
REMARK SMILES IDX 84 35 51 36 35 37 36 38 44 39 37 40 43 41 45 42 42 43 38 44
REMARK SMILES IDX 39 45 40 46 41 47 67 48 68 49 76 50 69 51 75 52 77 53 74 54
REMARK SMILES IDX 70 55 71 56 72 57 73 58 52 59 53 60 61 61 54 62 60 63 62 64
REMARK SMILES IDX 59 65 55 66 56 67 57 68 58 69 5 70 6 71 7 72 8 73 9 74 14 75
REMARK SMILES IDX 25 76 15 77 16 78 10 79 11 80 12 81 13 82 17 83 18 84 19 85
REMARK SMILES IDX 20 86 21 87 24 88 22 89 23 90
REMARK H PARENT 82 22 50 33 24 91
REMARK Flexibility Score: inf
ROOT
ATOM      1  C   UNL A   1      37.694  20.963  24.907  1.00  0.00     0.275 C 
ENDROOT
BRANCH   1   2
ATOM      2  O   UNL A   1      38.188  21.551  26.117  1.00  0.00    -0.458 OA
BRANCH   2   3
ATOM      3  C   UNL A   1      39.464  21.843  26.460  1.00  0.00     0.338 C 
ATOM      4  O   UNL A   1      40.284  20.928  26.511  1.00  0.00    -0.246 OA
BRANCH   3   5
ATOM      5  C   UNL A   1      39.875  23.189  26.966  1.00  0.00     0.060 A 
ATOM      6  C   UNL A   1      40.685  23.460  28.076  1.00  0.00     0.016 A 
ATOM      7  C   UNL A   1      39.408  24.276  26.221  1.00  0.00     0.016 A 
ATOM      8  C   UNL A   1      41.135  24.759  28.354  1.00  0.00     0.010 A 
ATOM      9  C   UNL A   1      39.852  25.567  26.495  1.00  0.00     0.010 A 
ATOM     10  C   UNL A   1      40.746  25.823  27.547  1.00  0.00    -0.014 A 
BRANCH  10  11
ATOM     11  C   UNL A   1      41.115  27.230  27.859  1.00  0.00     0.031 A 
ATOM     12  C   UNL A   1      42.573  27.582  27.791  1.00  0.00     0.074 A 
ATOM     13  C   UNL A   1      40.211  28.139  28.283  1.00  0.00     0.049 A 
ATOM     14  N   UNL A   1      43.196  28.644  28.222  1.00  0.00    -0.248 NA
ATOM     15  C   UNL A   1      43.456  26.563  27.195  1.00  0.00     0.031 C 
ATOM     16  C   UNL A   1      38.765  27.936  28.390  1.00  0.00     0.029 A 
ATOM     17  N   UNL A   1      40.396  29.405  28.791  1.00  0.00    -0.354 N 
ATOM     18  C   UNL A   1      44.531  28.433  27.904  1.00  0.00     0.074 A 
ATOM     19  C   UNL A   1      44.650  27.068  27.445  1.00  0.00     0.031 C 
ATOM     20  C   UNL A   1      38.215  28.978  29.041  1.00  0.00     0.029 A 
ATOM     21  C   UNL A   1      39.262  29.932  29.376  1.00  0.00     0.049 A 
ATOM     22  H   UNL A   1      41.253  29.887  28.742  1.00  0.00     0.167 HD
ATOM     23  C   UNL A   1      45.546  29.329  27.875  1.00  0.00     0.034 A 
ATOM     24  C   UNL A   1      39.103  31.046  30.121  1.00  0.00     0.034 A 
ATOM     25  C   UNL A   1      45.397  30.691  28.304  1.00  0.00     0.049 A 
ATOM     26  C   UNL A   1      40.278  31.981  30.258  1.00  0.00     0.074 A 
ATOM     27  C   UNL A   1      46.319  31.719  28.264  1.00  0.00     0.029 A 
ATOM     28  N   UNL A   1      44.237  31.213  28.863  1.00  0.00    -0.354 N 
ATOM     29  N   UNL A   1      41.517  31.816  29.852  1.00  0.00    -0.248 NA
ATOM     30  C   UNL A   1      40.017  33.285  30.880  1.00  0.00     0.031 C 
ATOM     31  C   UNL A   1      45.735  32.847  28.851  1.00  0.00     0.029 A 
ATOM     32  C   UNL A   1      44.425  32.542  29.194  1.00  0.00     0.049 A 
ATOM     33  H   UNL A   1      43.402  30.710  29.003  1.00  0.00     0.167 HD
ATOM     34  C   UNL A   1      42.155  33.031  30.084  1.00  0.00     0.074 A 
ATOM     35  C   UNL A   1      41.174  33.902  30.697  1.00  0.00     0.031 C 
ATOM     36  C   UNL A   1      43.424  33.402  29.780  1.00  0.00     0.034 A 
BRANCH  23  37
ATOM     37  C   UNL A   1      46.858  28.841  27.315  1.00  0.00     0.023 A 
ATOM     38  C   UNL A   1      47.001  28.595  25.935  1.00  0.00     0.031 A 
ATOM     39  C   UNL A   1      47.933  28.515  28.155  1.00  0.00     0.131 A 
ATOM     40  C   UNL A   1      48.129  27.918  25.456  1.00  0.00     0.055 A 
ATOM     41  C   UNL A   1      49.103  27.939  27.653  1.00  0.00     0.041 A 
ATOM     42  F   UNL A   1      47.848  28.708  29.480  1.00  0.00    -0.206 F 
ATOM     43  C   UNL A   1      49.196  27.612  26.302  1.00  0.00     0.022 A 
BRANCH  40  44
ATOM     44  S   UNL A   1      48.079  27.261  23.766  1.00  0.00     0.124 S 
ATOM     45  O   UNL A   1      47.150  28.187  23.121  1.00  0.00    -0.237 OA
ATOM     46  O   UNL A   1      49.471  27.360  23.344  1.00  0.00    -0.237 OA
ATOM     47  O   UNL A   1      47.572  25.902  23.941  1.00  0.00    -0.744 OA
ENDBRANCH  40  44
ENDBRANCH  23  37
BRANCH  24  48
ATOM     48  C   UNL A   1      37.800  31.377  30.772  1.00  0.00     0.023 A 
ATOM     49  C   UNL A   1      36.820  32.125  30.097  1.00  0.00     0.031 A 
ATOM     50  C   UNL A   1      37.559  31.039  32.115  1.00  0.00     0.131 A 
ATOM     51  C   UNL A   1      35.672  32.559  30.783  1.00  0.00     0.055 A 
ATOM     52  C   UNL A   1      36.391  31.433  32.777  1.00  0.00     0.041 A 
ATOM     53  F   UNL A   1      38.473  30.357  32.819  1.00  0.00    -0.206 F 
ATOM     54  C   UNL A   1      35.446  32.210  32.116  1.00  0.00     0.022 A 
BRANCH  51  55
ATOM     55  S   UNL A   1      34.524  33.678  29.930  1.00  0.00     0.124 S 
ATOM     56  O   UNL A   1      33.713  32.743  29.159  1.00  0.00    -0.237 OA
ATOM     57  O   UNL A   1      33.856  34.336  31.049  1.00  0.00    -0.237 OA
ATOM     58  O   UNL A   1      35.405  34.538  29.143  1.00  0.00    -0.744 OA
ENDBRANCH  51  55
ENDBRANCH  24  48
BRANCH  36  59
ATOM     59  C   UNL A   1      43.788  34.846  30.002  1.00  0.00     0.023 A 
ATOM     60  C   UNL A   1      43.435  35.853  29.091  1.00  0.00     0.031 A 
ATOM     61  C   UNL A   1      44.501  35.212  31.158  1.00  0.00     0.131 A 
ATOM     62  C   UNL A   1      43.841  37.174  29.328  1.00  0.00     0.055 A 
ATOM     63  C   UNL A   1      44.839  36.538  31.423  1.00  0.00     0.041 A 
ATOM     64  F   UNL A   1      44.869  34.285  32.058  1.00  0.00    -0.206 F 
ATOM     65  C   UNL A   1      44.520  37.527  30.498  1.00  0.00     0.022 A 
BRANCH  62  66
ATOM     66  S   UNL A   1      43.550  38.414  28.037  1.00  0.00     0.124 S 
ATOM     67  O   UNL A   1      44.748  39.242  28.140  1.00  0.00    -0.237 OA
ATOM     68  O   UNL A   1      43.444  37.593  26.835  1.00  0.00    -0.237 OA
ATOM     69  O   UNL A   1      42.309  39.060  28.458  1.00  0.00    -0.744 OA
ENDBRANCH  62  66
ENDBRANCH  36  59
ENDBRANCH  10  11
ENDBRANCH   3   5
ENDBRANCH   2   3
ENDBRANCH   1   2
BRANCH   1  70
ATOM     70  C   UNL A   1      36.298  20.335  24.990  1.00  0.00     0.274 C 
BRANCH  70  71
ATOM     71  O   UNL A   1      35.192  21.199  24.663  1.00  0.00    -0.461 OA
BRANCH  71  72
ATOM     72  C   UNL A   1      34.670  21.913  25.697  1.00  0.00     0.323 C 
ATOM     73  O   UNL A   1      34.813  21.576  26.870  1.00  0.00    -0.251 OA
BRANCH  72  74
ATOM     74  C   UNL A   1      33.935  23.172  25.291  1.00  0.00     0.182 C 
ATOM     75  C   UNL A   1      32.957  22.861  24.146  1.00  0.00     0.052 C 
ATOM     76  C   UNL A   1      33.067  23.826  26.357  1.00  0.00     0.148 C 
ATOM     77  C   UNL A   1      31.813  23.852  24.300  1.00  0.00     0.121 C 
ATOM     78  N   UNL A   1      31.841  24.247  25.688  1.00  0.00    -0.341 N 
BRANCH  74  79
ATOM     79  C   UNL A   1      35.012  24.149  24.896  1.00  0.00     0.406 C 
ATOM     80  F   UNL A   1      34.638  25.426  25.141  1.00  0.00    -0.170 F 
ATOM     81  F   UNL A   1      36.155  23.927  25.586  1.00  0.00    -0.170 F 
ATOM     82  F   UNL A   1      35.316  24.092  23.581  1.00  0.00    -0.170 F 
ENDBRANCH  74  79
BRANCH  78  83
ATOM     83  C   UNL A   1      31.044  25.239  26.233  1.00  0.00     0.228 C 
ATOM     84  O   UNL A   1      29.878  24.997  26.538  1.00  0.00    -0.274 OA
BRANCH  83  85
ATOM     85  C   UNL A   1      31.658  26.623  26.437  1.00  0.00     0.155 C 
BRANCH  85  86
ATOM     86  C   UNL A   1      31.374  27.490  25.268  1.00  0.00     0.044 A 
ATOM     87  C   UNL A   1      31.997  28.630  24.811  1.00  0.00     0.045 A 
ATOM     88  N   UNL A   1      30.324  27.278  24.420  1.00  0.00    -0.282 N 
ATOM     89  C   UNL A   1      31.325  28.946  23.620  1.00  0.00     0.135 A 
ATOM     90  N   UNL A   1      30.324  28.100  23.358  1.00  0.00    -0.184 NA
ATOM     91  H   UNL A   1      29.636  26.590  24.573  1.00  0.00     0.190 HD
ENDBRANCH  85  86
ENDBRANCH  83  85
ENDBRANCH  78  83
ENDBRANCH  72  74
ENDBRANCH  71  72
ENDBRANCH  70  71
ENDBRANCH   1  70
TORSDOF 18
ENDMDL
