MODEL 1
REMARK VINA RESULT:     -12.4      0.000      0.000
REMARK SMILES O=C(OCCOC(=O)c1ccccc1/N=C/c1coc2ccccc2c1=O)c1ccc(-c2c3nc(c(-c4cc(S(=O)(=O)[O-])ccc4F)c4ccc([nH]4)c(-c4cc(S(=O)(=O)[O-])ccc4F)c4nc(c(-c5cc(S(=O)(=O)[O-])ccc5F)c5ccc2[nH]5)C=C4)C=C3)cc1
REMARK SMILES IDX 4 1 3 2 2 3 1 4 28 5 29 6 90 7 30 8 89 9 31 10 32 11 33 12
REMARK SMILES IDX 83 13 34 14 88 15 82 16 84 17 35 18 87 19 81 20 80 21 36 23
REMARK SMILES IDX 68 24 48 25 67 26 49 27 52 28 66 29 85 30 50 31 51 32 65 34
REMARK SMILES IDX 86 35 53 36 37 37 38 38 46 39 39 40 45 41 47 42 44 43 40 44
REMARK SMILES IDX 41 45 42 46 43 47 69 48 70 49 78 50 71 51 77 52 79 53 76 54
REMARK SMILES IDX 72 55 73 56 74 57 75 58 54 59 55 60 63 61 56 62 62 63 64 64
REMARK SMILES IDX 61 65 57 66 58 67 59 68 60 69 5 70 6 71 7 72 8 73 9 74 10 75
REMARK SMILES IDX 14 76 11 77 13 78 12 79 15 80 16 81 17 82 18 83 26 84 19 85
REMARK SMILES IDX 25 86 27 87 20 88 24 89 21 90 23 91 22 92
REMARK H PARENT 84 22 52 33
REMARK Flexibility Score: inf
ROOT
ATOM      1  C   UNL A   1      31.610  32.057  27.081  1.00  0.00     0.275 C 
ENDROOT
BRANCH   1   2
ATOM      2  O   UNL A   1      32.268  33.332  27.117  1.00  0.00    -0.458 OA
BRANCH   2   3
ATOM      3  C   UNL A   1      33.010  33.899  28.096  1.00  0.00     0.338 C 
ATOM      4  O   UNL A   1      32.656  35.008  28.501  1.00  0.00    -0.246 OA
BRANCH   3   5
ATOM      5  C   UNL A   1      34.276  33.324  28.674  1.00  0.00     0.060 A 
ATOM      6  C   UNL A   1      35.544  33.294  28.079  1.00  0.00     0.016 A 
ATOM      7  C   UNL A   1      34.152  32.718  29.936  1.00  0.00     0.016 A 
ATOM      8  C   UNL A   1      36.656  32.709  28.724  1.00  0.00     0.010 A 
ATOM      9  C   UNL A   1      35.257  32.150  30.587  1.00  0.00     0.010 A 
ATOM     10  C   UNL A   1      36.531  32.132  29.984  1.00  0.00    -0.014 A 
BRANCH  10  11
ATOM     11  C   UNL A   1      37.618  31.382  30.675  1.00  0.00     0.031 A 
ATOM     12  C   UNL A   1      38.210  32.003  31.895  1.00  0.00     0.074 A 
ATOM     13  C   UNL A   1      38.092  30.162  30.338  1.00  0.00     0.049 A 
ATOM     14  N   UNL A   1      39.201  31.555  32.610  1.00  0.00    -0.248 NA
ATOM     15  C   UNL A   1      37.523  33.176  32.460  1.00  0.00     0.031 C 
ATOM     16  C   UNL A   1      37.416  29.133  29.570  1.00  0.00     0.029 A 
ATOM     17  N   UNL A   1      39.349  29.622  30.521  1.00  0.00    -0.354 N 
ATOM     18  C   UNL A   1      39.151  32.273  33.784  1.00  0.00     0.074 A 
ATOM     19  C   UNL A   1      38.150  33.306  33.621  1.00  0.00     0.031 C 
ATOM     20  C   UNL A   1      38.320  28.247  29.106  1.00  0.00     0.029 A 
ATOM     21  C   UNL A   1      39.626  28.607  29.617  1.00  0.00     0.049 A 
ATOM     22  H   UNL A   1      39.978  29.923  31.216  1.00  0.00     0.167 HD
ATOM     23  C   UNL A   1      39.813  31.997  34.927  1.00  0.00     0.034 A 
ATOM     24  C   UNL A   1      40.804  28.058  29.259  1.00  0.00     0.034 A 
ATOM     25  C   UNL A   1      40.818  30.971  35.033  1.00  0.00     0.049 A 
ATOM     26  C   UNL A   1      41.846  28.108  30.327  1.00  0.00     0.074 A 
ATOM     27  C   UNL A   1      41.570  30.617  36.135  1.00  0.00     0.029 A 
ATOM     28  N   UNL A   1      41.239  30.157  33.983  1.00  0.00    -0.354 N 
ATOM     29  N   UNL A   1      41.788  28.756  31.464  1.00  0.00    -0.248 NA
ATOM     30  C   UNL A   1      42.987  27.202  30.187  1.00  0.00     0.031 C 
ATOM     31  C   UNL A   1      42.520  29.674  35.727  1.00  0.00     0.029 A 
ATOM     32  C   UNL A   1      42.314  29.380  34.388  1.00  0.00     0.049 A 
ATOM     33  H   UNL A   1      40.833  30.136  33.087  1.00  0.00     0.167 HD
ATOM     34  C   UNL A   1      42.791  28.219  32.242  1.00  0.00     0.074 A 
ATOM     35  C   UNL A   1      43.486  27.249  31.414  1.00  0.00     0.031 C 
ATOM     36  C   UNL A   1      43.048  28.460  33.550  1.00  0.00     0.034 A 
BRANCH  23  37
ATOM     37  C   UNL A   1      39.484  32.860  36.104  1.00  0.00     0.023 A 
ATOM     38  C   UNL A   1      40.151  34.077  36.336  1.00  0.00     0.031 A 
ATOM     39  C   UNL A   1      38.547  32.417  37.047  1.00  0.00     0.131 A 
ATOM     40  C   UNL A   1      39.909  34.783  37.523  1.00  0.00     0.055 A 
ATOM     41  C   UNL A   1      38.263  33.157  38.192  1.00  0.00     0.041 A 
ATOM     42  F   UNL A   1      37.921  31.240  36.884  1.00  0.00    -0.206 F 
ATOM     43  C   UNL A   1      38.951  34.341  38.441  1.00  0.00     0.022 A 
BRANCH  40  44
ATOM     44  S   UNL A   1      40.945  36.219  37.915  1.00  0.00     0.124 S 
ATOM     45  O   UNL A   1      41.788  35.693  38.986  1.00  0.00    -0.237 OA
ATOM     46  O   UNL A   1      41.615  36.487  36.648  1.00  0.00    -0.237 OA
ATOM     47  O   UNL A   1      39.978  37.233  38.334  1.00  0.00    -0.744 OA
ENDBRANCH  40  44
ENDBRANCH  23  37
BRANCH  24  48
ATOM     48  C   UNL A   1      41.062  27.307  27.996  1.00  0.00     0.023 A 
ATOM     49  C   UNL A   1      40.987  25.911  27.901  1.00  0.00     0.031 A 
ATOM     50  C   UNL A   1      41.584  28.001  26.886  1.00  0.00     0.131 A 
ATOM     51  C   UNL A   1      41.428  25.260  26.730  1.00  0.00     0.055 A 
ATOM     52  C   UNL A   1      41.948  27.358  25.696  1.00  0.00     0.041 A 
ATOM     53  F   UNL A   1      41.761  29.332  26.944  1.00  0.00    -0.206 F 
ATOM     54  C   UNL A   1      41.877  25.975  25.615  1.00  0.00     0.022 A 
BRANCH  51  55
ATOM     55  S   UNL A   1      41.570  23.449  26.737  1.00  0.00     0.124 S 
ATOM     56  O   UNL A   1      42.045  23.194  28.091  1.00  0.00    -0.237 OA
ATOM     57  O   UNL A   1      40.200  23.041  26.445  1.00  0.00    -0.237 OA
ATOM     58  O   UNL A   1      42.538  23.179  25.676  1.00  0.00    -0.744 OA
ENDBRANCH  51  55
ENDBRANCH  24  48
BRANCH  36  59
ATOM     59  C   UNL A   1      44.166  27.666  34.153  1.00  0.00     0.023 A 
ATOM     60  C   UNL A   1      43.913  26.415  34.734  1.00  0.00     0.031 A 
ATOM     61  C   UNL A   1      45.477  28.167  34.182  1.00  0.00     0.131 A 
ATOM     62  C   UNL A   1      44.940  25.736  35.391  1.00  0.00     0.055 A 
ATOM     63  C   UNL A   1      46.517  27.444  34.763  1.00  0.00     0.041 A 
ATOM     64  F   UNL A   1      45.766  29.367  33.652  1.00  0.00    -0.206 F 
ATOM     65  C   UNL A   1      46.248  26.227  35.387  1.00  0.00     0.022 A 
BRANCH  62  66
ATOM     66  S   UNL A   1      44.509  24.257  36.341  1.00  0.00     0.124 S 
ATOM     67  O   UNL A   1      43.268  23.840  35.696  1.00  0.00    -0.237 OA
ATOM     68  O   UNL A   1      45.663  23.392  36.116  1.00  0.00    -0.237 OA
ATOM     69  O   UNL A   1      44.367  24.759  37.706  1.00  0.00    -0.744 OA
ENDBRANCH  62  66
ENDBRANCH  36  59
ENDBRANCH  10  11
ENDBRANCH   3   5
ENDBRANCH   2   3
ENDBRANCH   1   2
BRANCH   1  70
ATOM     70  C   UNL A   1      32.546  30.856  27.044  1.00  0.00     0.275 C 
BRANCH  70  71
ATOM     71  O   UNL A   1      31.854  29.603  27.071  1.00  0.00    -0.458 OA
BRANCH  71  72
ATOM     72  C   UNL A   1      32.416  28.610  26.344  1.00  0.00     0.340 C 
ATOM     73  O   UNL A   1      33.581  28.240  26.364  1.00  0.00    -0.246 OA
BRANCH  72  74
ATOM     74  C   UNL A   1      31.412  28.054  25.442  1.00  0.00     0.085 A 
ATOM     75  C   UNL A   1      31.191  28.778  24.254  1.00  0.00     0.018 A 
ATOM     76  C   UNL A   1      30.745  26.845  25.712  1.00  0.00     0.077 A 
ATOM     77  C   UNL A   1      30.330  28.283  23.279  1.00  0.00     0.001 A 
ATOM     78  C   UNL A   1      29.810  26.429  24.742  1.00  0.00     0.029 A 
ATOM     79  C   UNL A   1      29.627  27.113  23.530  1.00  0.00     0.002 A 
BRANCH  76  80
ATOM     80  N   UNL A   1      31.157  25.813  26.593  1.00  0.00    -0.255 NA
ATOM     81  C   UNL A   1      31.960  24.841  26.301  1.00  0.00     0.127 C 
BRANCH  81  82
ATOM     82  C   UNL A   1      31.598  23.398  26.644  1.00  0.00     0.076 A 
ATOM     83  C   UNL A   1      31.208  22.561  25.655  1.00  0.00     0.209 A 
ATOM     84  C   UNL A   1      32.778  22.718  27.287  1.00  0.00     0.201 A 
ATOM     85  O   UNL A   1      32.123  21.893  24.797  1.00  0.00    -0.463 OA
ATOM     86  C   UNL A   1      33.864  22.555  26.309  1.00  0.00     0.065 A 
ATOM     87  O   UNL A   1      32.828  22.404  28.464  1.00  0.00    -0.288 OA
ATOM     88  C   UNL A   1      33.455  22.155  25.037  1.00  0.00     0.137 A 
ATOM     89  C   UNL A   1      35.125  23.096  26.525  1.00  0.00     0.016 A 
ATOM     90  C   UNL A   1      34.349  22.181  23.979  1.00  0.00     0.048 A 
ATOM     91  C   UNL A   1      36.021  23.154  25.463  1.00  0.00     0.001 A 
ATOM     92  C   UNL A   1      35.621  22.716  24.197  1.00  0.00     0.004 A 
ENDBRANCH  81  82
ENDBRANCH  76  80
ENDBRANCH  72  74
ENDBRANCH  71  72
ENDBRANCH  70  71
ENDBRANCH   1  70
TORSDOF 16
ENDMDL
MODEL 2
REMARK VINA RESULT:     -12.2      1.491      1.776
REMARK SMILES O=C(OCCOC(=O)c1ccccc1/N=C/c1coc2ccccc2c1=O)c1ccc(-c2c3nc(c(-c4cc(S(=O)(=O)[O-])ccc4F)c4ccc([nH]4)c(-c4cc(S(=O)(=O)[O-])ccc4F)c4nc(c(-c5cc(S(=O)(=O)[O-])ccc5F)c5ccc2[nH]5)C=C4)C=C3)cc1
REMARK SMILES IDX 4 1 3 2 2 3 1 4 28 5 29 6 90 7 30 8 89 9 31 10 32 11 33 12
REMARK SMILES IDX 83 13 34 14 88 15 82 16 84 17 35 18 87 19 81 20 80 21 36 23
REMARK SMILES IDX 68 24 48 25 67 26 49 27 52 28 66 29 85 30 50 31 51 32 65 34
REMARK SMILES IDX 86 35 53 36 37 37 38 38 46 39 39 40 45 41 47 42 44 43 40 44
REMARK SMILES IDX 41 45 42 46 43 47 69 48 70 49 78 50 71 51 77 52 79 53 76 54
REMARK SMILES IDX 72 55 73 56 74 57 75 58 54 59 55 60 63 61 56 62 62 63 64 64
REMARK SMILES IDX 61 65 57 66 58 67 59 68 60 69 5 70 6 71 7 72 8 73 9 74 10 75
REMARK SMILES IDX 14 76 11 77 13 78 12 79 15 80 16 81 17 82 18 83 26 84 19 85
REMARK SMILES IDX 25 86 27 87 20 88 24 89 21 90 23 91 22 92
REMARK H PARENT 84 22 52 33
REMARK Flexibility Score: inf
ROOT
ATOM      1  C   UNL A   1      32.524  32.210  26.957  1.00  0.00     0.275 C 
ENDROOT
BRANCH   1   2
ATOM      2  O   UNL A   1      32.415  33.486  27.604  1.00  0.00    -0.458 OA
BRANCH   2   3
ATOM      3  C   UNL A   1      33.253  34.092  28.476  1.00  0.00     0.338 C 
ATOM      4  O   UNL A   1      32.998  35.259  28.785  1.00  0.00    -0.246 OA
BRANCH   3   5
ATOM      5  C   UNL A   1      34.514  33.489  29.036  1.00  0.00     0.060 A 
ATOM      6  C   UNL A   1      35.810  33.594  28.515  1.00  0.00     0.016 A 
ATOM      7  C   UNL A   1      34.355  32.704  30.191  1.00  0.00     0.016 A 
ATOM      8  C   UNL A   1      36.914  32.965  29.132  1.00  0.00     0.010 A 
ATOM      9  C   UNL A   1      35.451  32.091  30.816  1.00  0.00     0.010 A 
ATOM     10  C   UNL A   1      36.753  32.209  30.289  1.00  0.00    -0.014 A 
BRANCH  10  11
ATOM     11  C   UNL A   1      37.837  31.410  30.927  1.00  0.00     0.031 A 
ATOM     12  C   UNL A   1      38.502  31.992  32.128  1.00  0.00     0.074 A 
ATOM     13  C   UNL A   1      38.249  30.177  30.557  1.00  0.00     0.049 A 
ATOM     14  N   UNL A   1      39.502  31.498  32.797  1.00  0.00    -0.248 NA
ATOM     15  C   UNL A   1      37.884  33.183  32.733  1.00  0.00     0.031 C 
ATOM     16  C   UNL A   1      37.505  29.183  29.807  1.00  0.00     0.029 A 
ATOM     17  N   UNL A   1      39.491  29.588  30.683  1.00  0.00    -0.354 N 
ATOM     18  C   UNL A   1      39.527  32.203  33.981  1.00  0.00     0.074 A 
ATOM     19  C   UNL A   1      38.561  33.275  33.869  1.00  0.00     0.031 C 
ATOM     20  C   UNL A   1      38.355  28.270  29.297  1.00  0.00     0.029 A 
ATOM     21  C   UNL A   1      39.692  28.574  29.758  1.00  0.00     0.049 A 
ATOM     22  H   UNL A   1      40.159  29.856  31.355  1.00  0.00     0.167 HD
ATOM     23  C   UNL A   1      40.224  31.887  35.092  1.00  0.00     0.034 A 
ATOM     24  C   UNL A   1      40.834  27.985  29.345  1.00  0.00     0.034 A 
ATOM     25  C   UNL A   1      41.192  30.823  35.145  1.00  0.00     0.049 A 
ATOM     26  C   UNL A   1      41.919  27.982  30.371  1.00  0.00     0.074 A 
ATOM     27  C   UNL A   1      41.974  30.426  36.212  1.00  0.00     0.029 A 
ATOM     28  N   UNL A   1      41.540  30.007  34.071  1.00  0.00    -0.354 N 
ATOM     29  N   UNL A   1      41.931  28.618  31.516  1.00  0.00    -0.248 NA
ATOM     30  C   UNL A   1      43.018  27.035  30.174  1.00  0.00     0.031 C 
ATOM     31  C   UNL A   1      42.870  29.453  35.755  1.00  0.00     0.029 A 
ATOM     32  C   UNL A   1      42.599  29.185  34.423  1.00  0.00     0.049 A 
ATOM     33  H   UNL A   1      41.097  30.012  33.192  1.00  0.00     0.167 HD
ATOM     34  C   UNL A   1      42.944  28.033  32.247  1.00  0.00     0.074 A 
ATOM     35  C   UNL A   1      43.567  27.048  31.380  1.00  0.00     0.031 C 
ATOM     36  C   UNL A   1      43.262  28.248  33.546  1.00  0.00     0.034 A 
BRANCH  23  37
ATOM     37  C   UNL A   1      39.976  32.748  36.291  1.00  0.00     0.023 A 
ATOM     38  C   UNL A   1      39.086  32.357  37.309  1.00  0.00     0.031 A 
ATOM     39  C   UNL A   1      40.578  34.010  36.374  1.00  0.00     0.131 A 
ATOM     40  C   UNL A   1      38.780  33.254  38.342  1.00  0.00     0.055 A 
ATOM     41  C   UNL A   1      40.319  34.871  37.437  1.00  0.00     0.041 A 
ATOM     42  F   UNL A   1      41.399  34.438  35.401  1.00  0.00    -0.206 F 
ATOM     43  C   UNL A   1      39.410  34.500  38.424  1.00  0.00     0.022 A 
BRANCH  40  44
ATOM     44  S   UNL A   1      37.459  32.828  39.509  1.00  0.00     0.124 S 
ATOM     45  O   UNL A   1      36.290  32.797  38.634  1.00  0.00    -0.237 OA
ATOM     46  O   UNL A   1      37.898  31.540  40.034  1.00  0.00    -0.237 OA
ATOM     47  O   UNL A   1      37.482  33.931  40.469  1.00  0.00    -0.744 OA
ENDBRANCH  40  44
ENDBRANCH  23  37
BRANCH  24  48
ATOM     48  C   UNL A   1      41.011  27.240  28.065  1.00  0.00     0.023 A 
ATOM     49  C   UNL A   1      41.041  25.842  27.984  1.00  0.00     0.031 A 
ATOM     50  C   UNL A   1      41.348  27.960  26.901  1.00  0.00     0.131 A 
ATOM     51  C   UNL A   1      41.402  25.213  26.774  1.00  0.00     0.055 A 
ATOM     52  C   UNL A   1      41.631  27.333  25.680  1.00  0.00     0.041 A 
ATOM     53  F   UNL A   1      41.422  29.301  26.933  1.00  0.00    -0.206 F 
ATOM     54  C   UNL A   1      41.664  25.947  25.614  1.00  0.00     0.022 A 
BRANCH  51  55
ATOM     55  S   UNL A   1      41.691  23.421  26.773  1.00  0.00     0.124 S 
ATOM     56  O   UNL A   1      40.471  22.924  26.148  1.00  0.00    -0.237 OA
ATOM     57  O   UNL A   1      42.912  23.315  25.980  1.00  0.00    -0.237 OA
ATOM     58  O   UNL A   1      41.841  23.098  28.190  1.00  0.00    -0.744 OA
ENDBRANCH  51  55
ENDBRANCH  24  48
BRANCH  36  59
ATOM     59  C   UNL A   1      44.373  27.404  34.093  1.00  0.00     0.023 A 
ATOM     60  C   UNL A   1      44.104  26.129  34.611  1.00  0.00     0.031 A 
ATOM     61  C   UNL A   1      45.692  27.881  34.135  1.00  0.00     0.131 A 
ATOM     62  C   UNL A   1      45.126  25.399  35.220  1.00  0.00     0.055 A 
ATOM     63  C   UNL A   1      46.725  27.111  34.666  1.00  0.00     0.041 A 
ATOM     64  F   UNL A   1      45.997  29.102  33.665  1.00  0.00    -0.206 F 
ATOM     65  C   UNL A   1      46.442  25.868  35.227  1.00  0.00     0.022 A 
BRANCH  62  66
ATOM     66  S   UNL A   1      44.679  23.879  36.094  1.00  0.00     0.124 S 
ATOM     67  O   UNL A   1      43.384  23.564  35.501  1.00  0.00    -0.237 OA
ATOM     68  O   UNL A   1      45.774  22.981  35.742  1.00  0.00    -0.237 OA
ATOM     69  O   UNL A   1      44.641  24.292  37.495  1.00  0.00    -0.744 OA
ENDBRANCH  62  66
ENDBRANCH  36  59
ENDBRANCH  10  11
ENDBRANCH   3   5
ENDBRANCH   2   3
ENDBRANCH   1   2
BRANCH   1  70
ATOM     70  C   UNL A   1      31.200  31.603  26.514  1.00  0.00     0.275 C 
BRANCH  70  71
ATOM     71  O   UNL A   1      31.355  30.566  25.539  1.00  0.00    -0.458 OA
BRANCH  71  72
ATOM     72  C   UNL A   1      31.742  29.363  26.023  1.00  0.00     0.340 C 
ATOM     73  O   UNL A   1      31.722  28.986  27.186  1.00  0.00    -0.246 OA
BRANCH  72  74
ATOM     74  C   UNL A   1      32.273  28.558  24.927  1.00  0.00     0.085 A 
ATOM     75  C   UNL A   1      33.309  29.152  24.179  1.00  0.00     0.018 A 
ATOM     76  C   UNL A   1      31.819  27.252  24.664  1.00  0.00     0.077 A 
ATOM     77  C   UNL A   1      33.953  28.433  23.178  1.00  0.00     0.001 A 
ATOM     78  C   UNL A   1      32.434  26.594  23.579  1.00  0.00     0.029 A 
ATOM     79  C   UNL A   1      33.507  27.156  22.868  1.00  0.00     0.002 A 
BRANCH  76  80
ATOM     80  N   UNL A   1      31.143  26.381  25.555  1.00  0.00    -0.255 NA
ATOM     81  C   UNL A   1      31.701  25.561  26.386  1.00  0.00     0.127 C 
BRANCH  81  82
ATOM     82  C   UNL A   1      31.254  24.102  26.465  1.00  0.00     0.076 A 
ATOM     83  C   UNL A   1      30.790  23.493  25.350  1.00  0.00     0.209 A 
ATOM     84  C   UNL A   1      32.402  23.245  26.929  1.00  0.00     0.201 A 
ATOM     85  O   UNL A   1      31.642  22.946  24.352  1.00  0.00    -0.463 OA
ATOM     86  C   UNL A   1      33.453  23.206  25.903  1.00  0.00     0.065 A 
ATOM     87  O   UNL A   1      32.457  22.712  28.024  1.00  0.00    -0.288 OA
ATOM     88  C   UNL A   1      32.993  23.079  24.592  1.00  0.00     0.137 A 
ATOM     89  C   UNL A   1      34.751  23.621  26.174  1.00  0.00     0.016 A 
ATOM     90  C   UNL A   1      33.863  23.252  23.529  1.00  0.00     0.048 A 
ATOM     91  C   UNL A   1      35.626  23.826  25.113  1.00  0.00     0.001 A 
ATOM     92  C   UNL A   1      35.171  23.659  23.801  1.00  0.00     0.004 A 
ENDBRANCH  81  82
ENDBRANCH  76  80
ENDBRANCH  72  74
ENDBRANCH  71  72
ENDBRANCH  70  71
ENDBRANCH   1  70
TORSDOF 16
ENDMDL
MODEL 3
REMARK VINA RESULT:     -12.2      5.411      9.362
REMARK SMILES O=C(OCCOC(=O)c1ccccc1/N=C/c1coc2ccccc2c1=O)c1ccc(-c2c3nc(c(-c4cc(S(=O)(=O)[O-])ccc4F)c4ccc([nH]4)c(-c4cc(S(=O)(=O)[O-])ccc4F)c4nc(c(-c5cc(S(=O)(=O)[O-])ccc5F)c5ccc2[nH]5)C=C4)C=C3)cc1
REMARK SMILES IDX 4 1 3 2 2 3 1 4 28 5 29 6 90 7 30 8 89 9 31 10 32 11 33 12
REMARK SMILES IDX 83 13 34 14 88 15 82 16 84 17 35 18 87 19 81 20 80 21 36 23
REMARK SMILES IDX 68 24 48 25 67 26 49 27 52 28 66 29 85 30 50 31 51 32 65 34
REMARK SMILES IDX 86 35 53 36 37 37 38 38 46 39 39 40 45 41 47 42 44 43 40 44
REMARK SMILES IDX 41 45 42 46 43 47 69 48 70 49 78 50 71 51 77 52 79 53 76 54
REMARK SMILES IDX 72 55 73 56 74 57 75 58 54 59 55 60 63 61 56 62 62 63 64 64
REMARK SMILES IDX 61 65 57 66 58 67 59 68 60 69 5 70 6 71 7 72 8 73 9 74 10 75
REMARK SMILES IDX 14 76 11 77 13 78 12 79 15 80 16 81 17 82 18 83 26 84 19 85
REMARK SMILES IDX 25 86 27 87 20 88 24 89 21 90 23 91 22 92
REMARK H PARENT 84 22 52 33
REMARK Flexibility Score: inf
ROOT
ATOM      1  C   UNL A   1      38.382  19.853  25.001  1.00  0.00     0.275 C 
ENDROOT
BRANCH   1   2
ATOM      2  O   UNL A   1      39.340  19.392  25.965  1.00  0.00    -0.458 OA
BRANCH   2   3
ATOM      3  C   UNL A   1      40.653  19.685  26.092  1.00  0.00     0.338 C 
ATOM      4  O   UNL A   1      41.460  18.804  25.786  1.00  0.00    -0.246 OA
BRANCH   3   5
ATOM      5  C   UNL A   1      41.211  20.968  26.651  1.00  0.00     0.060 A 
ATOM      6  C   UNL A   1      41.142  21.417  27.976  1.00  0.00     0.016 A 
ATOM      7  C   UNL A   1      41.834  21.820  25.723  1.00  0.00     0.016 A 
ATOM      8  C   UNL A   1      41.697  22.654  28.374  1.00  0.00     0.010 A 
ATOM      9  C   UNL A   1      42.399  23.042  26.116  1.00  0.00     0.010 A 
ATOM     10  C   UNL A   1      42.333  23.482  27.453  1.00  0.00    -0.014 A 
BRANCH  10  11
ATOM     11  C   UNL A   1      42.827  24.853  27.760  1.00  0.00     0.031 A 
ATOM     12  C   UNL A   1      41.804  25.921  27.957  1.00  0.00     0.074 A 
ATOM     13  C   UNL A   1      44.115  25.224  27.933  1.00  0.00     0.049 A 
ATOM     14  N   UNL A   1      42.013  27.188  28.171  1.00  0.00    -0.248 NA
ATOM     15  C   UNL A   1      40.398  25.500  28.073  1.00  0.00     0.031 C 
ATOM     16  C   UNL A   1      45.236  24.380  28.302  1.00  0.00     0.029 A 
ATOM     17  N   UNL A   1      44.721  26.442  27.699  1.00  0.00    -0.354 N 
ATOM     18  C   UNL A   1      40.805  27.682  28.614  1.00  0.00     0.074 A 
ATOM     19  C   UNL A   1      39.825  26.627  28.471  1.00  0.00     0.031 C 
ATOM     20  C   UNL A   1      46.391  25.001  27.991  1.00  0.00     0.029 A 
ATOM     21  C   UNL A   1      46.086  26.319  27.479  1.00  0.00     0.049 A 
ATOM     22  H   UNL A   1      44.240  27.301  27.689  1.00  0.00     0.167 HD
ATOM     23  C   UNL A   1      40.589  28.880  29.195  1.00  0.00     0.034 A 
ATOM     24  C   UNL A   1      46.959  27.183  26.923  1.00  0.00     0.034 A 
ATOM     25  C   UNL A   1      41.594  29.906  29.293  1.00  0.00     0.049 A 
ATOM     26  C   UNL A   1      46.581  28.618  27.087  1.00  0.00     0.074 A 
ATOM     27  C   UNL A   1      41.481  31.168  29.842  1.00  0.00     0.029 A 
ATOM     28  N   UNL A   1      42.891  29.802  28.795  1.00  0.00    -0.354 N 
ATOM     29  N   UNL A   1      45.450  29.094  27.545  1.00  0.00    -0.248 NA
ATOM     30  C   UNL A   1      47.636  29.612  26.886  1.00  0.00     0.031 C 
ATOM     31  C   UNL A   1      42.665  31.864  29.576  1.00  0.00     0.029 A 
ATOM     32  C   UNL A   1      43.549  31.015  28.929  1.00  0.00     0.049 A 
ATOM     33  H   UNL A   1      43.283  28.987  28.407  1.00  0.00     0.167 HD
ATOM     34  C   UNL A   1      45.704  30.416  27.843  1.00  0.00     0.074 A 
ATOM     35  C   UNL A   1      47.074  30.678  27.437  1.00  0.00     0.031 C 
ATOM     36  C   UNL A   1      44.890  31.298  28.471  1.00  0.00     0.034 A 
BRANCH  23  37
ATOM     37  C   UNL A   1      39.203  29.124  29.706  1.00  0.00     0.023 A 
ATOM     38  C   UNL A   1      38.279  29.906  28.989  1.00  0.00     0.031 A 
ATOM     39  C   UNL A   1      38.834  28.632  30.965  1.00  0.00     0.131 A 
ATOM     40  C   UNL A   1      37.043  30.222  29.571  1.00  0.00     0.055 A 
ATOM     41  C   UNL A   1      37.579  28.895  31.508  1.00  0.00     0.041 A 
ATOM     42  F   UNL A   1      39.703  27.918  31.699  1.00  0.00    -0.206 F 
ATOM     43  C   UNL A   1      36.679  29.702  30.816  1.00  0.00     0.022 A 
BRANCH  40  44
ATOM     44  S   UNL A   1      35.965  31.420  28.739  1.00  0.00     0.124 S 
ATOM     45  O   UNL A   1      36.917  32.462  28.360  1.00  0.00    -0.237 OA
ATOM     46  O   UNL A   1      35.403  30.639  27.643  1.00  0.00    -0.237 OA
ATOM     47  O   UNL A   1      35.013  31.804  29.781  1.00  0.00    -0.744 OA
ENDBRANCH  40  44
ENDBRANCH  23  37
BRANCH  24  48
ATOM     48  C   UNL A   1      48.280  26.820  26.331  1.00  0.00     0.023 A 
ATOM     49  C   UNL A   1      49.451  26.679  27.087  1.00  0.00     0.031 A 
ATOM     50  C   UNL A   1      48.412  26.793  24.928  1.00  0.00     0.131 A 
ATOM     51  C   UNL A   1      50.694  26.523  26.439  1.00  0.00     0.055 A 
ATOM     52  C   UNL A   1      49.637  26.561  24.289  1.00  0.00     0.041 A 
ATOM     53  F   UNL A   1      47.342  27.007  24.144  1.00  0.00    -0.206 F 
ATOM     54  C   UNL A   1      50.791  26.430  25.048  1.00  0.00     0.022 A 
BRANCH  51  55
ATOM     55  S   UNL A   1      52.213  26.613  27.430  1.00  0.00     0.124 S 
ATOM     56  O   UNL A   1      52.674  27.966  27.144  1.00  0.00    -0.237 OA
ATOM     57  O   UNL A   1      51.707  26.374  28.777  1.00  0.00    -0.237 OA
ATOM     58  O   UNL A   1      53.043  25.543  26.879  1.00  0.00    -0.744 OA
ENDBRANCH  51  55
ENDBRANCH  24  48
BRANCH  36  59
ATOM     59  C   UNL A   1      45.471  32.655  28.725  1.00  0.00     0.023 A 
ATOM     60  C   UNL A   1      45.430  33.641  27.729  1.00  0.00     0.031 A 
ATOM     61  C   UNL A   1      46.098  32.958  29.944  1.00  0.00     0.131 A 
ATOM     62  C   UNL A   1      46.073  34.862  27.936  1.00  0.00     0.055 A 
ATOM     63  C   UNL A   1      46.663  34.210  30.177  1.00  0.00     0.041 A 
ATOM     64  F   UNL A   1      46.176  32.042  30.923  1.00  0.00    -0.206 F 
ATOM     65  C   UNL A   1      46.666  35.167  29.164  1.00  0.00     0.022 A 
BRANCH  62  66
ATOM     66  S   UNL A   1      46.211  35.997  26.533  1.00  0.00     0.124 S 
ATOM     67  O   UNL A   1      47.643  36.277  26.515  1.00  0.00    -0.237 OA
ATOM     68  O   UNL A   1      45.708  35.190  25.426  1.00  0.00    -0.237 OA
ATOM     69  O   UNL A   1      45.359  37.120  26.919  1.00  0.00    -0.744 OA
ENDBRANCH  62  66
ENDBRANCH  36  59
ENDBRANCH  10  11
ENDBRANCH   3   5
ENDBRANCH   2   3
ENDBRANCH   1   2
BRANCH   1  70
ATOM     70  C   UNL A   1      37.927  21.294  25.190  1.00  0.00     0.275 C 
BRANCH  70  71
ATOM     71  O   UNL A   1      36.945  21.704  24.232  1.00  0.00    -0.458 OA
BRANCH  71  72
ATOM     72  C   UNL A   1      36.020  22.583  24.683  1.00  0.00     0.340 C 
ATOM     73  O   UNL A   1      36.202  23.545  25.414  1.00  0.00    -0.246 OA
BRANCH  72  74
ATOM     74  C   UNL A   1      34.702  22.172  24.208  1.00  0.00     0.085 A 
ATOM     75  C   UNL A   1      34.111  21.099  24.903  1.00  0.00     0.018 A 
ATOM     76  C   UNL A   1      34.039  22.837  23.160  1.00  0.00     0.077 A 
ATOM     77  C   UNL A   1      32.815  20.694  24.598  1.00  0.00     0.001 A 
ATOM     78  C   UNL A   1      32.767  22.333  22.820  1.00  0.00     0.029 A 
ATOM     79  C   UNL A   1      32.146  21.303  23.546  1.00  0.00     0.002 A 
BRANCH  76  80
ATOM     80  N   UNL A   1      34.283  24.150  22.684  1.00  0.00    -0.255 NA
ATOM     81  C   UNL A   1      33.668  25.223  23.064  1.00  0.00     0.127 C 
BRANCH  81  82
ATOM     82  C   UNL A   1      33.105  26.207  22.040  1.00  0.00     0.076 A 
ATOM     83  C   UNL A   1      31.765  26.316  21.896  1.00  0.00     0.209 A 
ATOM     84  C   UNL A   1      33.578  27.600  22.363  1.00  0.00     0.201 A 
ATOM     85  O   UNL A   1      30.952  27.097  22.762  1.00  0.00    -0.463 OA
ATOM     86  C   UNL A   1      32.973  28.062  23.621  1.00  0.00     0.065 A 
ATOM     87  O   UNL A   1      34.387  28.219  21.694  1.00  0.00    -0.288 OA
ATOM     88  C   UNL A   1      31.623  27.745  23.777  1.00  0.00     0.137 A 
ATOM     89  C   UNL A   1      33.752  28.451  24.703  1.00  0.00     0.016 A 
ATOM     90  C   UNL A   1      31.002  27.928  25.000  1.00  0.00     0.048 A 
ATOM     91  C   UNL A   1      33.145  28.610  25.944  1.00  0.00     0.001 A 
ATOM     92  C   UNL A   1      31.783  28.329  26.088  1.00  0.00     0.004 A 
ENDBRANCH  81  82
ENDBRANCH  76  80
ENDBRANCH  72  74
ENDBRANCH  71  72
ENDBRANCH  70  71
ENDBRANCH   1  70
TORSDOF 16
ENDMDL
