MODEL 1
REMARK VINA RESULT:     -12.6      0.000      0.000
REMARK SMILES Cc1cc2n(n1)[C@H](C(F)(F)F)CCN2C(=O)c1cnn([C@@H](C)C(=O)OCCOC(=O)c2ccc(-c3c4nc(c(-c5cc(S(=O)(=O)[O-])ccc5F)c5ccc([nH]5)c(-c5cc(S(=O)(=O)[O-])ccc5F)c5nc(c(-c6cc(S(=O)(=O)[O-])ccc6F)c6ccc3[nH]6)C=C5)C=C4)cc2)c1
REMARK SMILES IDX 26 1 25 2 23 3 24 4 21 5 22 6 20 7 17 8 18 9 94 10 19 11
REMARK SMILES IDX 15 12 16 13 14 14 1 15 2 16 3 17 6 18 4 19 5 20 7 21 13 22
REMARK SMILES IDX 12 23 8 24 9 25 10 26 11 27 27 28 28 29 29 30 30 31 31 32
REMARK SMILES IDX 32 33 93 34 33 35 92 36 34 37 35 38 36 39 86 40 37 41 91 42
REMARK SMILES IDX 85 43 87 44 38 45 90 46 84 47 83 48 39 50 71 51 51 52 70 53
REMARK SMILES IDX 52 54 55 55 69 56 88 57 53 58 54 59 68 61 89 62 56 63 40 64
REMARK SMILES IDX 41 65 49 66 42 67 48 68 50 69 47 70 43 71 44 72 45 73 46 74
REMARK SMILES IDX 72 75 73 76 81 77 74 78 80 79 82 80 79 81 75 82 76 83 77 84
REMARK SMILES IDX 78 85 57 86 58 87 66 88 59 89 65 90 67 91 64 92 60 93 61 94
REMARK SMILES IDX 62 95 63 96
REMARK H PARENT 87 49 55 60
REMARK Flexibility Score: inf
ROOT
ATOM      1  C   UNL A   1      34.379  30.485  27.214  1.00  0.00     0.274 C 
ENDROOT
BRANCH   1   2
ATOM      2  O   UNL A   1      33.010  30.315  27.630  1.00  0.00    -0.460 OA
BRANCH   2   3
ATOM      3  C   UNL A   1      32.083  30.244  26.641  1.00  0.00     0.330 C 
ATOM      4  O   UNL A   1      31.556  31.230  26.126  1.00  0.00    -0.250 OA
BRANCH   3   5
ATOM      5  C   UNL A   1      31.666  28.841  26.258  1.00  0.00     0.213 C 
ATOM      6  C   UNL A   1      31.653  27.960  27.497  1.00  0.00     0.046 C 
BRANCH   5   7
ATOM      7  N   UNL A   1      32.389  28.229  25.142  1.00  0.00    -0.258 N 
ATOM      8  C   UNL A   1      33.221  26.730  23.733  1.00  0.00     0.078 A 
ATOM      9  C   UNL A   1      33.619  28.051  23.434  1.00  0.00     0.149 A 
ATOM     10  C   UNL A   1      32.405  26.887  24.840  1.00  0.00     0.123 A 
ATOM     11  N   UNL A   1      33.271  28.923  24.385  1.00  0.00    -0.180 NA
BRANCH   8  12
ATOM     12  C   UNL A   1      33.470  25.487  23.043  1.00  0.00     0.262 C 
ATOM     13  O   UNL A   1      33.679  25.415  21.841  1.00  0.00    -0.269 OA
BRANCH  12  14
ATOM     14  N   UNL A   1      33.264  24.286  23.860  1.00  0.00    -0.293 N 
ATOM     15  C   UNL A   1      37.737  22.912  25.739  1.00  0.00     0.069 C 
ATOM     16  C   UNL A   1      36.307  23.032  25.361  1.00  0.00     0.062 A 
ATOM     17  C   UNL A   1      35.677  24.073  24.625  1.00  0.00     0.072 A 
ATOM     18  N   UNL A   1      35.430  22.082  25.711  1.00  0.00    -0.176 NA
ATOM     19  C   UNL A   1      34.364  23.683  24.491  1.00  0.00     0.134 A 
ATOM     20  N   UNL A   1      34.290  22.483  25.142  1.00  0.00    -0.237 N 
ATOM     21  C   UNL A   1      33.080  21.726  25.333  1.00  0.00     0.216 C 
ATOM     22  C   UNL A   1      31.991  23.521  23.832  1.00  0.00     0.130 C 
ATOM     23  C   UNL A   1      31.840  22.583  25.038  1.00  0.00     0.059 C 
BRANCH  21  24
ATOM     24  C   UNL A   1      33.083  20.436  24.539  1.00  0.00     0.410 C 
ATOM     25  F   UNL A   1      34.288  19.825  24.680  1.00  0.00    -0.169 F 
ATOM     26  F   UNL A   1      32.156  19.569  25.011  1.00  0.00    -0.169 F 
ATOM     27  F   UNL A   1      32.873  20.582  23.219  1.00  0.00    -0.169 F 
ENDBRANCH  21  24
ENDBRANCH  12  14
ENDBRANCH   8  12
ENDBRANCH   5   7
ENDBRANCH   3   5
ENDBRANCH   2   3
ENDBRANCH   1   2
BRANCH   1  28
ATOM     28  C   UNL A   1      35.170  31.321  28.212  1.00  0.00     0.275 C 
BRANCH  28  29
ATOM     29  O   UNL A   1      36.523  30.875  28.324  1.00  0.00    -0.458 OA
BRANCH  29  30
ATOM     30  C   UNL A   1      36.689  29.852  29.199  1.00  0.00     0.338 C 
ATOM     31  O   UNL A   1      36.161  29.718  30.272  1.00  0.00    -0.246 OA
BRANCH  30  32
ATOM     32  C   UNL A   1      37.797  28.997  28.777  1.00  0.00     0.060 A 
ATOM     33  C   UNL A   1      38.314  28.124  29.744  1.00  0.00     0.016 A 
ATOM     34  C   UNL A   1      38.490  29.324  27.609  1.00  0.00     0.016 A 
ATOM     35  C   UNL A   1      39.620  27.712  29.618  1.00  0.00     0.010 A 
ATOM     36  C   UNL A   1      39.799  28.933  27.501  1.00  0.00     0.010 A 
ATOM     37  C   UNL A   1      40.363  28.193  28.538  1.00  0.00    -0.014 A 
BRANCH  37  38
ATOM     38  C   UNL A   1      41.745  27.790  28.420  1.00  0.00     0.031 A 
ATOM     39  C   UNL A   1      41.894  26.492  27.729  1.00  0.00     0.074 A 
ATOM     40  C   UNL A   1      42.760  28.607  28.755  1.00  0.00     0.049 A 
ATOM     41  N   UNL A   1      42.312  25.380  28.230  1.00  0.00    -0.248 NA
ATOM     42  C   UNL A   1      41.308  26.356  26.383  1.00  0.00     0.031 C 
ATOM     43  C   UNL A   1      42.691  30.001  29.197  1.00  0.00     0.029 A 
ATOM     44  N   UNL A   1      44.095  28.391  28.636  1.00  0.00    -0.354 N 
ATOM     45  C   UNL A   1      42.285  24.470  27.181  1.00  0.00     0.074 A 
ATOM     46  C   UNL A   1      41.439  25.047  26.175  1.00  0.00     0.031 C 
ATOM     47  C   UNL A   1      43.913  30.566  29.062  1.00  0.00     0.029 A 
ATOM     48  C   UNL A   1      44.862  29.551  28.631  1.00  0.00     0.049 A 
ATOM     49  H   UNL A   1      44.486  27.491  28.561  1.00  0.00     0.167 HD
ATOM     50  C   UNL A   1      43.185  23.454  27.115  1.00  0.00     0.034 A 
ATOM     51  C   UNL A   1      46.152  29.669  28.208  1.00  0.00     0.034 A 
ATOM     52  C   UNL A   1      43.817  23.243  28.400  1.00  0.00     0.049 A 
ATOM     53  C   UNL A   1      46.740  28.300  28.247  1.00  0.00     0.074 A 
ATOM     54  C   UNL A   1      43.342  22.961  29.668  1.00  0.00     0.029 A 
ATOM     55  N   UNL A   1      45.098  23.720  28.584  1.00  0.00    -0.354 N 
ATOM     56  N   UNL A   1      46.921  27.638  29.359  1.00  0.00    -0.248 NA
ATOM     57  C   UNL A   1      46.630  27.469  27.053  1.00  0.00     0.031 C 
ATOM     58  C   UNL A   1      44.138  23.756  30.542  1.00  0.00     0.029 A 
ATOM     59  C   UNL A   1      45.115  24.401  29.778  1.00  0.00     0.049 A 
ATOM     60  H   UNL A   1      45.860  23.596  27.973  1.00  0.00     0.167 HD
ATOM     61  C   UNL A   1      46.504  26.345  29.082  1.00  0.00     0.074 A 
ATOM     62  C   UNL A   1      46.434  26.274  27.622  1.00  0.00     0.031 C 
ATOM     63  C   UNL A   1      45.962  25.548  30.053  1.00  0.00     0.034 A 
BRANCH  50  64
ATOM     64  C   UNL A   1      43.770  22.918  25.829  1.00  0.00     0.023 A 
ATOM     65  C   UNL A   1      43.737  21.524  25.654  1.00  0.00     0.031 A 
ATOM     66  C   UNL A   1      44.596  23.630  24.927  1.00  0.00     0.131 A 
ATOM     67  C   UNL A   1      44.579  20.895  24.724  1.00  0.00     0.055 A 
ATOM     68  C   UNL A   1      45.374  23.003  23.951  1.00  0.00     0.041 A 
ATOM     69  F   UNL A   1      44.781  24.953  24.991  1.00  0.00    -0.206 F 
ATOM     70  C   UNL A   1      45.398  21.624  23.868  1.00  0.00     0.022 A 
BRANCH  67  71
ATOM     71  S   UNL A   1      44.726  19.094  24.800  1.00  0.00     0.124 S 
ATOM     72  O   UNL A   1      43.442  18.723  25.388  1.00  0.00    -0.237 OA
ATOM     73  O   UNL A   1      44.913  18.752  23.394  1.00  0.00    -0.237 OA
ATOM     74  O   UNL A   1      45.891  18.887  25.656  1.00  0.00    -0.744 OA
ENDBRANCH  67  71
ENDBRANCH  50  64
BRANCH  51  75
ATOM     75  C   UNL A   1      46.765  30.827  27.491  1.00  0.00     0.023 A 
ATOM     76  C   UNL A   1      46.009  31.885  26.941  1.00  0.00     0.031 A 
ATOM     77  C   UNL A   1      48.167  31.015  27.528  1.00  0.00     0.131 A 
ATOM     78  C   UNL A   1      46.655  33.050  26.454  1.00  0.00     0.055 A 
ATOM     79  C   UNL A   1      48.800  32.159  27.038  1.00  0.00     0.041 A 
ATOM     80  F   UNL A   1      48.975  30.124  28.123  1.00  0.00    -0.206 F 
ATOM     81  C   UNL A   1      48.044  33.188  26.505  1.00  0.00     0.022 A 
BRANCH  78  82
ATOM     82  S   UNL A   1      45.687  34.460  25.820  1.00  0.00     0.124 S 
ATOM     83  O   UNL A   1      45.055  33.893  24.634  1.00  0.00    -0.237 OA
ATOM     84  O   UNL A   1      44.808  34.765  26.942  1.00  0.00    -0.237 OA
ATOM     85  O   UNL A   1      46.704  35.477  25.547  1.00  0.00    -0.744 OA
ENDBRANCH  78  82
ENDBRANCH  51  75
BRANCH  63  86
ATOM     86  C   UNL A   1      46.051  25.999  31.499  1.00  0.00     0.023 A 
ATOM     87  C   UNL A   1      44.974  26.530  32.249  1.00  0.00     0.031 A 
ATOM     88  C   UNL A   1      47.252  25.742  32.184  1.00  0.00     0.131 A 
ATOM     89  C   UNL A   1      45.132  26.792  33.626  1.00  0.00     0.055 A 
ATOM     90  C   UNL A   1      47.398  25.984  33.549  1.00  0.00     0.041 A 
ATOM     91  F   UNL A   1      48.301  25.203  31.539  1.00  0.00    -0.206 F 
ATOM     92  C   UNL A   1      46.339  26.517  34.274  1.00  0.00     0.022 A 
BRANCH  89  93
ATOM     93  S   UNL A   1      43.765  27.501  34.604  1.00  0.00     0.124 S 
ATOM     94  O   UNL A   1      44.414  28.525  35.411  1.00  0.00    -0.237 OA
ATOM     95  O   UNL A   1      42.851  27.983  33.570  1.00  0.00    -0.237 OA
ATOM     96  O   UNL A   1      43.260  26.354  35.363  1.00  0.00    -0.744 OA
ENDBRANCH  89  93
ENDBRANCH  63  86
ENDBRANCH  37  38
ENDBRANCH  30  32
ENDBRANCH  29  30
ENDBRANCH  28  29
ENDBRANCH   1  28
TORSDOF 18
ENDMDL
MODEL 2
REMARK VINA RESULT:     -12.5      2.427      6.789
REMARK SMILES Cc1cc2n(n1)[C@H](C(F)(F)F)CCN2C(=O)c1cnn([C@@H](C)C(=O)OCCOC(=O)c2ccc(-c3c4nc(c(-c5cc(S(=O)(=O)[O-])ccc5F)c5ccc([nH]5)c(-c5cc(S(=O)(=O)[O-])ccc5F)c5nc(c(-c6cc(S(=O)(=O)[O-])ccc6F)c6ccc3[nH]6)C=C5)C=C4)cc2)c1
REMARK SMILES IDX 26 1 25 2 23 3 24 4 21 5 22 6 20 7 17 8 18 9 94 10 19 11
REMARK SMILES IDX 15 12 16 13 14 14 1 15 2 16 3 17 6 18 4 19 5 20 7 21 13 22
REMARK SMILES IDX 12 23 8 24 9 25 10 26 11 27 27 28 28 29 29 30 30 31 31 32
REMARK SMILES IDX 32 33 93 34 33 35 92 36 34 37 35 38 36 39 86 40 37 41 91 42
REMARK SMILES IDX 85 43 87 44 38 45 90 46 84 47 83 48 39 50 71 51 51 52 70 53
REMARK SMILES IDX 52 54 55 55 69 56 88 57 53 58 54 59 68 61 89 62 56 63 40 64
REMARK SMILES IDX 41 65 49 66 42 67 48 68 50 69 47 70 43 71 44 72 45 73 46 74
REMARK SMILES IDX 72 75 73 76 81 77 74 78 80 79 82 80 79 81 75 82 76 83 77 84
REMARK SMILES IDX 78 85 57 86 58 87 66 88 59 89 65 90 67 91 64 92 60 93 61 94
REMARK SMILES IDX 62 95 63 96
REMARK H PARENT 87 49 55 60
REMARK Flexibility Score: inf
ROOT
ATOM      1  C   UNL A   1      34.309  29.299  26.775  1.00  0.00     0.274 C 
ENDROOT
BRANCH   1   2
ATOM      2  O   UNL A   1      33.385  28.267  27.172  1.00  0.00    -0.460 OA
BRANCH   2   3
ATOM      3  C   UNL A   1      32.266  28.134  26.414  1.00  0.00     0.330 C 
ATOM      4  O   UNL A   1      31.254  27.540  26.786  1.00  0.00    -0.250 OA
BRANCH   3   5
ATOM      5  C   UNL A   1      32.373  28.703  25.016  1.00  0.00     0.213 C 
ATOM      6  C   UNL A   1      31.067  29.386  24.645  1.00  0.00     0.046 C 
BRANCH   5   7
ATOM      7  N   UNL A   1      32.843  27.787  23.975  1.00  0.00    -0.258 N 
ATOM      8  C   UNL A   1      33.300  25.936  22.841  1.00  0.00     0.078 A 
ATOM      9  C   UNL A   1      33.741  27.107  22.188  1.00  0.00     0.149 A 
ATOM     10  C   UNL A   1      32.702  26.419  23.992  1.00  0.00     0.123 A 
ATOM     11  N   UNL A   1      33.630  28.197  22.954  1.00  0.00    -0.180 NA
BRANCH   8  12
ATOM     12  C   UNL A   1      33.330  24.553  22.427  1.00  0.00     0.262 C 
ATOM     13  O   UNL A   1      33.353  24.202  21.256  1.00  0.00    -0.269 OA
BRANCH  12  14
ATOM     14  N   UNL A   1      33.136  23.588  23.515  1.00  0.00    -0.293 N 
ATOM     15  C   UNL A   1      37.601  22.861  25.744  1.00  0.00     0.069 C 
ATOM     16  C   UNL A   1      36.176  22.840  25.327  1.00  0.00     0.062 A 
ATOM     17  C   UNL A   1      35.537  23.645  24.345  1.00  0.00     0.072 A 
ATOM     18  N   UNL A   1      35.317  21.982  25.890  1.00  0.00    -0.176 NA
ATOM     19  C   UNL A   1      34.237  23.195  24.293  1.00  0.00     0.134 A 
ATOM     20  N   UNL A   1      34.179  22.194  25.222  1.00  0.00    -0.237 N 
ATOM     21  C   UNL A   1      32.985  21.472  25.577  1.00  0.00     0.216 C 
ATOM     22  C   UNL A   1      31.884  22.803  23.659  1.00  0.00     0.130 C 
ATOM     23  C   UNL A   1      31.731  22.191  25.060  1.00  0.00     0.059 C 
BRANCH  21  24
ATOM     24  C   UNL A   1      33.038  20.026  25.132  1.00  0.00     0.410 C 
ATOM     25  F   UNL A   1      34.170  19.820  24.407  1.00  0.00    -0.169 F 
ATOM     26  F   UNL A   1      33.105  19.187  26.193  1.00  0.00    -0.169 F 
ATOM     27  F   UNL A   1      32.008  19.631  24.362  1.00  0.00    -0.169 F 
ENDBRANCH  21  24
ENDBRANCH  12  14
ENDBRANCH   8  12
ENDBRANCH   5   7
ENDBRANCH   3   5
ENDBRANCH   2   3
ENDBRANCH   1   2
BRANCH   1  28
ATOM     28  C   UNL A   1      33.907  30.658  27.334  1.00  0.00     0.275 C 
BRANCH  28  29
ATOM     29  O   UNL A   1      34.529  30.918  28.594  1.00  0.00    -0.458 OA
BRANCH  29  30
ATOM     30  C   UNL A   1      35.698  31.598  28.494  1.00  0.00     0.338 C 
ATOM     31  O   UNL A   1      35.949  32.512  27.754  1.00  0.00    -0.246 OA
BRANCH  30  32
ATOM     32  C   UNL A   1      36.744  30.926  29.265  1.00  0.00     0.060 A 
ATOM     33  C   UNL A   1      37.886  31.683  29.558  1.00  0.00     0.016 A 
ATOM     34  C   UNL A   1      36.717  29.533  29.359  1.00  0.00     0.016 A 
ATOM     35  C   UNL A   1      39.069  31.017  29.778  1.00  0.00     0.010 A 
ATOM     36  C   UNL A   1      37.904  28.873  29.552  1.00  0.00     0.010 A 
ATOM     37  C   UNL A   1      39.070  29.624  29.689  1.00  0.00    -0.014 A 
BRANCH  37  38
ATOM     38  C   UNL A   1      40.318  28.923  29.886  1.00  0.00     0.031 A 
ATOM     39  C   UNL A   1      40.626  28.717  31.317  1.00  0.00     0.074 A 
ATOM     40  C   UNL A   1      41.004  28.383  28.863  1.00  0.00     0.049 A 
ATOM     41  N   UNL A   1      41.588  29.241  31.995  1.00  0.00    -0.248 NA
ATOM     42  C   UNL A   1      39.624  28.019  32.144  1.00  0.00     0.031 C 
ATOM     43  C   UNL A   1      40.624  28.321  27.451  1.00  0.00     0.029 A 
ATOM     44  N   UNL A   1      42.144  27.647  28.904  1.00  0.00    -0.354 N 
ATOM     45  C   UNL A   1      41.459  28.725  33.278  1.00  0.00     0.074 A 
ATOM     46  C   UNL A   1      40.124  28.204  33.365  1.00  0.00     0.031 C 
ATOM     47  C   UNL A   1      41.377  27.383  26.833  1.00  0.00     0.029 A 
ATOM     48  C   UNL A   1      42.357  26.862  27.775  1.00  0.00     0.049 A 
ATOM     49  H   UNL A   1      42.765  27.666  29.666  1.00  0.00     0.167 HD
ATOM     50  C   UNL A   1      42.550  28.517  34.061  1.00  0.00     0.034 A 
ATOM     51  C   UNL A   1      43.210  25.806  27.671  1.00  0.00     0.034 A 
ATOM     52  C   UNL A   1      43.691  29.254  33.558  1.00  0.00     0.049 A 
ATOM     53  C   UNL A   1      44.214  25.959  28.760  1.00  0.00     0.074 A 
ATOM     54  C   UNL A   1      43.928  30.590  33.293  1.00  0.00     0.029 A 
ATOM     55  N   UNL A   1      44.659  28.561  32.862  1.00  0.00    -0.354 N 
ATOM     56  N   UNL A   1      45.071  26.945  28.800  1.00  0.00    -0.248 NA
ATOM     57  C   UNL A   1      43.926  25.348  30.053  1.00  0.00     0.031 C 
ATOM     58  C   UNL A   1      44.666  30.595  32.074  1.00  0.00     0.029 A 
ATOM     59  C   UNL A   1      44.924  29.271  31.714  1.00  0.00     0.049 A 
ATOM     60  H   UNL A   1      45.083  27.715  33.135  1.00  0.00     0.167 HD
ATOM     61  C   UNL A   1      45.080  27.363  30.123  1.00  0.00     0.074 A 
ATOM     62  C   UNL A   1      44.437  26.280  30.867  1.00  0.00     0.031 C 
ATOM     63  C   UNL A   1      45.326  28.667  30.455  1.00  0.00     0.034 A 
BRANCH  50  64
ATOM     64  C   UNL A   1      42.694  27.369  35.033  1.00  0.00     0.023 A 
ATOM     65  C   UNL A   1      43.507  26.297  34.626  1.00  0.00     0.031 A 
ATOM     66  C   UNL A   1      41.879  27.126  36.164  1.00  0.00     0.131 A 
ATOM     67  C   UNL A   1      43.401  25.039  35.240  1.00  0.00     0.055 A 
ATOM     68  C   UNL A   1      41.835  25.894  36.820  1.00  0.00     0.041 A 
ATOM     69  F   UNL A   1      41.009  28.021  36.647  1.00  0.00    -0.206 F 
ATOM     70  C   UNL A   1      42.571  24.828  36.337  1.00  0.00     0.022 A 
BRANCH  67  71
ATOM     71  S   UNL A   1      44.222  23.639  34.444  1.00  0.00     0.124 S 
ATOM     72  O   UNL A   1      43.121  23.047  33.690  1.00  0.00    -0.237 OA
ATOM     73  O   UNL A   1      45.255  24.307  33.660  1.00  0.00    -0.237 OA
ATOM     74  O   UNL A   1      44.705  22.847  35.573  1.00  0.00    -0.744 OA
ENDBRANCH  67  71
ENDBRANCH  50  64
BRANCH  51  75
ATOM     75  C   UNL A   1      42.998  24.547  26.894  1.00  0.00     0.023 A 
ATOM     76  C   UNL A   1      43.981  23.983  26.052  1.00  0.00     0.031 A 
ATOM     77  C   UNL A   1      41.861  23.745  27.150  1.00  0.00     0.131 A 
ATOM     78  C   UNL A   1      43.797  22.689  25.502  1.00  0.00     0.055 A 
ATOM     79  C   UNL A   1      41.680  22.474  26.599  1.00  0.00     0.041 A 
ATOM     80  F   UNL A   1      40.914  24.133  28.019  1.00  0.00    -0.206 F 
ATOM     81  C   UNL A   1      42.654  21.936  25.778  1.00  0.00     0.022 A 
BRANCH  78  82
ATOM     82  S   UNL A   1      45.096  21.913  24.482  1.00  0.00     0.124 S 
ATOM     83  O   UNL A   1      44.427  20.715  23.989  1.00  0.00    -0.237 OA
ATOM     84  O   UNL A   1      45.382  22.951  23.499  1.00  0.00    -0.237 OA
ATOM     85  O   UNL A   1      46.177  21.664  25.437  1.00  0.00    -0.744 OA
ENDBRANCH  78  82
ENDBRANCH  51  75
BRANCH  63  86
ATOM     86  C   UNL A   1      45.840  29.609  29.382  1.00  0.00     0.023 A 
ATOM     87  C   UNL A   1      45.022  30.352  28.497  1.00  0.00     0.031 A 
ATOM     88  C   UNL A   1      47.223  29.867  29.357  1.00  0.00     0.131 A 
ATOM     89  C   UNL A   1      45.600  31.299  27.626  1.00  0.00     0.055 A 
ATOM     90  C   UNL A   1      47.787  30.818  28.509  1.00  0.00     0.041 A 
ATOM     91  F   UNL A   1      48.050  29.223  30.197  1.00  0.00    -0.206 F 
ATOM     92  C   UNL A   1      46.979  31.533  27.635  1.00  0.00     0.022 A 
BRANCH  89  93
ATOM     93  S   UNL A   1      44.567  32.247  26.460  1.00  0.00     0.124 S 
ATOM     94  O   UNL A   1      44.122  33.391  27.244  1.00  0.00    -0.237 OA
ATOM     95  O   UNL A   1      45.501  32.539  25.373  1.00  0.00    -0.237 OA
ATOM     96  O   UNL A   1      43.507  31.302  26.100  1.00  0.00    -0.744 OA
ENDBRANCH  89  93
ENDBRANCH  63  86
ENDBRANCH  37  38
ENDBRANCH  30  32
ENDBRANCH  29  30
ENDBRANCH  28  29
ENDBRANCH   1  28
TORSDOF 18
ENDMDL
MODEL 3
REMARK VINA RESULT:     -12.4      4.816      9.356
REMARK SMILES Cc1cc2n(n1)[C@H](C(F)(F)F)CCN2C(=O)c1cnn([C@@H](C)C(=O)OCCOC(=O)c2ccc(-c3c4nc(c(-c5cc(S(=O)(=O)[O-])ccc5F)c5ccc([nH]5)c(-c5cc(S(=O)(=O)[O-])ccc5F)c5nc(c(-c6cc(S(=O)(=O)[O-])ccc6F)c6ccc3[nH]6)C=C5)C=C4)cc2)c1
REMARK SMILES IDX 26 1 25 2 23 3 24 4 21 5 22 6 20 7 17 8 18 9 94 10 19 11
REMARK SMILES IDX 15 12 16 13 14 14 1 15 2 16 3 17 6 18 4 19 5 20 7 21 13 22
REMARK SMILES IDX 12 23 8 24 9 25 10 26 11 27 27 28 28 29 29 30 30 31 31 32
REMARK SMILES IDX 32 33 93 34 33 35 92 36 34 37 35 38 36 39 86 40 37 41 91 42
REMARK SMILES IDX 85 43 87 44 38 45 90 46 84 47 83 48 39 50 71 51 51 52 70 53
REMARK SMILES IDX 52 54 55 55 69 56 88 57 53 58 54 59 68 61 89 62 56 63 40 64
REMARK SMILES IDX 41 65 49 66 42 67 48 68 50 69 47 70 43 71 44 72 45 73 46 74
REMARK SMILES IDX 72 75 73 76 81 77 74 78 80 79 82 80 79 81 75 82 76 83 77 84
REMARK SMILES IDX 78 85 57 86 58 87 66 88 59 89 65 90 67 91 64 92 60 93 61 94
REMARK SMILES IDX 62 95 63 96
REMARK H PARENT 87 49 55 60
REMARK Flexibility Score: inf
ROOT
ATOM      1  C   UNL A   1      37.785  21.833  25.009  1.00  0.00     0.274 C 
ENDROOT
BRANCH   1   2
ATOM      2  O   UNL A   1      36.439  21.688  25.502  1.00  0.00    -0.460 OA
BRANCH   2   3
ATOM      3  C   UNL A   1      35.657  22.798  25.457  1.00  0.00     0.330 C 
ATOM      4  O   UNL A   1      35.874  23.757  24.718  1.00  0.00    -0.250 OA
BRANCH   3   5
ATOM      5  C   UNL A   1      34.522  22.817  26.457  1.00  0.00     0.213 C 
ATOM      6  C   UNL A   1      34.433  21.467  27.151  1.00  0.00     0.046 C 
BRANCH   5   7
ATOM      7  N   UNL A   1      33.224  23.278  25.959  1.00  0.00    -0.258 N 
ATOM      8  C   UNL A   1      31.352  24.441  25.706  1.00  0.00     0.078 A 
ATOM      9  C   UNL A   1      31.451  23.353  24.813  1.00  0.00     0.149 A 
ATOM     10  C   UNL A   1      32.534  24.373  26.423  1.00  0.00     0.123 A 
ATOM     11  N   UNL A   1      32.485  22.551  25.090  1.00  0.00    -0.180 NA
BRANCH   8  12
ATOM     12  C   UNL A   1      30.353  25.477  25.828  1.00  0.00     0.262 C 
ATOM     13  O   UNL A   1      29.371  25.382  26.550  1.00  0.00    -0.269 OA
BRANCH  12  14
ATOM     14  N   UNL A   1      30.502  26.581  24.874  1.00  0.00    -0.293 N 
ATOM     15  C   UNL A   1      32.832  30.370  27.250  1.00  0.00     0.069 C 
ATOM     16  C   UNL A   1      32.147  29.480  26.279  1.00  0.00     0.062 A 
ATOM     17  C   UNL A   1      31.763  28.122  26.452  1.00  0.00     0.072 A 
ATOM     18  N   UNL A   1      31.806  29.934  25.067  1.00  0.00    -0.176 NA
ATOM     19  C   UNL A   1      31.111  27.776  25.290  1.00  0.00     0.134 A 
ATOM     20  N   UNL A   1      31.155  28.904  24.519  1.00  0.00    -0.237 N 
ATOM     21  C   UNL A   1      30.660  28.995  23.170  1.00  0.00     0.216 C 
ATOM     22  C   UNL A   1      29.798  26.595  23.567  1.00  0.00     0.130 C 
ATOM     23  C   UNL A   1      30.407  27.600  22.579  1.00  0.00     0.059 C 
BRANCH  21  24
ATOM     24  C   UNL A   1      29.440  29.886  23.068  1.00  0.00     0.410 C 
ATOM     25  F   UNL A   1      29.224  30.203  21.764  1.00  0.00    -0.169 F 
ATOM     26  F   UNL A   1      28.327  29.245  23.497  1.00  0.00    -0.169 F 
ATOM     27  F   UNL A   1      29.528  31.047  23.740  1.00  0.00    -0.169 F 
ENDBRANCH  21  24
ENDBRANCH  12  14
ENDBRANCH   8  12
ENDBRANCH   5   7
ENDBRANCH   3   5
ENDBRANCH   2   3
ENDBRANCH   1   2
BRANCH   1  28
ATOM     28  C   UNL A   1      38.774  22.081  26.141  1.00  0.00     0.275 C 
BRANCH  28  29
ATOM     29  O   UNL A   1      38.846  23.465  26.487  1.00  0.00    -0.458 OA
BRANCH  29  30
ATOM     30  C   UNL A   1      40.051  23.840  26.986  1.00  0.00     0.338 C 
ATOM     31  O   UNL A   1      41.101  23.267  26.863  1.00  0.00    -0.246 OA
BRANCH  30  32
ATOM     32  C   UNL A   1      39.889  24.953  27.922  1.00  0.00     0.060 A 
ATOM     33  C   UNL A   1      38.759  25.760  27.740  1.00  0.00     0.016 A 
ATOM     34  C   UNL A   1      40.990  25.356  28.681  1.00  0.00     0.016 A 
ATOM     35  C   UNL A   1      38.809  27.061  28.183  1.00  0.00     0.010 A 
ATOM     36  C   UNL A   1      41.047  26.661  29.097  1.00  0.00     0.010 A 
ATOM     37  C   UNL A   1      39.988  27.510  28.781  1.00  0.00    -0.014 A 
BRANCH  37  38
ATOM     38  C   UNL A   1      40.058  28.885  29.218  1.00  0.00     0.031 A 
ATOM     39  C   UNL A   1      41.280  29.565  28.739  1.00  0.00     0.074 A 
ATOM     40  C   UNL A   1      39.030  29.491  29.839  1.00  0.00     0.049 A 
ATOM     41  N   UNL A   1      42.268  29.992  29.448  1.00  0.00    -0.248 NA
ATOM     42  C   UNL A   1      41.536  29.579  27.287  1.00  0.00     0.031 C 
ATOM     43  C   UNL A   1      37.694  28.957  30.110  1.00  0.00     0.029 A 
ATOM     44  N   UNL A   1      38.929  30.783  30.243  1.00  0.00    -0.354 N 
ATOM     45  C   UNL A   1      43.150  30.565  28.541  1.00  0.00     0.074 A 
ATOM     46  C   UNL A   1      42.777  30.062  27.250  1.00  0.00     0.031 C 
ATOM     47  C   UNL A   1      36.860  29.983  30.393  1.00  0.00     0.029 A 
ATOM     48  C   UNL A   1      37.622  31.222  30.429  1.00  0.00     0.049 A 
ATOM     49  H   UNL A   1      39.712  31.360  30.391  1.00  0.00     0.167 HD
ATOM     50  C   UNL A   1      43.929  31.621  28.897  1.00  0.00     0.034 A 
ATOM     51  C   UNL A   1      37.204  32.515  30.508  1.00  0.00     0.034 A 
ATOM     52  C   UNL A   1      43.998  31.747  30.337  1.00  0.00     0.049 A 
ATOM     53  C   UNL A   1      38.398  33.328  30.873  1.00  0.00     0.074 A 
ATOM     54  C   UNL A   1      44.393  30.899  31.355  1.00  0.00     0.029 A 
ATOM     55  N   UNL A   1      43.238  32.724  30.945  1.00  0.00    -0.354 N 
ATOM     56  N   UNL A   1      39.009  33.212  32.022  1.00  0.00    -0.248 NA
ATOM     57  C   UNL A   1      39.222  33.864  29.795  1.00  0.00     0.031 C 
ATOM     58  C   UNL A   1      43.442  31.109  32.396  1.00  0.00     0.029 A 
ATOM     59  C   UNL A   1      42.582  32.136  32.000  1.00  0.00     0.049 A 
ATOM     60  H   UNL A   1      43.176  33.669  30.672  1.00  0.00     0.167 HD
ATOM     61  C   UNL A   1      40.362  33.225  31.715  1.00  0.00     0.074 A 
ATOM     62  C   UNL A   1      40.434  33.733  30.345  1.00  0.00     0.031 C 
ATOM     63  C   UNL A   1      41.272  32.543  32.476  1.00  0.00     0.034 A 
BRANCH  50  64
ATOM     64  C   UNL A   1      44.303  32.753  27.967  1.00  0.00     0.023 A 
ATOM     65  C   UNL A   1      43.730  34.007  28.239  1.00  0.00     0.031 A 
ATOM     66  C   UNL A   1      44.925  32.623  26.702  1.00  0.00     0.131 A 
ATOM     67  C   UNL A   1      43.679  35.004  27.253  1.00  0.00     0.055 A 
ATOM     68  C   UNL A   1      44.938  33.648  25.753  1.00  0.00     0.041 A 
ATOM     69  F   UNL A   1      45.469  31.482  26.267  1.00  0.00    -0.206 F 
ATOM     70  C   UNL A   1      44.280  34.836  26.010  1.00  0.00     0.022 A 
BRANCH  67  71
ATOM     71  S   UNL A   1      42.635  36.447  27.564  1.00  0.00     0.124 S 
ATOM     72  O   UNL A   1      41.299  35.871  27.441  1.00  0.00    -0.237 OA
ATOM     73  O   UNL A   1      43.051  36.830  28.909  1.00  0.00    -0.237 OA
ATOM     74  O   UNL A   1      43.017  37.375  26.502  1.00  0.00    -0.744 OA
ENDBRANCH  67  71
ENDBRANCH  50  64
BRANCH  51  75
ATOM     75  C   UNL A   1      35.929  33.087  29.980  1.00  0.00     0.023 A 
ATOM     76  C   UNL A   1      35.104  33.958  30.725  1.00  0.00     0.031 A 
ATOM     77  C   UNL A   1      35.608  32.944  28.609  1.00  0.00     0.131 A 
ATOM     78  C   UNL A   1      34.018  34.624  30.102  1.00  0.00     0.055 A 
ATOM     79  C   UNL A   1      34.532  33.595  28.002  1.00  0.00     0.041 A 
ATOM     80  F   UNL A   1      36.384  32.227  27.781  1.00  0.00    -0.206 F 
ATOM     81  C   UNL A   1      33.735  34.446  28.746  1.00  0.00     0.022 A 
BRANCH  78  82
ATOM     82  S   UNL A   1      32.996  35.817  31.030  1.00  0.00     0.124 S 
ATOM     83  O   UNL A   1      32.289  34.953  31.969  1.00  0.00    -0.237 OA
ATOM     84  O   UNL A   1      33.998  36.711  31.598  1.00  0.00    -0.237 OA
ATOM     85  O   UNL A   1      32.154  36.421  29.998  1.00  0.00    -0.744 OA
ENDBRANCH  78  82
ENDBRANCH  51  75
BRANCH  63  86
ATOM     86  C   UNL A   1      40.825  31.974  33.811  1.00  0.00     0.023 A 
ATOM     87  C   UNL A   1      40.716  32.717  35.011  1.00  0.00     0.031 A 
ATOM     88  C   UNL A   1      40.353  30.650  33.824  1.00  0.00     0.131 A 
ATOM     89  C   UNL A   1      40.162  32.121  36.164  1.00  0.00     0.055 A 
ATOM     90  C   UNL A   1      39.789  30.071  34.960  1.00  0.00     0.041 A 
ATOM     91  F   UNL A   1      40.393  29.902  32.708  1.00  0.00    -0.206 F 
ATOM     92  C   UNL A   1      39.697  30.803  36.137  1.00  0.00     0.022 A 
BRANCH  89  93
ATOM     93  S   UNL A   1      40.037  33.052  37.727  1.00  0.00     0.124 S 
ATOM     94  O   UNL A   1      38.631  32.936  38.087  1.00  0.00    -0.237 OA
ATOM     95  O   UNL A   1      40.981  32.347  38.593  1.00  0.00    -0.237 OA
ATOM     96  O   UNL A   1      40.463  34.403  37.353  1.00  0.00    -0.744 OA
ENDBRANCH  89  93
ENDBRANCH  63  86
ENDBRANCH  37  38
ENDBRANCH  30  32
ENDBRANCH  29  30
ENDBRANCH  28  29
ENDBRANCH   1  28
TORSDOF 18
ENDMDL
