MODEL 1
REMARK VINA RESULT:     -11.1      0.000      0.000
REMARK SMILES COCCS(=O)(=O)N1C[C@@H](C(=O)OCCOC(=O)c2ccc(-c3c4nc(c(-c5cc(S(=O)(=O)[O-])ccc5F)c5ccc([nH]5)c(-c5cc(S(=O)(=O)[O-])ccc5F)c5nc(c(-c6cc(S(=O)(=O)[O-])ccc6F)c6ccc3[nH]6)C=C5)C=C4)cc2)c2ccccc21
REMARK SMILES IDX 14 1 13 2 11 3 12 4 10 5 8 6 9 7 87 8 82 9 86 10 83 11 85 12
REMARK SMILES IDX 84 13 5 14 6 15 7 16 4 17 3 18 2 19 1 20 15 21 16 22 17 23
REMARK SMILES IDX 18 24 19 25 20 26 81 27 21 28 80 29 22 30 23 31 24 32 74 33
REMARK SMILES IDX 25 34 79 35 73 36 75 37 26 38 78 39 72 40 71 41 27 43 59 44
REMARK SMILES IDX 39 45 58 46 40 47 43 48 57 49 76 50 41 51 42 52 56 54 77 55
REMARK SMILES IDX 44 56 28 57 29 58 37 59 30 60 36 61 38 62 35 63 31 64 32 65
REMARK SMILES IDX 33 66 34 67 60 68 61 69 69 70 62 71 68 72 70 73 67 74 63 75
REMARK SMILES IDX 64 76 65 77 66 78 45 79 46 80 54 81 47 82 53 83 55 84 52 85
REMARK SMILES IDX 48 86 49 87 50 88 51 89
REMARK H PARENT 75 42 43 53
REMARK Flexibility Score: inf
ROOT
ATOM      1  C   UNL A   1      35.331  20.950  25.224  1.00  0.00     0.274 C 
ENDROOT
BRANCH   1   2
ATOM      2  O   UNL A   1      34.792  21.905  24.292  1.00  0.00    -0.462 OA
BRANCH   2   3
ATOM      3  C   UNL A   1      33.496  21.719  23.923  1.00  0.00     0.315 C 
ATOM      4  O   UNL A   1      32.945  20.626  23.854  1.00  0.00    -0.251 OA
BRANCH   3   5
ATOM      5  C   UNL A   1      32.813  22.989  23.488  1.00  0.00     0.152 C 
ATOM      6  N   UNL A   1      33.628  25.291  23.160  1.00  0.00    -0.269 N 
ATOM      7  C   UNL A   1      33.862  23.840  22.752  1.00  0.00     0.155 C 
ATOM      8  C   UNL A   1      32.826  25.206  24.348  1.00  0.00     0.056 A 
ATOM      9  C   UNL A   1      32.335  23.921  24.558  1.00  0.00    -0.008 A 
ATOM     10  C   UNL A   1      32.619  26.201  25.289  1.00  0.00     0.027 A 
ATOM     11  C   UNL A   1      31.498  23.649  25.633  1.00  0.00     0.007 A 
ATOM     12  C   UNL A   1      31.805  25.929  26.391  1.00  0.00     0.002 A 
ATOM     13  C   UNL A   1      31.229  24.665  26.550  1.00  0.00     0.000 A 
BRANCH   6  14
ATOM     14  S   UNL A   1      33.069  26.184  21.818  1.00  0.00     0.237 S 
ATOM     15  O   UNL A   1      33.151  25.334  20.647  1.00  0.00    -0.206 OA
ATOM     16  O   UNL A   1      33.836  27.418  21.838  1.00  0.00    -0.206 OA
BRANCH  14  17
ATOM     17  C   UNL A   1      31.362  26.638  22.113  1.00  0.00     0.188 C 
BRANCH  17  18
ATOM     18  C   UNL A   1      31.199  28.089  22.528  1.00  0.00     0.178 C 
BRANCH  18  19
ATOM     19  O   UNL A   1      30.199  28.247  23.531  1.00  0.00    -0.384 OA
ATOM     20  C   UNL A   1      29.343  27.111  23.648  1.00  0.00     0.194 C 
ENDBRANCH  18  19
ENDBRANCH  17  18
ENDBRANCH  14  17
ENDBRANCH   6  14
ENDBRANCH   3   5
ENDBRANCH   2   3
ENDBRANCH   1   2
BRANCH   1  21
ATOM     21  C   UNL A   1      36.838  20.784  25.042  1.00  0.00     0.275 C 
BRANCH  21  22
ATOM     22  O   UNL A   1      37.540  21.881  25.647  1.00  0.00    -0.458 OA
BRANCH  22  23
ATOM     23  C   UNL A   1      38.804  21.612  26.048  1.00  0.00     0.338 C 
ATOM     24  O   UNL A   1      39.414  20.565  25.935  1.00  0.00    -0.246 OA
BRANCH  23  25
ATOM     25  C   UNL A   1      39.390  22.822  26.636  1.00  0.00     0.060 A 
ATOM     26  C   UNL A   1      38.924  24.077  26.235  1.00  0.00     0.016 A 
ATOM     27  C   UNL A   1      40.474  22.706  27.506  1.00  0.00     0.016 A 
ATOM     28  C   UNL A   1      39.557  25.230  26.695  1.00  0.00     0.010 A 
ATOM     29  C   UNL A   1      41.088  23.864  27.988  1.00  0.00     0.010 A 
ATOM     30  C   UNL A   1      40.645  25.133  27.574  1.00  0.00    -0.014 A 
BRANCH  30  31
ATOM     31  C   UNL A   1      41.358  26.351  28.036  1.00  0.00     0.031 A 
ATOM     32  C   UNL A   1      40.601  27.422  28.770  1.00  0.00     0.074 A 
ATOM     33  C   UNL A   1      42.670  26.504  27.775  1.00  0.00     0.049 A 
ATOM     34  N   UNL A   1      40.985  28.626  29.108  1.00  0.00    -0.248 NA
ATOM     35  C   UNL A   1      39.224  27.093  29.164  1.00  0.00     0.031 C 
ATOM     36  C   UNL A   1      43.517  25.516  27.106  1.00  0.00     0.029 A 
ATOM     37  N   UNL A   1      43.514  27.557  28.022  1.00  0.00    -0.354 N 
ATOM     38  C   UNL A   1      39.893  29.208  29.743  1.00  0.00     0.074 A 
ATOM     39  C   UNL A   1      38.824  28.231  29.715  1.00  0.00     0.031 C 
ATOM     40  C   UNL A   1      44.757  26.017  26.981  1.00  0.00     0.029 A 
ATOM     41  C   UNL A   1      44.777  27.379  27.507  1.00  0.00     0.049 A 
ATOM     42  H   UNL A   1      43.242  28.363  28.518  1.00  0.00     0.167 HD
ATOM     43  C   UNL A   1      39.796  30.442  30.299  1.00  0.00     0.034 A 
ATOM     44  C   UNL A   1      45.817  28.232  27.424  1.00  0.00     0.034 A 
ATOM     45  C   UNL A   1      40.871  31.404  30.311  1.00  0.00     0.049 A 
ATOM     46  C   UNL A   1      45.665  29.623  27.985  1.00  0.00     0.074 A 
ATOM     47  C   UNL A   1      40.879  32.686  30.834  1.00  0.00     0.029 A 
ATOM     48  N   UNL A   1      42.133  31.193  29.768  1.00  0.00    -0.354 N 
ATOM     49  N   UNL A   1      44.616  30.175  28.552  1.00  0.00    -0.248 NA
ATOM     50  C   UNL A   1      46.836  30.505  27.897  1.00  0.00     0.031 C 
ATOM     51  C   UNL A   1      42.125  33.267  30.562  1.00  0.00     0.029 A 
ATOM     52  C   UNL A   1      42.918  32.324  29.927  1.00  0.00     0.049 A 
ATOM     53  H   UNL A   1      42.427  30.359  29.334  1.00  0.00     0.167 HD
ATOM     54  C   UNL A   1      45.010  31.463  28.903  1.00  0.00     0.074 A 
ATOM     55  C   UNL A   1      46.395  31.599  28.500  1.00  0.00     0.031 C 
ATOM     56  C   UNL A   1      44.294  32.446  29.504  1.00  0.00     0.034 A 
BRANCH  43  57
ATOM     57  C   UNL A   1      38.463  30.828  30.890  1.00  0.00     0.023 A 
ATOM     58  C   UNL A   1      37.447  31.407  30.109  1.00  0.00     0.031 A 
ATOM     59  C   UNL A   1      38.214  30.644  32.261  1.00  0.00     0.131 A 
ATOM     60  C   UNL A   1      36.258  31.841  30.716  1.00  0.00     0.055 A 
ATOM     61  C   UNL A   1      37.001  31.011  32.846  1.00  0.00     0.041 A 
ATOM     62  F   UNL A   1      39.155  30.116  33.061  1.00  0.00    -0.206 F 
ATOM     63  C   UNL A   1      36.019  31.627  32.076  1.00  0.00     0.022 A 
BRANCH  60  64
ATOM     64  S   UNL A   1      35.083  32.810  29.730  1.00  0.00     0.124 S 
ATOM     65  O   UNL A   1      34.522  31.788  28.850  1.00  0.00    -0.237 OA
ATOM     66  O   UNL A   1      34.184  33.345  30.744  1.00  0.00    -0.237 OA
ATOM     67  O   UNL A   1      35.929  33.798  29.063  1.00  0.00    -0.744 OA
ENDBRANCH  60  64
ENDBRANCH  43  57
BRANCH  44  68
ATOM     68  C   UNL A   1      47.068  27.825  26.726  1.00  0.00     0.023 A 
ATOM     69  C   UNL A   1      47.205  27.962  25.337  1.00  0.00     0.031 A 
ATOM     70  C   UNL A   1      48.133  27.249  27.443  1.00  0.00     0.131 A 
ATOM     71  C   UNL A   1      48.365  27.493  24.700  1.00  0.00     0.055 A 
ATOM     72  C   UNL A   1      49.306  26.832  26.812  1.00  0.00     0.041 A 
ATOM     73  F   UNL A   1      48.052  27.096  28.774  1.00  0.00    -0.206 F 
ATOM     74  C   UNL A   1      49.421  26.941  25.431  1.00  0.00     0.022 A 
BRANCH  71  75
ATOM     75  S   UNL A   1      48.442  27.537  22.889  1.00  0.00     0.124 S 
ATOM     76  O   UNL A   1      49.689  28.259  22.661  1.00  0.00    -0.237 OA
ATOM     77  O   UNL A   1      48.452  26.117  22.553  1.00  0.00    -0.237 OA
ATOM     78  O   UNL A   1      47.226  28.256  22.514  1.00  0.00    -0.744 OA
ENDBRANCH  71  75
ENDBRANCH  44  68
BRANCH  56  79
ATOM     79  C   UNL A   1      45.020  33.735  29.797  1.00  0.00     0.023 A 
ATOM     80  C   UNL A   1      44.995  34.817  28.900  1.00  0.00     0.031 A 
ATOM     81  C   UNL A   1      45.764  33.872  30.982  1.00  0.00     0.131 A 
ATOM     82  C   UNL A   1      45.743  35.971  29.177  1.00  0.00     0.055 A 
ATOM     83  C   UNL A   1      46.465  35.042  31.276  1.00  0.00     0.041 A 
ATOM     84  F   UNL A   1      45.822  32.868  31.872  1.00  0.00    -0.206 F 
ATOM     85  C   UNL A   1      46.468  36.095  30.366  1.00  0.00     0.022 A 
BRANCH  82  86
ATOM     86  S   UNL A   1      45.824  37.281  27.924  1.00  0.00     0.124 S 
ATOM     87  O   UNL A   1      47.103  37.006  27.279  1.00  0.00    -0.237 OA
ATOM     88  O   UNL A   1      44.634  37.018  27.121  1.00  0.00    -0.237 OA
ATOM     89  O   UNL A   1      45.778  38.512  28.712  1.00  0.00    -0.744 OA
ENDBRANCH  82  86
ENDBRANCH  56  79
ENDBRANCH  30  31
ENDBRANCH  23  25
ENDBRANCH  22  23
ENDBRANCH  21  22
ENDBRANCH   1  21
TORSDOF 18
ENDMDL
MODEL 2
REMARK VINA RESULT:     -10.7      5.579     10.102
REMARK SMILES COCCS(=O)(=O)N1C[C@@H](C(=O)OCCOC(=O)c2ccc(-c3c4nc(c(-c5cc(S(=O)(=O)[O-])ccc5F)c5ccc([nH]5)c(-c5cc(S(=O)(=O)[O-])ccc5F)c5nc(c(-c6cc(S(=O)(=O)[O-])ccc6F)c6ccc3[nH]6)C=C5)C=C4)cc2)c2ccccc21
REMARK SMILES IDX 14 1 13 2 11 3 12 4 10 5 8 6 9 7 87 8 82 9 86 10 83 11 85 12
REMARK SMILES IDX 84 13 5 14 6 15 7 16 4 17 3 18 2 19 1 20 15 21 16 22 17 23
REMARK SMILES IDX 18 24 19 25 20 26 81 27 21 28 80 29 22 30 23 31 24 32 74 33
REMARK SMILES IDX 25 34 79 35 73 36 75 37 26 38 78 39 72 40 71 41 27 43 59 44
REMARK SMILES IDX 39 45 58 46 40 47 43 48 57 49 76 50 41 51 42 52 56 54 77 55
REMARK SMILES IDX 44 56 28 57 29 58 37 59 30 60 36 61 38 62 35 63 31 64 32 65
REMARK SMILES IDX 33 66 34 67 60 68 61 69 69 70 62 71 68 72 70 73 67 74 63 75
REMARK SMILES IDX 64 76 65 77 66 78 45 79 46 80 54 81 47 82 53 83 55 84 52 85
REMARK SMILES IDX 48 86 49 87 50 88 51 89
REMARK H PARENT 75 42 43 53
REMARK Flexibility Score: inf
ROOT
ATOM      1  C   UNL A   1      33.210  34.426  28.775  1.00  0.00     0.274 C 
ENDROOT
BRANCH   1   2
ATOM      2  O   UNL A   1      34.422  34.768  29.473  1.00  0.00    -0.462 OA
BRANCH   2   3
ATOM      3  C   UNL A   1      34.306  34.978  30.811  1.00  0.00     0.315 C 
ATOM      4  O   UNL A   1      33.615  35.854  31.319  1.00  0.00    -0.251 OA
BRANCH   3   5
ATOM      5  C   UNL A   1      35.208  34.094  31.632  1.00  0.00     0.152 C 
ATOM      6  N   UNL A   1      36.768  34.563  33.481  1.00  0.00    -0.269 N 
ATOM      7  C   UNL A   1      35.320  34.730  33.027  1.00  0.00     0.155 C 
ATOM      8  C   UNL A   1      37.491  34.268  32.276  1.00  0.00     0.056 A 
ATOM      9  C   UNL A   1      36.641  33.984  31.211  1.00  0.00    -0.008 A 
ATOM     10  C   UNL A   1      38.859  34.357  32.081  1.00  0.00     0.027 A 
ATOM     11  C   UNL A   1      37.154  33.627  29.970  1.00  0.00     0.007 A 
ATOM     12  C   UNL A   1      39.383  34.033  30.828  1.00  0.00     0.002 A 
ATOM     13  C   UNL A   1      38.536  33.648  29.784  1.00  0.00     0.000 A 
BRANCH   6  14
ATOM     14  S   UNL A   1      36.836  33.483  34.800  1.00  0.00     0.237 S 
ATOM     15  O   UNL A   1      36.940  32.136  34.274  1.00  0.00    -0.206 OA
ATOM     16  O   UNL A   1      35.690  33.820  35.626  1.00  0.00    -0.206 OA
BRANCH  14  17
ATOM     17  C   UNL A   1      38.295  33.864  35.767  1.00  0.00     0.188 C 
BRANCH  17  18
ATOM     18  C   UNL A   1      38.061  33.744  37.262  1.00  0.00     0.178 C 
BRANCH  18  19
ATOM     19  O   UNL A   1      37.709  32.417  37.642  1.00  0.00    -0.384 OA
ATOM     20  C   UNL A   1      37.403  32.298  39.031  1.00  0.00     0.194 C 
ENDBRANCH  18  19
ENDBRANCH  17  18
ENDBRANCH  14  17
ENDBRANCH   6  14
ENDBRANCH   3   5
ENDBRANCH   2   3
ENDBRANCH   1   2
BRANCH   1  21
ATOM     21  C   UNL A   1      33.482  33.456  27.628  1.00  0.00     0.275 C 
BRANCH  21  22
ATOM     22  O   UNL A   1      34.618  32.630  27.929  1.00  0.00    -0.458 OA
BRANCH  22  23
ATOM     23  C   UNL A   1      34.411  31.297  27.825  1.00  0.00     0.338 C 
ATOM     24  O   UNL A   1      33.421  30.728  27.404  1.00  0.00    -0.246 OA
BRANCH  23  25
ATOM     25  C   UNL A   1      35.614  30.587  28.273  1.00  0.00     0.060 A 
ATOM     26  C   UNL A   1      35.553  29.779  29.411  1.00  0.00     0.016 A 
ATOM     27  C   UNL A   1      36.827  30.812  27.621  1.00  0.00     0.016 A 
ATOM     28  C   UNL A   1      36.717  29.201  29.914  1.00  0.00     0.010 A 
ATOM     29  C   UNL A   1      37.987  30.208  28.110  1.00  0.00     0.010 A 
ATOM     30  C   UNL A   1      37.944  29.412  29.269  1.00  0.00    -0.014 A 
BRANCH  30  31
ATOM     31  C   UNL A   1      39.199  28.840  29.819  1.00  0.00     0.031 A 
ATOM     32  C   UNL A   1      39.826  29.458  31.037  1.00  0.00     0.074 A 
ATOM     33  C   UNL A   1      39.784  27.791  29.212  1.00  0.00     0.049 A 
ATOM     34  N   UNL A   1      40.995  29.227  31.576  1.00  0.00    -0.248 NA
ATOM     35  C   UNL A   1      39.031  30.481  31.732  1.00  0.00     0.031 C 
ATOM     36  C   UNL A   1      39.248  27.083  28.049  1.00  0.00     0.029 A 
ATOM     37  N   UNL A   1      40.967  27.149  29.479  1.00  0.00    -0.354 N 
ATOM     38  C   UNL A   1      41.086  30.086  32.666  1.00  0.00     0.074 A 
ATOM     39  C   UNL A   1      39.862  30.860  32.692  1.00  0.00     0.031 C 
ATOM     40  C   UNL A   1      40.109  26.117  27.691  1.00  0.00     0.029 A 
ATOM     41  C   UNL A   1      41.280  26.173  28.561  1.00  0.00     0.049 A 
ATOM     42  H   UNL A   1      41.538  27.367  30.251  1.00  0.00     0.167 HD
ATOM     43  C   UNL A   1      42.097  30.211  33.563  1.00  0.00     0.034 A 
ATOM     44  C   UNL A   1      42.402  25.442  28.409  1.00  0.00     0.034 A 
ATOM     45  C   UNL A   1      43.312  29.434  33.517  1.00  0.00     0.049 A 
ATOM     46  C   UNL A   1      43.542  25.647  29.374  1.00  0.00     0.074 A 
ATOM     47  C   UNL A   1      44.405  29.487  34.366  1.00  0.00     0.029 A 
ATOM     48  N   UNL A   1      43.599  28.463  32.565  1.00  0.00    -0.354 N 
ATOM     49  N   UNL A   1      43.631  26.486  30.381  1.00  0.00    -0.248 NA
ATOM     50  C   UNL A   1      44.730  24.805  29.184  1.00  0.00     0.031 C 
ATOM     51  C   UNL A   1      45.371  28.587  33.897  1.00  0.00     0.029 A 
ATOM     52  C   UNL A   1      44.855  27.925  32.794  1.00  0.00     0.049 A 
ATOM     53  H   UNL A   1      42.995  28.195  31.835  1.00  0.00     0.167 HD
ATOM     54  C   UNL A   1      44.880  26.258  30.953  1.00  0.00     0.074 A 
ATOM     55  C   UNL A   1      45.499  25.193  30.191  1.00  0.00     0.031 C 
ATOM     56  C   UNL A   1      45.463  26.873  32.013  1.00  0.00     0.034 A 
BRANCH  43  57
ATOM     57  C   UNL A   1      41.942  31.264  34.633  1.00  0.00     0.023 A 
ATOM     58  C   UNL A   1      42.204  32.622  34.378  1.00  0.00     0.031 A 
ATOM     59  C   UNL A   1      41.558  30.901  35.936  1.00  0.00     0.131 A 
ATOM     60  C   UNL A   1      42.142  33.555  35.425  1.00  0.00     0.055 A 
ATOM     61  C   UNL A   1      41.427  31.845  36.956  1.00  0.00     0.041 A 
ATOM     62  F   UNL A   1      41.317  29.616  36.244  1.00  0.00    -0.206 F 
ATOM     63  C   UNL A   1      41.734  33.179  36.707  1.00  0.00     0.022 A 
BRANCH  60  64
ATOM     64  S   UNL A   1      42.731  35.243  35.118  1.00  0.00     0.124 S 
ATOM     65  O   UNL A   1      42.271  35.473  33.751  1.00  0.00    -0.237 OA
ATOM     66  O   UNL A   1      42.055  36.008  36.157  1.00  0.00    -0.237 OA
ATOM     67  O   UNL A   1      44.181  35.132  35.269  1.00  0.00    -0.744 OA
ENDBRANCH  60  64
ENDBRANCH  43  57
BRANCH  44  68
ATOM     68  C   UNL A   1      42.534  24.500  27.263  1.00  0.00     0.023 A 
ATOM     69  C   UNL A   1      42.049  23.187  27.340  1.00  0.00     0.031 A 
ATOM     70  C   UNL A   1      43.189  24.896  26.082  1.00  0.00     0.131 A 
ATOM     71  C   UNL A   1      42.262  22.300  26.272  1.00  0.00     0.055 A 
ATOM     72  C   UNL A   1      43.353  24.027  25.003  1.00  0.00     0.041 A 
ATOM     73  F   UNL A   1      43.671  26.143  25.958  1.00  0.00    -0.206 F 
ATOM     74  C   UNL A   1      42.899  22.716  25.099  1.00  0.00     0.022 A 
BRANCH  71  75
ATOM     75  S   UNL A   1      41.767  20.567  26.469  1.00  0.00     0.124 S 
ATOM     76  O   UNL A   1      42.266  20.264  27.806  1.00  0.00    -0.237 OA
ATOM     77  O   UNL A   1      40.317  20.649  26.328  1.00  0.00    -0.237 OA
ATOM     78  O   UNL A   1      42.460  19.888  25.376  1.00  0.00    -0.744 OA
ENDBRANCH  71  75
ENDBRANCH  44  68
BRANCH  56  79
ATOM     79  C   UNL A   1      46.822  26.369  32.427  1.00  0.00     0.023 A 
ATOM     80  C   UNL A   1      46.971  25.253  33.270  1.00  0.00     0.031 A 
ATOM     81  C   UNL A   1      47.984  27.027  31.986  1.00  0.00     0.131 A 
ATOM     82  C   UNL A   1      48.251  24.861  33.689  1.00  0.00     0.055 A 
ATOM     83  C   UNL A   1      49.257  26.601  32.366  1.00  0.00     0.041 A 
ATOM     84  F   UNL A   1      47.897  28.098  31.181  1.00  0.00    -0.206 F 
ATOM     85  C   UNL A   1      49.395  25.520  33.232  1.00  0.00     0.022 A 
BRANCH  82  86
ATOM     86  S   UNL A   1      48.399  23.524  34.907  1.00  0.00     0.124 S 
ATOM     87  O   UNL A   1      48.755  24.255  36.119  1.00  0.00    -0.237 OA
ATOM     88  O   UNL A   1      47.065  22.933  34.885  1.00  0.00    -0.237 OA
ATOM     89  O   UNL A   1      49.459  22.678  34.360  1.00  0.00    -0.744 OA
ENDBRANCH  82  86
ENDBRANCH  56  79
ENDBRANCH  30  31
ENDBRANCH  23  25
ENDBRANCH  22  23
ENDBRANCH  21  22
ENDBRANCH   1  21
TORSDOF 18
ENDMDL
MODEL 3
REMARK VINA RESULT:     -10.7      5.346      9.759
REMARK SMILES COCCS(=O)(=O)N1C[C@@H](C(=O)OCCOC(=O)c2ccc(-c3c4nc(c(-c5cc(S(=O)(=O)[O-])ccc5F)c5ccc([nH]5)c(-c5cc(S(=O)(=O)[O-])ccc5F)c5nc(c(-c6cc(S(=O)(=O)[O-])ccc6F)c6ccc3[nH]6)C=C5)C=C4)cc2)c2ccccc21
REMARK SMILES IDX 14 1 13 2 11 3 12 4 10 5 8 6 9 7 87 8 82 9 86 10 83 11 85 12
REMARK SMILES IDX 84 13 5 14 6 15 7 16 4 17 3 18 2 19 1 20 15 21 16 22 17 23
REMARK SMILES IDX 18 24 19 25 20 26 81 27 21 28 80 29 22 30 23 31 24 32 74 33
REMARK SMILES IDX 25 34 79 35 73 36 75 37 26 38 78 39 72 40 71 41 27 43 59 44
REMARK SMILES IDX 39 45 58 46 40 47 43 48 57 49 76 50 41 51 42 52 56 54 77 55
REMARK SMILES IDX 44 56 28 57 29 58 37 59 30 60 36 61 38 62 35 63 31 64 32 65
REMARK SMILES IDX 33 66 34 67 60 68 61 69 69 70 62 71 68 72 70 73 67 74 63 75
REMARK SMILES IDX 64 76 65 77 66 78 45 79 46 80 54 81 47 82 53 83 55 84 52 85
REMARK SMILES IDX 48 86 49 87 50 88 51 89
REMARK H PARENT 75 42 43 53
REMARK Flexibility Score: inf
ROOT
ATOM      1  C   UNL A   1      33.307  34.089  28.645  1.00  0.00     0.274 C 
ENDROOT
BRANCH   1   2
ATOM      2  O   UNL A   1      34.425  34.692  29.321  1.00  0.00    -0.462 OA
BRANCH   2   3
ATOM      3  C   UNL A   1      34.366  34.713  30.679  1.00  0.00     0.315 C 
ATOM      4  O   UNL A   1      33.624  35.440  31.330  1.00  0.00    -0.251 OA
BRANCH   3   5
ATOM      5  C   UNL A   1      35.394  33.825  31.333  1.00  0.00     0.152 C 
ATOM      6  N   UNL A   1      37.031  34.217  33.132  1.00  0.00    -0.269 N 
ATOM      7  C   UNL A   1      35.547  34.302  32.786  1.00  0.00     0.155 C 
ATOM      8  C   UNL A   1      37.692  34.134  31.860  1.00  0.00     0.056 A 
ATOM      9  C   UNL A   1      36.799  33.898  30.819  1.00  0.00    -0.008 A 
ATOM     10  C   UNL A   1      39.031  34.370  31.599  1.00  0.00     0.027 A 
ATOM     11  C   UNL A   1      37.254  33.738  29.517  1.00  0.00     0.007 A 
ATOM     12  C   UNL A   1      39.494  34.244  30.287  1.00  0.00     0.002 A 
ATOM     13  C   UNL A   1      38.614  33.908  29.255  1.00  0.00     0.000 A 
BRANCH   6  14
ATOM     14  S   UNL A   1      37.280  33.001  34.303  1.00  0.00     0.237 S 
ATOM     15  O   UNL A   1      37.268  31.718  33.628  1.00  0.00    -0.206 OA
ATOM     16  O   UNL A   1      36.286  33.256  35.331  1.00  0.00    -0.206 OA
BRANCH  14  17
ATOM     17  C   UNL A   1      38.881  33.267  35.060  1.00  0.00     0.188 C 
BRANCH  17  18
ATOM     18  C   UNL A   1      38.932  34.526  35.908  1.00  0.00     0.178 C 
BRANCH  18  19
ATOM     19  O   UNL A   1      39.354  35.659  35.154  1.00  0.00    -0.384 OA
ATOM     20  C   UNL A   1      40.389  36.401  35.797  1.00  0.00     0.194 C 
ENDBRANCH  18  19
ENDBRANCH  17  18
ENDBRANCH  14  17
ENDBRANCH   6  14
ENDBRANCH   3   5
ENDBRANCH   2   3
ENDBRANCH   1   2
BRANCH   1  21
ATOM     21  C   UNL A   1      33.763  33.001  27.676  1.00  0.00     0.275 C 
BRANCH  21  22
ATOM     22  O   UNL A   1      34.746  32.157  28.296  1.00  0.00    -0.458 OA
BRANCH  22  23
ATOM     23  C   UNL A   1      34.685  30.849  27.958  1.00  0.00     0.338 C 
ATOM     24  O   UNL A   1      33.768  30.262  27.414  1.00  0.00    -0.246 OA
BRANCH  23  25
ATOM     25  C   UNL A   1      35.951  30.200  28.319  1.00  0.00     0.060 A 
ATOM     26  C   UNL A   1      36.067  29.553  29.552  1.00  0.00     0.016 A 
ATOM     27  C   UNL A   1      37.053  30.328  27.473  1.00  0.00     0.016 A 
ATOM     28  C   UNL A   1      37.300  29.042  29.953  1.00  0.00     0.010 A 
ATOM     29  C   UNL A   1      38.280  29.790  27.865  1.00  0.00     0.010 A 
ATOM     30  C   UNL A   1      38.417  29.158  29.114  1.00  0.00    -0.014 A 
BRANCH  30  31
ATOM     31  C   UNL A   1      39.747  28.660  29.548  1.00  0.00     0.031 A 
ATOM     32  C   UNL A   1      40.498  29.389  30.626  1.00  0.00     0.074 A 
ATOM     33  C   UNL A   1      40.285  27.576  28.959  1.00  0.00     0.049 A 
ATOM     34  N   UNL A   1      41.731  29.228  31.032  1.00  0.00    -0.248 NA
ATOM     35  C   UNL A   1      39.763  30.449  31.331  1.00  0.00     0.031 C 
ATOM     36  C   UNL A   1      39.633  26.764  27.931  1.00  0.00     0.029 A 
ATOM     37  N   UNL A   1      41.511  26.983  29.126  1.00  0.00    -0.354 N 
ATOM     38  C   UNL A   1      41.928  30.175  32.031  1.00  0.00     0.074 A 
ATOM     39  C   UNL A   1      40.693  30.923  32.147  1.00  0.00     0.031 C 
ATOM     40  C   UNL A   1      40.473  25.789  27.547  1.00  0.00     0.029 A 
ATOM     41  C   UNL A   1      41.739  25.942  28.257  1.00  0.00     0.049 A 
ATOM     42  H   UNL A   1      42.165  27.276  29.802  1.00  0.00     0.167 HD
ATOM     43  C   UNL A   1      43.036  30.394  32.783  1.00  0.00     0.034 A 
ATOM     44  C   UNL A   1      42.856  25.224  28.026  1.00  0.00     0.034 A 
ATOM     45  C   UNL A   1      44.260  29.641  32.649  1.00  0.00     0.049 A 
ATOM     46  C   UNL A   1      44.099  25.531  28.823  1.00  0.00     0.074 A 
ATOM     47  C   UNL A   1      45.446  29.787  33.348  1.00  0.00     0.029 A 
ATOM     48  N   UNL A   1      44.458  28.601  31.749  1.00  0.00    -0.354 N 
ATOM     49  N   UNL A   1      44.285  26.452  29.741  1.00  0.00    -0.248 NA
ATOM     50  C   UNL A   1      45.280  24.701  28.554  1.00  0.00     0.031 C 
ATOM     51  C   UNL A   1      46.375  28.872  32.836  1.00  0.00     0.029 A 
ATOM     52  C   UNL A   1      45.749  28.110  31.862  1.00  0.00     0.049 A 
ATOM     53  H   UNL A   1      43.778  28.262  31.122  1.00  0.00     0.167 HD
ATOM     54  C   UNL A   1      45.600  26.298  30.170  1.00  0.00     0.074 A 
ATOM     55  C   UNL A   1      46.153  25.186  29.424  1.00  0.00     0.031 C 
ATOM     56  C   UNL A   1      46.289  27.010  31.097  1.00  0.00     0.034 A 
BRANCH  43  57
ATOM     57  C   UNL A   1      42.981  31.528  33.777  1.00  0.00     0.023 A 
ATOM     58  C   UNL A   1      42.597  31.322  35.114  1.00  0.00     0.031 A 
ATOM     59  C   UNL A   1      43.288  32.840  33.375  1.00  0.00     0.131 A 
ATOM     60  C   UNL A   1      42.466  32.419  35.981  1.00  0.00     0.055 A 
ATOM     61  C   UNL A   1      43.225  33.916  34.261  1.00  0.00     0.041 A 
ATOM     62  F   UNL A   1      43.639  33.101  32.105  1.00  0.00    -0.206 F 
ATOM     63  C   UNL A   1      42.798  33.711  35.570  1.00  0.00     0.022 A 
BRANCH  60  64
ATOM     64  S   UNL A   1      41.725  32.148  37.615  1.00  0.00     0.124 S 
ATOM     65  O   UNL A   1      40.407  31.627  37.261  1.00  0.00    -0.237 OA
ATOM     66  O   UNL A   1      42.645  31.197  38.226  1.00  0.00    -0.237 OA
ATOM     67  O   UNL A   1      41.719  33.482  38.213  1.00  0.00    -0.744 OA
ENDBRANCH  60  64
ENDBRANCH  43  57
BRANCH  44  68
ATOM     68  C   UNL A   1      42.876  24.193  26.951  1.00  0.00     0.023 A 
ATOM     69  C   UNL A   1      42.252  22.949  27.122  1.00  0.00     0.031 A 
ATOM     70  C   UNL A   1      43.561  24.430  25.744  1.00  0.00     0.131 A 
ATOM     71  C   UNL A   1      42.359  21.970  26.121  1.00  0.00     0.055 A 
ATOM     72  C   UNL A   1      43.621  23.473  24.731  1.00  0.00     0.041 A 
ATOM     73  F   UNL A   1      44.173  25.605  25.530  1.00  0.00    -0.206 F 
ATOM     74  C   UNL A   1      43.029  22.229  24.922  1.00  0.00     0.022 A 
BRANCH  71  75
ATOM     75  S   UNL A   1      41.682  20.320  26.443  1.00  0.00     0.124 S 
ATOM     76  O   UNL A   1      40.248  20.556  26.319  1.00  0.00    -0.237 OA
ATOM     77  O   UNL A   1      42.296  19.530  25.380  1.00  0.00    -0.237 OA
ATOM     78  O   UNL A   1      42.151  20.016  27.793  1.00  0.00    -0.744 OA
ENDBRANCH  71  75
ENDBRANCH  44  68
BRANCH  56  79
ATOM     79  C   UNL A   1      47.703  26.569  31.378  1.00  0.00     0.023 A 
ATOM     80  C   UNL A   1      48.791  27.063  30.637  1.00  0.00     0.031 A 
ATOM     81  C   UNL A   1      47.961  25.628  32.390  1.00  0.00     0.131 A 
ATOM     82  C   UNL A   1      50.083  26.573  30.884  1.00  0.00     0.055 A 
ATOM     83  C   UNL A   1      49.254  25.182  32.664  1.00  0.00     0.041 A 
ATOM     84  F   UNL A   1      46.958  25.124  33.127  1.00  0.00    -0.206 F 
ATOM     85  C   UNL A   1      50.323  25.645  31.901  1.00  0.00     0.022 A 
BRANCH  82  86
ATOM     86  S   UNL A   1      51.439  27.104  29.801  1.00  0.00     0.124 S 
ATOM     87  O   UNL A   1      52.565  27.156  30.728  1.00  0.00    -0.237 OA
ATOM     88  O   UNL A   1      51.479  26.037  28.806  1.00  0.00    -0.237 OA
ATOM     89  O   UNL A   1      50.988  28.401  29.299  1.00  0.00    -0.744 OA
ENDBRANCH  82  86
ENDBRANCH  56  79
ENDBRANCH  30  31
ENDBRANCH  23  25
ENDBRANCH  22  23
ENDBRANCH  21  22
ENDBRANCH   1  21
TORSDOF 18
ENDMDL
