MODEL 1
REMARK VINA RESULT:     -11.9      0.000      0.000
REMARK SMILES C[C@@H](C(=O)OCCOC(=O)c1ccc(-c2c3nc(c(-c4cc(S(=O)(=O)[O-])ccc4F)c4ccc([nH]4)c(-c4cc(S(=O)(=O)[O-])ccc4F)c4nc(c(-c5cc(S(=O)(=O)[O-])ccc5F)c5ccc2[nH]5)C=C4)C=C3)cc1)c1ccc(C[C@H]2CCC[C@@H]2O)cc1
REMARK SMILES IDX 6 1 5 2 3 3 4 4 2 5 1 6 74 7 75 8 86 9 76 10 85 11 77 12
REMARK SMILES IDX 78 13 79 14 80 15 83 16 81 17 82 18 84 19 7 21 8 22 9 23
REMARK SMILES IDX 10 24 11 25 12 26 73 27 13 28 72 29 14 30 15 31 16 32 66 33
REMARK SMILES IDX 17 34 71 35 65 36 67 37 18 38 70 39 64 40 63 41 19 43 51 44
REMARK SMILES IDX 31 45 50 46 32 47 35 48 49 49 68 50 33 51 34 52 48 54 69 55
REMARK SMILES IDX 36 56 20 57 21 58 29 59 22 60 28 61 30 62 27 63 23 64 24 65
REMARK SMILES IDX 25 66 26 67 52 68 53 69 61 70 54 71 60 72 62 73 59 74 55 75
REMARK SMILES IDX 56 76 57 77 58 78 37 79 38 80 46 81 39 82 45 83 47 84 44 85
REMARK SMILES IDX 40 86 41 87 42 88 43 89
REMARK H PARENT 84 20 67 42 35 53
REMARK Flexibility Score: inf
ROOT
ATOM      1  C   UNL A   1      34.221  21.153  25.179  1.00  0.00     0.274 C 
ENDROOT
BRANCH   1   2
ATOM      2  O   UNL A   1      33.459  22.365  25.004  1.00  0.00    -0.462 OA
BRANCH   2   3
ATOM      3  C   UNL A   1      33.808  23.154  23.945  1.00  0.00     0.313 C 
ATOM      4  O   UNL A   1      34.104  22.725  22.835  1.00  0.00    -0.252 OA
BRANCH   3   5
ATOM      5  C   UNL A   1      33.707  24.650  24.293  1.00  0.00     0.126 C 
ATOM      6  C   UNL A   1      34.499  24.997  25.555  1.00  0.00     0.025 C 
BRANCH   5   7
ATOM      7  C   UNL A   1      32.255  25.081  24.386  1.00  0.00    -0.034 A 
ATOM      8  C   UNL A   1      31.342  24.584  23.461  1.00  0.00     0.005 A 
ATOM      9  C   UNL A   1      31.794  26.015  25.328  1.00  0.00     0.005 A 
ATOM     10  C   UNL A   1      30.067  25.121  23.388  1.00  0.00     0.004 A 
ATOM     11  C   UNL A   1      30.498  26.562  25.230  1.00  0.00     0.004 A 
ATOM     12  C   UNL A   1      29.649  26.170  24.198  1.00  0.00    -0.048 A 
BRANCH  12  13
ATOM     13  C   UNL A   1      28.306  26.792  23.904  1.00  0.00     0.041 C 
BRANCH  13  14
ATOM     14  C   UNL A   1      28.267  28.013  22.944  1.00  0.00     0.022 C 
ATOM     15  C   UNL A   1      27.273  29.095  23.398  1.00  0.00     0.007 C 
ATOM     16  C   UNL A   1      29.533  28.839  22.669  1.00  0.00     0.117 C 
ATOM     17  C   UNL A   1      27.748  30.415  22.779  1.00  0.00     0.003 C 
ATOM     18  C   UNL A   1      28.976  30.070  21.963  1.00  0.00     0.032 C 
BRANCH  16  19
ATOM     19  O   UNL A   1      30.462  28.219  21.809  1.00  0.00    -0.393 OA
ATOM     20  H   UNL A   1      30.029  27.999  20.970  1.00  0.00     0.210 HD
ENDBRANCH  16  19
ENDBRANCH  13  14
ENDBRANCH  12  13
ENDBRANCH   5   7
ENDBRANCH   3   5
ENDBRANCH   2   3
ENDBRANCH   1   2
BRANCH   1  21
ATOM     21  C   UNL A   1      35.463  21.473  26.020  1.00  0.00     0.275 C 
BRANCH  21  22
ATOM     22  O   UNL A   1      36.544  21.823  25.133  1.00  0.00    -0.458 OA
BRANCH  22  23
ATOM     23  C   UNL A   1      37.787  21.378  25.459  1.00  0.00     0.338 C 
ATOM     24  O   UNL A   1      38.211  20.250  25.277  1.00  0.00    -0.246 OA
BRANCH  23  25
ATOM     25  C   UNL A   1      38.577  22.488  26.078  1.00  0.00     0.060 A 
ATOM     26  C   UNL A   1      38.160  23.801  25.923  1.00  0.00     0.016 A 
ATOM     27  C   UNL A   1      39.777  22.252  26.764  1.00  0.00     0.016 A 
ATOM     28  C   UNL A   1      38.968  24.850  26.357  1.00  0.00     0.010 A 
ATOM     29  C   UNL A   1      40.543  23.327  27.282  1.00  0.00     0.010 A 
ATOM     30  C   UNL A   1      40.147  24.652  27.066  1.00  0.00    -0.014 A 
BRANCH  30  31
ATOM     31  C   UNL A   1      40.933  25.883  27.406  1.00  0.00     0.031 A 
ATOM     32  C   UNL A   1      40.442  26.795  28.490  1.00  0.00     0.074 A 
ATOM     33  C   UNL A   1      42.187  26.066  26.932  1.00  0.00     0.049 A 
ATOM     34  N   UNL A   1      40.902  27.965  28.845  1.00  0.00    -0.248 NA
ATOM     35  C   UNL A   1      39.280  26.342  29.267  1.00  0.00     0.031 C 
ATOM     36  C   UNL A   1      42.855  25.186  25.975  1.00  0.00     0.029 A 
ATOM     37  N   UNL A   1      43.163  26.983  27.252  1.00  0.00    -0.354 N 
ATOM     38  C   UNL A   1      40.004  28.452  29.786  1.00  0.00     0.074 A 
ATOM     39  C   UNL A   1      39.031  27.404  30.017  1.00  0.00     0.031 C 
ATOM     40  C   UNL A   1      44.159  25.499  25.919  1.00  0.00     0.029 A 
ATOM     41  C   UNL A   1      44.400  26.709  26.697  1.00  0.00     0.049 A 
ATOM     42  H   UNL A   1      42.997  27.765  27.827  1.00  0.00     0.167 HD
ATOM     43  C   UNL A   1      39.969  29.694  30.330  1.00  0.00     0.034 A 
ATOM     44  C   UNL A   1      45.572  27.382  26.771  1.00  0.00     0.034 A 
ATOM     45  C   UNL A   1      40.997  30.684  30.108  1.00  0.00     0.049 A 
ATOM     46  C   UNL A   1      45.542  28.747  27.427  1.00  0.00     0.074 A 
ATOM     47  C   UNL A   1      41.018  32.019  30.474  1.00  0.00     0.029 A 
ATOM     48  N   UNL A   1      42.210  30.431  29.479  1.00  0.00    -0.354 N 
ATOM     49  N   UNL A   1      44.564  29.324  28.088  1.00  0.00    -0.248 NA
ATOM     50  C   UNL A   1      46.738  29.586  27.269  1.00  0.00     0.031 C 
ATOM     51  C   UNL A   1      42.223  32.580  30.025  1.00  0.00     0.029 A 
ATOM     52  C   UNL A   1      42.983  31.581  29.441  1.00  0.00     0.049 A 
ATOM     53  H   UNL A   1      42.481  29.558  29.111  1.00  0.00     0.167 HD
ATOM     54  C   UNL A   1      45.003  30.616  28.360  1.00  0.00     0.074 A 
ATOM     55  C   UNL A   1      46.366  30.702  27.878  1.00  0.00     0.031 C 
ATOM     56  C   UNL A   1      44.325  31.656  28.912  1.00  0.00     0.034 A 
BRANCH  43  57
ATOM     57  C   UNL A   1      38.690  30.083  31.027  1.00  0.00     0.023 A 
ATOM     58  C   UNL A   1      37.643  30.762  30.386  1.00  0.00     0.031 A 
ATOM     59  C   UNL A   1      38.583  29.862  32.414  1.00  0.00     0.131 A 
ATOM     60  C   UNL A   1      36.576  31.269  31.148  1.00  0.00     0.055 A 
ATOM     61  C   UNL A   1      37.479  30.294  33.149  1.00  0.00     0.041 A 
ATOM     62  F   UNL A   1      39.570  29.250  33.087  1.00  0.00    -0.206 F 
ATOM     63  C   UNL A   1      36.475  31.019  32.520  1.00  0.00     0.022 A 
BRANCH  60  64
ATOM     64  S   UNL A   1      35.404  32.405  30.355  1.00  0.00     0.124 S 
ATOM     65  O   UNL A   1      35.046  31.662  29.150  1.00  0.00    -0.237 OA
ATOM     66  O   UNL A   1      34.358  32.533  31.362  1.00  0.00    -0.237 OA
ATOM     67  O   UNL A   1      36.199  33.610  30.123  1.00  0.00    -0.744 OA
ENDBRANCH  60  64
ENDBRANCH  43  57
BRANCH  44  68
ATOM     68  C   UNL A   1      46.828  26.889  26.110  1.00  0.00     0.023 A 
ATOM     69  C   UNL A   1      47.839  26.241  26.846  1.00  0.00     0.031 A 
ATOM     70  C   UNL A   1      47.086  27.132  24.747  1.00  0.00     0.131 A 
ATOM     71  C   UNL A   1      49.052  25.884  26.225  1.00  0.00     0.055 A 
ATOM     72  C   UNL A   1      48.255  26.698  24.116  1.00  0.00     0.041 A 
ATOM     73  F   UNL A   1      46.200  27.801  23.994  1.00  0.00    -0.206 F 
ATOM     74  C   UNL A   1      49.252  26.080  24.858  1.00  0.00     0.022 A 
BRANCH  71  75
ATOM     75  S   UNL A   1      50.423  25.266  27.247  1.00  0.00     0.124 S 
ATOM     76  O   UNL A   1      50.727  26.431  28.069  1.00  0.00    -0.237 OA
ATOM     77  O   UNL A   1      49.805  24.137  27.934  1.00  0.00    -0.237 OA
ATOM     78  O   UNL A   1      51.446  24.910  26.266  1.00  0.00    -0.744 OA
ENDBRANCH  71  75
ENDBRANCH  44  68
BRANCH  56  79
ATOM     79  C   UNL A   1      45.055  32.974  28.982  1.00  0.00     0.023 A 
ATOM     80  C   UNL A   1      45.217  33.780  27.839  1.00  0.00     0.031 A 
ATOM     81  C   UNL A   1      45.617  33.416  30.190  1.00  0.00     0.131 A 
ATOM     82  C   UNL A   1      45.973  34.958  27.916  1.00  0.00     0.055 A 
ATOM     83  C   UNL A   1      46.324  34.616  30.273  1.00  0.00     0.041 A 
ATOM     84  F   UNL A   1      45.493  32.684  31.309  1.00  0.00    -0.206 F 
ATOM     85  C   UNL A   1      46.517  35.388  29.130  1.00  0.00     0.022 A 
BRANCH  82  86
ATOM     86  S   UNL A   1      46.313  35.880  26.391  1.00  0.00     0.124 S 
ATOM     87  O   UNL A   1      45.730  37.184  26.687  1.00  0.00    -0.237 OA
ATOM     88  O   UNL A   1      47.770  35.835  26.316  1.00  0.00    -0.237 OA
ATOM     89  O   UNL A   1      45.617  35.110  25.362  1.00  0.00    -0.744 OA
ENDBRANCH  82  86
ENDBRANCH  56  79
ENDBRANCH  30  31
ENDBRANCH  23  25
ENDBRANCH  22  23
ENDBRANCH  21  22
ENDBRANCH   1  21
TORSDOF 18
ENDMDL
MODEL 2
REMARK VINA RESULT:     -11.8      4.698     10.155
REMARK SMILES C[C@@H](C(=O)OCCOC(=O)c1ccc(-c2c3nc(c(-c4cc(S(=O)(=O)[O-])ccc4F)c4ccc([nH]4)c(-c4cc(S(=O)(=O)[O-])ccc4F)c4nc(c(-c5cc(S(=O)(=O)[O-])ccc5F)c5ccc2[nH]5)C=C4)C=C3)cc1)c1ccc(C[C@H]2CCC[C@@H]2O)cc1
REMARK SMILES IDX 6 1 5 2 3 3 4 4 2 5 1 6 74 7 75 8 86 9 76 10 85 11 77 12
REMARK SMILES IDX 78 13 79 14 80 15 83 16 81 17 82 18 84 19 7 21 8 22 9 23
REMARK SMILES IDX 10 24 11 25 12 26 73 27 13 28 72 29 14 30 15 31 16 32 66 33
REMARK SMILES IDX 17 34 71 35 65 36 67 37 18 38 70 39 64 40 63 41 19 43 51 44
REMARK SMILES IDX 31 45 50 46 32 47 35 48 49 49 68 50 33 51 34 52 48 54 69 55
REMARK SMILES IDX 36 56 20 57 21 58 29 59 22 60 28 61 30 62 27 63 23 64 24 65
REMARK SMILES IDX 25 66 26 67 52 68 53 69 61 70 54 71 60 72 62 73 59 74 55 75
REMARK SMILES IDX 56 76 57 77 58 78 37 79 38 80 46 81 39 82 45 83 47 84 44 85
REMARK SMILES IDX 40 86 41 87 42 88 43 89
REMARK H PARENT 84 20 67 42 35 53
REMARK Flexibility Score: inf
ROOT
ATOM      1  C   UNL A   1      31.239  29.283  24.132  1.00  0.00     0.274 C 
ENDROOT
BRANCH   1   2
ATOM      2  O   UNL A   1      30.839  27.900  24.036  1.00  0.00    -0.462 OA
BRANCH   2   3
ATOM      3  C   UNL A   1      31.511  27.136  23.125  1.00  0.00     0.313 C 
ATOM      4  O   UNL A   1      30.968  26.471  22.250  1.00  0.00    -0.252 OA
BRANCH   3   5
ATOM      5  C   UNL A   1      33.036  27.274  23.283  1.00  0.00     0.126 C 
ATOM      6  C   UNL A   1      33.733  27.482  21.937  1.00  0.00     0.025 C 
BRANCH   5   7
ATOM      7  C   UNL A   1      33.603  26.094  24.050  1.00  0.00    -0.034 A 
ATOM      8  C   UNL A   1      34.094  25.000  23.344  1.00  0.00     0.005 A 
ATOM      9  C   UNL A   1      33.598  26.021  25.453  1.00  0.00     0.005 A 
ATOM     10  C   UNL A   1      34.416  23.831  24.012  1.00  0.00     0.004 A 
ATOM     11  C   UNL A   1      33.914  24.818  26.117  1.00  0.00     0.004 A 
ATOM     12  C   UNL A   1      34.250  23.683  25.384  1.00  0.00    -0.048 A 
BRANCH  12  13
ATOM     13  C   UNL A   1      34.459  22.309  25.972  1.00  0.00     0.041 C 
BRANCH  13  14
ATOM     14  C   UNL A   1      34.005  21.083  25.132  1.00  0.00     0.022 C 
ATOM     15  C   UNL A   1      35.160  20.116  24.820  1.00  0.00     0.007 C 
ATOM     16  C   UNL A   1      32.921  20.128  25.654  1.00  0.00     0.117 C 
ATOM     17  C   UNL A   1      34.525  18.745  24.558  1.00  0.00     0.003 C 
ATOM     18  C   UNL A   1      33.030  18.950  24.692  1.00  0.00     0.032 C 
BRANCH  16  19
ATOM     19  O   UNL A   1      31.609  20.636  25.583  1.00  0.00    -0.393 OA
ATOM     20  H   UNL A   1      31.394  20.851  24.662  1.00  0.00     0.210 HD
ENDBRANCH  16  19
ENDBRANCH  13  14
ENDBRANCH  12  13
ENDBRANCH   5   7
ENDBRANCH   3   5
ENDBRANCH   2   3
ENDBRANCH   1   2
BRANCH   1  21
ATOM     21  C   UNL A   1      31.391  29.646  25.614  1.00  0.00     0.275 C 
BRANCH  21  22
ATOM     22  O   UNL A   1      32.755  30.043  25.855  1.00  0.00    -0.458 OA
BRANCH  22  23
ATOM     23  C   UNL A   1      32.969  30.997  26.802  1.00  0.00     0.338 C 
ATOM     24  O   UNL A   1      32.192  31.883  27.110  1.00  0.00    -0.246 OA
BRANCH  23  25
ATOM     25  C   UNL A   1      34.314  30.798  27.426  1.00  0.00     0.060 A 
ATOM     26  C   UNL A   1      34.744  29.519  27.746  1.00  0.00     0.016 A 
ATOM     27  C   UNL A   1      35.142  31.878  27.765  1.00  0.00     0.016 A 
ATOM     28  C   UNL A   1      35.920  29.335  28.469  1.00  0.00     0.010 A 
ATOM     29  C   UNL A   1      36.382  31.667  28.419  1.00  0.00     0.010 A 
ATOM     30  C   UNL A   1      36.779  30.379  28.795  1.00  0.00    -0.014 A 
BRANCH  30  31
ATOM     31  C   UNL A   1      37.972  30.022  29.630  1.00  0.00     0.031 A 
ATOM     32  C   UNL A   1      39.186  29.439  28.971  1.00  0.00     0.074 A 
ATOM     33  C   UNL A   1      38.074  30.431  30.916  1.00  0.00     0.049 A 
ATOM     34  N   UNL A   1      40.262  28.949  29.526  1.00  0.00    -0.248 NA
ATOM     35  C   UNL A   1      39.188  29.390  27.503  1.00  0.00     0.031 C 
ATOM     36  C   UNL A   1      37.026  31.134  31.654  1.00  0.00     0.029 A 
ATOM     37  N   UNL A   1      39.126  30.410  31.804  1.00  0.00    -0.354 N 
ATOM     38  C   UNL A   1      41.006  28.404  28.487  1.00  0.00     0.074 A 
ATOM     39  C   UNL A   1      40.301  28.716  27.260  1.00  0.00     0.031 C 
ATOM     40  C   UNL A   1      37.537  31.619  32.797  1.00  0.00     0.029 A 
ATOM     41  C   UNL A   1      38.898  31.122  32.967  1.00  0.00     0.049 A 
ATOM     42  H   UNL A   1      39.968  29.931  31.627  1.00  0.00     0.167 HD
ATOM     43  C   UNL A   1      42.126  27.645  28.582  1.00  0.00     0.034 A 
ATOM     44  C   UNL A   1      39.678  31.309  34.058  1.00  0.00     0.034 A 
ATOM     45  C   UNL A   1      42.819  27.410  29.827  1.00  0.00     0.049 A 
ATOM     46  C   UNL A   1      40.955  30.500  34.137  1.00  0.00     0.074 A 
ATOM     47  C   UNL A   1      43.872  26.552  30.092  1.00  0.00     0.029 A 
ATOM     48  N   UNL A   1      42.539  28.068  31.019  1.00  0.00    -0.354 N 
ATOM     49  N   UNL A   1      41.513  29.744  33.218  1.00  0.00    -0.248 NA
ATOM     50  C   UNL A   1      41.660  30.495  35.427  1.00  0.00     0.031 C 
ATOM     51  C   UNL A   1      44.196  26.659  31.453  1.00  0.00     0.029 A 
ATOM     52  C   UNL A   1      43.393  27.634  32.021  1.00  0.00     0.049 A 
ATOM     53  H   UNL A   1      41.834  28.745  31.135  1.00  0.00     0.167 HD
ATOM     54  C   UNL A   1      42.590  29.122  33.842  1.00  0.00     0.074 A 
ATOM     55  C   UNL A   1      42.661  29.662  35.184  1.00  0.00     0.031 C 
ATOM     56  C   UNL A   1      43.415  28.153  33.369  1.00  0.00     0.034 A 
BRANCH  43  57
ATOM     57  C   UNL A   1      42.517  26.872  27.348  1.00  0.00     0.023 A 
ATOM     58  C   UNL A   1      42.164  25.530  27.140  1.00  0.00     0.031 A 
ATOM     59  C   UNL A   1      43.374  27.483  26.412  1.00  0.00     0.131 A 
ATOM     60  C   UNL A   1      42.734  24.822  26.068  1.00  0.00     0.055 A 
ATOM     61  C   UNL A   1      43.869  26.797  25.303  1.00  0.00     0.041 A 
ATOM     62  F   UNL A   1      43.774  28.753  26.579  1.00  0.00    -0.206 F 
ATOM     63  C   UNL A   1      43.564  25.451  25.136  1.00  0.00     0.022 A 
BRANCH  60  64
ATOM     64  S   UNL A   1      42.514  23.022  26.001  1.00  0.00     0.124 S 
ATOM     65  O   UNL A   1      43.066  22.709  24.685  1.00  0.00    -0.237 OA
ATOM     66  O   UNL A   1      43.293  22.565  27.146  1.00  0.00    -0.237 OA
ATOM     67  O   UNL A   1      41.068  22.847  26.120  1.00  0.00    -0.744 OA
ENDBRANCH  60  64
ENDBRANCH  43  57
BRANCH  44  68
ATOM     68  C   UNL A   1      39.248  32.158  35.221  1.00  0.00     0.023 A 
ATOM     69  C   UNL A   1      39.711  33.481  35.373  1.00  0.00     0.031 A 
ATOM     70  C   UNL A   1      38.438  31.642  36.250  1.00  0.00     0.131 A 
ATOM     71  C   UNL A   1      39.379  34.220  36.526  1.00  0.00     0.055 A 
ATOM     72  C   UNL A   1      38.042  32.409  37.348  1.00  0.00     0.041 A 
ATOM     73  F   UNL A   1      38.011  30.370  36.209  1.00  0.00    -0.206 F 
ATOM     74  C   UNL A   1      38.521  33.703  37.497  1.00  0.00     0.022 A 
BRANCH  71  75
ATOM     75  S   UNL A   1      40.178  35.828  36.806  1.00  0.00     0.124 S 
ATOM     76  O   UNL A   1      39.625  36.211  38.100  1.00  0.00    -0.237 OA
ATOM     77  O   UNL A   1      41.593  35.473  36.792  1.00  0.00    -0.237 OA
ATOM     78  O   UNL A   1      39.729  36.635  35.672  1.00  0.00    -0.744 OA
ENDBRANCH  71  75
ENDBRANCH  44  68
BRANCH  56  79
ATOM     79  C   UNL A   1      44.435  27.606  34.336  1.00  0.00     0.023 A 
ATOM     80  C   UNL A   1      44.225  26.386  35.006  1.00  0.00     0.031 A 
ATOM     81  C   UNL A   1      45.612  28.320  34.612  1.00  0.00     0.131 A 
ATOM     82  C   UNL A   1      45.150  25.944  35.963  1.00  0.00     0.055 A 
ATOM     83  C   UNL A   1      46.556  27.850  35.527  1.00  0.00     0.041 A 
ATOM     84  F   UNL A   1      45.861  29.490  34.001  1.00  0.00    -0.206 F 
ATOM     85  C   UNL A   1      46.321  26.663  36.218  1.00  0.00     0.022 A 
BRANCH  82  86
ATOM     86  S   UNL A   1      44.763  24.463  36.935  1.00  0.00     0.124 S 
ATOM     87  O   UNL A   1      46.091  23.922  37.207  1.00  0.00    -0.237 OA
ATOM     88  O   UNL A   1      44.054  25.019  38.084  1.00  0.00    -0.237 OA
ATOM     89  O   UNL A   1      43.942  23.663  36.029  1.00  0.00    -0.744 OA
ENDBRANCH  82  86
ENDBRANCH  56  79
ENDBRANCH  30  31
ENDBRANCH  23  25
ENDBRANCH  22  23
ENDBRANCH  21  22
ENDBRANCH   1  21
TORSDOF 18
ENDMDL
MODEL 3
REMARK VINA RESULT:     -11.8      4.455     10.924
REMARK SMILES C[C@@H](C(=O)OCCOC(=O)c1ccc(-c2c3nc(c(-c4cc(S(=O)(=O)[O-])ccc4F)c4ccc([nH]4)c(-c4cc(S(=O)(=O)[O-])ccc4F)c4nc(c(-c5cc(S(=O)(=O)[O-])ccc5F)c5ccc2[nH]5)C=C4)C=C3)cc1)c1ccc(C[C@H]2CCC[C@@H]2O)cc1
REMARK SMILES IDX 6 1 5 2 3 3 4 4 2 5 1 6 74 7 75 8 86 9 76 10 85 11 77 12
REMARK SMILES IDX 78 13 79 14 80 15 83 16 81 17 82 18 84 19 7 21 8 22 9 23
REMARK SMILES IDX 10 24 11 25 12 26 73 27 13 28 72 29 14 30 15 31 16 32 66 33
REMARK SMILES IDX 17 34 71 35 65 36 67 37 18 38 70 39 64 40 63 41 19 43 51 44
REMARK SMILES IDX 31 45 50 46 32 47 35 48 49 49 68 50 33 51 34 52 48 54 69 55
REMARK SMILES IDX 36 56 20 57 21 58 29 59 22 60 28 61 30 62 27 63 23 64 24 65
REMARK SMILES IDX 25 66 26 67 52 68 53 69 61 70 54 71 60 72 62 73 59 74 55 75
REMARK SMILES IDX 56 76 57 77 58 78 37 79 38 80 46 81 39 82 45 83 47 84 44 85
REMARK SMILES IDX 40 86 41 87 42 88 43 89
REMARK H PARENT 84 20 67 42 35 53
REMARK Flexibility Score: inf
ROOT
ATOM      1  C   UNL A   1      42.575  20.303  26.500  1.00  0.00     0.274 C 
ENDROOT
BRANCH   1   2
ATOM      2  O   UNL A   1      43.319  20.533  25.286  1.00  0.00    -0.462 OA
BRANCH   2   3
ATOM      3  C   UNL A   1      43.635  21.832  25.005  1.00  0.00     0.313 C 
ATOM      4  O   UNL A   1      42.812  22.696  24.727  1.00  0.00    -0.252 OA
BRANCH   3   5
ATOM      5  C   UNL A   1      45.145  22.094  25.155  1.00  0.00     0.126 C 
ATOM      6  C   UNL A   1      45.931  20.801  25.375  1.00  0.00     0.025 C 
BRANCH   5   7
ATOM      7  C   UNL A   1      45.403  23.119  26.245  1.00  0.00    -0.034 A 
ATOM      8  C   UNL A   1      46.437  24.035  26.081  1.00  0.00     0.005 A 
ATOM      9  C   UNL A   1      44.686  23.147  27.453  1.00  0.00     0.005 A 
ATOM     10  C   UNL A   1      46.831  24.834  27.142  1.00  0.00     0.004 A 
ATOM     11  C   UNL A   1      45.109  23.955  28.527  1.00  0.00     0.004 A 
ATOM     12  C   UNL A   1      46.245  24.750  28.399  1.00  0.00    -0.048 A 
BRANCH  12  13
ATOM     13  C   UNL A   1      46.878  25.536  29.522  1.00  0.00     0.041 C 
BRANCH  13  14
ATOM     14  C   UNL A   1      46.097  25.644  30.861  1.00  0.00     0.022 C 
ATOM     15  C   UNL A   1      47.024  25.701  32.087  1.00  0.00     0.007 C 
ATOM     16  C   UNL A   1      45.146  26.821  31.125  1.00  0.00     0.117 C 
ATOM     17  C   UNL A   1      46.232  26.393  33.204  1.00  0.00     0.003 C 
ATOM     18  C   UNL A   1      44.867  26.691  32.618  1.00  0.00     0.032 C 
BRANCH  16  19
ATOM     19  O   UNL A   1      43.917  26.746  30.438  1.00  0.00    -0.393 OA
ATOM     20  H   UNL A   1      43.204  27.056  31.017  1.00  0.00     0.210 HD
ENDBRANCH  16  19
ENDBRANCH  13  14
ENDBRANCH  12  13
ENDBRANCH   5   7
ENDBRANCH   3   5
ENDBRANCH   2   3
ENDBRANCH   1   2
BRANCH   1  21
ATOM     21  C   UNL A   1      41.135  19.929  26.128  1.00  0.00     0.275 C 
BRANCH  21  22
ATOM     22  O   UNL A   1      40.233  20.643  26.997  1.00  0.00    -0.458 OA
BRANCH  22  23
ATOM     23  C   UNL A   1      39.484  21.632  26.440  1.00  0.00     0.338 C 
ATOM     24  O   UNL A   1      38.628  21.484  25.586  1.00  0.00    -0.246 OA
BRANCH  23  25
ATOM     25  C   UNL A   1      39.861  22.950  27.039  1.00  0.00     0.060 A 
ATOM     26  C   UNL A   1      39.239  24.111  26.602  1.00  0.00     0.016 A 
ATOM     27  C   UNL A   1      40.883  23.067  27.993  1.00  0.00     0.016 A 
ATOM     28  C   UNL A   1      39.692  25.355  27.036  1.00  0.00     0.010 A 
ATOM     29  C   UNL A   1      41.269  24.335  28.494  1.00  0.00     0.010 A 
ATOM     30  C   UNL A   1      40.680  25.506  28.002  1.00  0.00    -0.014 A 
BRANCH  30  31
ATOM     31  C   UNL A   1      41.096  26.912  28.313  1.00  0.00     0.031 A 
ATOM     32  C   UNL A   1      42.378  27.444  27.746  1.00  0.00     0.074 A 
ATOM     33  C   UNL A   1      40.238  27.786  28.888  1.00  0.00     0.049 A 
ATOM     34  N   UNL A   1      42.975  28.579  27.997  1.00  0.00    -0.248 NA
ATOM     35  C   UNL A   1      43.086  26.589  26.783  1.00  0.00     0.031 C 
ATOM     36  C   UNL A   1      38.899  27.447  29.368  1.00  0.00     0.029 A 
ATOM     37  N   UNL A   1      40.308  29.147  29.082  1.00  0.00    -0.354 N 
ATOM     38  C   UNL A   1      44.195  28.515  27.337  1.00  0.00     0.074 A 
ATOM     39  C   UNL A   1      44.205  27.271  26.595  1.00  0.00     0.031 C 
ATOM     40  C   UNL A   1      38.225  28.577  29.636  1.00  0.00     0.029 A 
ATOM     41  C   UNL A   1      39.126  29.718  29.518  1.00  0.00     0.049 A 
ATOM     42  H   UNL A   1      41.127  29.669  28.925  1.00  0.00     0.167 HD
ATOM     43  C   UNL A   1      45.230  29.388  27.426  1.00  0.00     0.034 A 
ATOM     44  C   UNL A   1      38.825  31.000  29.829  1.00  0.00     0.034 A 
ATOM     45  C   UNL A   1      45.147  30.642  28.137  1.00  0.00     0.049 A 
ATOM     46  C   UNL A   1      39.973  31.985  29.876  1.00  0.00     0.074 A 
ATOM     47  C   UNL A   1      46.152  31.548  28.429  1.00  0.00     0.029 A 
ATOM     48  N   UNL A   1      43.972  31.181  28.646  1.00  0.00    -0.354 N 
ATOM     49  N   UNL A   1      41.221  31.817  29.501  1.00  0.00    -0.248 NA
ATOM     50  C   UNL A   1      39.697  33.301  30.470  1.00  0.00     0.031 C 
ATOM     51  C   UNL A   1      45.590  32.610  29.154  1.00  0.00     0.029 A 
ATOM     52  C   UNL A   1      44.224  32.402  29.253  1.00  0.00     0.049 A 
ATOM     53  H   UNL A   1      43.085  30.756  28.585  1.00  0.00     0.167 HD
ATOM     54  C   UNL A   1      41.889  32.978  29.881  1.00  0.00     0.074 A 
ATOM     55  C   UNL A   1      40.890  33.874  30.424  1.00  0.00     0.031 C 
ATOM     56  C   UNL A   1      43.217  33.260  29.833  1.00  0.00     0.034 A 
BRANCH  43  57
ATOM     57  C   UNL A   1      46.562  28.901  26.916  1.00  0.00     0.023 A 
ATOM     58  C   UNL A   1      46.824  28.667  25.557  1.00  0.00     0.031 A 
ATOM     59  C   UNL A   1      47.556  28.552  27.850  1.00  0.00     0.131 A 
ATOM     60  C   UNL A   1      48.016  28.024  25.182  1.00  0.00     0.055 A 
ATOM     61  C   UNL A   1      48.772  27.990  27.462  1.00  0.00     0.041 A 
ATOM     62  F   UNL A   1      47.347  28.719  29.165  1.00  0.00    -0.206 F 
ATOM     63  C   UNL A   1      49.001  27.705  26.121  1.00  0.00     0.022 A 
BRANCH  60  64
ATOM     64  S   UNL A   1      48.193  27.451  23.469  1.00  0.00     0.124 S 
ATOM     65  O   UNL A   1      49.566  27.847  23.168  1.00  0.00    -0.237 OA
ATOM     66  O   UNL A   1      47.952  26.018  23.588  1.00  0.00    -0.237 OA
ATOM     67  O   UNL A   1      47.164  28.200  22.749  1.00  0.00    -0.744 OA
ENDBRANCH  60  64
ENDBRANCH  43  57
BRANCH  44  68
ATOM     68  C   UNL A   1      37.448  31.423  30.259  1.00  0.00     0.023 A 
ATOM     69  C   UNL A   1      36.504  31.903  29.328  1.00  0.00     0.031 A 
ATOM     70  C   UNL A   1      37.074  31.442  31.616  1.00  0.00     0.131 A 
ATOM     71  C   UNL A   1      35.259  32.393  29.769  1.00  0.00     0.055 A 
ATOM     72  C   UNL A   1      35.806  31.849  32.039  1.00  0.00     0.041 A 
ATOM     73  F   UNL A   1      37.941  31.062  32.567  1.00  0.00    -0.206 F 
ATOM     74  C   UNL A   1      34.893  32.338  31.115  1.00  0.00     0.022 A 
BRANCH  71  75
ATOM     75  S   UNL A   1      34.161  33.219  28.580  1.00  0.00     0.124 S 
ATOM     76  O   UNL A   1      33.374  34.081  29.453  1.00  0.00    -0.237 OA
ATOM     77  O   UNL A   1      35.113  33.890  27.701  1.00  0.00    -0.237 OA
ATOM     78  O   UNL A   1      33.426  32.113  27.968  1.00  0.00    -0.744 OA
ENDBRANCH  71  75
ENDBRANCH  44  68
BRANCH  56  79
ATOM     79  C   UNL A   1      43.646  34.581  30.420  1.00  0.00     0.023 A 
ATOM     80  C   UNL A   1      43.679  35.751  29.638  1.00  0.00     0.031 A 
ATOM     81  C   UNL A   1      44.052  34.668  31.762  1.00  0.00     0.131 A 
ATOM     82  C   UNL A   1      44.163  36.947  30.188  1.00  0.00     0.055 A 
ATOM     83  C   UNL A   1      44.483  35.873  32.319  1.00  0.00     0.041 A 
ATOM     84  F   UNL A   1      44.041  33.582  32.550  1.00  0.00    -0.206 F 
ATOM     85  C   UNL A   1      44.553  37.018  31.528  1.00  0.00     0.022 A 
BRANCH  82  86
ATOM     86  S   UNL A   1      44.360  38.390  29.107  1.00  0.00     0.124 S 
ATOM     87  O   UNL A   1      44.262  37.792  27.780  1.00  0.00    -0.237 OA
ATOM     88  O   UNL A   1      43.241  39.238  29.509  1.00  0.00    -0.237 OA
ATOM     89  O   UNL A   1      45.682  38.904  29.458  1.00  0.00    -0.744 OA
ENDBRANCH  82  86
ENDBRANCH  56  79
ENDBRANCH  30  31
ENDBRANCH  23  25
ENDBRANCH  22  23
ENDBRANCH  21  22
ENDBRANCH   1  21
TORSDOF 18
ENDMDL
