MODEL 1
REMARK VINA RESULT:     -10.7      0.000      0.000
REMARK SMILES O=C(OCCOC(=O)c1cc(-c2ccn(C(F)F)c(=O)c2)ccc1O)c1ccc(-c2c3nc(c(-c4cc(S(=O)(=O)[O-])ccc4F)c4ccc([nH]4)c(-c4cc(S(=O)(=O)[O-])ccc4F)c4nc(c(-c5cc(S(=O)(=O)[O-])ccc5F)c5ccc2[nH]5)C=C4)C=C3)cc1
REMARK SMILES IDX 4 1 3 2 2 3 1 4 26 5 27 6 88 7 28 8 87 9 29 10 30 11 31 12
REMARK SMILES IDX 81 13 32 14 86 15 80 16 82 17 33 18 85 19 79 20 78 21 34 23
REMARK SMILES IDX 66 24 46 25 65 26 47 27 50 28 64 29 83 30 48 31 49 32 63 34
REMARK SMILES IDX 84 35 51 36 35 37 36 38 44 39 37 40 43 41 45 42 42 43 38 44
REMARK SMILES IDX 39 45 40 46 41 47 67 48 68 49 76 50 69 51 75 52 77 53 74 54
REMARK SMILES IDX 70 55 71 56 72 57 73 58 52 59 53 60 61 61 54 62 60 63 62 64
REMARK SMILES IDX 59 65 55 66 56 67 57 68 58 69 5 70 6 71 7 72 8 73 9 74 10 75
REMARK SMILES IDX 24 76 11 77 23 78 22 79 25 80 12 82 13 83 21 84 14 85 19 86
REMARK SMILES IDX 15 87 20 88 16 89 17 90 18 91
REMARK H PARENT 82 22 50 33 25 81
REMARK Flexibility Score: inf
ROOT
ATOM      1  C   UNL A   1      40.712  19.548  26.494  1.00  0.00     0.275 C 
ENDROOT
BRANCH   1   2
ATOM      2  O   UNL A   1      40.802  20.961  26.733  1.00  0.00    -0.458 OA
BRANCH   2   3
ATOM      3  C   UNL A   1      39.851  21.916  26.620  1.00  0.00     0.338 C 
ATOM      4  O   UNL A   1      38.751  21.586  26.177  1.00  0.00    -0.246 OA
BRANCH   3   5
ATOM      5  C   UNL A   1      40.095  23.376  26.864  1.00  0.00     0.060 A 
ATOM      6  C   UNL A   1      40.920  23.667  27.958  1.00  0.00     0.016 A 
ATOM      7  C   UNL A   1      39.600  24.458  26.132  1.00  0.00     0.016 A 
ATOM      8  C   UNL A   1      41.132  24.981  28.384  1.00  0.00     0.010 A 
ATOM      9  C   UNL A   1      39.837  25.784  26.534  1.00  0.00     0.010 A 
ATOM     10  C   UNL A   1      40.588  26.059  27.677  1.00  0.00    -0.014 A 
BRANCH  10  11
ATOM     11  C   UNL A   1      41.014  27.439  28.019  1.00  0.00     0.031 A 
ATOM     12  C   UNL A   1      40.072  28.488  28.520  1.00  0.00     0.074 A 
ATOM     13  C   UNL A   1      42.321  27.721  27.870  1.00  0.00     0.049 A 
ATOM     14  N   UNL A   1      40.350  29.629  29.097  1.00  0.00    -0.248 NA
ATOM     15  C   UNL A   1      38.632  28.233  28.375  1.00  0.00     0.031 C 
ATOM     16  C   UNL A   1      43.309  26.782  27.337  1.00  0.00     0.029 A 
ATOM     17  N   UNL A   1      43.043  28.849  28.148  1.00  0.00    -0.354 N 
ATOM     18  C   UNL A   1      39.131  30.192  29.453  1.00  0.00     0.074 A 
ATOM     19  C   UNL A   1      38.101  29.291  28.978  1.00  0.00     0.031 C 
ATOM     20  C   UNL A   1      44.514  27.359  27.355  1.00  0.00     0.029 A 
ATOM     21  C   UNL A   1      44.377  28.727  27.838  1.00  0.00     0.049 A 
ATOM     22  H   UNL A   1      42.648  29.666  28.529  1.00  0.00     0.167 HD
ATOM     23  C   UNL A   1      38.902  31.355  30.109  1.00  0.00     0.034 A 
ATOM     24  C   UNL A   1      45.381  29.621  27.916  1.00  0.00     0.034 A 
ATOM     25  C   UNL A   1      39.941  32.315  30.398  1.00  0.00     0.049 A 
ATOM     26  C   UNL A   1      45.088  30.962  28.521  1.00  0.00     0.074 A 
ATOM     27  C   UNL A   1      39.828  33.539  31.034  1.00  0.00     0.029 A 
ATOM     28  N   UNL A   1      41.270  32.194  30.007  1.00  0.00    -0.354 N 
ATOM     29  N   UNL A   1      43.957  31.407  29.017  1.00  0.00    -0.248 NA
ATOM     30  C   UNL A   1      46.198  31.916  28.595  1.00  0.00     0.031 C 
ATOM     31  C   UNL A   1      41.054  34.201  30.922  1.00  0.00     0.029 A 
ATOM     32  C   UNL A   1      41.966  33.354  30.310  1.00  0.00     0.049 A 
ATOM     33  H   UNL A   1      41.660  31.399  29.576  1.00  0.00     0.167 HD
ATOM     34  C   UNL A   1      44.213  32.699  29.458  1.00  0.00     0.074 A 
ATOM     35  C   UNL A   1      45.622  32.944  29.207  1.00  0.00     0.031 C 
ATOM     36  C   UNL A   1      43.361  33.600  30.011  1.00  0.00     0.034 A 
BRANCH  23  37
ATOM     37  C   UNL A   1      37.491  31.679  30.546  1.00  0.00     0.023 A 
ATOM     38  C   UNL A   1      36.626  32.413  29.712  1.00  0.00     0.031 A 
ATOM     39  C   UNL A   1      37.051  31.373  31.849  1.00  0.00     0.131 A 
ATOM     40  C   UNL A   1      35.384  32.843  30.199  1.00  0.00     0.055 A 
ATOM     41  C   UNL A   1      35.802  31.785  32.320  1.00  0.00     0.041 A 
ATOM     42  F   UNL A   1      37.832  30.668  32.684  1.00  0.00    -0.206 F 
ATOM     43  C   UNL A   1      34.967  32.533  31.498  1.00  0.00     0.022 A 
BRANCH  40  44
ATOM     44  S   UNL A   1      34.275  33.861  29.186  1.00  0.00     0.124 S 
ATOM     45  O   UNL A   1      35.214  34.790  28.559  1.00  0.00    -0.237 OA
ATOM     46  O   UNL A   1      33.686  32.870  28.290  1.00  0.00    -0.237 OA
ATOM     47  O   UNL A   1      33.366  34.459  30.157  1.00  0.00    -0.744 OA
ENDBRANCH  40  44
ENDBRANCH  23  37
BRANCH  24  48
ATOM     48  C   UNL A   1      46.727  29.195  27.440  1.00  0.00     0.023 A 
ATOM     49  C   UNL A   1      46.917  28.844  26.087  1.00  0.00     0.031 A 
ATOM     50  C   UNL A   1      47.757  28.911  28.348  1.00  0.00     0.131 A 
ATOM     51  C   UNL A   1      48.047  28.112  25.709  1.00  0.00     0.055 A 
ATOM     52  C   UNL A   1      48.925  28.257  27.948  1.00  0.00     0.041 A 
ATOM     53  F   UNL A   1      47.618  29.218  29.646  1.00  0.00    -0.206 F 
ATOM     54  C   UNL A   1      49.060  27.826  26.630  1.00  0.00     0.022 A 
BRANCH  51  55
ATOM     55  S   UNL A   1      48.133  27.326  24.073  1.00  0.00     0.124 S 
ATOM     56  O   UNL A   1      46.881  27.760  23.461  1.00  0.00    -0.237 OA
ATOM     57  O   UNL A   1      49.346  27.920  23.517  1.00  0.00    -0.237 OA
ATOM     58  O   UNL A   1      48.226  25.902  24.378  1.00  0.00    -0.744 OA
ENDBRANCH  51  55
ENDBRANCH  24  48
BRANCH  36  59
ATOM     59  C   UNL A   1      43.902  34.972  30.336  1.00  0.00     0.023 A 
ATOM     60  C   UNL A   1      43.981  35.958  29.336  1.00  0.00     0.031 A 
ATOM     61  C   UNL A   1      44.459  35.256  31.596  1.00  0.00     0.131 A 
ATOM     62  C   UNL A   1      44.643  37.163  29.599  1.00  0.00     0.055 A 
ATOM     63  C   UNL A   1      45.063  36.482  31.871  1.00  0.00     0.041 A 
ATOM     64  F   UNL A   1      44.419  34.343  32.580  1.00  0.00    -0.206 F 
ATOM     65  C   UNL A   1      45.172  37.437  30.864  1.00  0.00     0.022 A 
BRANCH  62  66
ATOM     66  S   UNL A   1      44.930  38.375  28.281  1.00  0.00     0.124 S 
ATOM     67  O   UNL A   1      46.386  38.358  28.166  1.00  0.00    -0.237 OA
ATOM     68  O   UNL A   1      44.207  37.784  27.158  1.00  0.00    -0.237 OA
ATOM     69  O   UNL A   1      44.362  39.612  28.809  1.00  0.00    -0.744 OA
ENDBRANCH  62  66
ENDBRANCH  36  59
ENDBRANCH  10  11
ENDBRANCH   3   5
ENDBRANCH   2   3
ENDBRANCH   1   2
BRANCH   1  70
ATOM     70  C   UNL A   1      42.055  18.844  26.309  1.00  0.00     0.275 C 
BRANCH  70  71
ATOM     71  O   UNL A   1      42.772  19.285  25.150  1.00  0.00    -0.458 OA
BRANCH  71  72
ATOM     72  C   UNL A   1      44.126  19.334  25.250  1.00  0.00     0.342 C 
ATOM     73  O   UNL A   1      44.885  18.381  25.343  1.00  0.00    -0.246 OA
BRANCH  72  74
ATOM     74  C   UNL A   1      44.581  20.735  25.102  1.00  0.00     0.102 A 
ATOM     75  C   UNL A   1      44.766  21.515  26.262  1.00  0.00     0.028 A 
ATOM     76  C   UNL A   1      44.856  21.279  23.843  1.00  0.00     0.130 A 
ATOM     77  C   UNL A   1      45.294  22.813  26.163  1.00  0.00    -0.017 A 
ATOM     78  C   UNL A   1      45.345  22.577  23.736  1.00  0.00     0.048 A 
ATOM     79  C   UNL A   1      45.588  23.327  24.889  1.00  0.00     0.012 A 
BRANCH  76  80
ATOM     80  O   UNL A   1      44.640  20.548  22.707  1.00  0.00    -0.507 OA
ATOM     81  H   UNL A   1      45.355  20.113  22.287  1.00  0.00     0.293 HD
ENDBRANCH  76  80
BRANCH  77  82
ATOM     82  C   UNL A   1      45.544  23.679  27.338  1.00  0.00    -0.011 A 
ATOM     83  C   UNL A   1      46.753  24.477  27.443  1.00  0.00     0.027 A 
ATOM     84  C   UNL A   1      44.701  23.667  28.388  1.00  0.00     0.080 A 
ATOM     85  C   UNL A   1      47.039  25.149  28.564  1.00  0.00     0.095 A 
ATOM     86  C   UNL A   1      44.990  24.429  29.635  1.00  0.00     0.255 A 
ATOM     87  N   UNL A   1      46.184  25.128  29.649  1.00  0.00    -0.258 N 
ATOM     88  O   UNL A   1      44.178  24.392  30.554  1.00  0.00    -0.269 OA
BRANCH  87  89
ATOM     89  C   UNL A   1      46.516  25.830  30.861  1.00  0.00     0.451 C 
ATOM     90  F   UNL A   1      47.858  25.879  31.051  1.00  0.00    -0.185 F 
ATOM     91  F   UNL A   1      46.049  27.102  30.841  1.00  0.00    -0.185 F 
ENDBRANCH  87  89
ENDBRANCH  77  82
ENDBRANCH  72  74
ENDBRANCH  71  72
ENDBRANCH  70  71
ENDBRANCH   1  70
TORSDOF 17
ENDMDL
MODEL 2
REMARK VINA RESULT:     -10.4      4.042     11.820
REMARK SMILES O=C(OCCOC(=O)c1cc(-c2ccn(C(F)F)c(=O)c2)ccc1O)c1ccc(-c2c3nc(c(-c4cc(S(=O)(=O)[O-])ccc4F)c4ccc([nH]4)c(-c4cc(S(=O)(=O)[O-])ccc4F)c4nc(c(-c5cc(S(=O)(=O)[O-])ccc5F)c5ccc2[nH]5)C=C4)C=C3)cc1
REMARK SMILES IDX 4 1 3 2 2 3 1 4 26 5 27 6 88 7 28 8 87 9 29 10 30 11 31 12
REMARK SMILES IDX 81 13 32 14 86 15 80 16 82 17 33 18 85 19 79 20 78 21 34 23
REMARK SMILES IDX 66 24 46 25 65 26 47 27 50 28 64 29 83 30 48 31 49 32 63 34
REMARK SMILES IDX 84 35 51 36 35 37 36 38 44 39 37 40 43 41 45 42 42 43 38 44
REMARK SMILES IDX 39 45 40 46 41 47 67 48 68 49 76 50 69 51 75 52 77 53 74 54
REMARK SMILES IDX 70 55 71 56 72 57 73 58 52 59 53 60 61 61 54 62 60 63 62 64
REMARK SMILES IDX 59 65 55 66 56 67 57 68 58 69 5 70 6 71 7 72 8 73 9 74 10 75
REMARK SMILES IDX 24 76 11 77 23 78 22 79 25 80 12 82 13 83 21 84 14 85 19 86
REMARK SMILES IDX 15 87 20 88 16 89 17 90 18 91
REMARK H PARENT 82 22 50 33 25 81
REMARK Flexibility Score: inf
ROOT
ATOM      1  C   UNL A   1      33.483  34.382  28.090  1.00  0.00     0.275 C 
ENDROOT
BRANCH   1   2
ATOM      2  O   UNL A   1      34.477  33.422  27.703  1.00  0.00    -0.458 OA
BRANCH   2   3
ATOM      3  C   UNL A   1      34.448  32.072  27.784  1.00  0.00     0.338 C 
ATOM      4  O   UNL A   1      33.414  31.495  27.448  1.00  0.00    -0.246 OA
BRANCH   3   5
ATOM      5  C   UNL A   1      35.542  31.244  28.393  1.00  0.00     0.060 A 
ATOM      6  C   UNL A   1      36.838  31.745  28.212  1.00  0.00     0.016 A 
ATOM      7  C   UNL A   1      35.412  30.051  29.107  1.00  0.00     0.016 A 
ATOM      8  C   UNL A   1      37.963  31.019  28.611  1.00  0.00     0.010 A 
ATOM      9  C   UNL A   1      36.538  29.331  29.541  1.00  0.00     0.010 A 
ATOM     10  C   UNL A   1      37.827  29.797  29.278  1.00  0.00    -0.014 A 
BRANCH  10  11
ATOM     11  C   UNL A   1      39.025  29.165  29.884  1.00  0.00     0.031 A 
ATOM     12  C   UNL A   1      39.724  27.985  29.283  1.00  0.00     0.074 A 
ATOM     13  C   UNL A   1      39.486  29.713  31.023  1.00  0.00     0.049 A 
ATOM     14  N   UNL A   1      40.911  27.511  29.558  1.00  0.00    -0.248 NA
ATOM     15  C   UNL A   1      39.018  27.244  28.229  1.00  0.00     0.031 C 
ATOM     16  C   UNL A   1      38.842  30.831  31.716  1.00  0.00     0.029 A 
ATOM     17  N   UNL A   1      40.580  29.424  31.792  1.00  0.00    -0.354 N 
ATOM     18  C   UNL A   1      41.129  26.469  28.665  1.00  0.00     0.074 A 
ATOM     19  C   UNL A   1      39.925  26.341  27.870  1.00  0.00     0.031 C 
ATOM     20  C   UNL A   1      39.569  31.155  32.789  1.00  0.00     0.029 A 
ATOM     21  C   UNL A   1      40.691  30.231  32.899  1.00  0.00     0.049 A 
ATOM     22  H   UNL A   1      41.222  28.711  31.575  1.00  0.00     0.167 HD
ATOM     23  C   UNL A   1      42.232  25.692  28.533  1.00  0.00     0.034 A 
ATOM     24  C   UNL A   1      41.586  30.222  33.905  1.00  0.00     0.034 A 
ATOM     25  C   UNL A   1      43.334  25.723  29.465  1.00  0.00     0.049 A 
ATOM     26  C   UNL A   1      42.735  29.262  33.820  1.00  0.00     0.074 A 
ATOM     27  C   UNL A   1      44.493  24.967  29.450  1.00  0.00     0.029 A 
ATOM     28  N   UNL A   1      43.383  26.501  30.616  1.00  0.00    -0.354 N 
ATOM     29  N   UNL A   1      43.016  28.403  32.867  1.00  0.00    -0.248 NA
ATOM     30  C   UNL A   1      43.696  29.272  34.927  1.00  0.00     0.031 C 
ATOM     31  C   UNL A   1      45.179  25.201  30.645  1.00  0.00     0.029 A 
ATOM     32  C   UNL A   1      44.507  26.181  31.362  1.00  0.00     0.049 A 
ATOM     33  H   UNL A   1      42.715  27.180  30.866  1.00  0.00     0.167 HD
ATOM     34  C   UNL A   1      44.184  27.762  33.260  1.00  0.00     0.074 A 
ATOM     35  C   UNL A   1      44.578  28.367  34.519  1.00  0.00     0.031 C 
ATOM     36  C   UNL A   1      44.862  26.762  32.640  1.00  0.00     0.034 A 
BRANCH  23  37
ATOM     37  C   UNL A   1      42.310  24.732  27.367  1.00  0.00     0.023 A 
ATOM     38  C   UNL A   1      41.659  23.485  27.413  1.00  0.00     0.031 A 
ATOM     39  C   UNL A   1      43.144  25.002  26.265  1.00  0.00     0.131 A 
ATOM     40  C   UNL A   1      41.878  22.544  26.397  1.00  0.00     0.055 A 
ATOM     41  C   UNL A   1      43.339  24.070  25.243  1.00  0.00     0.041 A 
ATOM     42  F   UNL A   1      43.783  26.180  26.165  1.00  0.00    -0.206 F 
ATOM     43  C   UNL A   1      42.713  22.830  25.311  1.00  0.00     0.022 A 
BRANCH  40  44
ATOM     44  S   UNL A   1      41.124  20.895  26.459  1.00  0.00     0.124 S 
ATOM     45  O   UNL A   1      39.880  21.109  25.723  1.00  0.00    -0.237 OA
ATOM     46  O   UNL A   1      42.122  20.077  25.774  1.00  0.00    -0.237 OA
ATOM     47  O   UNL A   1      40.964  20.638  27.886  1.00  0.00    -0.744 OA
ENDBRANCH  40  44
ENDBRANCH  23  37
BRANCH  24  48
ATOM     48  C   UNL A   1      41.398  31.204  35.010  1.00  0.00     0.023 A 
ATOM     49  C   UNL A   1      40.315  31.062  35.901  1.00  0.00     0.031 A 
ATOM     50  C   UNL A   1      42.135  32.397  35.047  1.00  0.00     0.131 A 
ATOM     51  C   UNL A   1      39.919  32.144  36.695  1.00  0.00     0.055 A 
ATOM     52  C   UNL A   1      41.788  33.443  35.906  1.00  0.00     0.041 A 
ATOM     53  F   UNL A   1      43.167  32.581  34.211  1.00  0.00    -0.206 F 
ATOM     54  C   UNL A   1      40.657  33.331  36.711  1.00  0.00     0.022 A 
BRANCH  51  55
ATOM     55  S   UNL A   1      38.320  32.118  37.558  1.00  0.00     0.124 S 
ATOM     56  O   UNL A   1      37.778  30.824  37.156  1.00  0.00    -0.237 OA
ATOM     57  O   UNL A   1      38.732  32.224  38.956  1.00  0.00    -0.237 OA
ATOM     58  O   UNL A   1      37.624  33.287  37.030  1.00  0.00    -0.744 OA
ENDBRANCH  51  55
ENDBRANCH  24  48
BRANCH  36  59
ATOM     59  C   UNL A   1      46.079  26.200  33.336  1.00  0.00     0.023 A 
ATOM     60  C   UNL A   1      47.361  26.687  33.028  1.00  0.00     0.031 A 
ATOM     61  C   UNL A   1      45.977  25.095  34.201  1.00  0.00     0.131 A 
ATOM     62  C   UNL A   1      48.493  26.044  33.544  1.00  0.00     0.055 A 
ATOM     63  C   UNL A   1      47.105  24.496  34.760  1.00  0.00     0.041 A 
ATOM     64  F   UNL A   1      44.775  24.585  34.517  1.00  0.00    -0.206 F 
ATOM     65  C   UNL A   1      48.372  24.960  34.419  1.00  0.00     0.022 A 
BRANCH  62  66
ATOM     66  S   UNL A   1      50.159  26.526  33.018  1.00  0.00     0.124 S 
ATOM     67  O   UNL A   1      49.884  27.673  32.155  1.00  0.00    -0.237 OA
ATOM     68  O   UNL A   1      50.804  26.842  34.290  1.00  0.00    -0.237 OA
ATOM     69  O   UNL A   1      50.670  25.342  32.334  1.00  0.00    -0.744 OA
ENDBRANCH  62  66
ENDBRANCH  36  59
ENDBRANCH  10  11
ENDBRANCH   3   5
ENDBRANCH   2   3
ENDBRANCH   1   2
BRANCH   1  70
ATOM     70  C   UNL A   1      33.378  34.622  29.595  1.00  0.00     0.275 C 
BRANCH  70  71
ATOM     71  O   UNL A   1      34.647  34.627  30.259  1.00  0.00    -0.458 OA
BRANCH  71  72
ATOM     72  C   UNL A   1      34.855  33.659  31.190  1.00  0.00     0.342 C 
ATOM     73  O   UNL A   1      34.155  32.679  31.391  1.00  0.00    -0.246 OA
BRANCH  72  74
ATOM     74  C   UNL A   1      36.153  33.895  31.863  1.00  0.00     0.102 A 
ATOM     75  C   UNL A   1      37.313  34.038  31.074  1.00  0.00     0.028 A 
ATOM     76  C   UNL A   1      36.236  34.008  33.255  1.00  0.00     0.130 A 
ATOM     77  C   UNL A   1      38.539  34.364  31.674  1.00  0.00    -0.017 A 
ATOM     78  C   UNL A   1      37.457  34.295  33.859  1.00  0.00     0.048 A 
ATOM     79  C   UNL A   1      38.592  34.499  33.072  1.00  0.00     0.012 A 
BRANCH  76  80
ATOM     80  O   UNL A   1      35.127  33.830  34.035  1.00  0.00    -0.507 OA
ATOM     81  H   UNL A   1      35.047  34.290  34.848  1.00  0.00     0.293 HD
ENDBRANCH  76  80
BRANCH  77  82
ATOM     82  C   UNL A   1      39.791  34.558  30.908  1.00  0.00    -0.011 A 
ATOM     83  C   UNL A   1      39.767  34.998  29.524  1.00  0.00     0.027 A 
ATOM     84  C   UNL A   1      40.980  34.231  31.446  1.00  0.00     0.080 A 
ATOM     85  C   UNL A   1      40.888  35.041  28.795  1.00  0.00     0.095 A 
ATOM     86  C   UNL A   1      42.244  34.296  30.658  1.00  0.00     0.255 A 
ATOM     87  N   UNL A   1      42.109  34.692  29.339  1.00  0.00    -0.258 N 
ATOM     88  O   UNL A   1      43.300  34.000  31.207  1.00  0.00    -0.269 OA
BRANCH  87  89
ATOM     89  C   UNL A   1      43.304  34.712  28.538  1.00  0.00     0.451 C 
ATOM     90  F   UNL A   1      43.719  33.456  28.237  1.00  0.00    -0.185 F 
ATOM     91  F   UNL A   1      43.110  35.379  27.375  1.00  0.00    -0.185 F 
ENDBRANCH  87  89
ENDBRANCH  77  82
ENDBRANCH  72  74
ENDBRANCH  71  72
ENDBRANCH  70  71
ENDBRANCH   1  70
TORSDOF 17
ENDMDL
MODEL 3
REMARK VINA RESULT:     -10.3      5.678     10.507
REMARK SMILES O=C(OCCOC(=O)c1cc(-c2ccn(C(F)F)c(=O)c2)ccc1O)c1ccc(-c2c3nc(c(-c4cc(S(=O)(=O)[O-])ccc4F)c4ccc([nH]4)c(-c4cc(S(=O)(=O)[O-])ccc4F)c4nc(c(-c5cc(S(=O)(=O)[O-])ccc5F)c5ccc2[nH]5)C=C4)C=C3)cc1
REMARK SMILES IDX 4 1 3 2 2 3 1 4 26 5 27 6 88 7 28 8 87 9 29 10 30 11 31 12
REMARK SMILES IDX 81 13 32 14 86 15 80 16 82 17 33 18 85 19 79 20 78 21 34 23
REMARK SMILES IDX 66 24 46 25 65 26 47 27 50 28 64 29 83 30 48 31 49 32 63 34
REMARK SMILES IDX 84 35 51 36 35 37 36 38 44 39 37 40 43 41 45 42 42 43 38 44
REMARK SMILES IDX 39 45 40 46 41 47 67 48 68 49 76 50 69 51 75 52 77 53 74 54
REMARK SMILES IDX 70 55 71 56 72 57 73 58 52 59 53 60 61 61 54 62 60 63 62 64
REMARK SMILES IDX 59 65 55 66 56 67 57 68 58 69 5 70 6 71 7 72 8 73 9 74 10 75
REMARK SMILES IDX 24 76 11 77 23 78 22 79 25 80 12 82 13 83 21 84 14 85 19 86
REMARK SMILES IDX 15 87 20 88 16 89 17 90 18 91
REMARK H PARENT 82 22 50 33 25 81
REMARK Flexibility Score: inf
ROOT
ATOM      1  C   UNL A   1      31.590  32.037  26.958  1.00  0.00     0.275 C 
ENDROOT
BRANCH   1   2
ATOM      2  O   UNL A   1      32.380  33.235  26.968  1.00  0.00    -0.458 OA
BRANCH   2   3
ATOM      3  C   UNL A   1      33.000  33.849  28.001  1.00  0.00     0.338 C 
ATOM      4  O   UNL A   1      32.522  34.904  28.417  1.00  0.00    -0.246 OA
BRANCH   3   5
ATOM      5  C   UNL A   1      34.312  33.402  28.578  1.00  0.00     0.060 A 
ATOM      6  C   UNL A   1      34.219  32.442  29.594  1.00  0.00     0.016 A 
ATOM      7  C   UNL A   1      35.592  33.829  28.218  1.00  0.00     0.016 A 
ATOM      8  C   UNL A   1      35.344  32.027  30.311  1.00  0.00     0.010 A 
ATOM      9  C   UNL A   1      36.733  33.391  28.912  1.00  0.00     0.010 A 
ATOM     10  C   UNL A   1      36.618  32.501  29.981  1.00  0.00    -0.014 A 
BRANCH  10  11
ATOM     11  C   UNL A   1      37.809  31.874  30.607  1.00  0.00     0.031 A 
ATOM     12  C   UNL A   1      38.319  32.254  31.962  1.00  0.00     0.074 A 
ATOM     13  C   UNL A   1      38.428  30.913  29.898  1.00  0.00     0.049 A 
ATOM     14  N   UNL A   1      39.169  31.616  32.724  1.00  0.00    -0.248 NA
ATOM     15  C   UNL A   1      37.809  33.498  32.555  1.00  0.00     0.031 C 
ATOM     16  C   UNL A   1      38.039  30.510  28.546  1.00  0.00     0.029 A 
ATOM     17  N   UNL A   1      39.491  30.106  30.199  1.00  0.00    -0.354 N 
ATOM     18  C   UNL A   1      39.240  32.333  33.913  1.00  0.00     0.074 A 
ATOM     19  C   UNL A   1      38.384  33.490  33.753  1.00  0.00     0.031 C 
ATOM     20  C   UNL A   1      38.829  29.511  28.144  1.00  0.00     0.029 A 
ATOM     21  C   UNL A   1      39.821  29.245  29.180  1.00  0.00     0.049 A 
ATOM     22  H   UNL A   1      39.971  30.139  31.057  1.00  0.00     0.167 HD
ATOM     23  C   UNL A   1      39.959  32.047  35.025  1.00  0.00     0.034 A 
ATOM     24  C   UNL A   1      40.821  28.350  29.077  1.00  0.00     0.034 A 
ATOM     25  C   UNL A   1      40.943  30.991  35.078  1.00  0.00     0.049 A 
ATOM     26  C   UNL A   1      41.703  28.134  30.271  1.00  0.00     0.074 A 
ATOM     27  C   UNL A   1      41.751  30.622  36.139  1.00  0.00     0.029 A 
ATOM     28  N   UNL A   1      41.305  30.184  34.005  1.00  0.00    -0.354 N 
ATOM     29  N   UNL A   1      41.634  28.703  31.452  1.00  0.00    -0.248 NA
ATOM     30  C   UNL A   1      42.784  27.154  30.133  1.00  0.00     0.031 C 
ATOM     31  C   UNL A   1      42.673  29.681  35.675  1.00  0.00     0.029 A 
ATOM     32  C   UNL A   1      42.379  29.380  34.353  1.00  0.00     0.049 A 
ATOM     33  H   UNL A   1      40.862  30.184  33.126  1.00  0.00     0.167 HD
ATOM     34  C   UNL A   1      42.668  28.156  32.202  1.00  0.00     0.074 A 
ATOM     35  C   UNL A   1      43.318  27.178  31.349  1.00  0.00     0.031 C 
ATOM     36  C   UNL A   1      43.046  28.442  33.475  1.00  0.00     0.034 A 
BRANCH  23  37
ATOM     37  C   UNL A   1      39.739  32.879  36.268  1.00  0.00     0.023 A 
ATOM     38  C   UNL A   1      38.899  32.425  37.302  1.00  0.00     0.031 A 
ATOM     39  C   UNL A   1      40.258  34.186  36.363  1.00  0.00     0.131 A 
ATOM     40  C   UNL A   1      38.578  33.278  38.367  1.00  0.00     0.055 A 
ATOM     41  C   UNL A   1      39.953  35.023  37.439  1.00  0.00     0.041 A 
ATOM     42  F   UNL A   1      41.071  34.667  35.409  1.00  0.00    -0.206 F 
ATOM     43  C   UNL A   1      39.100  34.574  38.442  1.00  0.00     0.022 A 
BRANCH  40  44
ATOM     44  S   UNL A   1      37.434  32.761  39.678  1.00  0.00     0.124 S 
ATOM     45  O   UNL A   1      36.227  32.452  38.914  1.00  0.00    -0.237 OA
ATOM     46  O   UNL A   1      38.124  31.608  40.247  1.00  0.00    -0.237 OA
ATOM     47  O   UNL A   1      37.339  33.934  40.540  1.00  0.00    -0.744 OA
ENDBRANCH  40  44
ENDBRANCH  23  37
BRANCH  24  48
ATOM     48  C   UNL A   1      40.950  27.598  27.797  1.00  0.00     0.023 A 
ATOM     49  C   UNL A   1      40.643  26.222  27.754  1.00  0.00     0.031 A 
ATOM     50  C   UNL A   1      41.591  28.168  26.687  1.00  0.00     0.131 A 
ATOM     51  C   UNL A   1      41.095  25.440  26.686  1.00  0.00     0.055 A 
ATOM     52  C   UNL A   1      41.963  27.397  25.582  1.00  0.00     0.041 A 
ATOM     53  F   UNL A   1      41.912  29.470  26.686  1.00  0.00    -0.206 F 
ATOM     54  C   UNL A   1      41.744  26.022  25.593  1.00  0.00     0.022 A 
BRANCH  51  55
ATOM     55  S   UNL A   1      41.049  23.626  26.787  1.00  0.00     0.124 S 
ATOM     56  O   UNL A   1      41.472  23.387  28.163  1.00  0.00    -0.237 OA
ATOM     57  O   UNL A   1      39.644  23.345  26.499  1.00  0.00    -0.237 OA
ATOM     58  O   UNL A   1      41.987  23.199  25.754  1.00  0.00    -0.744 OA
ENDBRANCH  51  55
ENDBRANCH  24  48
BRANCH  36  59
ATOM     59  C   UNL A   1      44.264  27.735  34.021  1.00  0.00     0.023 A 
ATOM     60  C   UNL A   1      44.136  26.485  34.651  1.00  0.00     0.031 A 
ATOM     61  C   UNL A   1      45.524  28.362  34.037  1.00  0.00     0.131 A 
ATOM     62  C   UNL A   1      45.236  25.920  35.308  1.00  0.00     0.055 A 
ATOM     63  C   UNL A   1      46.631  27.768  34.640  1.00  0.00     0.041 A 
ATOM     64  F   UNL A   1      45.694  29.563  33.459  1.00  0.00    -0.206 F 
ATOM     65  C   UNL A   1      46.486  26.548  35.295  1.00  0.00     0.022 A 
BRANCH  62  66
ATOM     66  S   UNL A   1      45.059  24.406  36.289  1.00  0.00     0.124 S 
ATOM     67  O   UNL A   1      43.721  23.956  35.912  1.00  0.00    -0.237 OA
ATOM     68  O   UNL A   1      46.158  23.585  35.786  1.00  0.00    -0.237 OA
ATOM     69  O   UNL A   1      45.197  24.860  37.668  1.00  0.00    -0.744 OA
ENDBRANCH  62  66
ENDBRANCH  36  59
ENDBRANCH  10  11
ENDBRANCH   3   5
ENDBRANCH   2   3
ENDBRANCH   1   2
BRANCH   1  70
ATOM     70  C   UNL A   1      32.300  30.807  26.396  1.00  0.00     0.275 C 
BRANCH  70  71
ATOM     71  O   UNL A   1      31.406  29.741  26.055  1.00  0.00    -0.458 OA
BRANCH  71  72
ATOM     72  C   UNL A   1      31.051  29.634  24.748  1.00  0.00     0.342 C 
ATOM     73  O   UNL A   1      30.272  30.353  24.143  1.00  0.00    -0.246 OA
BRANCH  72  74
ATOM     74  C   UNL A   1      31.857  28.571  24.105  1.00  0.00     0.102 A 
ATOM     75  C   UNL A   1      32.283  27.475  24.884  1.00  0.00     0.028 A 
ATOM     76  C   UNL A   1      32.170  28.623  22.743  1.00  0.00     0.130 A 
ATOM     77  C   UNL A   1      32.959  26.402  24.283  1.00  0.00    -0.017 A 
ATOM     78  C   UNL A   1      32.873  27.579  22.149  1.00  0.00     0.048 A 
ATOM     79  C   UNL A   1      33.239  26.466  22.907  1.00  0.00     0.012 A 
BRANCH  76  80
ATOM     80  O   UNL A   1      31.801  29.700  21.984  1.00  0.00    -0.507 OA
ATOM     81  H   UNL A   1      30.942  29.738  21.611  1.00  0.00     0.293 HD
ENDBRANCH  76  80
BRANCH  77  82
ATOM     82  C   UNL A   1      33.410  25.206  25.031  1.00  0.00    -0.011 A 
ATOM     83  C   UNL A   1      34.621  24.497  24.659  1.00  0.00     0.027 A 
ATOM     84  C   UNL A   1      32.650  24.687  26.012  1.00  0.00     0.080 A 
ATOM     85  C   UNL A   1      34.952  23.341  25.247  1.00  0.00     0.095 A 
ATOM     86  C   UNL A   1      33.014  23.414  26.697  1.00  0.00     0.255 A 
ATOM     87  N   UNL A   1      34.166  22.797  26.245  1.00  0.00    -0.258 N 
ATOM     88  O   UNL A   1      32.289  22.996  27.595  1.00  0.00    -0.269 OA
BRANCH  87  89
ATOM     89  C   UNL A   1      34.514  21.538  26.850  1.00  0.00     0.451 C 
ATOM     90  F   UNL A   1      33.629  20.567  26.515  1.00  0.00    -0.185 F 
ATOM     91  F   UNL A   1      35.749  21.130  26.470  1.00  0.00    -0.185 F 
ENDBRANCH  87  89
ENDBRANCH  77  82
ENDBRANCH  72  74
ENDBRANCH  71  72
ENDBRANCH  70  71
ENDBRANCH   1  70
TORSDOF 17
ENDMDL
