MODEL 1
REMARK VINA RESULT:     -10.1      0.000      0.000
REMARK SMILES CC1(C)CC[C@@]2(C(=O)OCCOC(=O)c3ccc(-c4c5nc(c(-c6cc(S(=O)(=O)[O-])ccc6F)c6ccc([nH]6)c(-c6cc(S(=O)(=O)[O-])ccc6F)c6nc(c(-c7cc(S(=O)(=O)[O-])ccc7F)c7ccc4[nH]7)C=C6)C=C5)cc3)CC[C@@]3(C)C(=CC[C@H]4[C@@]5(C)CC[C@H](O)C(C)(C)[C@@H]5CC[C@]43C)[C@@H]2C1
REMARK SMILES IDX 11 1 10 2 9 3 7 4 8 5 6 6 1 7 2 8 3 9 4 10 101 11 5 12
REMARK SMILES IDX 100 13 82 14 78 15 80 16 83 17 79 18 81 19 98 20 84 21 85 22
REMARK SMILES IDX 97 23 99 24 86 25 96 26 87 27 88 28 95 29 89 30 92 31 90 32
REMARK SMILES IDX 93 33 94 34 91 35 12 37 13 38 14 39 15 40 16 41 77 42 17 43
REMARK SMILES IDX 76 44 18 45 19 46 20 47 70 48 21 49 75 50 69 51 71 52 22 53
REMARK SMILES IDX 74 54 68 55 67 56 23 58 55 59 35 60 54 61 36 62 39 63 53 64
REMARK SMILES IDX 72 65 37 66 38 67 52 69 73 70 40 71 24 72 25 73 33 74 26 75
REMARK SMILES IDX 32 76 34 77 31 78 27 79 28 80 29 81 30 82 56 83 57 84 65 85
REMARK SMILES IDX 58 86 64 87 66 88 63 89 59 90 60 91 61 92 62 93 41 94 42 95
REMARK SMILES IDX 50 96 43 97 49 98 51 99 48 100 44 101 45 102 46 103 47 104
REMARK H PARENT 91 36 71 57 39 68
REMARK Flexibility Score: inf
ROOT
ATOM      1  C   UNL A   1      50.532  37.837  32.299  1.00  0.00     0.275 C 
ENDROOT
BRANCH   1   2
ATOM      2  C   UNL A   1      49.599  38.755  31.543  1.00  0.00     0.274 C 
BRANCH   2   3
ATOM      3  O   UNL A   1      50.022  38.959  30.233  1.00  0.00    -0.462 OA
BRANCH   3   4
ATOM      4  C   UNL A   1      48.954  38.877  29.437  1.00  0.00     0.312 C 
ATOM      5  O   UNL A   1      47.883  38.476  29.892  1.00  0.00    -0.252 OA
BRANCH   4   6
ATOM      6  C   UNL A   1      49.133  39.444  28.018  1.00  0.00     0.075 C 
ATOM      7  C   UNL A   1      49.069  36.270  25.282  1.00  0.00     0.011 C 
ATOM      8  C   UNL A   1      48.409  36.815  26.561  1.00  0.00    -0.035 C 
ATOM      9  C   UNL A   1      47.337  35.774  26.993  1.00  0.00     0.011 C 
ATOM     10  C   UNL A   1      49.535  36.946  27.598  1.00  0.00     0.007 C 
ATOM     11  C   UNL A   1      47.636  38.127  26.284  1.00  0.00     0.015 C 
ATOM     12  C   UNL A   1      50.196  38.366  27.607  1.00  0.00     0.020 C 
ATOM     13  C   UNL A   1      48.136  39.508  26.810  1.00  0.00     0.033 C 
ATOM     14  C   UNL A   1      46.966  40.567  26.833  1.00  0.00    -0.063 C 
ATOM     15  C   UNL A   1      49.566  40.931  28.221  1.00  0.00     0.020 C 
ATOM     16  C   UNL A   1      47.107  41.953  27.489  1.00  0.00    -0.006 C 
ATOM     17  C   UNL A   1      45.741  40.160  26.426  1.00  0.00    -0.027 C 
ATOM     18  C   UNL A   1      48.407  42.018  28.395  1.00  0.00     0.013 C 
ATOM     19  C   UNL A   1      47.518  42.939  26.333  1.00  0.00     0.017 C 
ATOM     20  C   UNL A   1      45.535  42.433  28.155  1.00  0.00    -0.020 C 
ATOM     21  C   UNL A   1      44.553  40.088  27.376  1.00  0.00     0.032 C 
ATOM     22  C   UNL A   1      44.492  41.186  28.464  1.00  0.00     0.006 C 
ATOM     23  C   UNL A   1      45.471  43.444  29.347  1.00  0.00     0.008 C 
ATOM     24  C   UNL A   1      44.816  43.265  26.991  1.00  0.00     0.012 C 
ATOM     25  C   UNL A   1      43.711  40.882  29.978  1.00  0.00    -0.025 C 
ATOM     26  C   UNL A   1      44.117  43.403  30.173  1.00  0.00     0.005 C 
ATOM     27  C   UNL A   1      42.201  40.811  29.539  1.00  0.00     0.012 C 
ATOM     28  C   UNL A   1      43.823  39.529  30.820  1.00  0.00     0.010 C 
ATOM     29  C   UNL A   1      44.008  42.073  30.942  1.00  0.00     0.003 C 
ATOM     30  C   UNL A   1      44.105  39.519  32.357  1.00  0.00     0.033 C 
ATOM     31  C   UNL A   1      43.405  41.976  32.412  1.00  0.00    -0.006 C 
ATOM     32  C   UNL A   1      44.256  40.859  33.084  1.00  0.00     0.120 C 
ATOM     33  C   UNL A   1      41.923  41.593  32.581  1.00  0.00     0.014 C 
ATOM     34  C   UNL A   1      43.599  43.292  33.191  1.00  0.00     0.014 C 
BRANCH  32  35
ATOM     35  O   UNL A   1      43.952  40.682  34.466  1.00  0.00    -0.393 OA
ATOM     36  H   UNL A   1      43.164  41.201  34.693  1.00  0.00     0.210 HD
ENDBRANCH  32  35
ENDBRANCH   4   6
ENDBRANCH   3   4
ENDBRANCH   2   3
ENDBRANCH   1   2
BRANCH   1  37
ATOM     37  O   UNL A   1      49.857  37.103  33.291  1.00  0.00    -0.458 OA
BRANCH  37  38
ATOM     38  C   UNL A   1      49.438  37.713  34.422  1.00  0.00     0.338 C 
ATOM     39  O   UNL A   1      50.157  38.506  35.012  1.00  0.00    -0.246 OA
BRANCH  38  40
ATOM     40  C   UNL A   1      48.133  37.347  35.010  1.00  0.00     0.060 A 
ATOM     41  C   UNL A   1      47.925  36.001  35.309  1.00  0.00     0.016 A 
ATOM     42  C   UNL A   1      47.072  38.264  35.017  1.00  0.00     0.016 A 
ATOM     43  C   UNL A   1      46.628  35.532  35.424  1.00  0.00     0.010 A 
ATOM     44  C   UNL A   1      45.765  37.796  35.143  1.00  0.00     0.010 A 
ATOM     45  C   UNL A   1      45.556  36.413  35.217  1.00  0.00    -0.014 A 
BRANCH  45  46
ATOM     46  C   UNL A   1      44.314  35.800  34.694  1.00  0.00     0.031 A 
ATOM     47  C   UNL A   1      43.193  35.563  35.678  1.00  0.00     0.074 A 
ATOM     48  C   UNL A   1      44.147  35.687  33.367  1.00  0.00     0.049 A 
ATOM     49  N   UNL A   1      41.948  35.236  35.460  1.00  0.00    -0.248 NA
ATOM     50  C   UNL A   1      43.517  35.749  37.105  1.00  0.00     0.031 C 
ATOM     51  C   UNL A   1      45.175  35.994  32.372  1.00  0.00     0.029 A 
ATOM     52  N   UNL A   1      43.051  35.340  32.629  1.00  0.00    -0.354 N 
ATOM     53  C   UNL A   1      41.342  35.193  36.715  1.00  0.00     0.074 A 
ATOM     54  C   UNL A   1      42.360  35.492  37.693  1.00  0.00     0.031 C 
ATOM     55  C   UNL A   1      44.648  35.851  31.146  1.00  0.00     0.029 A 
ATOM     56  C   UNL A   1      43.264  35.404  31.272  1.00  0.00     0.049 A 
ATOM     57  H   UNL A   1      42.194  35.069  33.029  1.00  0.00     0.167 HD
ATOM     58  C   UNL A   1      40.048  34.926  37.016  1.00  0.00     0.034 A 
ATOM     59  C   UNL A   1      42.427  35.118  30.255  1.00  0.00     0.034 A 
ATOM     60  C   UNL A   1      39.079  34.595  36.000  1.00  0.00     0.049 A 
ATOM     61  C   UNL A   1      41.013  34.738  30.615  1.00  0.00     0.074 A 
ATOM     62  C   UNL A   1      37.755  34.231  36.144  1.00  0.00     0.029 A 
ATOM     63  N   UNL A   1      39.353  34.574  34.633  1.00  0.00    -0.354 N 
ATOM     64  N   UNL A   1      40.457  34.668  31.806  1.00  0.00    -0.248 NA
ATOM     65  C   UNL A   1      40.114  34.407  29.507  1.00  0.00     0.031 C 
ATOM     66  C   UNL A   1      37.253  33.916  34.875  1.00  0.00     0.029 A 
ATOM     67  C   UNL A   1      38.237  34.164  33.927  1.00  0.00     0.049 A 
ATOM     68  H   UNL A   1      40.218  34.817  34.229  1.00  0.00     0.167 HD
ATOM     69  C   UNL A   1      39.137  34.290  31.592  1.00  0.00     0.074 A 
ATOM     70  C   UNL A   1      38.977  34.181  30.151  1.00  0.00     0.031 C 
ATOM     71  C   UNL A   1      38.144  34.047  32.488  1.00  0.00     0.034 A 
BRANCH  58  72
ATOM     72  C   UNL A   1      39.666  34.876  38.482  1.00  0.00     0.023 A 
ATOM     73  C   UNL A   1      39.538  33.664  39.191  1.00  0.00     0.031 A 
ATOM     74  C   UNL A   1      39.347  36.065  39.162  1.00  0.00     0.131 A 
ATOM     75  C   UNL A   1      39.036  33.668  40.507  1.00  0.00     0.055 A 
ATOM     76  C   UNL A   1      38.918  36.067  40.493  1.00  0.00     0.041 A 
ATOM     77  F   UNL A   1      39.418  37.250  38.537  1.00  0.00    -0.206 F 
ATOM     78  C   UNL A   1      38.746  34.863  41.166  1.00  0.00     0.022 A 
BRANCH  75  79
ATOM     79  S   UNL A   1      38.631  32.085  41.302  1.00  0.00     0.124 S 
ATOM     80  O   UNL A   1      37.842  32.524  42.448  1.00  0.00    -0.237 OA
ATOM     81  O   UNL A   1      37.903  31.383  40.252  1.00  0.00    -0.237 OA
ATOM     82  O   UNL A   1      39.939  31.523  41.634  1.00  0.00    -0.744 OA
ENDBRANCH  75  79
ENDBRANCH  58  72
BRANCH  59  83
ATOM     83  C   UNL A   1      42.927  35.130  28.849  1.00  0.00     0.023 A 
ATOM     84  C   UNL A   1      43.452  33.987  28.226  1.00  0.00     0.031 A 
ATOM     85  C   UNL A   1      42.876  36.319  28.093  1.00  0.00     0.131 A 
ATOM     86  C   UNL A   1      43.913  34.061  26.898  1.00  0.00     0.055 A 
ATOM     87  C   UNL A   1      43.284  36.375  26.761  1.00  0.00     0.041 A 
ATOM     88  F   UNL A   1      42.390  37.447  28.636  1.00  0.00    -0.206 F 
ATOM     89  C   UNL A   1      43.815  35.243  26.158  1.00  0.00     0.022 A 
BRANCH  86  90
ATOM     90  S   UNL A   1      44.706  32.606  26.159  1.00  0.00     0.124 S 
ATOM     91  O   UNL A   1      46.053  32.684  26.713  1.00  0.00    -0.237 OA
ATOM     92  O   UNL A   1      43.868  31.521  26.655  1.00  0.00    -0.237 OA
ATOM     93  O   UNL A   1      44.608  32.858  24.722  1.00  0.00    -0.744 OA
ENDBRANCH  86  90
ENDBRANCH  59  83
BRANCH  71  94
ATOM     94  C   UNL A   1      36.811  33.649  31.911  1.00  0.00     0.023 A 
ATOM     95  C   UNL A   1      35.790  34.593  31.717  1.00  0.00     0.031 A 
ATOM     96  C   UNL A   1      36.559  32.310  31.567  1.00  0.00     0.131 A 
ATOM     97  C   UNL A   1      34.536  34.173  31.257  1.00  0.00     0.055 A 
ATOM     98  C   UNL A   1      35.331  31.910  31.043  1.00  0.00     0.041 A 
ATOM     99  F   UNL A   1      37.505  31.371  31.734  1.00  0.00    -0.206 F 
ATOM    100  C   UNL A   1      34.305  32.841  30.901  1.00  0.00     0.022 A 
BRANCH  97 101
ATOM    101  S   UNL A   1      33.178  35.372  31.240  1.00  0.00     0.124 S 
ATOM    102  O   UNL A   1      32.610  35.166  29.911  1.00  0.00    -0.237 OA
ATOM    103  O   UNL A   1      32.355  34.929  32.361  1.00  0.00    -0.237 OA
ATOM    104  O   UNL A   1      33.851  36.655  31.434  1.00  0.00    -0.744 OA
ENDBRANCH  97 101
ENDBRANCH  71  94
ENDBRANCH  45  46
ENDBRANCH  38  40
ENDBRANCH  37  38
ENDBRANCH   1  37
TORSDOF 15
ENDMDL
MODEL 2
REMARK VINA RESULT:     -10.1      6.676     13.188
REMARK SMILES CC1(C)CC[C@@]2(C(=O)OCCOC(=O)c3ccc(-c4c5nc(c(-c6cc(S(=O)(=O)[O-])ccc6F)c6ccc([nH]6)c(-c6cc(S(=O)(=O)[O-])ccc6F)c6nc(c(-c7cc(S(=O)(=O)[O-])ccc7F)c7ccc4[nH]7)C=C6)C=C5)cc3)CC[C@@]3(C)C(=CC[C@H]4[C@@]5(C)CC[C@H](O)C(C)(C)[C@@H]5CC[C@]43C)[C@@H]2C1
REMARK SMILES IDX 11 1 10 2 9 3 7 4 8 5 6 6 1 7 2 8 3 9 4 10 101 11 5 12
REMARK SMILES IDX 100 13 82 14 78 15 80 16 83 17 79 18 81 19 98 20 84 21 85 22
REMARK SMILES IDX 97 23 99 24 86 25 96 26 87 27 88 28 95 29 89 30 92 31 90 32
REMARK SMILES IDX 93 33 94 34 91 35 12 37 13 38 14 39 15 40 16 41 77 42 17 43
REMARK SMILES IDX 76 44 18 45 19 46 20 47 70 48 21 49 75 50 69 51 71 52 22 53
REMARK SMILES IDX 74 54 68 55 67 56 23 58 55 59 35 60 54 61 36 62 39 63 53 64
REMARK SMILES IDX 72 65 37 66 38 67 52 69 73 70 40 71 24 72 25 73 33 74 26 75
REMARK SMILES IDX 32 76 34 77 31 78 27 79 28 80 29 81 30 82 56 83 57 84 65 85
REMARK SMILES IDX 58 86 64 87 66 88 63 89 59 90 60 91 61 92 62 93 41 94 42 95
REMARK SMILES IDX 50 96 43 97 49 98 51 99 48 100 44 101 45 102 46 103 47 104
REMARK H PARENT 91 36 71 57 39 68
REMARK Flexibility Score: inf
ROOT
ATOM      1  C   UNL A   1      36.938  32.993  34.402  1.00  0.00     0.275 C 
ENDROOT
BRANCH   1   2
ATOM      2  C   UNL A   1      38.430  33.205  34.515  1.00  0.00     0.274 C 
BRANCH   2   3
ATOM      3  O   UNL A   1      38.737  34.352  35.242  1.00  0.00    -0.462 OA
BRANCH   3   4
ATOM      4  C   UNL A   1      39.910  34.158  35.845  1.00  0.00     0.312 C 
ATOM      5  O   UNL A   1      40.151  33.075  36.378  1.00  0.00    -0.252 OA
BRANCH   4   6
ATOM      6  C   UNL A   1      40.939  35.292  35.687  1.00  0.00     0.075 C 
ATOM      7  C   UNL A   1      41.408  37.208  39.385  1.00  0.00     0.011 C 
ATOM      8  C   UNL A   1      41.243  35.832  38.716  1.00  0.00    -0.035 C 
ATOM      9  C   UNL A   1      41.225  34.776  39.859  1.00  0.00     0.011 C 
ATOM     10  C   UNL A   1      39.907  35.884  37.959  1.00  0.00     0.007 C 
ATOM     11  C   UNL A   1      42.466  35.480  37.835  1.00  0.00     0.015 C 
ATOM     12  C   UNL A   1      40.067  36.335  36.468  1.00  0.00     0.020 C 
ATOM     13  C   UNL A   1      42.382  35.451  36.278  1.00  0.00     0.033 C 
ATOM     14  C   UNL A   1      43.565  34.609  35.659  1.00  0.00    -0.063 C 
ATOM     15  C   UNL A   1      41.149  35.445  34.148  1.00  0.00     0.020 C 
ATOM     16  C   UNL A   1      43.632  34.235  34.167  1.00  0.00    -0.006 C 
ATOM     17  C   UNL A   1      44.447  34.041  36.514  1.00  0.00    -0.027 C 
ATOM     18  C   UNL A   1      42.240  34.502  33.455  1.00  0.00     0.013 C 
ATOM     19  C   UNL A   1      44.517  35.343  33.482  1.00  0.00     0.017 C 
ATOM     20  C   UNL A   1      44.421  32.655  34.008  1.00  0.00    -0.020 C 
ATOM     21  C   UNL A   1      44.577  32.530  36.659  1.00  0.00     0.032 C 
ATOM     22  C   UNL A   1      44.378  31.708  35.364  1.00  0.00     0.006 C 
ATOM     23  C   UNL A   1      44.121  31.757  32.763  1.00  0.00     0.008 C 
ATOM     24  C   UNL A   1      45.977  32.975  33.804  1.00  0.00     0.012 C 
ATOM     25  C   UNL A   1      43.788  30.083  35.435  1.00  0.00    -0.025 C 
ATOM     26  C   UNL A   1      44.451  30.219  32.965  1.00  0.00     0.005 C 
ATOM     27  C   UNL A   1      45.014  29.335  36.080  1.00  0.00     0.012 C 
ATOM     28  C   UNL A   1      42.613  29.568  36.388  1.00  0.00     0.010 C 
ATOM     29  C   UNL A   1      43.476  29.600  33.985  1.00  0.00     0.003 C 
ATOM     30  C   UNL A   1      41.443  28.671  35.866  1.00  0.00     0.033 C 
ATOM     31  C   UNL A   1      42.885  28.131  33.827  1.00  0.00    -0.006 C 
ATOM     32  C   UNL A   1      41.439  28.254  34.393  1.00  0.00     0.120 C 
ATOM     33  C   UNL A   1      43.574  26.971  34.570  1.00  0.00     0.014 C 
ATOM     34  C   UNL A   1      42.809  27.706  32.346  1.00  0.00     0.014 C 
BRANCH  32  35
ATOM     35  O   UNL A   1      40.678  27.057  34.244  1.00  0.00    -0.393 OA
ATOM     36  H   UNL A   1      39.901  27.234  33.693  1.00  0.00     0.210 HD
ENDBRANCH  32  35
ENDBRANCH   4   6
ENDBRANCH   3   4
ENDBRANCH   2   3
ENDBRANCH   1   2
BRANCH   1  37
ATOM     37  O   UNL A   1      36.628  31.773  33.775  1.00  0.00    -0.458 OA
BRANCH  37  38
ATOM     38  C   UNL A   1      36.516  31.707  32.429  1.00  0.00     0.338 C 
ATOM     39  O   UNL A   1      35.880  32.547  31.810  1.00  0.00    -0.246 OA
BRANCH  38  40
ATOM     40  C   UNL A   1      37.088  30.555  31.703  1.00  0.00     0.060 A 
ATOM     41  C   UNL A   1      37.915  29.696  32.424  1.00  0.00     0.016 A 
ATOM     42  C   UNL A   1      37.013  30.486  30.304  1.00  0.00     0.016 A 
ATOM     43  C   UNL A   1      38.814  28.898  31.739  1.00  0.00     0.010 A 
ATOM     44  C   UNL A   1      37.911  29.675  29.611  1.00  0.00     0.010 A 
ATOM     45  C   UNL A   1      38.889  28.987  30.340  1.00  0.00    -0.014 A 
BRANCH  45  46
ATOM     46  C   UNL A   1      40.211  28.684  29.748  1.00  0.00     0.031 A 
ATOM     47  C   UNL A   1      40.362  27.359  29.038  1.00  0.00     0.074 A 
ATOM     48  C   UNL A   1      41.133  29.655  29.667  1.00  0.00     0.049 A 
ATOM     49  N   UNL A   1      41.325  26.930  28.269  1.00  0.00    -0.248 NA
ATOM     50  C   UNL A   1      39.257  26.395  29.197  1.00  0.00     0.031 C 
ATOM     51  C   UNL A   1      40.991  30.985  30.260  1.00  0.00     0.029 A 
ATOM     52  N   UNL A   1      42.334  29.698  29.018  1.00  0.00    -0.354 N 
ATOM     53  C   UNL A   1      40.936  25.660  27.843  1.00  0.00     0.074 A 
ATOM     54  C   UNL A   1      39.667  25.372  28.465  1.00  0.00     0.031 C 
ATOM     55  C   UNL A   1      42.054  31.728  29.918  1.00  0.00     0.029 A 
ATOM     56  C   UNL A   1      42.968  30.914  29.122  1.00  0.00     0.049 A 
ATOM     57  H   UNL A   1      42.710  28.934  28.525  1.00  0.00     0.167 HD
ATOM     58  C   UNL A   1      41.586  24.816  27.006  1.00  0.00     0.034 A 
ATOM     59  C   UNL A   1      44.160  31.309  28.632  1.00  0.00     0.034 A 
ATOM     60  C   UNL A   1      42.874  25.142  26.441  1.00  0.00     0.049 A 
ATOM     61  C   UNL A   1      44.910  30.322  27.773  1.00  0.00     0.074 A 
ATOM     62  C   UNL A   1      43.693  24.372  25.639  1.00  0.00     0.029 A 
ATOM     63  N   UNL A   1      43.537  26.351  26.646  1.00  0.00    -0.354 N 
ATOM     64  N   UNL A   1      44.548  29.112  27.403  1.00  0.00    -0.248 NA
ATOM     65  C   UNL A   1      46.215  30.748  27.262  1.00  0.00     0.031 C 
ATOM     66  C   UNL A   1      44.880  25.083  25.425  1.00  0.00     0.029 A 
ATOM     67  C   UNL A   1      44.771  26.333  26.022  1.00  0.00     0.049 A 
ATOM     68  H   UNL A   1      43.177  27.109  27.162  1.00  0.00     0.167 HD
ATOM     69  C   UNL A   1      45.581  28.631  26.607  1.00  0.00     0.074 A 
ATOM     70  C   UNL A   1      46.562  29.700  26.528  1.00  0.00     0.031 C 
ATOM     71  C   UNL A   1      45.722  27.422  25.999  1.00  0.00     0.034 A 
BRANCH  58  72
ATOM     72  C   UNL A   1      40.967  23.455  26.764  1.00  0.00     0.023 A 
ATOM     73  C   UNL A   1      41.686  22.254  26.930  1.00  0.00     0.031 A 
ATOM     74  C   UNL A   1      39.650  23.363  26.279  1.00  0.00     0.131 A 
ATOM     75  C   UNL A   1      41.107  21.028  26.548  1.00  0.00     0.055 A 
ATOM     76  C   UNL A   1      39.056  22.136  25.969  1.00  0.00     0.041 A 
ATOM     77  F   UNL A   1      38.921  24.470  26.069  1.00  0.00    -0.206 F 
ATOM     78  C   UNL A   1      39.791  20.962  26.088  1.00  0.00     0.022 A 
BRANCH  75  79
ATOM     79  S   UNL A   1      42.141  19.534  26.522  1.00  0.00     0.124 S 
ATOM     80  O   UNL A   1      41.332  18.630  25.710  1.00  0.00    -0.237 OA
ATOM     81  O   UNL A   1      43.375  20.016  25.912  1.00  0.00    -0.237 OA
ATOM     82  O   UNL A   1      42.247  19.165  27.933  1.00  0.00    -0.744 OA
ENDBRANCH  75  79
ENDBRANCH  58  72
BRANCH  59  83
ATOM     83  C   UNL A   1      44.710  32.649  28.992  1.00  0.00     0.023 A 
ATOM     84  C   UNL A   1      44.211  33.840  28.440  1.00  0.00     0.031 A 
ATOM     85  C   UNL A   1      45.763  32.752  29.923  1.00  0.00     0.131 A 
ATOM     86  C   UNL A   1      44.774  35.075  28.814  1.00  0.00     0.055 A 
ATOM     87  C   UNL A   1      46.282  33.981  30.330  1.00  0.00     0.041 A 
ATOM     88  F   UNL A   1      46.286  31.648  30.480  1.00  0.00    -0.206 F 
ATOM     89  C   UNL A   1      45.793  35.153  29.768  1.00  0.00     0.022 A 
BRANCH  86  90
ATOM     90  S   UNL A   1      44.202  36.588  27.991  1.00  0.00     0.124 S 
ATOM     91  O   UNL A   1      43.531  37.287  29.080  1.00  0.00    -0.237 OA
ATOM     92  O   UNL A   1      45.456  37.171  27.529  1.00  0.00    -0.237 OA
ATOM     93  O   UNL A   1      43.323  36.090  26.934  1.00  0.00    -0.744 OA
ENDBRANCH  86  90
ENDBRANCH  59  83
BRANCH  71  94
ATOM     94  C   UNL A   1      46.983  27.223  25.200  1.00  0.00     0.023 A 
ATOM     95  C   UNL A   1      47.100  27.717  23.891  1.00  0.00     0.031 A 
ATOM     96  C   UNL A   1      48.068  26.521  25.751  1.00  0.00     0.131 A 
ATOM     97  C   UNL A   1      48.255  27.441  23.148  1.00  0.00     0.055 A 
ATOM     98  C   UNL A   1      49.242  26.311  25.031  1.00  0.00     0.041 A 
ATOM     99  F   UNL A   1      48.002  26.031  26.999  1.00  0.00    -0.206 F 
ATOM    100  C   UNL A   1      49.334  26.758  23.715  1.00  0.00     0.022 A 
BRANCH  97 101
ATOM    101  S   UNL A   1      48.278  27.891  21.393  1.00  0.00     0.124 S 
ATOM    102  O   UNL A   1      46.893  28.291  21.165  1.00  0.00    -0.237 OA
ATOM    103  O   UNL A   1      49.266  28.964  21.357  1.00  0.00    -0.237 OA
ATOM    104  O   UNL A   1      48.683  26.653  20.728  1.00  0.00    -0.744 OA
ENDBRANCH  97 101
ENDBRANCH  71  94
ENDBRANCH  45  46
ENDBRANCH  38  40
ENDBRANCH  37  38
ENDBRANCH   1  37
TORSDOF 15
ENDMDL
MODEL 3
REMARK VINA RESULT:      -9.9      0.693      7.172
REMARK SMILES CC1(C)CC[C@@]2(C(=O)OCCOC(=O)c3ccc(-c4c5nc(c(-c6cc(S(=O)(=O)[O-])ccc6F)c6ccc([nH]6)c(-c6cc(S(=O)(=O)[O-])ccc6F)c6nc(c(-c7cc(S(=O)(=O)[O-])ccc7F)c7ccc4[nH]7)C=C6)C=C5)cc3)CC[C@@]3(C)C(=CC[C@H]4[C@@]5(C)CC[C@H](O)C(C)(C)[C@@H]5CC[C@]43C)[C@@H]2C1
REMARK SMILES IDX 11 1 10 2 9 3 7 4 8 5 6 6 1 7 2 8 3 9 4 10 101 11 5 12
REMARK SMILES IDX 100 13 82 14 78 15 80 16 83 17 79 18 81 19 98 20 84 21 85 22
REMARK SMILES IDX 97 23 99 24 86 25 96 26 87 27 88 28 95 29 89 30 92 31 90 32
REMARK SMILES IDX 93 33 94 34 91 35 12 37 13 38 14 39 15 40 16 41 77 42 17 43
REMARK SMILES IDX 76 44 18 45 19 46 20 47 70 48 21 49 75 50 69 51 71 52 22 53
REMARK SMILES IDX 74 54 68 55 67 56 23 58 55 59 35 60 54 61 36 62 39 63 53 64
REMARK SMILES IDX 72 65 37 66 38 67 52 69 73 70 40 71 24 72 25 73 33 74 26 75
REMARK SMILES IDX 32 76 34 77 31 78 27 79 28 80 29 81 30 82 56 83 57 84 65 85
REMARK SMILES IDX 58 86 64 87 66 88 63 89 59 90 60 91 61 92 62 93 41 94 42 95
REMARK SMILES IDX 50 96 43 97 49 98 51 99 48 100 44 101 45 102 46 103 47 104
REMARK H PARENT 91 36 71 57 39 68
REMARK Flexibility Score: inf
ROOT
ATOM      1  C   UNL A   1      50.670  37.857  32.284  1.00  0.00     0.275 C 
ENDROOT
BRANCH   1   2
ATOM      2  C   UNL A   1      49.916  38.906  31.500  1.00  0.00     0.274 C 
BRANCH   2   3
ATOM      3  O   UNL A   1      50.268  38.901  30.154  1.00  0.00    -0.462 OA
BRANCH   3   4
ATOM      4  C   UNL A   1      49.146  38.910  29.432  1.00  0.00     0.312 C 
ATOM      5  O   UNL A   1      48.082  38.578  29.954  1.00  0.00    -0.252 OA
BRANCH   4   6
ATOM      6  C   UNL A   1      49.268  39.492  28.012  1.00  0.00     0.075 C 
ATOM      7  C   UNL A   1      49.133  36.340  25.253  1.00  0.00     0.011 C 
ATOM      8  C   UNL A   1      48.516  36.868  26.559  1.00  0.00    -0.035 C 
ATOM      9  C   UNL A   1      47.469  35.813  27.021  1.00  0.00     0.011 C 
ATOM     10  C   UNL A   1      49.677  37.001  27.557  1.00  0.00     0.007 C 
ATOM     11  C   UNL A   1      47.721  38.176  26.322  1.00  0.00     0.015 C 
ATOM     12  C   UNL A   1      50.325  38.427  27.554  1.00  0.00     0.020 C 
ATOM     13  C   UNL A   1      48.228  39.556  26.842  1.00  0.00     0.033 C 
ATOM     14  C   UNL A   1      47.050  40.604  26.916  1.00  0.00    -0.063 C 
ATOM     15  C   UNL A   1      49.695  40.980  28.213  1.00  0.00     0.020 C 
ATOM     16  C   UNL A   1      47.203  41.986  27.579  1.00  0.00    -0.006 C 
ATOM     17  C   UNL A   1      45.815  40.189  26.550  1.00  0.00    -0.027 C 
ATOM     18  C   UNL A   1      48.533  42.055  28.438  1.00  0.00     0.013 C 
ATOM     19  C   UNL A   1      47.563  42.985  26.417  1.00  0.00     0.017 C 
ATOM     20  C   UNL A   1      45.652  42.445  28.305  1.00  0.00    -0.020 C 
ATOM     21  C   UNL A   1      44.663  40.099  27.541  1.00  0.00     0.032 C 
ATOM     22  C   UNL A   1      44.631  41.187  28.640  1.00  0.00     0.006 C 
ATOM     23  C   UNL A   1      45.622  43.446  29.507  1.00  0.00     0.008 C 
ATOM     24  C   UNL A   1      44.883  43.281  27.175  1.00  0.00     0.012 C 
ATOM     25  C   UNL A   1      43.908  40.863  30.179  1.00  0.00    -0.025 C 
ATOM     26  C   UNL A   1      44.299  43.386  30.381  1.00  0.00     0.005 C 
ATOM     27  C   UNL A   1      42.383  40.782  29.794  1.00  0.00     0.012 C 
ATOM     28  C   UNL A   1      44.062  39.503  31.004  1.00  0.00     0.010 C 
ATOM     29  C   UNL A   1      44.229  42.048  31.141  1.00  0.00     0.003 C 
ATOM     30  C   UNL A   1      44.399  39.484  32.531  1.00  0.00     0.033 C 
ATOM     31  C   UNL A   1      43.680  41.933  32.631  1.00  0.00    -0.006 C 
ATOM     32  C   UNL A   1      44.565  40.818  33.263  1.00  0.00     0.120 C 
ATOM     33  C   UNL A   1      42.208  41.535  32.851  1.00  0.00     0.014 C 
ATOM     34  C   UNL A   1      43.891  43.245  33.415  1.00  0.00     0.014 C 
BRANCH  32  35
ATOM     35  O   UNL A   1      44.312  40.627  34.654  1.00  0.00    -0.393 OA
ATOM     36  H   UNL A   1      44.821  41.273  35.167  1.00  0.00     0.210 HD
ENDBRANCH  32  35
ENDBRANCH   4   6
ENDBRANCH   3   4
ENDBRANCH   2   3
ENDBRANCH   1   2
BRANCH   1  37
ATOM     37  O   UNL A   1      49.994  36.624  32.297  1.00  0.00    -0.458 OA
BRANCH  37  38
ATOM     38  C   UNL A   1      49.935  35.892  33.431  1.00  0.00     0.338 C 
ATOM     39  O   UNL A   1      50.871  35.184  33.772  1.00  0.00    -0.246 OA
BRANCH  38  40
ATOM     40  C   UNL A   1      48.688  35.870  34.224  1.00  0.00     0.060 A 
ATOM     41  C   UNL A   1      48.075  34.632  34.411  1.00  0.00     0.016 A 
ATOM     42  C   UNL A   1      48.024  37.064  34.542  1.00  0.00     0.016 A 
ATOM     43  C   UNL A   1      46.729  34.592  34.730  1.00  0.00     0.010 A 
ATOM     44  C   UNL A   1      46.671  37.026  34.874  1.00  0.00     0.010 A 
ATOM     45  C   UNL A   1      46.009  35.792  34.837  1.00  0.00    -0.014 A 
BRANCH  45  46
ATOM     46  C   UNL A   1      44.569  35.708  34.508  1.00  0.00     0.031 A 
ATOM     47  C   UNL A   1      44.199  35.588  33.049  1.00  0.00     0.074 A 
ATOM     48  C   UNL A   1      43.680  35.520  35.496  1.00  0.00     0.049 A 
ATOM     49  N   UNL A   1      43.051  35.299  32.500  1.00  0.00    -0.248 NA
ATOM     50  C   UNL A   1      45.286  35.797  32.073  1.00  0.00     0.031 C 
ATOM     51  C   UNL A   1      44.009  35.535  36.922  1.00  0.00     0.029 A 
ATOM     52  N   UNL A   1      42.346  35.229  35.457  1.00  0.00    -0.354 N 
ATOM     53  C   UNL A   1      43.281  35.277  31.125  1.00  0.00     0.074 A 
ATOM     54  C   UNL A   1      44.668  35.615  30.918  1.00  0.00     0.031 C 
ATOM     55  C   UNL A   1      42.906  35.231  37.624  1.00  0.00     0.029 A 
ATOM     56  C   UNL A   1      41.791  35.045  36.701  1.00  0.00     0.049 A 
ATOM     57  H   UNL A   1      41.832  35.159  34.620  1.00  0.00     0.167 HD
ATOM     58  C   UNL A   1      42.405  34.996  30.129  1.00  0.00     0.034 A 
ATOM     59  C   UNL A   1      40.517  34.767  37.042  1.00  0.00     0.034 A 
ATOM     60  C   UNL A   1      41.018  34.702  30.392  1.00  0.00     0.049 A 
ATOM     61  C   UNL A   1      39.537  34.544  35.918  1.00  0.00     0.074 A 
ATOM     62  C   UNL A   1      39.992  34.469  29.497  1.00  0.00     0.029 A 
ATOM     63  N   UNL A   1      40.462  34.618  31.668  1.00  0.00    -0.354 N 
ATOM     64  N   UNL A   1      39.757  34.557  34.620  1.00  0.00    -0.248 NA
ATOM     65  C   UNL A   1      38.149  34.265  36.295  1.00  0.00     0.031 C 
ATOM     66  C   UNL A   1      38.806  34.324  30.228  1.00  0.00     0.029 A 
ATOM     67  C   UNL A   1      39.103  34.379  31.584  1.00  0.00     0.049 A 
ATOM     68  H   UNL A   1      40.966  34.715  32.508  1.00  0.00     0.167 HD
ATOM     69  C   UNL A   1      38.533  34.281  34.022  1.00  0.00     0.074 A 
ATOM     70  C   UNL A   1      37.589  34.074  35.108  1.00  0.00     0.031 C 
ATOM     71  C   UNL A   1      38.204  34.208  32.704  1.00  0.00     0.034 A 
BRANCH  58  72
ATOM     72  C   UNL A   1      42.906  35.113  28.704  1.00  0.00     0.023 A 
ATOM     73  C   UNL A   1      43.341  33.999  27.959  1.00  0.00     0.031 A 
ATOM     74  C   UNL A   1      43.025  36.381  28.107  1.00  0.00     0.131 A 
ATOM     75  C   UNL A   1      43.936  34.184  26.696  1.00  0.00     0.055 A 
ATOM     76  C   UNL A   1      43.550  36.552  26.823  1.00  0.00     0.041 A 
ATOM     77  F   UNL A   1      42.657  37.487  28.773  1.00  0.00    -0.206 F 
ATOM     78  C   UNL A   1      44.023  35.451  26.117  1.00  0.00     0.022 A 
BRANCH  75  79
ATOM     79  S   UNL A   1      44.725  32.769  25.875  1.00  0.00     0.124 S 
ATOM     80  O   UNL A   1      43.891  31.660  26.332  1.00  0.00    -0.237 OA
ATOM     81  O   UNL A   1      44.609  33.119  24.464  1.00  0.00    -0.237 OA
ATOM     82  O   UNL A   1      46.085  32.776  26.408  1.00  0.00    -0.744 OA
ENDBRANCH  75  79
ENDBRANCH  58  72
BRANCH  59  83
ATOM     83  C   UNL A   1      40.115  34.746  38.480  1.00  0.00     0.023 A 
ATOM     84  C   UNL A   1      40.249  33.601  39.282  1.00  0.00     0.031 A 
ATOM     85  C   UNL A   1      39.587  35.906  39.081  1.00  0.00     0.131 A 
ATOM     86  C   UNL A   1      39.849  33.640  40.631  1.00  0.00     0.055 A 
ATOM     87  C   UNL A   1      39.241  35.955  40.432  1.00  0.00     0.041 A 
ATOM     88  F   UNL A   1      39.429  37.030  38.364  1.00  0.00    -0.206 F 
ATOM     89  C   UNL A   1      39.363  34.814  41.214  1.00  0.00     0.022 A 
BRANCH  86  90
ATOM     90  S   UNL A   1      39.909  32.114  41.611  1.00  0.00     0.124 S 
ATOM     91  O   UNL A   1      38.743  31.393  41.116  1.00  0.00    -0.237 OA
ATOM     92  O   UNL A   1      41.209  31.567  41.240  1.00  0.00    -0.237 OA
ATOM     93  O   UNL A   1      39.808  32.591  42.990  1.00  0.00    -0.744 OA
ENDBRANCH  86  90
ENDBRANCH  59  83
BRANCH  71  94
ATOM     94  C   UNL A   1      36.766  33.885  32.395  1.00  0.00     0.023 A 
ATOM     95  C   UNL A   1      35.794  34.896  32.318  1.00  0.00     0.031 A 
ATOM     96  C   UNL A   1      36.366  32.555  32.191  1.00  0.00     0.131 A 
ATOM     97  C   UNL A   1      34.452  34.552  32.113  1.00  0.00     0.055 A 
ATOM     98  C   UNL A   1      35.040  32.225  31.917  1.00  0.00     0.041 A 
ATOM     99  F   UNL A   1      37.260  31.554  32.255  1.00  0.00    -0.206 F 
ATOM    100  C   UNL A   1      34.071  33.225  31.893  1.00  0.00     0.022 A 
BRANCH  97 101
ATOM    101  S   UNL A   1      33.198  35.852  32.250  1.00  0.00     0.124 S 
ATOM    102  O   UNL A   1      33.677  36.614  33.399  1.00  0.00    -0.237 OA
ATOM    103  O   UNL A   1      33.295  36.520  30.956  1.00  0.00    -0.237 OA
ATOM    104  O   UNL A   1      31.958  35.109  32.473  1.00  0.00    -0.744 OA
ENDBRANCH  97 101
ENDBRANCH  71  94
ENDBRANCH  45  46
ENDBRANCH  38  40
ENDBRANCH  37  38
ENDBRANCH   1  37
TORSDOF 15
ENDMDL
