MODEL 1
REMARK VINA RESULT:     -11.9      0.000      0.000
REMARK SMILES Cc1ccc(F)c(C(=O)N[C@@H]2C=C[C@@H](C(=O)OCCOC(=O)c3ccc(-c4c5nc(c(-c6cc(S(=O)(=O)[O-])ccc6F)c6ccc([nH]6)c(-c6cc(S(=O)(=O)[O-])ccc6F)c6nc(c(-c7cc(S(=O)(=O)[O-])ccc7F)c7ccc4[nH]7)C=C6)C=C5)cc3)C2)c1
REMARK SMILES IDX 19 1 18 2 17 3 15 4 16 5 14 6 11 7 12 8 86 9 13 10 10 11
REMARK SMILES IDX 8 12 9 13 7 15 1 16 2 17 3 18 87 19 4 20 5 21 6 22 20 23
REMARK SMILES IDX 21 24 22 25 23 26 24 27 85 28 25 29 84 30 26 31 27 32 28 33
REMARK SMILES IDX 78 34 29 35 83 36 77 37 79 38 30 39 82 40 76 41 75 42 31 44
REMARK SMILES IDX 63 45 43 46 62 47 44 48 47 49 61 50 80 51 45 52 46 53 60 55
REMARK SMILES IDX 81 56 48 57 32 58 33 59 41 60 34 61 40 62 42 63 39 64 35 65
REMARK SMILES IDX 36 66 37 67 38 68 64 69 65 70 73 71 66 72 72 73 74 74 71 75
REMARK SMILES IDX 67 76 68 77 69 78 70 79 49 80 50 81 58 82 51 83 57 84 59 85
REMARK SMILES IDX 56 86 52 87 53 88 54 89 55 90
REMARK H PARENT 10 14 79 43 47 54
REMARK Flexibility Score: inf
ROOT
ATOM      1  C   UNL A   1      37.031  20.589  24.773  1.00  0.00     0.275 C 
ENDROOT
BRANCH   1   2
ATOM      2  C   UNL A   1      35.591  20.110  24.981  1.00  0.00     0.274 C 
BRANCH   2   3
ATOM      3  O   UNL A   1      34.771  21.228  25.367  1.00  0.00    -0.462 OA
BRANCH   3   4
ATOM      4  C   UNL A   1      33.912  21.728  24.442  1.00  0.00     0.312 C 
ATOM      5  O   UNL A   1      32.828  21.227  24.167  1.00  0.00    -0.252 OA
BRANCH   4   6
ATOM      6  C   UNL A   1      34.424  23.019  23.795  1.00  0.00     0.124 C 
ATOM      7  C   UNL A   1      33.333  25.187  23.284  1.00  0.00     0.106 C 
ATOM      8  C   UNL A   1      34.179  25.245  24.514  1.00  0.00    -0.006 C 
ATOM      9  C   UNL A   1      33.471  23.735  22.828  1.00  0.00     0.048 C 
ATOM     10  C   UNL A   1      34.748  24.071  24.806  1.00  0.00    -0.014 C 
BRANCH   7  11
ATOM     11  N   UNL A   1      33.791  26.181  22.338  1.00  0.00    -0.346 N 
ATOM     12  C   UNL A   1      33.635  27.549  22.301  1.00  0.00     0.254 C 
ATOM     13  O   UNL A   1      34.320  28.184  21.501  1.00  0.00    -0.269 OA
ATOM     14  H   UNL A   1      34.307  25.813  21.585  1.00  0.00     0.164 HD
BRANCH  12  15
ATOM     15  C   UNL A   1      32.653  28.261  23.156  1.00  0.00     0.075 A 
ATOM     16  C   UNL A   1      29.097  29.611  23.063  1.00  0.00     0.044 C 
ATOM     17  C   UNL A   1      30.473  29.268  23.555  1.00  0.00    -0.050 A 
ATOM     18  C   UNL A   1      30.930  29.763  24.782  1.00  0.00     0.006 A 
ATOM     19  C   UNL A   1      31.321  28.462  22.777  1.00  0.00     0.020 A 
ATOM     20  C   UNL A   1      32.232  29.496  25.203  1.00  0.00     0.040 A 
ATOM     21  C   UNL A   1      33.089  28.765  24.385  1.00  0.00     0.135 A 
ATOM     22  F   UNL A   1      34.354  28.592  24.794  1.00  0.00    -0.206 F 
ENDBRANCH  12  15
ENDBRANCH   7  11
ENDBRANCH   4   6
ENDBRANCH   3   4
ENDBRANCH   2   3
ENDBRANCH   1   2
BRANCH   1  23
ATOM     23  O   UNL A   1      37.547  21.209  25.970  1.00  0.00    -0.458 OA
BRANCH  23  24
ATOM     24  C   UNL A   1      38.886  21.106  26.126  1.00  0.00     0.338 C 
ATOM     25  O   UNL A   1      39.575  20.121  25.888  1.00  0.00    -0.246 OA
BRANCH  24  26
ATOM     26  C   UNL A   1      39.468  22.393  26.527  1.00  0.00     0.060 A 
ATOM     27  C   UNL A   1      38.883  23.564  26.038  1.00  0.00     0.016 A 
ATOM     28  C   UNL A   1      40.633  22.449  27.292  1.00  0.00     0.016 A 
ATOM     29  C   UNL A   1      39.460  24.801  26.306  1.00  0.00     0.010 A 
ATOM     30  C   UNL A   1      41.209  23.694  27.568  1.00  0.00     0.010 A 
ATOM     31  C   UNL A   1      40.627  24.875  27.074  1.00  0.00    -0.014 A 
BRANCH  31  32
ATOM     32  C   UNL A   1      41.231  26.200  27.360  1.00  0.00     0.031 A 
ATOM     33  C   UNL A   1      42.595  26.538  26.830  1.00  0.00     0.074 A 
ATOM     34  C   UNL A   1      40.536  27.092  28.090  1.00  0.00     0.049 A 
ATOM     35  N   UNL A   1      43.319  27.605  27.042  1.00  0.00    -0.248 NA
ATOM     36  C   UNL A   1      43.228  25.542  25.953  1.00  0.00     0.031 C 
ATOM     37  C   UNL A   1      39.188  26.875  28.620  1.00  0.00     0.029 A 
ATOM     38  N   UNL A   1      40.864  28.350  28.524  1.00  0.00    -0.354 N 
ATOM     39  C   UNL A   1      44.506  27.403  26.345  1.00  0.00     0.074 A 
ATOM     40  C   UNL A   1      44.404  26.105  25.711  1.00  0.00     0.031 C 
ATOM     41  C   UNL A   1      38.811  27.957  29.317  1.00  0.00     0.029 A 
ATOM     42  C   UNL A   1      39.906  28.923  29.328  1.00  0.00     0.049 A 
ATOM     43  H   UNL A   1      41.707  28.801  28.283  1.00  0.00     0.167 HD
ATOM     44  C   UNL A   1      45.578  28.228  26.254  1.00  0.00     0.034 A 
ATOM     45  C   UNL A   1      39.925  30.076  30.024  1.00  0.00     0.034 A 
ATOM     46  C   UNL A   1      45.649  29.526  26.882  1.00  0.00     0.049 A 
ATOM     47  C   UNL A   1      41.146  30.955  29.933  1.00  0.00     0.074 A 
ATOM     48  C   UNL A   1      46.668  30.460  26.816  1.00  0.00     0.029 A 
ATOM     49  N   UNL A   1      44.665  30.071  27.698  1.00  0.00    -0.354 N 
ATOM     50  N   UNL A   1      42.255  30.758  29.258  1.00  0.00    -0.248 NA
ATOM     51  C   UNL A   1      41.118  32.213  30.690  1.00  0.00     0.031 C 
ATOM     52  C   UNL A   1      46.331  31.538  27.643  1.00  0.00     0.029 A 
ATOM     53  C   UNL A   1      45.070  31.309  28.171  1.00  0.00     0.049 A 
ATOM     54  H   UNL A   1      43.806  29.640  27.910  1.00  0.00     0.167 HD
ATOM     55  C   UNL A   1      43.045  31.879  29.493  1.00  0.00     0.074 A 
ATOM     56  C   UNL A   1      42.279  32.754  30.354  1.00  0.00     0.031 C 
ATOM     57  C   UNL A   1      44.293  32.162  29.038  1.00  0.00     0.034 A 
BRANCH  44  58
ATOM     58  C   UNL A   1      46.788  27.729  25.505  1.00  0.00     0.023 A 
ATOM     59  C   UNL A   1      47.009  28.026  24.150  1.00  0.00     0.031 A 
ATOM     60  C   UNL A   1      47.747  26.947  26.175  1.00  0.00     0.131 A 
ATOM     61  C   UNL A   1      48.140  27.508  23.497  1.00  0.00     0.055 A 
ATOM     62  C   UNL A   1      48.902  26.488  25.537  1.00  0.00     0.041 A 
ATOM     63  F   UNL A   1      47.576  26.614  27.464  1.00  0.00    -0.206 F 
ATOM     64  C   UNL A   1      49.099  26.762  24.188  1.00  0.00     0.022 A 
BRANCH  61  65
ATOM     65  S   UNL A   1      48.300  27.742  21.705  1.00  0.00     0.124 S 
ATOM     66  O   UNL A   1      49.396  28.705  21.633  1.00  0.00    -0.237 OA
ATOM     67  O   UNL A   1      48.597  26.394  21.235  1.00  0.00    -0.237 OA
ATOM     68  O   UNL A   1      46.994  28.265  21.310  1.00  0.00    -0.744 OA
ENDBRANCH  61  65
ENDBRANCH  44  58
BRANCH  45  69
ATOM     69  C   UNL A   1      38.788  30.440  30.918  1.00  0.00     0.023 A 
ATOM     70  C   UNL A   1      37.667  31.128  30.432  1.00  0.00     0.031 A 
ATOM     71  C   UNL A   1      38.837  30.150  32.294  1.00  0.00     0.131 A 
ATOM     72  C   UNL A   1      36.666  31.551  31.321  1.00  0.00     0.055 A 
ATOM     73  C   UNL A   1      37.812  30.522  33.166  1.00  0.00     0.041 A 
ATOM     74  F   UNL A   1      39.887  29.494  32.815  1.00  0.00    -0.206 F 
ATOM     75  C   UNL A   1      36.725  31.241  32.681  1.00  0.00     0.022 A 
BRANCH  72  76
ATOM     76  S   UNL A   1      35.334  32.610  30.691  1.00  0.00     0.124 S 
ATOM     77  O   UNL A   1      34.951  31.913  29.468  1.00  0.00    -0.237 OA
ATOM     78  O   UNL A   1      34.370  32.564  31.785  1.00  0.00    -0.237 OA
ATOM     79  O   UNL A   1      35.991  33.901  30.493  1.00  0.00    -0.744 OA
ENDBRANCH  72  76
ENDBRANCH  45  69
BRANCH  57  80
ATOM     80  C   UNL A   1      44.874  33.494  29.440  1.00  0.00     0.023 A 
ATOM     81  C   UNL A   1      44.666  34.650  28.668  1.00  0.00     0.031 A 
ATOM     82  C   UNL A   1      45.664  33.600  30.597  1.00  0.00     0.131 A 
ATOM     83  C   UNL A   1      45.289  35.853  29.033  1.00  0.00     0.055 A 
ATOM     84  C   UNL A   1      46.236  34.812  30.987  1.00  0.00     0.041 A 
ATOM     85  F   UNL A   1      45.893  32.525  31.369  1.00  0.00    -0.206 F 
ATOM     86  C   UNL A   1      46.061  35.944  30.195  1.00  0.00     0.022 A 
BRANCH  83  87
ATOM     87  S   UNL A   1      45.146  37.280  27.923  1.00  0.00     0.124 S 
ATOM     88  O   UNL A   1      46.421  37.239  27.211  1.00  0.00    -0.237 OA
ATOM     89  O   UNL A   1      43.966  36.946  27.134  1.00  0.00    -0.237 OA
ATOM     90  O   UNL A   1      44.982  38.410  28.835  1.00  0.00    -0.744 OA
ENDBRANCH  83  87
ENDBRANCH  57  80
ENDBRANCH  31  32
ENDBRANCH  24  26
ENDBRANCH  23  24
ENDBRANCH   1  23
TORSDOF 16
ENDMDL
MODEL 2
REMARK VINA RESULT:     -11.8      1.350      7.718
REMARK SMILES Cc1ccc(F)c(C(=O)N[C@@H]2C=C[C@@H](C(=O)OCCOC(=O)c3ccc(-c4c5nc(c(-c6cc(S(=O)(=O)[O-])ccc6F)c6ccc([nH]6)c(-c6cc(S(=O)(=O)[O-])ccc6F)c6nc(c(-c7cc(S(=O)(=O)[O-])ccc7F)c7ccc4[nH]7)C=C6)C=C5)cc3)C2)c1
REMARK SMILES IDX 19 1 18 2 17 3 15 4 16 5 14 6 11 7 12 8 86 9 13 10 10 11
REMARK SMILES IDX 8 12 9 13 7 15 1 16 2 17 3 18 87 19 4 20 5 21 6 22 20 23
REMARK SMILES IDX 21 24 22 25 23 26 24 27 85 28 25 29 84 30 26 31 27 32 28 33
REMARK SMILES IDX 78 34 29 35 83 36 77 37 79 38 30 39 82 40 76 41 75 42 31 44
REMARK SMILES IDX 63 45 43 46 62 47 44 48 47 49 61 50 80 51 45 52 46 53 60 55
REMARK SMILES IDX 81 56 48 57 32 58 33 59 41 60 34 61 40 62 42 63 39 64 35 65
REMARK SMILES IDX 36 66 37 67 38 68 64 69 65 70 73 71 66 72 72 73 74 74 71 75
REMARK SMILES IDX 67 76 68 77 69 78 70 79 49 80 50 81 58 82 51 83 57 84 59 85
REMARK SMILES IDX 56 86 52 87 53 88 54 89 55 90
REMARK H PARENT 10 14 79 43 47 54
REMARK Flexibility Score: inf
ROOT
ATOM      1  C   UNL A   1      37.316  20.388  24.838  1.00  0.00     0.275 C 
ENDROOT
BRANCH   1   2
ATOM      2  C   UNL A   1      35.801  20.228  25.001  1.00  0.00     0.274 C 
BRANCH   2   3
ATOM      3  O   UNL A   1      35.298  21.296  25.825  1.00  0.00    -0.462 OA
BRANCH   3   4
ATOM      4  C   UNL A   1      34.400  22.150  25.270  1.00  0.00     0.312 C 
ATOM      5  O   UNL A   1      34.092  22.150  24.084  1.00  0.00    -0.252 OA
BRANCH   4   6
ATOM      6  C   UNL A   1      33.776  23.101  26.296  1.00  0.00     0.124 C 
ATOM      7  C   UNL A   1      31.966  24.789  26.135  1.00  0.00     0.106 C 
ATOM      8  C   UNL A   1      31.506  23.513  26.759  1.00  0.00    -0.006 C 
ATOM      9  C   UNL A   1      33.434  24.517  25.811  1.00  0.00     0.048 C 
ATOM     10  C   UNL A   1      32.473  22.591  26.824  1.00  0.00    -0.014 C 
BRANCH   7  11
ATOM     11  N   UNL A   1      31.725  25.885  27.049  1.00  0.00    -0.346 N 
ATOM     12  C   UNL A   1      31.581  27.239  26.836  1.00  0.00     0.254 C 
ATOM     13  O   UNL A   1      31.158  27.924  27.765  1.00  0.00    -0.269 OA
ATOM     14  H   UNL A   1      31.652  25.615  27.992  1.00  0.00     0.164 HD
BRANCH  12  15
ATOM     15  C   UNL A   1      31.952  27.886  25.555  1.00  0.00     0.075 A 
ATOM     16  C   UNL A   1      30.405  29.024  22.269  1.00  0.00     0.044 C 
ATOM     17  C   UNL A   1      31.418  28.754  23.344  1.00  0.00    -0.050 A 
ATOM     18  C   UNL A   1      32.781  28.952  23.095  1.00  0.00     0.006 A 
ATOM     19  C   UNL A   1      31.007  28.281  24.601  1.00  0.00     0.020 A 
ATOM     20  C   UNL A   1      33.724  28.637  24.073  1.00  0.00     0.040 A 
ATOM     21  C   UNL A   1      33.309  28.092  25.285  1.00  0.00     0.135 A 
ATOM     22  F   UNL A   1      34.251  27.736  26.170  1.00  0.00    -0.206 F 
ENDBRANCH  12  15
ENDBRANCH   7  11
ENDBRANCH   4   6
ENDBRANCH   3   4
ENDBRANCH   2   3
ENDBRANCH   1   2
BRANCH   1  23
ATOM     23  O   UNL A   1      37.830  21.390  25.740  1.00  0.00    -0.458 OA
BRANCH  23  24
ATOM     24  C   UNL A   1      39.098  21.176  26.158  1.00  0.00     0.338 C 
ATOM     25  O   UNL A   1      39.733  20.133  26.058  1.00  0.00    -0.246 OA
BRANCH  24  26
ATOM     26  C   UNL A   1      39.697  22.415  26.669  1.00  0.00     0.060 A 
ATOM     27  C   UNL A   1      39.271  23.629  26.125  1.00  0.00     0.016 A 
ATOM     28  C   UNL A   1      40.736  22.382  27.599  1.00  0.00     0.016 A 
ATOM     29  C   UNL A   1      39.882  24.820  26.503  1.00  0.00     0.010 A 
ATOM     30  C   UNL A   1      41.345  23.581  27.986  1.00  0.00     0.010 A 
ATOM     31  C   UNL A   1      40.924  24.805  27.437  1.00  0.00    -0.014 A 
BRANCH  31  32
ATOM     32  C   UNL A   1      41.565  26.081  27.838  1.00  0.00     0.031 A 
ATOM     33  C   UNL A   1      40.778  27.119  28.585  1.00  0.00     0.074 A 
ATOM     34  C   UNL A   1      42.859  26.288  27.531  1.00  0.00     0.049 A 
ATOM     35  N   UNL A   1      41.136  28.322  28.946  1.00  0.00    -0.248 NA
ATOM     36  C   UNL A   1      39.406  26.756  28.970  1.00  0.00     0.031 C 
ATOM     37  C   UNL A   1      43.723  25.327  26.840  1.00  0.00     0.029 A 
ATOM     38  N   UNL A   1      43.672  27.370  27.745  1.00  0.00    -0.354 N 
ATOM     39  C   UNL A   1      40.029  28.875  29.580  1.00  0.00     0.074 A 
ATOM     40  C   UNL A   1      38.984  27.874  29.546  1.00  0.00     0.031 C 
ATOM     41  C   UNL A   1      44.939  25.869  26.678  1.00  0.00     0.029 A 
ATOM     42  C   UNL A   1      44.930  27.230  27.204  1.00  0.00     0.049 A 
ATOM     43  H   UNL A   1      43.384  28.173  28.239  1.00  0.00     0.167 HD
ATOM     44  C   UNL A   1      39.904  30.108  30.132  1.00  0.00     0.034 A 
ATOM     45  C   UNL A   1      45.944  28.112  27.110  1.00  0.00     0.034 A 
ATOM     46  C   UNL A   1      40.968  31.083  30.169  1.00  0.00     0.049 A 
ATOM     47  C   UNL A   1      45.762  29.488  27.700  1.00  0.00     0.074 A 
ATOM     48  C   UNL A   1      40.962  32.343  30.742  1.00  0.00     0.029 A 
ATOM     49  N   UNL A   1      42.225  30.913  29.602  1.00  0.00    -0.354 N 
ATOM     50  N   UNL A   1      44.714  29.991  28.311  1.00  0.00    -0.248 NA
ATOM     51  C   UNL A   1      46.899  30.411  27.595  1.00  0.00     0.031 C 
ATOM     52  C   UNL A   1      42.188  32.958  30.466  1.00  0.00     0.029 A 
ATOM     53  C   UNL A   1      42.987  32.057  29.780  1.00  0.00     0.049 A 
ATOM     54  H   UNL A   1      42.530  30.098  29.141  1.00  0.00     0.167 HD
ATOM     55  C   UNL A   1      45.076  31.282  28.681  1.00  0.00     0.074 A 
ATOM     56  C   UNL A   1      46.443  31.472  28.244  1.00  0.00     0.031 C 
ATOM     57  C   UNL A   1      44.346  32.228  29.325  1.00  0.00     0.034 A 
BRANCH  44  58
ATOM     58  C   UNL A   1      38.555  30.500  30.680  1.00  0.00     0.023 A 
ATOM     59  C   UNL A   1      37.581  31.136  29.892  1.00  0.00     0.031 A 
ATOM     60  C   UNL A   1      38.238  30.215  32.021  1.00  0.00     0.131 A 
ATOM     61  C   UNL A   1      36.352  31.504  30.465  1.00  0.00     0.055 A 
ATOM     62  C   UNL A   1      36.991  30.527  32.566  1.00  0.00     0.041 A 
ATOM     63  F   UNL A   1      39.139  29.629  32.825  1.00  0.00    -0.206 F 
ATOM     64  C   UNL A   1      36.043  31.183  31.789  1.00  0.00     0.022 A 
BRANCH  61  65
ATOM     65  S   UNL A   1      35.192  32.496  29.484  1.00  0.00     0.124 S 
ATOM     66  O   UNL A   1      36.074  33.524  28.939  1.00  0.00    -0.237 OA
ATOM     67  O   UNL A   1      34.673  31.523  28.530  1.00  0.00    -0.237 OA
ATOM     68  O   UNL A   1      34.227  32.973  30.473  1.00  0.00    -0.744 OA
ENDBRANCH  61  65
ENDBRANCH  44  58
BRANCH  45  69
ATOM     69  C   UNL A   1      47.193  27.754  26.379  1.00  0.00     0.023 A 
ATOM     70  C   UNL A   1      47.324  27.983  25.001  1.00  0.00     0.031 A 
ATOM     71  C   UNL A   1      48.258  27.120  27.045  1.00  0.00     0.131 A 
ATOM     72  C   UNL A   1      48.469  27.534  24.324  1.00  0.00     0.055 A 
ATOM     73  C   UNL A   1      49.419  26.726  26.378  1.00  0.00     0.041 A 
ATOM     74  F   UNL A   1      48.186  26.875  28.364  1.00  0.00    -0.206 F 
ATOM     75  C   UNL A   1      49.522  26.919  25.005  1.00  0.00     0.022 A 
BRANCH  72  76
ATOM     76  S   UNL A   1      48.517  27.665  22.515  1.00  0.00     0.124 S 
ATOM     77  O   UNL A   1      48.608  26.264  22.116  1.00  0.00    -0.237 OA
ATOM     78  O   UNL A   1      47.252  28.332  22.228  1.00  0.00    -0.237 OA
ATOM     79  O   UNL A   1      49.714  28.464  22.263  1.00  0.00    -0.744 OA
ENDBRANCH  72  76
ENDBRANCH  45  69
BRANCH  57  80
ATOM     80  C   UNL A   1      45.041  33.533  29.625  1.00  0.00     0.023 A 
ATOM     81  C   UNL A   1      45.049  34.591  28.700  1.00  0.00     0.031 A 
ATOM     82  C   UNL A   1      45.721  33.707  30.841  1.00  0.00     0.131 A 
ATOM     83  C   UNL A   1      45.772  35.759  28.983  1.00  0.00     0.055 A 
ATOM     84  C   UNL A   1      46.393  34.893  31.143  1.00  0.00     0.041 A 
ATOM     85  F   UNL A   1      45.745  32.727  31.759  1.00  0.00    -0.206 F 
ATOM     86  C   UNL A   1      46.432  35.922  30.205  1.00  0.00     0.022 A 
BRANCH  83  87
ATOM     87  S   UNL A   1      45.910  37.033  27.699  1.00  0.00     0.124 S 
ATOM     88  O   UNL A   1      44.569  37.611  27.703  1.00  0.00    -0.237 OA
ATOM     89  O   UNL A   1      46.973  37.886  28.218  1.00  0.00    -0.237 OA
ATOM     90  O   UNL A   1      46.255  36.274  26.499  1.00  0.00    -0.744 OA
ENDBRANCH  83  87
ENDBRANCH  57  80
ENDBRANCH  31  32
ENDBRANCH  24  26
ENDBRANCH  23  24
ENDBRANCH   1  23
TORSDOF 16
ENDMDL
MODEL 3
REMARK VINA RESULT:     -11.7      1.214      1.568
REMARK SMILES Cc1ccc(F)c(C(=O)N[C@@H]2C=C[C@@H](C(=O)OCCOC(=O)c3ccc(-c4c5nc(c(-c6cc(S(=O)(=O)[O-])ccc6F)c6ccc([nH]6)c(-c6cc(S(=O)(=O)[O-])ccc6F)c6nc(c(-c7cc(S(=O)(=O)[O-])ccc7F)c7ccc4[nH]7)C=C6)C=C5)cc3)C2)c1
REMARK SMILES IDX 19 1 18 2 17 3 15 4 16 5 14 6 11 7 12 8 86 9 13 10 10 11
REMARK SMILES IDX 8 12 9 13 7 15 1 16 2 17 3 18 87 19 4 20 5 21 6 22 20 23
REMARK SMILES IDX 21 24 22 25 23 26 24 27 85 28 25 29 84 30 26 31 27 32 28 33
REMARK SMILES IDX 78 34 29 35 83 36 77 37 79 38 30 39 82 40 76 41 75 42 31 44
REMARK SMILES IDX 63 45 43 46 62 47 44 48 47 49 61 50 80 51 45 52 46 53 60 55
REMARK SMILES IDX 81 56 48 57 32 58 33 59 41 60 34 61 40 62 42 63 39 64 35 65
REMARK SMILES IDX 36 66 37 67 38 68 64 69 65 70 73 71 66 72 72 73 74 74 71 75
REMARK SMILES IDX 67 76 68 77 69 78 70 79 49 80 50 81 58 82 51 83 57 84 59 85
REMARK SMILES IDX 56 86 52 87 53 88 54 89 55 90
REMARK H PARENT 10 14 79 43 47 54
REMARK Flexibility Score: inf
ROOT
ATOM      1  C   UNL A   1      37.145  20.391  24.798  1.00  0.00     0.275 C 
ENDROOT
BRANCH   1   2
ATOM      2  C   UNL A   1      35.615  20.312  24.819  1.00  0.00     0.274 C 
BRANCH   2   3
ATOM      3  O   UNL A   1      35.093  21.423  25.571  1.00  0.00    -0.462 OA
BRANCH   3   4
ATOM      4  C   UNL A   1      33.840  21.852  25.274  1.00  0.00     0.312 C 
ATOM      5  O   UNL A   1      33.189  21.463  24.312  1.00  0.00    -0.252 OA
BRANCH   4   6
ATOM      6  C   UNL A   1      33.300  22.857  26.298  1.00  0.00     0.124 C 
ATOM      7  C   UNL A   1      31.717  24.757  26.110  1.00  0.00     0.106 C 
ATOM      8  C   UNL A   1      31.083  23.537  26.693  1.00  0.00    -0.006 C 
ATOM      9  C   UNL A   1      33.152  24.311  25.830  1.00  0.00     0.048 C 
ATOM     10  C   UNL A   1      31.927  22.503  26.772  1.00  0.00    -0.014 C 
BRANCH   7  11
ATOM     11  N   UNL A   1      31.580  25.859  27.036  1.00  0.00    -0.346 N 
ATOM     12  C   UNL A   1      31.545  27.222  26.838  1.00  0.00     0.254 C 
ATOM     13  O   UNL A   1      31.192  27.931  27.779  1.00  0.00    -0.269 OA
ATOM     14  H   UNL A   1      31.498  25.587  27.978  1.00  0.00     0.164 HD
BRANCH  12  15
ATOM     15  C   UNL A   1      31.950  27.850  25.557  1.00  0.00     0.075 A 
ATOM     16  C   UNL A   1      30.454  29.159  22.312  1.00  0.00     0.044 C 
ATOM     17  C   UNL A   1      31.457  28.788  23.365  1.00  0.00    -0.050 A 
ATOM     18  C   UNL A   1      32.828  28.869  23.095  1.00  0.00     0.006 A 
ATOM     19  C   UNL A   1      31.028  28.338  24.625  1.00  0.00     0.020 A 
ATOM     20  C   UNL A   1      33.756  28.460  24.052  1.00  0.00     0.040 A 
ATOM     21  C   UNL A   1      33.314  27.939  25.266  1.00  0.00     0.135 A 
ATOM     22  F   UNL A   1      34.236  27.491  26.130  1.00  0.00    -0.206 F 
ENDBRANCH  12  15
ENDBRANCH   7  11
ENDBRANCH   4   6
ENDBRANCH   3   4
ENDBRANCH   2   3
ENDBRANCH   1   2
BRANCH   1  23
ATOM     23  O   UNL A   1      37.629  21.293  25.815  1.00  0.00    -0.458 OA
BRANCH  23  24
ATOM     24  C   UNL A   1      38.944  21.164  26.103  1.00  0.00     0.338 C 
ATOM     25  O   UNL A   1      39.628  20.158  25.959  1.00  0.00    -0.246 OA
BRANCH  24  26
ATOM     26  C   UNL A   1      39.516  22.449  26.525  1.00  0.00     0.060 A 
ATOM     27  C   UNL A   1      38.973  23.621  25.992  1.00  0.00     0.016 A 
ATOM     28  C   UNL A   1      40.636  22.501  27.355  1.00  0.00     0.016 A 
ATOM     29  C   UNL A   1      39.547  24.855  26.281  1.00  0.00     0.010 A 
ATOM     30  C   UNL A   1      41.209  23.743  27.652  1.00  0.00     0.010 A 
ATOM     31  C   UNL A   1      40.670  24.925  27.114  1.00  0.00    -0.014 A 
BRANCH  31  32
ATOM     32  C   UNL A   1      41.271  26.245  27.421  1.00  0.00     0.031 A 
ATOM     33  C   UNL A   1      42.649  26.581  26.929  1.00  0.00     0.074 A 
ATOM     34  C   UNL A   1      40.561  27.137  28.138  1.00  0.00     0.049 A 
ATOM     35  N   UNL A   1      43.372  27.644  27.164  1.00  0.00    -0.248 NA
ATOM     36  C   UNL A   1      43.300  25.586  26.062  1.00  0.00     0.031 C 
ATOM     37  C   UNL A   1      39.199  26.922  28.633  1.00  0.00     0.029 A 
ATOM     38  N   UNL A   1      40.883  28.391  28.586  1.00  0.00    -0.354 N 
ATOM     39  C   UNL A   1      44.575  27.441  26.497  1.00  0.00     0.074 A 
ATOM     40  C   UNL A   1      44.485  26.147  25.854  1.00  0.00     0.031 C 
ATOM     41  C   UNL A   1      38.808  28.003  29.325  1.00  0.00     0.029 A 
ATOM     42  C   UNL A   1      39.906  28.964  29.369  1.00  0.00     0.049 A 
ATOM     43  H   UNL A   1      41.733  28.840  28.370  1.00  0.00     0.167 HD
ATOM     44  C   UNL A   1      45.652  28.262  26.436  1.00  0.00     0.034 A 
ATOM     45  C   UNL A   1      39.912  30.114  30.071  1.00  0.00     0.034 A 
ATOM     46  C   UNL A   1      45.712  29.557  27.073  1.00  0.00     0.049 A 
ATOM     47  C   UNL A   1      41.138  30.989  30.015  1.00  0.00     0.074 A 
ATOM     48  C   UNL A   1      46.736  30.488  27.038  1.00  0.00     0.029 A 
ATOM     49  N   UNL A   1      44.710  30.101  27.866  1.00  0.00    -0.354 N 
ATOM     50  N   UNL A   1      42.263  30.790  29.367  1.00  0.00    -0.248 NA
ATOM     51  C   UNL A   1      41.095  32.243  30.777  1.00  0.00     0.031 C 
ATOM     52  C   UNL A   1      46.382  31.562  27.861  1.00  0.00     0.029 A 
ATOM     53  C   UNL A   1      45.107  31.336  28.355  1.00  0.00     0.049 A 
ATOM     54  H   UNL A   1      43.844  29.673  28.054  1.00  0.00     0.167 HD
ATOM     55  C   UNL A   1      43.052  31.907  29.627  1.00  0.00     0.074 A 
ATOM     56  C   UNL A   1      42.266  32.782  30.473  1.00  0.00     0.031 C 
ATOM     57  C   UNL A   1      44.311  32.188  29.207  1.00  0.00     0.034 A 
BRANCH  44  58
ATOM     58  C   UNL A   1      46.880  27.762  25.717  1.00  0.00     0.023 A 
ATOM     59  C   UNL A   1      47.106  28.014  24.354  1.00  0.00     0.031 A 
ATOM     60  C   UNL A   1      47.848  27.024  26.422  1.00  0.00     0.131 A 
ATOM     61  C   UNL A   1      48.253  27.498  23.729  1.00  0.00     0.055 A 
ATOM     62  C   UNL A   1      49.017  26.568  25.811  1.00  0.00     0.041 A 
ATOM     63  F   UNL A   1      47.672  26.734  27.721  1.00  0.00    -0.206 F 
ATOM     64  C   UNL A   1      49.221  26.797  24.454  1.00  0.00     0.022 A 
BRANCH  61  65
ATOM     65  S   UNL A   1      48.425  27.671  21.932  1.00  0.00     0.124 S 
ATOM     66  O   UNL A   1      49.549  28.598  21.833  1.00  0.00    -0.237 OA
ATOM     67  O   UNL A   1      48.684  26.300  21.505  1.00  0.00    -0.237 OA
ATOM     68  O   UNL A   1      47.136  28.218  21.515  1.00  0.00    -0.744 OA
ENDBRANCH  61  65
ENDBRANCH  44  58
BRANCH  45  69
ATOM     69  C   UNL A   1      38.754  30.478  30.937  1.00  0.00     0.023 A 
ATOM     70  C   UNL A   1      37.648  31.172  30.426  1.00  0.00     0.031 A 
ATOM     71  C   UNL A   1      38.767  30.182  32.313  1.00  0.00     0.131 A 
ATOM     72  C   UNL A   1      36.626  31.594  31.291  1.00  0.00     0.055 A 
ATOM     73  C   UNL A   1      37.722  30.554  33.160  1.00  0.00     0.041 A 
ATOM     74  F   UNL A   1      39.801  29.520  32.857  1.00  0.00    -0.206 F 
ATOM     75  C   UNL A   1      36.650  31.279  32.651  1.00  0.00     0.022 A 
BRANCH  72  76
ATOM     76  S   UNL A   1      35.314  32.661  30.632  1.00  0.00     0.124 S 
ATOM     77  O   UNL A   1      34.400  32.745  31.766  1.00  0.00    -0.237 OA
ATOM     78  O   UNL A   1      36.050  33.879  30.310  1.00  0.00    -0.237 OA
ATOM     79  O   UNL A   1      34.813  31.912  29.481  1.00  0.00    -0.744 OA
ENDBRANCH  72  76
ENDBRANCH  45  69
BRANCH  57  80
ATOM     80  C   UNL A   1      44.887  33.516  29.629  1.00  0.00     0.023 A 
ATOM     81  C   UNL A   1      44.708  34.675  28.855  1.00  0.00     0.031 A 
ATOM     82  C   UNL A   1      45.643  33.614  30.809  1.00  0.00     0.131 A 
ATOM     83  C   UNL A   1      45.326  35.874  29.242  1.00  0.00     0.055 A 
ATOM     84  C   UNL A   1      46.210  34.822  31.219  1.00  0.00     0.041 A 
ATOM     85  F   UNL A   1      45.845  32.535  31.584  1.00  0.00    -0.206 F 
ATOM     86  C   UNL A   1      46.063  35.958  30.427  1.00  0.00     0.022 A 
BRANCH  83  87
ATOM     87  S   UNL A   1      45.223  37.305  28.133  1.00  0.00     0.124 S 
ATOM     88  O   UNL A   1      46.599  37.422  27.661  1.00  0.00    -0.237 OA
ATOM     89  O   UNL A   1      44.246  36.864  27.143  1.00  0.00    -0.237 OA
ATOM     90  O   UNL A   1      44.773  38.386  29.008  1.00  0.00    -0.744 OA
ENDBRANCH  83  87
ENDBRANCH  57  80
ENDBRANCH  31  32
ENDBRANCH  24  26
ENDBRANCH  23  24
ENDBRANCH   1  23
TORSDOF 16
ENDMDL
