MODEL 1
REMARK VINA RESULT:     -11.4      0.000      0.000
REMARK SMILES O=C(CNC(=O)OCC1=Cc2ccccc2S1(=O)=O)OCCOC(=O)c1ccc(-c2c3nc(c(-c4cc(S(=O)(=O)[O-])ccc4F)c4ccc([nH]4)c(-c4cc(S(=O)(=O)[O-])ccc4F)c4nc(c(-c5cc(S(=O)(=O)[O-])ccc5F)c5ccc2[nH]5)C=C4)C=C3)cc1
REMARK SMILES IDX 21 1 20 2 2 3 1 4 3 5 4 6 5 7 6 9 7 10 8 11 9 12 10 13 17 14
REMARK SMILES IDX 11 15 16 16 18 17 19 18 12 19 15 20 13 21 14 22 22 23 23 24
REMARK SMILES IDX 24 25 25 26 26 27 27 28 88 29 28 30 87 31 29 32 30 33 31 34
REMARK SMILES IDX 81 35 32 36 86 37 80 38 82 39 33 40 85 41 79 42 78 43 34 45
REMARK SMILES IDX 66 46 46 47 65 48 47 49 50 50 64 51 83 52 48 53 49 54 63 56
REMARK SMILES IDX 84 57 51 58 35 59 36 60 44 61 37 62 43 63 45 64 42 65 38 66
REMARK SMILES IDX 39 67 40 68 41 69 67 70 68 71 76 72 69 73 75 74 77 75 74 76
REMARK SMILES IDX 70 77 71 78 72 79 73 80 52 81 53 82 61 83 54 84 60 85 62 86
REMARK SMILES IDX 59 87 55 88 56 89 57 90 58 91
REMARK H PARENT 4 8 82 44 50 55
REMARK Flexibility Score: inf
ROOT
ATOM      1  C   UNL A   1      31.175  29.328  24.812  1.00  0.00     0.274 C 
ENDROOT
BRANCH   1   2
ATOM      2  O   UNL A   1      30.306  29.659  23.713  1.00  0.00    -0.461 OA
BRANCH   2   3
ATOM      3  C   UNL A   1      30.086  28.919  22.603  1.00  0.00     0.325 C 
ATOM      4  O   UNL A   1      29.615  29.464  21.604  1.00  0.00    -0.250 OA
BRANCH   3   5
ATOM      5  C   UNL A   1      30.368  27.418  22.590  1.00  0.00     0.242 C 
BRANCH   5   6
ATOM      6  N   UNL A   1      31.400  26.959  21.686  1.00  0.00    -0.311 N 
ATOM      7  C   UNL A   1      32.633  26.505  22.034  1.00  0.00     0.407 C 
ATOM      8  H   UNL A   1      31.188  26.976  20.724  1.00  0.00     0.167 HD
ATOM      9  O   UNL A   1      33.433  26.123  21.190  1.00  0.00    -0.225 OA
BRANCH   7  10
ATOM     10  O   UNL A   1      32.880  26.577  23.366  1.00  0.00    -0.444 OA
BRANCH  10  11
ATOM     11  C   UNL A   1      32.637  25.367  24.104  1.00  0.00     0.283 C 
BRANCH  11  12
ATOM     12  C   UNL A   1      33.897  24.613  24.250  1.00  0.00     0.087 C 
ATOM     13  C   UNL A   1      34.954  24.893  25.035  1.00  0.00     0.029 C 
ATOM     14  S   UNL A   1      34.069  23.091  23.429  1.00  0.00     0.206 S 
ATOM     15  C   UNL A   1      35.924  23.807  25.065  1.00  0.00    -0.005 A 
ATOM     16  C   UNL A   1      35.555  22.723  24.270  1.00  0.00     0.079 A 
ATOM     17  O   UNL A   1      33.065  22.138  23.847  1.00  0.00    -0.219 OA
ATOM     18  O   UNL A   1      34.383  23.321  22.033  1.00  0.00    -0.219 OA
ATOM     19  C   UNL A   1      37.067  23.721  25.840  1.00  0.00     0.009 A 
ATOM     20  C   UNL A   1      36.238  21.524  24.245  1.00  0.00     0.021 A 
ATOM     21  C   UNL A   1      37.796  22.525  25.821  1.00  0.00     0.001 A 
ATOM     22  C   UNL A   1      37.379  21.432  25.040  1.00  0.00     0.001 A 
ENDBRANCH  11  12
ENDBRANCH  10  11
ENDBRANCH   7  10
ENDBRANCH   5   6
ENDBRANCH   3   5
ENDBRANCH   2   3
ENDBRANCH   1   2
BRANCH   1  23
ATOM     23  C   UNL A   1      31.471  30.515  25.734  1.00  0.00     0.275 C 
BRANCH  23  24
ATOM     24  O   UNL A   1      32.822  30.499  26.227  1.00  0.00    -0.458 OA
BRANCH  24  25
ATOM     25  C   UNL A   1      33.193  31.594  26.944  1.00  0.00     0.338 C 
ATOM     26  O   UNL A   1      32.546  32.615  27.089  1.00  0.00    -0.246 OA
BRANCH  25  27
ATOM     27  C   UNL A   1      34.425  31.277  27.703  1.00  0.00     0.060 A 
ATOM     28  C   UNL A   1      34.652  29.942  28.064  1.00  0.00     0.016 A 
ATOM     29  C   UNL A   1      35.366  32.260  28.025  1.00  0.00     0.016 A 
ATOM     30  C   UNL A   1      35.814  29.592  28.757  1.00  0.00     0.010 A 
ATOM     31  C   UNL A   1      36.527  31.905  28.724  1.00  0.00     0.010 A 
ATOM     32  C   UNL A   1      36.755  30.571  29.109  1.00  0.00    -0.014 A 
BRANCH  32  33
ATOM     33  C   UNL A   1      37.920  30.218  29.967  1.00  0.00     0.031 A 
ATOM     34  C   UNL A   1      38.944  29.241  29.452  1.00  0.00     0.074 A 
ATOM     35  C   UNL A   1      38.078  30.769  31.187  1.00  0.00     0.049 A 
ATOM     36  N   UNL A   1      40.017  28.776  30.039  1.00  0.00    -0.248 NA
ATOM     37  C   UNL A   1      38.725  28.718  28.095  1.00  0.00     0.031 C 
ATOM     38  C   UNL A   1      37.181  31.752  31.791  1.00  0.00     0.029 A 
ATOM     39  N   UNL A   1      39.051  30.576  32.139  1.00  0.00    -0.354 N 
ATOM     40  C   UNL A   1      40.605  27.908  29.125  1.00  0.00     0.074 A 
ATOM     41  C   UNL A   1      39.743  27.880  27.963  1.00  0.00     0.031 C 
ATOM     42  C   UNL A   1      37.646  32.076  33.011  1.00  0.00     0.029 A 
ATOM     43  C   UNL A   1      38.850  31.296  33.295  1.00  0.00     0.049 A 
ATOM     44  H   UNL A   1      39.822  29.978  32.006  1.00  0.00     0.167 HD
ATOM     45  C   UNL A   1      41.763  27.210  29.238  1.00  0.00     0.034 A 
ATOM     46  C   UNL A   1      39.542  31.311  34.455  1.00  0.00     0.034 A 
ATOM     47  C   UNL A   1      42.613  27.234  30.404  1.00  0.00     0.049 A 
ATOM     48  C   UNL A   1      40.777  30.446  34.592  1.00  0.00     0.074 A 
ATOM     49  C   UNL A   1      43.817  26.579  30.602  1.00  0.00     0.029 A 
ATOM     50  N   UNL A   1      42.348  27.933  31.575  1.00  0.00    -0.354 N 
ATOM     51  N   UNL A   1      41.335  29.652  33.706  1.00  0.00    -0.248 NA
ATOM     52  C   UNL A   1      41.481  30.486  35.882  1.00  0.00     0.031 C 
ATOM     53  C   UNL A   1      44.232  26.806  31.918  1.00  0.00     0.029 A 
ATOM     54  C   UNL A   1      43.340  27.686  32.512  1.00  0.00     0.049 A 
ATOM     55  H   UNL A   1      41.570  28.517  31.718  1.00  0.00     0.167 HD
ATOM     56  C   UNL A   1      42.475  29.136  34.322  1.00  0.00     0.074 A 
ATOM     57  C   UNL A   1      42.533  29.718  35.644  1.00  0.00     0.031 C 
ATOM     58  C   UNL A   1      43.394  28.263  33.834  1.00  0.00     0.034 A 
BRANCH  45  59
ATOM     59  C   UNL A   1      42.157  26.318  28.087  1.00  0.00     0.023 A 
ATOM     60  C   UNL A   1      41.790  24.962  28.038  1.00  0.00     0.031 A 
ATOM     61  C   UNL A   1      42.905  26.837  27.015  1.00  0.00     0.131 A 
ATOM     62  C   UNL A   1      42.220  24.159  26.972  1.00  0.00     0.055 A 
ATOM     63  C   UNL A   1      43.261  26.053  25.917  1.00  0.00     0.041 A 
ATOM     64  F   UNL A   1      43.305  28.118  27.017  1.00  0.00    -0.206 F 
ATOM     65  C   UNL A   1      42.928  24.701  25.896  1.00  0.00     0.022 A 
BRANCH  62  66
ATOM     66  S   UNL A   1      41.956  22.368  27.073  1.00  0.00     0.124 S 
ATOM     67  O   UNL A   1      42.091  21.971  25.673  1.00  0.00    -0.237 OA
ATOM     68  O   UNL A   1      43.028  21.942  27.964  1.00  0.00    -0.237 OA
ATOM     69  O   UNL A   1      40.606  22.250  27.617  1.00  0.00    -0.744 OA
ENDBRANCH  62  66
ENDBRANCH  45  59
BRANCH  46  70
ATOM     70  C   UNL A   1      39.074  32.129  35.616  1.00  0.00     0.023 A 
ATOM     71  C   UNL A   1      39.516  33.449  35.803  1.00  0.00     0.031 A 
ATOM     72  C   UNL A   1      38.253  31.566  36.610  1.00  0.00     0.131 A 
ATOM     73  C   UNL A   1      39.196  34.135  36.985  1.00  0.00     0.055 A 
ATOM     74  C   UNL A   1      37.878  32.279  37.751  1.00  0.00     0.041 A 
ATOM     75  F   UNL A   1      37.807  30.305  36.492  1.00  0.00    -0.206 F 
ATOM     76  C   UNL A   1      38.365  33.565  37.952  1.00  0.00     0.022 A 
BRANCH  73  77
ATOM     77  S   UNL A   1      39.988  35.737  37.303  1.00  0.00     0.124 S 
ATOM     78  O   UNL A   1      39.659  36.473  36.087  1.00  0.00    -0.237 OA
ATOM     79  O   UNL A   1      39.314  36.172  38.521  1.00  0.00    -0.237 OA
ATOM     80  O   UNL A   1      41.400  35.391  37.461  1.00  0.00    -0.744 OA
ENDBRANCH  73  77
ENDBRANCH  46  70
BRANCH  58  81
ATOM     81  C   UNL A   1      44.576  27.925  34.717  1.00  0.00     0.023 A 
ATOM     82  C   UNL A   1      44.575  26.807  35.570  1.00  0.00     0.031 A 
ATOM     83  C   UNL A   1      45.723  28.740  34.705  1.00  0.00     0.131 A 
ATOM     84  C   UNL A   1      45.671  26.568  36.415  1.00  0.00     0.055 A 
ATOM     85  C   UNL A   1      46.839  28.458  35.495  1.00  0.00     0.041 A 
ATOM     86  F   UNL A   1      45.783  29.825  33.915  1.00  0.00    -0.206 F 
ATOM     87  C   UNL A   1      46.811  27.375  36.368  1.00  0.00     0.022 A 
BRANCH  84  88
ATOM     88  S   UNL A   1      45.547  25.247  37.653  1.00  0.00     0.124 S 
ATOM     89  O   UNL A   1      46.099  25.893  38.840  1.00  0.00    -0.237 OA
ATOM     90  O   UNL A   1      44.113  24.980  37.682  1.00  0.00    -0.237 OA
ATOM     91  O   UNL A   1      46.366  24.174  37.093  1.00  0.00    -0.744 OA
ENDBRANCH  84  88
ENDBRANCH  58  81
ENDBRANCH  32  33
ENDBRANCH  25  27
ENDBRANCH  24  25
ENDBRANCH  23  24
ENDBRANCH   1  23
TORSDOF 18
ENDMDL
MODEL 2
REMARK VINA RESULT:     -11.3      1.680      2.045
REMARK SMILES O=C(CNC(=O)OCC1=Cc2ccccc2S1(=O)=O)OCCOC(=O)c1ccc(-c2c3nc(c(-c4cc(S(=O)(=O)[O-])ccc4F)c4ccc([nH]4)c(-c4cc(S(=O)(=O)[O-])ccc4F)c4nc(c(-c5cc(S(=O)(=O)[O-])ccc5F)c5ccc2[nH]5)C=C4)C=C3)cc1
REMARK SMILES IDX 21 1 20 2 2 3 1 4 3 5 4 6 5 7 6 9 7 10 8 11 9 12 10 13 17 14
REMARK SMILES IDX 11 15 16 16 18 17 19 18 12 19 15 20 13 21 14 22 22 23 23 24
REMARK SMILES IDX 24 25 25 26 26 27 27 28 88 29 28 30 87 31 29 32 30 33 31 34
REMARK SMILES IDX 81 35 32 36 86 37 80 38 82 39 33 40 85 41 79 42 78 43 34 45
REMARK SMILES IDX 66 46 46 47 65 48 47 49 50 50 64 51 83 52 48 53 49 54 63 56
REMARK SMILES IDX 84 57 51 58 35 59 36 60 44 61 37 62 43 63 45 64 42 65 38 66
REMARK SMILES IDX 39 67 40 68 41 69 67 70 68 71 76 72 69 73 75 74 77 75 74 76
REMARK SMILES IDX 70 77 71 78 72 79 73 80 52 81 53 82 61 83 54 84 60 85 62 86
REMARK SMILES IDX 59 87 55 88 56 89 57 90 58 91
REMARK H PARENT 4 8 82 44 50 55
REMARK Flexibility Score: inf
ROOT
ATOM      1  C   UNL A   1      31.250  29.285  24.737  1.00  0.00     0.274 C 
ENDROOT
BRANCH   1   2
ATOM      2  O   UNL A   1      30.421  29.669  23.625  1.00  0.00    -0.461 OA
BRANCH   2   3
ATOM      3  C   UNL A   1      30.126  28.921  22.537  1.00  0.00     0.325 C 
ATOM      4  O   UNL A   1      29.466  29.423  21.627  1.00  0.00    -0.250 OA
BRANCH   3   5
ATOM      5  C   UNL A   1      30.556  27.458  22.449  1.00  0.00     0.242 C 
BRANCH   5   6
ATOM      6  N   UNL A   1      31.866  27.199  21.891  1.00  0.00    -0.311 N 
ATOM      7  C   UNL A   1      32.585  26.054  22.021  1.00  0.00     0.407 C 
ATOM      8  H   UNL A   1      32.275  27.924  21.365  1.00  0.00     0.167 HD
ATOM      9  O   UNL A   1      33.683  25.927  21.494  1.00  0.00    -0.225 OA
BRANCH   7  10
ATOM     10  O   UNL A   1      31.992  25.129  22.817  1.00  0.00    -0.444 OA
BRANCH  10  11
ATOM     11  C   UNL A   1      32.552  25.000  24.134  1.00  0.00     0.283 C 
BRANCH  11  12
ATOM     12  C   UNL A   1      32.881  23.587  24.399  1.00  0.00     0.087 C 
ATOM     13  C   UNL A   1      32.168  22.489  24.085  1.00  0.00     0.029 C 
ATOM     14  S   UNL A   1      34.425  23.194  25.093  1.00  0.00     0.206 S 
ATOM     15  C   UNL A   1      32.913  21.259  24.323  1.00  0.00    -0.005 A 
ATOM     16  C   UNL A   1      34.191  21.485  24.831  1.00  0.00     0.079 A 
ATOM     17  O   UNL A   1      35.519  23.635  24.256  1.00  0.00    -0.219 OA
ATOM     18  O   UNL A   1      34.396  23.442  26.521  1.00  0.00    -0.219 OA
ATOM     19  C   UNL A   1      32.522  19.967  24.018  1.00  0.00     0.009 A 
ATOM     20  C   UNL A   1      35.133  20.490  25.004  1.00  0.00     0.021 A 
ATOM     21  C   UNL A   1      33.446  18.931  24.203  1.00  0.00     0.001 A 
ATOM     22  C   UNL A   1      34.743  19.191  24.680  1.00  0.00     0.001 A 
ENDBRANCH  11  12
ENDBRANCH  10  11
ENDBRANCH   7  10
ENDBRANCH   5   6
ENDBRANCH   3   5
ENDBRANCH   2   3
ENDBRANCH   1   2
BRANCH   1  23
ATOM     23  C   UNL A   1      31.518  30.427  25.721  1.00  0.00     0.275 C 
BRANCH  23  24
ATOM     24  O   UNL A   1      32.861  30.401  26.235  1.00  0.00    -0.458 OA
BRANCH  24  25
ATOM     25  C   UNL A   1      33.212  31.470  26.999  1.00  0.00     0.338 C 
ATOM     26  O   UNL A   1      32.537  32.461  27.208  1.00  0.00    -0.246 OA
BRANCH  25  27
ATOM     27  C   UNL A   1      34.468  31.154  27.718  1.00  0.00     0.060 A 
ATOM     28  C   UNL A   1      34.715  29.818  28.060  1.00  0.00     0.016 A 
ATOM     29  C   UNL A   1      35.412  32.141  28.021  1.00  0.00     0.016 A 
ATOM     30  C   UNL A   1      35.900  29.470  28.714  1.00  0.00     0.010 A 
ATOM     31  C   UNL A   1      36.596  31.788  28.681  1.00  0.00     0.010 A 
ATOM     32  C   UNL A   1      36.844  30.452  29.047  1.00  0.00    -0.014 A 
BRANCH  32  33
ATOM     33  C   UNL A   1      38.037  30.100  29.866  1.00  0.00     0.031 A 
ATOM     34  C   UNL A   1      39.046  29.126  29.316  1.00  0.00     0.074 A 
ATOM     35  C   UNL A   1      38.233  30.648  31.082  1.00  0.00     0.049 A 
ATOM     36  N   UNL A   1      40.138  28.662  29.868  1.00  0.00    -0.248 NA
ATOM     37  C   UNL A   1      38.785  28.605  27.966  1.00  0.00     0.031 C 
ATOM     38  C   UNL A   1      37.354  31.628  31.717  1.00  0.00     0.029 A 
ATOM     39  N   UNL A   1      39.236  30.454  32.002  1.00  0.00    -0.354 N 
ATOM     40  C   UNL A   1      40.699  27.798  28.933  1.00  0.00     0.074 A 
ATOM     41  C   UNL A   1      39.800  27.770  27.799  1.00  0.00     0.031 C 
ATOM     42  C   UNL A   1      37.856  31.949  32.922  1.00  0.00     0.029 A 
ATOM     43  C   UNL A   1      39.071  31.171  33.166  1.00  0.00     0.049 A 
ATOM     44  H   UNL A   1      40.003  29.858  31.842  1.00  0.00     0.167 HD
ATOM     45  C   UNL A   1      41.861  27.102  29.008  1.00  0.00     0.034 A 
ATOM     46  C   UNL A   1      39.799  31.184  34.303  1.00  0.00     0.034 A 
ATOM     47  C   UNL A   1      42.748  27.125  30.146  1.00  0.00     0.049 A 
ATOM     48  C   UNL A   1      41.040  30.322  34.398  1.00  0.00     0.074 A 
ATOM     49  C   UNL A   1      43.958  26.471  30.303  1.00  0.00     0.029 A 
ATOM     50  N   UNL A   1      42.519  27.820  31.326  1.00  0.00    -0.354 N 
ATOM     51  N   UNL A   1      41.571  29.532  33.493  1.00  0.00    -0.248 NA
ATOM     52  C   UNL A   1      41.785  30.361  35.665  1.00  0.00     0.031 C 
ATOM     53  C   UNL A   1      44.415  26.696  31.606  1.00  0.00     0.029 A 
ATOM     54  C   UNL A   1      43.541  27.572  32.230  1.00  0.00     0.049 A 
ATOM     55  H   UNL A   1      41.745  28.402  31.496  1.00  0.00     0.167 HD
ATOM     56  C   UNL A   1      42.731  29.017  34.070  1.00  0.00     0.074 A 
ATOM     57  C   UNL A   1      42.830  29.595  35.392  1.00  0.00     0.031 C 
ATOM     58  C   UNL A   1      43.636  28.147  33.551  1.00  0.00     0.034 A 
BRANCH  45  59
ATOM     59  C   UNL A   1      42.219  26.213  27.842  1.00  0.00     0.023 A 
ATOM     60  C   UNL A   1      41.717  24.906  27.722  1.00  0.00     0.031 A 
ATOM     61  C   UNL A   1      43.072  26.687  26.828  1.00  0.00     0.131 A 
ATOM     62  C   UNL A   1      42.117  24.099  26.646  1.00  0.00     0.055 A 
ATOM     63  C   UNL A   1      43.401  25.908  25.718  1.00  0.00     0.041 A 
ATOM     64  F   UNL A   1      43.601  27.918  26.900  1.00  0.00    -0.206 F 
ATOM     65  C   UNL A   1      42.932  24.600  25.628  1.00  0.00     0.022 A 
BRANCH  62  66
ATOM     66  S   UNL A   1      41.664  22.343  26.664  1.00  0.00     0.124 S 
ATOM     67  O   UNL A   1      42.399  21.839  25.506  1.00  0.00    -0.237 OA
ATOM     68  O   UNL A   1      42.147  21.906  27.968  1.00  0.00    -0.237 OA
ATOM     69  O   UNL A   1      40.212  22.362  26.509  1.00  0.00    -0.744 OA
ENDBRANCH  62  66
ENDBRANCH  45  59
BRANCH  46  70
ATOM     70  C   UNL A   1      39.367  31.999  35.480  1.00  0.00     0.023 A 
ATOM     71  C   UNL A   1      38.675  31.417  36.555  1.00  0.00     0.031 A 
ATOM     72  C   UNL A   1      39.555  33.393  35.500  1.00  0.00     0.131 A 
ATOM     73  C   UNL A   1      38.136  32.231  37.565  1.00  0.00     0.055 A 
ATOM     74  C   UNL A   1      39.078  34.189  36.543  1.00  0.00     0.041 A 
ATOM     75  F   UNL A   1      40.200  34.007  34.495  1.00  0.00    -0.206 F 
ATOM     76  C   UNL A   1      38.348  33.610  37.575  1.00  0.00     0.022 A 
BRANCH  73  77
ATOM     77  S   UNL A   1      37.039  31.474  38.797  1.00  0.00     0.124 S 
ATOM     78  O   UNL A   1      37.850  31.564  40.006  1.00  0.00    -0.237 OA
ATOM     79  O   UNL A   1      35.871  32.347  38.740  1.00  0.00    -0.237 OA
ATOM     80  O   UNL A   1      36.832  30.122  38.282  1.00  0.00    -0.744 OA
ENDBRANCH  73  77
ENDBRANCH  46  70
BRANCH  58  81
ATOM     81  C   UNL A   1      44.846  27.809  34.395  1.00  0.00     0.023 A 
ATOM     82  C   UNL A   1      44.924  26.624  35.150  1.00  0.00     0.031 A 
ATOM     83  C   UNL A   1      45.941  28.692  34.446  1.00  0.00     0.131 A 
ATOM     84  C   UNL A   1      46.041  26.384  35.964  1.00  0.00     0.055 A 
ATOM     85  C   UNL A   1      47.080  28.413  35.202  1.00  0.00     0.041 A 
ATOM     86  F   UNL A   1      45.925  29.841  33.751  1.00  0.00    -0.206 F 
ATOM     87  C   UNL A   1      47.129  27.261  35.980  1.00  0.00     0.022 A 
BRANCH  84  88
ATOM     88  S   UNL A   1      46.013  24.957  37.086  1.00  0.00     0.124 S 
ATOM     89  O   UNL A   1      45.410  25.528  38.286  1.00  0.00    -0.237 OA
ATOM     90  O   UNL A   1      45.189  24.001  36.354  1.00  0.00    -0.237 OA
ATOM     91  O   UNL A   1      47.422  24.592  37.213  1.00  0.00    -0.744 OA
ENDBRANCH  84  88
ENDBRANCH  58  81
ENDBRANCH  32  33
ENDBRANCH  25  27
ENDBRANCH  24  25
ENDBRANCH  23  24
ENDBRANCH   1  23
TORSDOF 18
ENDMDL
MODEL 3
REMARK VINA RESULT:     -11.0      4.799     10.293
REMARK SMILES O=C(CNC(=O)OCC1=Cc2ccccc2S1(=O)=O)OCCOC(=O)c1ccc(-c2c3nc(c(-c4cc(S(=O)(=O)[O-])ccc4F)c4ccc([nH]4)c(-c4cc(S(=O)(=O)[O-])ccc4F)c4nc(c(-c5cc(S(=O)(=O)[O-])ccc5F)c5ccc2[nH]5)C=C4)C=C3)cc1
REMARK SMILES IDX 21 1 20 2 2 3 1 4 3 5 4 6 5 7 6 9 7 10 8 11 9 12 10 13 17 14
REMARK SMILES IDX 11 15 16 16 18 17 19 18 12 19 15 20 13 21 14 22 22 23 23 24
REMARK SMILES IDX 24 25 25 26 26 27 27 28 88 29 28 30 87 31 29 32 30 33 31 34
REMARK SMILES IDX 81 35 32 36 86 37 80 38 82 39 33 40 85 41 79 42 78 43 34 45
REMARK SMILES IDX 66 46 46 47 65 48 47 49 50 50 64 51 83 52 48 53 49 54 63 56
REMARK SMILES IDX 84 57 51 58 35 59 36 60 44 61 37 62 43 63 45 64 42 65 38 66
REMARK SMILES IDX 39 67 40 68 41 69 67 70 68 71 76 72 69 73 75 74 77 75 74 76
REMARK SMILES IDX 70 77 71 78 72 79 73 80 52 81 53 82 61 83 54 84 60 85 62 86
REMARK SMILES IDX 59 87 55 88 56 89 57 90 58 91
REMARK H PARENT 4 8 82 44 50 55
REMARK Flexibility Score: inf
ROOT
ATOM      1  C   UNL A   1      35.552  21.861  24.092  1.00  0.00     0.274 C 
ENDROOT
BRANCH   1   2
ATOM      2  O   UNL A   1      34.194  22.168  24.454  1.00  0.00    -0.461 OA
BRANCH   2   3
ATOM      3  C   UNL A   1      33.071  21.709  23.856  1.00  0.00     0.325 C 
ATOM      4  O   UNL A   1      32.605  20.625  24.209  1.00  0.00    -0.250 OA
BRANCH   3   5
ATOM      5  C   UNL A   1      32.408  22.490  22.723  1.00  0.00     0.242 C 
BRANCH   5   6
ATOM      6  N   UNL A   1      33.170  23.579  22.152  1.00  0.00    -0.311 N 
ATOM      7  C   UNL A   1      32.884  24.903  22.253  1.00  0.00     0.407 C 
ATOM      8  H   UNL A   1      33.976  23.336  21.640  1.00  0.00     0.167 HD
ATOM      9  O   UNL A   1      33.604  25.752  21.744  1.00  0.00    -0.225 OA
BRANCH   7  10
ATOM     10  O   UNL A   1      31.723  25.157  22.908  1.00  0.00    -0.444 OA
BRANCH  10  11
ATOM     11  C   UNL A   1      31.805  26.152  23.943  1.00  0.00     0.283 C 
BRANCH  11  12
ATOM     12  C   UNL A   1      30.934  27.294  23.606  1.00  0.00     0.087 C 
ATOM     13  C   UNL A   1      29.675  27.274  23.132  1.00  0.00     0.029 C 
ATOM     14  S   UNL A   1      31.485  28.906  23.950  1.00  0.00     0.206 S 
ATOM     15  C   UNL A   1      29.069  28.599  23.117  1.00  0.00    -0.005 A 
ATOM     16  C   UNL A   1      29.924  29.596  23.585  1.00  0.00     0.079 A 
ATOM     17  O   UNL A   1      31.746  29.096  25.359  1.00  0.00    -0.219 OA
ATOM     18  O   UNL A   1      32.419  29.332  22.927  1.00  0.00    -0.219 OA
ATOM     19  C   UNL A   1      27.764  28.923  22.789  1.00  0.00     0.009 A 
ATOM     20  C   UNL A   1      29.532  30.902  23.798  1.00  0.00     0.021 A 
ATOM     21  C   UNL A   1      27.340  30.246  22.972  1.00  0.00     0.001 A 
ATOM     22  C   UNL A   1      28.213  31.224  23.483  1.00  0.00     0.001 A 
ENDBRANCH  11  12
ENDBRANCH  10  11
ENDBRANCH   7  10
ENDBRANCH   5   6
ENDBRANCH   3   5
ENDBRANCH   2   3
ENDBRANCH   1   2
BRANCH   1  23
ATOM     23  C   UNL A   1      36.191  20.785  24.975  1.00  0.00     0.275 C 
BRANCH  23  24
ATOM     24  O   UNL A   1      37.015  21.348  26.010  1.00  0.00    -0.458 OA
BRANCH  24  25
ATOM     25  C   UNL A   1      38.345  21.086  25.902  1.00  0.00     0.338 C 
ATOM     26  O   UNL A   1      38.848  20.112  25.371  1.00  0.00    -0.246 OA
BRANCH  25  27
ATOM     27  C   UNL A   1      39.108  22.275  26.347  1.00  0.00     0.060 A 
ATOM     28  C   UNL A   1      38.587  23.541  26.050  1.00  0.00     0.016 A 
ATOM     29  C   UNL A   1      40.294  22.159  27.079  1.00  0.00     0.016 A 
ATOM     30  C   UNL A   1      39.258  24.692  26.474  1.00  0.00     0.010 A 
ATOM     31  C   UNL A   1      40.966  23.315  27.498  1.00  0.00     0.010 A 
ATOM     32  C   UNL A   1      40.461  24.592  27.187  1.00  0.00    -0.014 A 
BRANCH  32  33
ATOM     33  C   UNL A   1      41.244  25.816  27.514  1.00  0.00     0.031 A 
ATOM     34  C   UNL A   1      40.584  26.926  28.290  1.00  0.00     0.074 A 
ATOM     35  C   UNL A   1      42.533  25.938  27.140  1.00  0.00     0.049 A 
ATOM     36  N   UNL A   1      41.070  28.083  28.658  1.00  0.00    -0.248 NA
ATOM     37  C   UNL A   1      39.190  26.699  28.699  1.00  0.00     0.031 C 
ATOM     38  C   UNL A   1      43.302  24.927  26.418  1.00  0.00     0.029 A 
ATOM     39  N   UNL A   1      43.424  26.971  27.317  1.00  0.00    -0.354 N 
ATOM     40  C   UNL A   1      40.045  28.724  29.347  1.00  0.00     0.074 A 
ATOM     41  C   UNL A   1      38.898  27.842  29.304  1.00  0.00     0.031 C 
ATOM     42  C   UNL A   1      44.548  25.389  26.212  1.00  0.00     0.029 A 
ATOM     43  C   UNL A   1      44.659  26.744  26.751  1.00  0.00     0.049 A 
ATOM     44  H   UNL A   1      43.199  27.796  27.804  1.00  0.00     0.167 HD
ATOM     45  C   UNL A   1      40.061  29.929  29.969  1.00  0.00     0.034 A 
ATOM     46  C   UNL A   1      45.745  27.542  26.659  1.00  0.00     0.034 A 
ATOM     47  C   UNL A   1      41.204  30.810  30.000  1.00  0.00     0.049 A 
ATOM     48  C   UNL A   1      45.704  28.923  27.277  1.00  0.00     0.074 A 
ATOM     49  C   UNL A   1      41.323  32.040  30.625  1.00  0.00     0.029 A 
ATOM     50  N   UNL A   1      42.418  30.569  29.370  1.00  0.00    -0.354 N 
ATOM     51  N   UNL A   1      44.735  29.502  27.950  1.00  0.00    -0.248 NA
ATOM     52  C   UNL A   1      46.907  29.756  27.132  1.00  0.00     0.031 C 
ATOM     53  C   UNL A   1      42.570  32.582  30.298  1.00  0.00     0.029 A 
ATOM     54  C   UNL A   1      43.271  31.647  29.552  1.00  0.00     0.049 A 
ATOM     55  H   UNL A   1      42.640  29.753  28.868  1.00  0.00     0.167 HD
ATOM     56  C   UNL A   1      45.232  30.745  28.340  1.00  0.00     0.074 A 
ATOM     57  C   UNL A   1      46.587  30.827  27.841  1.00  0.00     0.031 C 
ATOM     58  C   UNL A   1      44.623  31.729  29.050  1.00  0.00     0.034 A 
BRANCH  45  59
ATOM     59  C   UNL A   1      38.786  30.393  30.629  1.00  0.00     0.023 A 
ATOM     60  C   UNL A   1      37.757  31.017  29.901  1.00  0.00     0.031 A 
ATOM     61  C   UNL A   1      38.593  30.200  32.008  1.00  0.00     0.131 A 
ATOM     62  C   UNL A   1      36.610  31.475  30.565  1.00  0.00     0.055 A 
ATOM     63  C   UNL A   1      37.414  30.585  32.649  1.00  0.00     0.041 A 
ATOM     64  F   UNL A   1      39.549  29.632  32.760  1.00  0.00    -0.206 F 
ATOM     65  C   UNL A   1      36.418  31.239  31.928  1.00  0.00     0.022 A 
BRANCH  62  66
ATOM     66  S   UNL A   1      35.430  32.504  29.649  1.00  0.00     0.124 S 
ATOM     67  O   UNL A   1      35.096  31.636  28.523  1.00  0.00    -0.237 OA
ATOM     68  O   UNL A   1      34.372  32.717  30.629  1.00  0.00    -0.237 OA
ATOM     69  O   UNL A   1      36.208  33.691  29.302  1.00  0.00    -0.744 OA
ENDBRANCH  62  66
ENDBRANCH  45  59
BRANCH  46  70
ATOM     70  C   UNL A   1      46.962  27.095  25.914  1.00  0.00     0.023 A 
ATOM     71  C   UNL A   1      48.017  26.438  26.568  1.00  0.00     0.031 A 
ATOM     72  C   UNL A   1      47.129  27.409  24.553  1.00  0.00     0.131 A 
ATOM     73  C   UNL A   1      49.216  26.180  25.883  1.00  0.00     0.055 A 
ATOM     74  C   UNL A   1      48.296  27.086  23.857  1.00  0.00     0.041 A 
ATOM     75  F   UNL A   1      46.159  28.046  23.877  1.00  0.00    -0.206 F 
ATOM     76  C   UNL A   1      49.355  26.484  24.527  1.00  0.00     0.022 A 
BRANCH  73  77
ATOM     77  S   UNL A   1      50.639  25.561  26.823  1.00  0.00     0.124 S 
ATOM     78  O   UNL A   1      51.565  25.205  25.754  1.00  0.00    -0.237 OA
ATOM     79  O   UNL A   1      51.001  26.724  27.626  1.00  0.00    -0.237 OA
ATOM     80  O   UNL A   1      50.086  24.434  27.572  1.00  0.00    -0.744 OA
ENDBRANCH  73  77
ENDBRANCH  46  70
BRANCH  58  81
ATOM     81  C   UNL A   1      45.438  32.961  29.382  1.00  0.00     0.023 A 
ATOM     82  C   UNL A   1      45.343  34.144  28.627  1.00  0.00     0.031 A 
ATOM     83  C   UNL A   1      46.327  32.947  30.472  1.00  0.00     0.131 A 
ATOM     84  C   UNL A   1      46.163  35.240  28.936  1.00  0.00     0.055 A 
ATOM     85  C   UNL A   1      47.089  34.065  30.818  1.00  0.00     0.041 A 
ATOM     86  F   UNL A   1      46.466  31.845  31.228  1.00  0.00    -0.206 F 
ATOM     87  C   UNL A   1      47.021  35.215  30.040  1.00  0.00     0.022 A 
BRANCH  84  88
ATOM     88  S   UNL A   1      46.172  36.668  27.816  1.00  0.00     0.124 S 
ATOM     89  O   UNL A   1      45.629  37.723  28.665  1.00  0.00    -0.237 OA
ATOM     90  O   UNL A   1      47.586  36.789  27.477  1.00  0.00    -0.237 OA
ATOM     91  O   UNL A   1      45.305  36.247  26.716  1.00  0.00    -0.744 OA
ENDBRANCH  84  88
ENDBRANCH  58  81
ENDBRANCH  32  33
ENDBRANCH  25  27
ENDBRANCH  24  25
ENDBRANCH  23  24
ENDBRANCH   1  23
TORSDOF 18
ENDMDL
