MODEL 1
REMARK VINA RESULT:     -11.7      0.000      0.000
REMARK SMILES CCCC[C@H](C(=O)OCCOC(=O)c1ccc(-c2c3nc(c(-c4cc(S(=O)(=O)[O-])ccc4F)c4ccc([nH]4)c(-c4cc(S(=O)(=O)[O-])ccc4F)c4nc(c(-c5cc(S(=O)(=O)[O-])ccc5F)c5ccc2[nH]5)C=C4)C=C3)cc1)N1C(=O)/C(=C/c2ccc(C)cc2)SC1=S
REMARK SMILES IDX 9 1 8 2 6 3 7 4 5 5 4 6 3 7 2 8 1 9 77 10 78 11 90 12 79 13
REMARK SMILES IDX 80 14 89 15 91 16 81 17 82 18 83 19 88 20 84 21 87 22 85 23
REMARK SMILES IDX 86 24 10 25 11 26 12 27 13 28 14 29 15 30 76 31 16 32 75 33
REMARK SMILES IDX 17 34 18 35 19 36 69 37 20 38 74 39 68 40 70 41 21 42 73 43
REMARK SMILES IDX 67 44 66 45 22 47 54 48 34 49 53 50 35 51 38 52 52 53 71 54
REMARK SMILES IDX 36 55 37 56 51 58 72 59 39 60 23 61 24 62 32 63 25 64 31 65
REMARK SMILES IDX 33 66 30 67 26 68 27 69 28 70 29 71 55 72 56 73 64 74 57 75
REMARK SMILES IDX 63 76 65 77 62 78 58 79 59 80 60 81 61 82 40 83 41 84 49 85
REMARK SMILES IDX 42 86 48 87 50 88 47 89 43 90 44 91 45 92 46 93
REMARK H PARENT 70 46 38 57
REMARK Flexibility Score: inf
ROOT
ATOM      1  C   UNL A   1      36.120  20.115  24.993  1.00  0.00     0.274 C 
ENDROOT
BRANCH   1   2
ATOM      2  O   UNL A   1      35.691  21.430  25.412  1.00  0.00    -0.461 OA
BRANCH   2   3
ATOM      3  C   UNL A   1      34.423  21.535  25.914  1.00  0.00     0.329 C 
ATOM      4  O   UNL A   1      34.131  21.337  27.084  1.00  0.00    -0.250 OA
BRANCH   3   5
ATOM      5  C   UNL A   1      33.413  21.847  24.803  1.00  0.00     0.202 C 
BRANCH   5   6
ATOM      6  C   UNL A   1      32.330  20.749  24.657  1.00  0.00     0.038 C 
BRANCH   6   7
ATOM      7  C   UNL A   1      32.546  19.631  23.627  1.00  0.00     0.002 C 
BRANCH   7   8
ATOM      8  C   UNL A   1      32.542  18.176  24.126  1.00  0.00    -0.003 C 
ATOM      9  C   UNL A   1      32.711  17.974  25.626  1.00  0.00     0.004 C 
ENDBRANCH   7   8
ENDBRANCH   6   7
ENDBRANCH   5   6
BRANCH   5  10
ATOM     10  N   UNL A   1      32.869  23.238  24.929  1.00  0.00    -0.278 N 
ATOM     11  C   UNL A   1      33.589  24.271  24.315  1.00  0.00     0.266 C 
ATOM     12  C   UNL A   1      31.792  23.669  25.684  1.00  0.00     0.149 C 
ATOM     13  O   UNL A   1      34.586  24.127  23.622  1.00  0.00    -0.268 OA
ATOM     14  C   UNL A   1      33.005  25.601  24.678  1.00  0.00     0.081 C 
ATOM     15  S   UNL A   1      31.413  25.330  25.258  1.00  0.00    -0.054 SA
ATOM     16  S   UNL A   1      30.903  22.919  26.875  1.00  0.00    -0.052 S 
ATOM     17  C   UNL A   1      33.668  26.772  24.668  1.00  0.00     0.029 C 
BRANCH  17  18
ATOM     18  C   UNL A   1      33.147  28.058  25.191  1.00  0.00    -0.024 A 
ATOM     19  C   UNL A   1      32.296  28.857  24.422  1.00  0.00     0.008 A 
ATOM     20  C   UNL A   1      33.507  28.528  26.463  1.00  0.00     0.008 A 
ATOM     21  C   UNL A   1      31.752  30.038  24.954  1.00  0.00     0.004 A 
ATOM     22  C   UNL A   1      32.961  29.693  27.000  1.00  0.00     0.004 A 
ATOM     23  C   UNL A   1      32.063  30.451  26.256  1.00  0.00    -0.051 A 
ATOM     24  C   UNL A   1      31.408  31.653  26.874  1.00  0.00     0.044 C 
ENDBRANCH  17  18
ENDBRANCH   5  10
ENDBRANCH   3   5
ENDBRANCH   2   3
ENDBRANCH   1   2
BRANCH   1  25
ATOM     25  C   UNL A   1      37.638  19.953  24.927  1.00  0.00     0.275 C 
BRANCH  25  26
ATOM     26  O   UNL A   1      38.302  21.118  25.442  1.00  0.00    -0.458 OA
BRANCH  26  27
ATOM     27  C   UNL A   1      39.436  20.866  26.129  1.00  0.00     0.338 C 
ATOM     28  O   UNL A   1      40.090  19.831  26.118  1.00  0.00    -0.246 OA
BRANCH  27  29
ATOM     29  C   UNL A   1      39.906  22.093  26.779  1.00  0.00     0.060 A 
ATOM     30  C   UNL A   1      39.299  23.277  26.380  1.00  0.00     0.016 A 
ATOM     31  C   UNL A   1      40.977  22.117  27.668  1.00  0.00     0.016 A 
ATOM     32  C   UNL A   1      39.769  24.498  26.826  1.00  0.00     0.010 A 
ATOM     33  C   UNL A   1      41.461  23.355  28.118  1.00  0.00     0.010 A 
ATOM     34  C   UNL A   1      40.885  24.556  27.663  1.00  0.00    -0.014 A 
BRANCH  34  35
ATOM     35  C   UNL A   1      41.493  25.887  27.921  1.00  0.00     0.031 A 
ATOM     36  C   UNL A   1      42.861  26.191  27.365  1.00  0.00     0.074 A 
ATOM     37  C   UNL A   1      40.766  26.857  28.509  1.00  0.00     0.049 A 
ATOM     38  N   UNL A   1      43.573  27.282  27.470  1.00  0.00    -0.248 NA
ATOM     39  C   UNL A   1      43.502  25.131  26.568  1.00  0.00     0.031 C 
ATOM     40  C   UNL A   1      39.390  26.703  28.990  1.00  0.00     0.029 A 
ATOM     41  N   UNL A   1      41.069  28.166  28.788  1.00  0.00    -0.354 N 
ATOM     42  C   UNL A   1      44.729  27.052  26.729  1.00  0.00     0.074 A 
ATOM     43  C   UNL A   1      44.657  25.692  26.244  1.00  0.00     0.031 C 
ATOM     44  C   UNL A   1      38.972  27.869  29.507  1.00  0.00     0.029 A 
ATOM     45  C   UNL A   1      40.069  28.830  29.462  1.00  0.00     0.049 A 
ATOM     46  H   UNL A   1      41.920  28.590  28.533  1.00  0.00     0.167 HD
ATOM     47  C   UNL A   1      45.733  27.915  26.437  1.00  0.00     0.034 A 
ATOM     48  C   UNL A   1      40.056  30.053  30.029  1.00  0.00     0.034 A 
ATOM     49  C   UNL A   1      45.772  29.279  26.910  1.00  0.00     0.049 A 
ATOM     50  C   UNL A   1      41.286  30.913  29.895  1.00  0.00     0.074 A 
ATOM     51  C   UNL A   1      46.709  30.261  26.644  1.00  0.00     0.029 A 
ATOM     52  N   UNL A   1      44.827  29.852  27.752  1.00  0.00    -0.354 N 
ATOM     53  N   UNL A   1      42.389  30.673  29.221  1.00  0.00    -0.248 NA
ATOM     54  C   UNL A   1      41.279  32.198  30.604  1.00  0.00     0.031 C 
ATOM     55  C   UNL A   1      46.367  31.405  27.377  1.00  0.00     0.029 A 
ATOM     56  C   UNL A   1      45.184  31.157  28.055  1.00  0.00     0.049 A 
ATOM     57  H   UNL A   1      44.019  29.397  28.086  1.00  0.00     0.167 HD
ATOM     58  C   UNL A   1      43.199  31.787  29.411  1.00  0.00     0.074 A 
ATOM     59  C   UNL A   1      42.453  32.703  30.252  1.00  0.00     0.031 C 
ATOM     60  C   UNL A   1      44.442  32.038  28.927  1.00  0.00     0.034 A 
BRANCH  47  61
ATOM     61  C   UNL A   1      46.858  27.417  25.560  1.00  0.00     0.023 A 
ATOM     62  C   UNL A   1      46.978  27.825  24.220  1.00  0.00     0.031 A 
ATOM     63  C   UNL A   1      47.838  26.549  26.067  1.00  0.00     0.131 A 
ATOM     64  C   UNL A   1      48.039  27.366  23.427  1.00  0.00     0.055 A 
ATOM     65  C   UNL A   1      48.916  26.119  25.285  1.00  0.00     0.041 A 
ATOM     66  F   UNL A   1      47.767  26.102  27.330  1.00  0.00    -0.206 F 
ATOM     67  C   UNL A   1      49.020  26.526  23.956  1.00  0.00     0.022 A 
BRANCH  64  68
ATOM     68  S   UNL A   1      48.086  27.840  21.676  1.00  0.00     0.124 S 
ATOM     69  O   UNL A   1      46.772  28.451  21.489  1.00  0.00    -0.237 OA
ATOM     70  O   UNL A   1      49.223  28.753  21.626  1.00  0.00    -0.237 OA
ATOM     71  O   UNL A   1      48.277  26.568  20.983  1.00  0.00    -0.744 OA
ENDBRANCH  64  68
ENDBRANCH  47  61
BRANCH  48  72
ATOM     72  C   UNL A   1      38.900  30.484  30.872  1.00  0.00     0.023 A 
ATOM     73  C   UNL A   1      37.847  31.258  30.357  1.00  0.00     0.031 A 
ATOM     74  C   UNL A   1      38.870  30.166  32.244  1.00  0.00     0.131 A 
ATOM     75  C   UNL A   1      36.827  31.707  31.213  1.00  0.00     0.055 A 
ATOM     76  C   UNL A   1      37.826  30.567  33.078  1.00  0.00     0.041 A 
ATOM     77  F   UNL A   1      39.860  29.447  32.798  1.00  0.00    -0.206 F 
ATOM     78  C   UNL A   1      36.802  31.354  32.566  1.00  0.00     0.022 A 
BRANCH  75  79
ATOM     79  S   UNL A   1      35.573  32.846  30.561  1.00  0.00     0.124 S 
ATOM     80  O   UNL A   1      35.561  32.497  29.145  1.00  0.00    -0.237 OA
ATOM     81  O   UNL A   1      34.391  32.467  31.327  1.00  0.00    -0.237 OA
ATOM     82  O   UNL A   1      36.117  34.166  30.872  1.00  0.00    -0.744 OA
ENDBRANCH  75  79
ENDBRANCH  48  72
BRANCH  60  83
ATOM     83  C   UNL A   1      45.047  33.369  29.292  1.00  0.00     0.023 A 
ATOM     84  C   UNL A   1      44.665  34.550  28.633  1.00  0.00     0.031 A 
ATOM     85  C   UNL A   1      46.044  33.451  30.280  1.00  0.00     0.131 A 
ATOM     86  C   UNL A   1      45.314  35.756  28.932  1.00  0.00     0.055 A 
ATOM     87  C   UNL A   1      46.648  34.665  30.613  1.00  0.00     0.041 A 
ATOM     88  F   UNL A   1      46.449  32.352  30.935  1.00  0.00    -0.206 F 
ATOM     89  C   UNL A   1      46.292  35.824  29.929  1.00  0.00     0.022 A 
BRANCH  86  90
ATOM     90  S   UNL A   1      44.926  37.223  27.939  1.00  0.00     0.124 S 
ATOM     91  O   UNL A   1      44.234  38.069  28.907  1.00  0.00    -0.237 OA
ATOM     92  O   UNL A   1      46.247  37.680  27.523  1.00  0.00    -0.237 OA
ATOM     93  O   UNL A   1      44.086  36.697  26.864  1.00  0.00    -0.744 OA
ENDBRANCH  86  90
ENDBRANCH  60  83
ENDBRANCH  34  35
ENDBRANCH  27  29
ENDBRANCH  26  27
ENDBRANCH  25  26
ENDBRANCH   1  25
TORSDOF 19
ENDMDL
MODEL 2
REMARK VINA RESULT:     -11.7      2.091      2.412
REMARK SMILES CCCC[C@H](C(=O)OCCOC(=O)c1ccc(-c2c3nc(c(-c4cc(S(=O)(=O)[O-])ccc4F)c4ccc([nH]4)c(-c4cc(S(=O)(=O)[O-])ccc4F)c4nc(c(-c5cc(S(=O)(=O)[O-])ccc5F)c5ccc2[nH]5)C=C4)C=C3)cc1)N1C(=O)/C(=C/c2ccc(C)cc2)SC1=S
REMARK SMILES IDX 9 1 8 2 6 3 7 4 5 5 4 6 3 7 2 8 1 9 77 10 78 11 90 12 79 13
REMARK SMILES IDX 80 14 89 15 91 16 81 17 82 18 83 19 88 20 84 21 87 22 85 23
REMARK SMILES IDX 86 24 10 25 11 26 12 27 13 28 14 29 15 30 76 31 16 32 75 33
REMARK SMILES IDX 17 34 18 35 19 36 69 37 20 38 74 39 68 40 70 41 21 42 73 43
REMARK SMILES IDX 67 44 66 45 22 47 54 48 34 49 53 50 35 51 38 52 52 53 71 54
REMARK SMILES IDX 36 55 37 56 51 58 72 59 39 60 23 61 24 62 32 63 25 64 31 65
REMARK SMILES IDX 33 66 30 67 26 68 27 69 28 70 29 71 55 72 56 73 64 74 57 75
REMARK SMILES IDX 63 76 65 77 62 78 58 79 59 80 60 81 61 82 40 83 41 84 49 85
REMARK SMILES IDX 42 86 48 87 50 88 47 89 43 90 44 91 45 92 46 93
REMARK H PARENT 70 46 38 57
REMARK Flexibility Score: inf
ROOT
ATOM      1  C   UNL A   1      35.911  20.478  24.992  1.00  0.00     0.274 C 
ENDROOT
BRANCH   1   2
ATOM      2  O   UNL A   1      35.490  21.428  25.997  1.00  0.00    -0.461 OA
BRANCH   2   3
ATOM      3  C   UNL A   1      34.159  21.444  26.313  1.00  0.00     0.329 C 
ATOM      4  O   UNL A   1      33.713  21.169  27.417  1.00  0.00    -0.250 OA
BRANCH   3   5
ATOM      5  C   UNL A   1      33.304  21.765  25.080  1.00  0.00     0.202 C 
BRANCH   5   6
ATOM      6  C   UNL A   1      32.247  20.671  24.788  1.00  0.00     0.038 C 
BRANCH   6   7
ATOM      7  C   UNL A   1      32.564  19.602  23.732  1.00  0.00     0.002 C 
BRANCH   7   8
ATOM      8  C   UNL A   1      32.726  18.146  24.202  1.00  0.00    -0.003 C 
ATOM      9  C   UNL A   1      34.015  17.444  23.799  1.00  0.00     0.004 C 
ENDBRANCH   7   8
ENDBRANCH   6   7
ENDBRANCH   5   6
BRANCH   5  10
ATOM     10  N   UNL A   1      32.751  23.157  25.143  1.00  0.00    -0.278 N 
ATOM     11  C   UNL A   1      33.569  24.198  24.686  1.00  0.00     0.266 C 
ATOM     12  C   UNL A   1      31.561  23.579  25.711  1.00  0.00     0.149 C 
ATOM     13  O   UNL A   1      34.670  24.062  24.171  1.00  0.00    -0.268 OA
ATOM     14  C   UNL A   1      32.935  25.524  24.972  1.00  0.00     0.081 C 
ATOM     15  S   UNL A   1      31.266  25.251  25.264  1.00  0.00    -0.054 SA
ATOM     16  S   UNL A   1      30.479  22.809  26.714  1.00  0.00    -0.052 S 
ATOM     17  C   UNL A   1      33.594  26.690  25.103  1.00  0.00     0.029 C 
BRANCH  17  18
ATOM     18  C   UNL A   1      32.995  27.968  25.558  1.00  0.00    -0.024 A 
ATOM     19  C   UNL A   1      33.352  28.535  26.784  1.00  0.00     0.008 A 
ATOM     20  C   UNL A   1      32.034  28.638  24.785  1.00  0.00     0.008 A 
ATOM     21  C   UNL A   1      32.832  29.782  27.172  1.00  0.00     0.004 A 
ATOM     22  C   UNL A   1      31.524  29.881  25.160  1.00  0.00     0.004 A 
ATOM     23  C   UNL A   1      31.933  30.473  26.351  1.00  0.00    -0.051 A 
ATOM     24  C   UNL A   1      31.451  31.851  26.703  1.00  0.00     0.044 C 
ENDBRANCH  17  18
ENDBRANCH   5  10
ENDBRANCH   3   5
ENDBRANCH   2   3
ENDBRANCH   1   2
BRANCH   1  25
ATOM     25  C   UNL A   1      37.422  20.251  24.952  1.00  0.00     0.275 C 
BRANCH  25  26
ATOM     26  O   UNL A   1      38.128  21.411  25.420  1.00  0.00    -0.458 OA
BRANCH  26  27
ATOM     27  C   UNL A   1      39.279  21.146  26.075  1.00  0.00     0.338 C 
ATOM     28  O   UNL A   1      39.945  20.121  26.009  1.00  0.00    -0.246 OA
BRANCH  27  29
ATOM     29  C   UNL A   1      39.747  22.353  26.762  1.00  0.00     0.060 A 
ATOM     30  C   UNL A   1      39.238  23.563  26.307  1.00  0.00     0.016 A 
ATOM     31  C   UNL A   1      40.733  22.331  27.745  1.00  0.00     0.016 A 
ATOM     32  C   UNL A   1      39.726  24.763  26.791  1.00  0.00     0.010 A 
ATOM     33  C   UNL A   1      41.235  23.546  28.234  1.00  0.00     0.010 A 
ATOM     34  C   UNL A   1      40.762  24.771  27.727  1.00  0.00    -0.014 A 
BRANCH  34  35
ATOM     35  C   UNL A   1      41.409  26.073  28.036  1.00  0.00     0.031 A 
ATOM     36  C   UNL A   1      42.843  26.297  27.629  1.00  0.00     0.074 A 
ATOM     37  C   UNL A   1      40.676  27.088  28.534  1.00  0.00     0.049 A 
ATOM     38  N   UNL A   1      43.597  27.351  27.800  1.00  0.00    -0.248 NA
ATOM     39  C   UNL A   1      43.508  25.194  26.915  1.00  0.00     0.031 C 
ATOM     40  C   UNL A   1      39.250  27.013  28.865  1.00  0.00     0.029 A 
ATOM     41  N   UNL A   1      41.016  28.383  28.832  1.00  0.00    -0.354 N 
ATOM     42  C   UNL A   1      44.812  27.051  27.190  1.00  0.00     0.074 A 
ATOM     43  C   UNL A   1      44.719  25.689  26.713  1.00  0.00     0.031 C 
ATOM     44  C   UNL A   1      38.842  28.206  29.324  1.00  0.00     0.029 A 
ATOM     45  C   UNL A   1      39.986  29.108  29.388  1.00  0.00     0.049 A 
ATOM     46  H   UNL A   1      41.911  28.759  28.666  1.00  0.00     0.167 HD
ATOM     47  C   UNL A   1      45.886  27.856  27.000  1.00  0.00     0.034 A 
ATOM     48  C   UNL A   1      39.978  30.339  29.939  1.00  0.00     0.034 A 
ATOM     49  C   UNL A   1      45.946  29.223  27.461  1.00  0.00     0.049 A 
ATOM     50  C   UNL A   1      41.259  31.131  29.931  1.00  0.00     0.074 A 
ATOM     51  C   UNL A   1      46.956  30.151  27.289  1.00  0.00     0.029 A 
ATOM     52  N   UNL A   1      44.947  29.857  28.192  1.00  0.00    -0.354 N 
ATOM     53  N   UNL A   1      42.413  30.825  29.382  1.00  0.00    -0.248 NA
ATOM     54  C   UNL A   1      41.245  32.425  30.622  1.00  0.00     0.031 C 
ATOM     55  C   UNL A   1      46.599  31.321  27.970  1.00  0.00     0.029 A 
ATOM     56  C   UNL A   1      45.339  31.146  28.519  1.00  0.00     0.049 A 
ATOM     57  H   UNL A   1      44.086  29.449  28.441  1.00  0.00     0.167 HD
ATOM     58  C   UNL A   1      43.256  31.898  29.647  1.00  0.00     0.074 A 
ATOM     59  C   UNL A   1      42.474  32.864  30.394  1.00  0.00     0.031 C 
ATOM     60  C   UNL A   1      44.556  32.076  29.299  1.00  0.00     0.034 A 
BRANCH  47  61
ATOM     61  C   UNL A   1      47.070  27.287  26.254  1.00  0.00     0.023 A 
ATOM     62  C   UNL A   1      48.113  26.628  26.928  1.00  0.00     0.031 A 
ATOM     63  C   UNL A   1      47.151  27.374  24.855  1.00  0.00     0.131 A 
ATOM     64  C   UNL A   1      49.194  26.090  26.217  1.00  0.00     0.055 A 
ATOM     65  C   UNL A   1      48.213  26.806  24.143  1.00  0.00     0.041 A 
ATOM     66  F   UNL A   1      46.201  28.012  24.154  1.00  0.00    -0.206 F 
ATOM     67  C   UNL A   1      49.244  26.161  24.824  1.00  0.00     0.022 A 
BRANCH  64  68
ATOM     68  S   UNL A   1      50.563  25.344  27.146  1.00  0.00     0.124 S 
ATOM     69  O   UNL A   1      49.906  24.223  27.812  1.00  0.00    -0.237 OA
ATOM     70  O   UNL A   1      51.506  24.991  26.090  1.00  0.00    -0.237 OA
ATOM     71  O   UNL A   1      50.997  26.419  28.035  1.00  0.00    -0.744 OA
ENDBRANCH  64  68
ENDBRANCH  47  61
BRANCH  48  72
ATOM     72  C   UNL A   1      38.763  30.841  30.648  1.00  0.00     0.023 A 
ATOM     73  C   UNL A   1      37.764  31.577  29.990  1.00  0.00     0.031 A 
ATOM     74  C   UNL A   1      38.618  30.634  32.035  1.00  0.00     0.131 A 
ATOM     75  C   UNL A   1      36.683  32.098  30.722  1.00  0.00     0.055 A 
ATOM     76  C   UNL A   1      37.515  31.106  32.746  1.00  0.00     0.041 A 
ATOM     77  F   UNL A   1      39.552  29.956  32.722  1.00  0.00    -0.206 F 
ATOM     78  C   UNL A   1      36.545  31.854  32.092  1.00  0.00     0.022 A 
BRANCH  75  79
ATOM     79  S   UNL A   1      35.499  33.188  29.882  1.00  0.00     0.124 S 
ATOM     80  O   UNL A   1      34.853  33.852  31.008  1.00  0.00    -0.237 OA
ATOM     81  O   UNL A   1      36.378  34.017  29.064  1.00  0.00    -0.237 OA
ATOM     82  O   UNL A   1      34.652  32.259  29.136  1.00  0.00    -0.744 OA
ENDBRANCH  75  79
ENDBRANCH  48  72
BRANCH  60  83
ATOM     83  C   UNL A   1      45.188  33.380  29.714  1.00  0.00     0.023 A 
ATOM     84  C   UNL A   1      45.791  33.529  30.975  1.00  0.00     0.031 A 
ATOM     85  C   UNL A   1      45.154  34.493  28.857  1.00  0.00     0.131 A 
ATOM     86  C   UNL A   1      46.287  34.781  31.366  1.00  0.00     0.055 A 
ATOM     87  C   UNL A   1      45.700  35.722  29.230  1.00  0.00     0.041 A 
ATOM     88  F   UNL A   1      44.586  34.405  27.644  1.00  0.00    -0.206 F 
ATOM     89  C   UNL A   1      46.260  35.874  30.496  1.00  0.00     0.022 A 
BRANCH  86  90
ATOM     90  S   UNL A   1      46.893  34.986  33.063  1.00  0.00     0.124 S 
ATOM     91  O   UNL A   1      45.655  35.214  33.801  1.00  0.00    -0.237 OA
ATOM     92  O   UNL A   1      47.559  33.712  33.314  1.00  0.00    -0.237 OA
ATOM     93  O   UNL A   1      47.782  36.143  32.973  1.00  0.00    -0.744 OA
ENDBRANCH  86  90
ENDBRANCH  60  83
ENDBRANCH  34  35
ENDBRANCH  27  29
ENDBRANCH  26  27
ENDBRANCH  25  26
ENDBRANCH   1  25
TORSDOF 19
ENDMDL
MODEL 3
REMARK VINA RESULT:     -11.6      1.439      7.586
REMARK SMILES CCCC[C@H](C(=O)OCCOC(=O)c1ccc(-c2c3nc(c(-c4cc(S(=O)(=O)[O-])ccc4F)c4ccc([nH]4)c(-c4cc(S(=O)(=O)[O-])ccc4F)c4nc(c(-c5cc(S(=O)(=O)[O-])ccc5F)c5ccc2[nH]5)C=C4)C=C3)cc1)N1C(=O)/C(=C/c2ccc(C)cc2)SC1=S
REMARK SMILES IDX 9 1 8 2 6 3 7 4 5 5 4 6 3 7 2 8 1 9 77 10 78 11 90 12 79 13
REMARK SMILES IDX 80 14 89 15 91 16 81 17 82 18 83 19 88 20 84 21 87 22 85 23
REMARK SMILES IDX 86 24 10 25 11 26 12 27 13 28 14 29 15 30 76 31 16 32 75 33
REMARK SMILES IDX 17 34 18 35 19 36 69 37 20 38 74 39 68 40 70 41 21 42 73 43
REMARK SMILES IDX 67 44 66 45 22 47 54 48 34 49 53 50 35 51 38 52 52 53 71 54
REMARK SMILES IDX 36 55 37 56 51 58 72 59 39 60 23 61 24 62 32 63 25 64 31 65
REMARK SMILES IDX 33 66 30 67 26 68 27 69 28 70 29 71 55 72 56 73 64 74 57 75
REMARK SMILES IDX 63 76 65 77 62 78 58 79 59 80 60 81 61 82 40 83 41 84 49 85
REMARK SMILES IDX 42 86 48 87 50 88 47 89 43 90 44 91 45 92 46 93
REMARK H PARENT 70 46 38 57
REMARK Flexibility Score: inf
ROOT
ATOM      1  C   UNL A   1      35.998  20.614  25.068  1.00  0.00     0.274 C 
ENDROOT
BRANCH   1   2
ATOM      2  O   UNL A   1      35.503  21.473  26.120  1.00  0.00    -0.461 OA
BRANCH   2   3
ATOM      3  C   UNL A   1      34.158  21.437  26.365  1.00  0.00     0.329 C 
ATOM      4  O   UNL A   1      33.664  21.119  27.436  1.00  0.00    -0.250 OA
BRANCH   3   5
ATOM      5  C   UNL A   1      33.357  21.761  25.096  1.00  0.00     0.202 C 
BRANCH   5   6
ATOM      6  C   UNL A   1      32.313  20.669  24.755  1.00  0.00     0.038 C 
BRANCH   6   7
ATOM      7  C   UNL A   1      32.551  19.780  23.526  1.00  0.00     0.002 C 
BRANCH   7   8
ATOM      8  C   UNL A   1      33.105  18.364  23.753  1.00  0.00    -0.003 C 
ATOM      9  C   UNL A   1      32.523  17.589  24.928  1.00  0.00     0.004 C 
ENDBRANCH   7   8
ENDBRANCH   6   7
ENDBRANCH   5   6
BRANCH   5  10
ATOM     10  N   UNL A   1      32.804  23.154  25.138  1.00  0.00    -0.278 N 
ATOM     11  C   UNL A   1      33.642  24.195  24.715  1.00  0.00     0.266 C 
ATOM     12  C   UNL A   1      31.592  23.577  25.657  1.00  0.00     0.149 C 
ATOM     13  O   UNL A   1      34.763  24.058  24.246  1.00  0.00    -0.268 OA
ATOM     14  C   UNL A   1      32.998  25.521  24.977  1.00  0.00     0.081 C 
ATOM     15  S   UNL A   1      31.318  25.250  25.199  1.00  0.00    -0.054 SA
ATOM     16  S   UNL A   1      30.469  22.807  26.614  1.00  0.00    -0.052 S 
ATOM     17  C   UNL A   1      33.652  26.686  25.136  1.00  0.00     0.029 C 
BRANCH  17  18
ATOM     18  C   UNL A   1      33.036  27.964  25.567  1.00  0.00    -0.024 A 
ATOM     19  C   UNL A   1      33.456  28.610  26.733  1.00  0.00     0.008 A 
ATOM     20  C   UNL A   1      31.997  28.557  24.833  1.00  0.00     0.008 A 
ATOM     21  C   UNL A   1      32.915  29.856  27.093  1.00  0.00     0.004 A 
ATOM     22  C   UNL A   1      31.465  29.799  25.179  1.00  0.00     0.004 A 
ATOM     23  C   UNL A   1      31.933  30.469  26.305  1.00  0.00    -0.051 A 
ATOM     24  C   UNL A   1      31.423  31.846  26.620  1.00  0.00     0.044 C 
ENDBRANCH  17  18
ENDBRANCH   5  10
ENDBRANCH   3   5
ENDBRANCH   2   3
ENDBRANCH   1   2
BRANCH   1  25
ATOM     25  C   UNL A   1      37.508  20.712  24.851  1.00  0.00     0.275 C 
BRANCH  25  26
ATOM     26  O   UNL A   1      38.061  21.818  25.581  1.00  0.00    -0.458 OA
BRANCH  26  27
ATOM     27  C   UNL A   1      39.228  21.555  26.208  1.00  0.00     0.338 C 
ATOM     28  O   UNL A   1      39.881  20.522  26.145  1.00  0.00    -0.246 OA
BRANCH  27  29
ATOM     29  C   UNL A   1      39.727  22.771  26.856  1.00  0.00     0.060 A 
ATOM     30  C   UNL A   1      39.166  23.972  26.438  1.00  0.00     0.016 A 
ATOM     31  C   UNL A   1      40.785  22.767  27.761  1.00  0.00     0.016 A 
ATOM     32  C   UNL A   1      39.669  25.180  26.883  1.00  0.00     0.010 A 
ATOM     33  C   UNL A   1      41.303  23.992  28.209  1.00  0.00     0.010 A 
ATOM     34  C   UNL A   1      40.774  25.208  27.737  1.00  0.00    -0.014 A 
BRANCH  34  35
ATOM     35  C   UNL A   1      41.421  26.520  27.994  1.00  0.00     0.031 A 
ATOM     36  C   UNL A   1      40.642  27.597  28.706  1.00  0.00     0.074 A 
ATOM     37  C   UNL A   1      42.732  26.688  27.732  1.00  0.00     0.049 A 
ATOM     38  N   UNL A   1      41.012  28.809  29.031  1.00  0.00    -0.248 NA
ATOM     39  C   UNL A   1      39.273  27.255  29.127  1.00  0.00     0.031 C 
ATOM     40  C   UNL A   1      43.608  25.673  27.141  1.00  0.00     0.029 A 
ATOM     41  N   UNL A   1      43.562  27.760  27.943  1.00  0.00    -0.354 N 
ATOM     42  C   UNL A   1      39.935  29.361  29.719  1.00  0.00     0.074 A 
ATOM     43  C   UNL A   1      38.872  28.381  29.698  1.00  0.00     0.031 C 
ATOM     44  C   UNL A   1      44.849  26.173  27.033  1.00  0.00     0.029 A 
ATOM     45  C   UNL A   1      44.843  27.562  27.478  1.00  0.00     0.049 A 
ATOM     46  H   UNL A   1      43.271  28.591  28.383  1.00  0.00     0.167 HD
ATOM     47  C   UNL A   1      39.860  30.556  30.355  1.00  0.00     0.034 A 
ATOM     48  C   UNL A   1      45.878  28.419  27.369  1.00  0.00     0.034 A 
ATOM     49  C   UNL A   1      40.943  31.509  30.386  1.00  0.00     0.049 A 
ATOM     50  C   UNL A   1      45.692  29.828  27.870  1.00  0.00     0.074 A 
ATOM     51  C   UNL A   1      41.005  32.729  31.034  1.00  0.00     0.029 A 
ATOM     52  N   UNL A   1      42.161  31.346  29.735  1.00  0.00    -0.354 N 
ATOM     53  N   UNL A   1      44.658  30.351  28.489  1.00  0.00    -0.248 NA
ATOM     54  C   UNL A   1      46.801  30.763  27.651  1.00  0.00     0.031 C 
ATOM     55  C   UNL A   1      42.230  33.332  30.722  1.00  0.00     0.029 A 
ATOM     56  C   UNL A   1      42.960  32.463  29.926  1.00  0.00     0.049 A 
ATOM     57  H   UNL A   1      42.419  30.551  29.214  1.00  0.00     0.167 HD
ATOM     58  C   UNL A   1      45.001  31.674  28.748  1.00  0.00     0.074 A 
ATOM     59  C   UNL A   1      46.342  31.863  28.230  1.00  0.00     0.031 C 
ATOM     60  C   UNL A   1      44.279  32.643  29.366  1.00  0.00     0.034 A 
BRANCH  47  61
ATOM     61  C   UNL A   1      38.575  30.891  31.075  1.00  0.00     0.023 A 
ATOM     62  C   UNL A   1      37.543  31.606  30.440  1.00  0.00     0.031 A 
ATOM     63  C   UNL A   1      38.358  30.472  32.397  1.00  0.00     0.131 A 
ATOM     64  C   UNL A   1      36.351  31.892  31.119  1.00  0.00     0.055 A 
ATOM     65  C   UNL A   1      37.154  30.727  33.062  1.00  0.00     0.041 A 
ATOM     66  F   UNL A   1      39.312  29.808  33.068  1.00  0.00    -0.206 F 
ATOM     67  C   UNL A   1      36.142  31.442  32.424  1.00  0.00     0.022 A 
BRANCH  64  68
ATOM     68  S   UNL A   1      35.098  32.908  30.288  1.00  0.00     0.124 S 
ATOM     69  O   UNL A   1      35.878  34.066  29.859  1.00  0.00    -0.237 OA
ATOM     70  O   UNL A   1      34.632  32.027  29.223  1.00  0.00    -0.237 OA
ATOM     71  O   UNL A   1      34.124  33.179  31.343  1.00  0.00    -0.744 OA
ENDBRANCH  64  68
ENDBRANCH  47  61
BRANCH  48  72
ATOM     72  C   UNL A   1      47.126  28.011  26.656  1.00  0.00     0.023 A 
ATOM     73  C   UNL A   1      47.236  28.058  25.256  1.00  0.00     0.031 A 
ATOM     74  C   UNL A   1      48.222  27.506  27.383  1.00  0.00     0.131 A 
ATOM     75  C   UNL A   1      48.402  27.583  24.631  1.00  0.00     0.055 A 
ATOM     76  C   UNL A   1      49.398  27.088  26.761  1.00  0.00     0.041 A 
ATOM     77  F   UNL A   1      48.167  27.418  28.722  1.00  0.00    -0.206 F 
ATOM     78  C   UNL A   1      49.488  27.113  25.375  1.00  0.00     0.022 A 
BRANCH  75  79
ATOM     79  S   UNL A   1      48.450  27.493  22.818  1.00  0.00     0.124 S 
ATOM     80  O   UNL A   1      48.351  26.057  22.587  1.00  0.00    -0.237 OA
ATOM     81  O   UNL A   1      47.285  28.287  22.445  1.00  0.00    -0.237 OA
ATOM     82  O   UNL A   1      49.742  28.091  22.483  1.00  0.00    -0.744 OA
ENDBRANCH  75  79
ENDBRANCH  48  72
BRANCH  60  83
ATOM     83  C   UNL A   1      44.952  33.982  29.524  1.00  0.00     0.023 A 
ATOM     84  C   UNL A   1      45.570  34.351  30.731  1.00  0.00     0.031 A 
ATOM     85  C   UNL A   1      44.942  34.913  28.470  1.00  0.00     0.131 A 
ATOM     86  C   UNL A   1      46.105  35.640  30.875  1.00  0.00     0.055 A 
ATOM     87  C   UNL A   1      45.525  36.174  28.600  1.00  0.00     0.041 A 
ATOM     88  F   UNL A   1      44.360  34.612  27.298  1.00  0.00    -0.206 F 
ATOM     89  C   UNL A   1      46.101  36.547  29.812  1.00  0.00     0.022 A 
BRANCH  86  90
ATOM     90  S   UNL A   1      46.731  36.146  32.499  1.00  0.00     0.124 S 
ATOM     91  O   UNL A   1      48.139  36.402  32.214  1.00  0.00    -0.237 OA
ATOM     92  O   UNL A   1      45.918  37.320  32.798  1.00  0.00    -0.237 OA
ATOM     93  O   UNL A   1      46.472  34.982  33.346  1.00  0.00    -0.744 OA
ENDBRANCH  86  90
ENDBRANCH  60  83
ENDBRANCH  34  35
ENDBRANCH  27  29
ENDBRANCH  26  27
ENDBRANCH  25  26
ENDBRANCH   1  25
TORSDOF 19
ENDMDL
