MODEL 1
REMARK VINA RESULT:     -12.3      0.000      0.000
REMARK SMILES Cc1ccc(-c2cc([C@@H](C)C(=O)OCCOC(=O)c3ccc(-c4c5nc(c(-c6cc(S(=O)(=O)[O-])ccc6F)c6ccc([nH]6)c(-c6cc(S(=O)(=O)[O-])ccc6F)c6nc(c(-c7cc(S(=O)(=O)[O-])ccc7F)c7ccc4[nH]7)C=C6)C=C5)cc3)ccc2C[C@H]2CCCC2=O)cc1
REMARK SMILES IDX 14 1 13 2 11 3 12 4 9 5 10 6 8 7 6 8 7 9 84 10 83 11 82 12
REMARK SMILES IDX 5 13 1 14 2 15 3 16 93 17 4 18 92 19 85 20 86 21 87 22 90 23
REMARK SMILES IDX 88 24 89 25 91 26 15 27 16 28 17 29 18 30 19 31 20 32 81 33
REMARK SMILES IDX 21 34 80 35 22 36 23 37 24 38 74 39 25 40 79 41 73 42 75 43
REMARK SMILES IDX 26 44 78 45 72 46 71 47 27 49 59 50 39 51 58 52 40 53 43 54
REMARK SMILES IDX 57 55 76 56 41 57 42 58 56 60 77 61 44 62 28 63 29 64 37 65
REMARK SMILES IDX 30 66 36 67 38 68 35 69 31 70 32 71 33 72 34 73 60 74 61 75
REMARK SMILES IDX 69 76 62 77 68 78 70 79 67 80 63 81 64 82 65 83 66 84 45 85
REMARK SMILES IDX 46 86 54 87 47 88 53 89 55 90 52 91 48 92 49 93 50 94 51 95
REMARK H PARENT 75 48 43 59
REMARK Flexibility Score: inf
ROOT
ATOM      1  C   UNL A   1      37.159  21.846  25.318  1.00  0.00     0.274 C 
ENDROOT
BRANCH   1   2
ATOM      2  O   UNL A   1      36.143  22.833  25.482  1.00  0.00    -0.462 OA
BRANCH   2   3
ATOM      3  C   UNL A   1      34.944  22.534  24.902  1.00  0.00     0.313 C 
ATOM      4  O   UNL A   1      34.738  22.648  23.705  1.00  0.00    -0.252 OA
BRANCH   3   5
ATOM      5  C   UNL A   1      33.883  22.241  25.987  1.00  0.00     0.126 C 
ATOM      6  C   UNL A   1      33.187  20.885  25.890  1.00  0.00     0.025 C 
BRANCH   5   7
ATOM      7  C   UNL A   1      32.870  23.344  25.878  1.00  0.00    -0.033 A 
ATOM      8  C   UNL A   1      32.328  25.701  25.769  1.00  0.00    -0.015 A 
ATOM      9  C   UNL A   1      33.214  24.680  26.122  1.00  0.00     0.013 A 
ATOM     10  C   UNL A   1      31.142  25.341  25.079  1.00  0.00    -0.039 A 
ATOM     11  C   UNL A   1      30.764  23.995  24.968  1.00  0.00     0.004 A 
ATOM     12  C   UNL A   1      31.616  23.003  25.375  1.00  0.00     0.005 A 
BRANCH   8  13
ATOM     13  C   UNL A   1      32.589  27.081  26.213  1.00  0.00    -0.018 A 
ATOM     14  C   UNL A   1      33.674  31.024  27.627  1.00  0.00     0.044 C 
ATOM     15  C   UNL A   1      33.269  29.677  27.108  1.00  0.00    -0.051 A 
ATOM     16  C   UNL A   1      34.229  28.867  26.501  1.00  0.00     0.004 A 
ATOM     17  C   UNL A   1      31.955  29.203  27.221  1.00  0.00     0.004 A 
ATOM     18  C   UNL A   1      33.887  27.593  26.051  1.00  0.00     0.009 A 
ATOM     19  C   UNL A   1      31.615  27.918  26.771  1.00  0.00     0.009 A 
ENDBRANCH   8  13
BRANCH  10  20
ATOM     20  C   UNL A   1      30.260  26.330  24.357  1.00  0.00     0.047 C 
BRANCH  20  21
ATOM     21  C   UNL A   1      30.786  26.773  22.981  1.00  0.00     0.060 C 
ATOM     22  C   UNL A   1      31.113  28.260  22.830  1.00  0.00     0.012 C 
ATOM     23  C   UNL A   1      32.081  26.113  22.559  1.00  0.00     0.136 C 
ATOM     24  C   UNL A   1      32.630  28.411  22.844  1.00  0.00     0.009 C 
ATOM     25  C   UNL A   1      33.221  27.083  22.404  1.00  0.00     0.076 C 
ATOM     26  O   UNL A   1      32.188  24.910  22.344  1.00  0.00    -0.299 OA
ENDBRANCH  20  21
ENDBRANCH  10  20
ENDBRANCH   5   7
ENDBRANCH   3   5
ENDBRANCH   2   3
ENDBRANCH   1   2
BRANCH   1  27
ATOM     27  C   UNL A   1      38.498  22.347  25.883  1.00  0.00     0.275 C 
BRANCH  27  28
ATOM     28  O   UNL A   1      38.661  23.720  26.366  1.00  0.00    -0.458 OA
BRANCH  28  29
ATOM     29  C   UNL A   1      39.749  24.229  27.016  1.00  0.00     0.338 C 
ATOM     30  O   UNL A   1      40.850  23.715  26.959  1.00  0.00    -0.246 OA
BRANCH  29  31
ATOM     31  C   UNL A   1      39.516  25.518  27.711  1.00  0.00     0.060 A 
ATOM     32  C   UNL A   1      38.998  25.552  29.024  1.00  0.00     0.016 A 
ATOM     33  C   UNL A   1      40.071  26.644  27.146  1.00  0.00     0.016 A 
ATOM     34  C   UNL A   1      39.139  26.704  29.800  1.00  0.00     0.010 A 
ATOM     35  C   UNL A   1      40.483  27.627  27.989  1.00  0.00     0.010 A 
ATOM     36  C   UNL A   1      39.913  27.725  29.266  1.00  0.00    -0.014 A 
BRANCH  36  37
ATOM     37  C   UNL A   1      40.045  29.085  29.770  1.00  0.00     0.031 A 
ATOM     38  C   UNL A   1      38.978  30.058  29.449  1.00  0.00     0.074 A 
ATOM     39  C   UNL A   1      41.004  29.080  30.740  1.00  0.00     0.049 A 
ATOM     40  N   UNL A   1      39.066  31.335  29.467  1.00  0.00    -0.248 NA
ATOM     41  C   UNL A   1      37.648  29.674  28.977  1.00  0.00     0.031 C 
ATOM     42  C   UNL A   1      41.328  29.895  31.892  1.00  0.00     0.029 A 
ATOM     43  N   UNL A   1      42.058  28.144  30.763  1.00  0.00    -0.354 N 
ATOM     44  C   UNL A   1      37.763  31.806  29.613  1.00  0.00     0.074 A 
ATOM     45  C   UNL A   1      36.928  30.801  29.037  1.00  0.00     0.031 C 
ATOM     46  C   UNL A   1      42.638  29.720  32.194  1.00  0.00     0.029 A 
ATOM     47  C   UNL A   1      43.202  28.797  31.217  1.00  0.00     0.049 A 
ATOM     48  H   UNL A   1      41.996  27.196  30.504  1.00  0.00     0.167 HD
ATOM     49  C   UNL A   1      37.541  32.837  30.476  1.00  0.00     0.034 A 
ATOM     50  C   UNL A   1      44.115  29.052  30.232  1.00  0.00     0.034 A 
ATOM     51  C   UNL A   1      38.808  33.127  31.144  1.00  0.00     0.049 A 
ATOM     52  C   UNL A   1      43.945  30.513  29.806  1.00  0.00     0.074 A 
ATOM     53  C   UNL A   1      39.358  32.794  32.364  1.00  0.00     0.029 A 
ATOM     54  N   UNL A   1      39.854  33.504  30.344  1.00  0.00    -0.354 N 
ATOM     55  N   UNL A   1      42.862  31.224  30.013  1.00  0.00    -0.248 NA
ATOM     56  C   UNL A   1      45.006  31.310  29.207  1.00  0.00     0.031 C 
ATOM     57  C   UNL A   1      40.781  32.942  32.239  1.00  0.00     0.029 A 
ATOM     58  C   UNL A   1      41.073  33.291  30.930  1.00  0.00     0.049 A 
ATOM     59  H   UNL A   1      39.742  33.888  29.445  1.00  0.00     0.167 HD
ATOM     60  C   UNL A   1      43.095  32.545  29.750  1.00  0.00     0.074 A 
ATOM     61  C   UNL A   1      44.415  32.517  29.122  1.00  0.00     0.031 C 
ATOM     62  C   UNL A   1      42.242  33.565  30.110  1.00  0.00     0.034 A 
BRANCH  49  63
ATOM     63  C   UNL A   1      36.258  33.474  30.951  1.00  0.00     0.023 A 
ATOM     64  C   UNL A   1      35.482  34.126  29.966  1.00  0.00     0.031 A 
ATOM     65  C   UNL A   1      35.695  33.452  32.239  1.00  0.00     0.131 A 
ATOM     66  C   UNL A   1      34.254  34.735  30.250  1.00  0.00     0.055 A 
ATOM     67  C   UNL A   1      34.458  34.067  32.530  1.00  0.00     0.041 A 
ATOM     68  F   UNL A   1      36.286  32.818  33.261  1.00  0.00    -0.206 F 
ATOM     69  C   UNL A   1      33.730  34.714  31.534  1.00  0.00     0.022 A 
BRANCH  66  70
ATOM     70  S   UNL A   1      33.372  35.534  28.884  1.00  0.00     0.124 S 
ATOM     71  O   UNL A   1      32.628  34.417  28.307  1.00  0.00    -0.237 OA
ATOM     72  O   UNL A   1      32.581  36.546  29.574  1.00  0.00    -0.237 OA
ATOM     73  O   UNL A   1      34.448  36.057  28.044  1.00  0.00    -0.744 OA
ENDBRANCH  66  70
ENDBRANCH  49  63
BRANCH  50  74
ATOM     74  C   UNL A   1      44.273  27.809  29.354  1.00  0.00     0.023 A 
ATOM     75  C   UNL A   1      44.121  27.988  27.942  1.00  0.00     0.031 A 
ATOM     76  C   UNL A   1      44.972  26.665  29.760  1.00  0.00     0.131 A 
ATOM     77  C   UNL A   1      44.828  27.186  27.022  1.00  0.00     0.055 A 
ATOM     78  C   UNL A   1      45.577  25.799  28.827  1.00  0.00     0.041 A 
ATOM     79  F   UNL A   1      45.199  26.425  31.060  1.00  0.00    -0.206 F 
ATOM     80  C   UNL A   1      45.555  26.085  27.458  1.00  0.00     0.022 A 
BRANCH  77  81
ATOM     81  S   UNL A   1      45.051  27.795  25.313  1.00  0.00     0.124 S 
ATOM     82  O   UNL A   1      43.676  27.932  24.850  1.00  0.00    -0.237 OA
ATOM     83  O   UNL A   1      45.787  29.042  25.520  1.00  0.00    -0.237 OA
ATOM     84  O   UNL A   1      45.829  26.741  24.665  1.00  0.00    -0.744 OA
ENDBRANCH  77  81
ENDBRANCH  50  74
BRANCH  62  85
ATOM     85  C   UNL A   1      42.436  34.998  29.679  1.00  0.00     0.023 A 
ATOM     86  C   UNL A   1      43.331  35.810  30.360  1.00  0.00     0.031 A 
ATOM     87  C   UNL A   1      41.741  35.608  28.599  1.00  0.00     0.131 A 
ATOM     88  C   UNL A   1      43.667  37.065  29.848  1.00  0.00     0.055 A 
ATOM     89  C   UNL A   1      41.961  36.920  28.194  1.00  0.00     0.041 A 
ATOM     90  F   UNL A   1      40.859  34.962  27.825  1.00  0.00    -0.206 F 
ATOM     91  C   UNL A   1      42.973  37.643  28.788  1.00  0.00     0.022 A 
BRANCH  88  92
ATOM     92  S   UNL A   1      45.153  37.836  30.508  1.00  0.00     0.124 S 
ATOM     93  O   UNL A   1      44.639  38.594  31.643  1.00  0.00    -0.237 OA
ATOM     94  O   UNL A   1      45.960  36.666  30.845  1.00  0.00    -0.237 OA
ATOM     95  O   UNL A   1      45.647  38.634  29.389  1.00  0.00    -0.744 OA
ENDBRANCH  88  92
ENDBRANCH  62  85
ENDBRANCH  36  37
ENDBRANCH  29  31
ENDBRANCH  28  29
ENDBRANCH  27  28
ENDBRANCH   1  27
TORSDOF 18
ENDMDL
MODEL 2
REMARK VINA RESULT:     -12.2      3.749      9.523
REMARK SMILES Cc1ccc(-c2cc([C@@H](C)C(=O)OCCOC(=O)c3ccc(-c4c5nc(c(-c6cc(S(=O)(=O)[O-])ccc6F)c6ccc([nH]6)c(-c6cc(S(=O)(=O)[O-])ccc6F)c6nc(c(-c7cc(S(=O)(=O)[O-])ccc7F)c7ccc4[nH]7)C=C6)C=C5)cc3)ccc2C[C@H]2CCCC2=O)cc1
REMARK SMILES IDX 14 1 13 2 11 3 12 4 9 5 10 6 8 7 6 8 7 9 84 10 83 11 82 12
REMARK SMILES IDX 5 13 1 14 2 15 3 16 93 17 4 18 92 19 85 20 86 21 87 22 90 23
REMARK SMILES IDX 88 24 89 25 91 26 15 27 16 28 17 29 18 30 19 31 20 32 81 33
REMARK SMILES IDX 21 34 80 35 22 36 23 37 24 38 74 39 25 40 79 41 73 42 75 43
REMARK SMILES IDX 26 44 78 45 72 46 71 47 27 49 59 50 39 51 58 52 40 53 43 54
REMARK SMILES IDX 57 55 76 56 41 57 42 58 56 60 77 61 44 62 28 63 29 64 37 65
REMARK SMILES IDX 30 66 36 67 38 68 35 69 31 70 32 71 33 72 34 73 60 74 61 75
REMARK SMILES IDX 69 76 62 77 68 78 70 79 67 80 63 81 64 82 65 83 66 84 45 85
REMARK SMILES IDX 46 86 54 87 47 88 53 89 55 90 52 91 48 92 49 93 50 94 51 95
REMARK H PARENT 75 48 43 59
REMARK Flexibility Score: inf
ROOT
ATOM      1  C   UNL A   1      32.809  29.298  25.342  1.00  0.00     0.274 C 
ENDROOT
BRANCH   1   2
ATOM      2  O   UNL A   1      31.412  29.012  25.360  1.00  0.00    -0.462 OA
BRANCH   2   3
ATOM      3  C   UNL A   1      31.082  27.712  25.105  1.00  0.00     0.313 C 
ATOM      4  O   UNL A   1      30.736  26.931  25.976  1.00  0.00    -0.252 OA
BRANCH   3   5
ATOM      5  C   UNL A   1      31.404  27.357  23.635  1.00  0.00     0.126 C 
ATOM      6  C   UNL A   1      30.286  27.612  22.627  1.00  0.00     0.025 C 
BRANCH   5   7
ATOM      7  C   UNL A   1      31.769  25.900  23.637  1.00  0.00    -0.033 A 
ATOM      8  C   UNL A   1      33.218  24.093  24.342  1.00  0.00    -0.015 A 
ATOM      9  C   UNL A   1      33.007  25.456  24.119  1.00  0.00     0.013 A 
ATOM     10  C   UNL A   1      32.119  23.214  24.162  1.00  0.00    -0.039 A 
ATOM     11  C   UNL A   1      30.938  23.666  23.555  1.00  0.00     0.004 A 
ATOM     12  C   UNL A   1      30.768  24.998  23.283  1.00  0.00     0.005 A 
BRANCH   8  13
ATOM     13  C   UNL A   1      34.574  23.603  24.643  1.00  0.00    -0.018 A 
ATOM     14  C   UNL A   1      38.568  22.398  25.790  1.00  0.00     0.044 C 
ATOM     15  C   UNL A   1      37.178  22.775  25.375  1.00  0.00    -0.051 A 
ATOM     16  C   UNL A   1      36.246  23.118  26.355  1.00  0.00     0.004 A 
ATOM     17  C   UNL A   1      36.787  22.799  24.029  1.00  0.00     0.004 A 
ATOM     18  C   UNL A   1      34.961  23.514  25.991  1.00  0.00     0.009 A 
ATOM     19  C   UNL A   1      35.493  23.203  23.666  1.00  0.00     0.009 A 
ENDBRANCH   8  13
BRANCH  10  20
ATOM     20  C   UNL A   1      32.094  21.791  24.665  1.00  0.00     0.047 C 
BRANCH  20  21
ATOM     21  C   UNL A   1      32.961  20.811  23.857  1.00  0.00     0.060 C 
ATOM     22  C   UNL A   1      33.585  19.656  24.643  1.00  0.00     0.012 C 
ATOM     23  C   UNL A   1      32.230  20.089  22.746  1.00  0.00     0.136 C 
ATOM     24  C   UNL A   1      32.811  18.386  24.304  1.00  0.00     0.009 C 
ATOM     25  C   UNL A   1      32.165  18.599  22.945  1.00  0.00     0.076 C 
ATOM     26  O   UNL A   1      31.755  20.658  21.768  1.00  0.00    -0.299 OA
ENDBRANCH  20  21
ENDBRANCH  10  20
ENDBRANCH   5   7
ENDBRANCH   3   5
ENDBRANCH   2   3
ENDBRANCH   1   2
BRANCH   1  27
ATOM     27  C   UNL A   1      33.189  30.218  26.514  1.00  0.00     0.275 C 
BRANCH  27  28
ATOM     28  O   UNL A   1      34.450  30.052  27.241  1.00  0.00    -0.458 OA
BRANCH  28  29
ATOM     29  C   UNL A   1      35.143  31.028  27.898  1.00  0.00     0.338 C 
ATOM     30  O   UNL A   1      34.679  32.131  28.116  1.00  0.00    -0.246 OA
BRANCH  29  31
ATOM     31  C   UNL A   1      36.465  30.610  28.423  1.00  0.00     0.060 A 
ATOM     32  C   UNL A   1      36.611  30.164  29.754  1.00  0.00     0.016 A 
ATOM     33  C   UNL A   1      37.471  30.414  27.503  1.00  0.00     0.016 A 
ATOM     34  C   UNL A   1      37.736  29.425  30.123  1.00  0.00     0.010 A 
ATOM     35  C   UNL A   1      38.385  29.446  27.776  1.00  0.00     0.010 A 
ATOM     36  C   UNL A   1      38.601  29.055  29.103  1.00  0.00    -0.014 A 
BRANCH  36  37
ATOM     37  C   UNL A   1      39.929  28.472  29.244  1.00  0.00     0.031 A 
ATOM     38  C   UNL A   1      40.069  27.006  29.103  1.00  0.00     0.074 A 
ATOM     39  C   UNL A   1      40.840  29.482  29.149  1.00  0.00     0.049 A 
ATOM     40  N   UNL A   1      41.026  26.276  29.537  1.00  0.00    -0.248 NA
ATOM     41  C   UNL A   1      39.054  26.151  28.488  1.00  0.00     0.031 C 
ATOM     42  C   UNL A   1      42.236  29.598  28.779  1.00  0.00     0.029 A 
ATOM     43  N   UNL A   1      40.542  30.812  29.506  1.00  0.00    -0.354 N 
ATOM     44  C   UNL A   1      41.009  25.120  28.761  1.00  0.00     0.074 A 
ATOM     45  C   UNL A   1      39.655  24.964  28.340  1.00  0.00     0.031 C 
ATOM     46  C   UNL A   1      42.739  30.729  29.330  1.00  0.00     0.029 A 
ATOM     47  C   UNL A   1      41.676  31.363  30.100  1.00  0.00     0.049 A 
ATOM     48  H   UNL A   1      39.683  31.272  29.361  1.00  0.00     0.167 HD
ATOM     49  C   UNL A   1      42.198  24.619  28.321  1.00  0.00     0.034 A 
ATOM     50  C   UNL A   1      41.572  31.502  31.456  1.00  0.00     0.034 A 
ATOM     51  C   UNL A   1      43.243  25.556  28.727  1.00  0.00     0.049 A 
ATOM     52  C   UNL A   1      42.304  30.324  32.103  1.00  0.00     0.074 A 
ATOM     53  C   UNL A   1      43.933  26.571  28.096  1.00  0.00     0.029 A 
ATOM     54  N   UNL A   1      43.385  25.777  30.071  1.00  0.00    -0.354 N 
ATOM     55  N   UNL A   1      42.572  29.192  31.494  1.00  0.00    -0.248 NA
ATOM     56  C   UNL A   1      42.874  30.362  33.442  1.00  0.00     0.031 C 
ATOM     57  C   UNL A   1      44.448  27.432  29.124  1.00  0.00     0.029 A 
ATOM     58  C   UNL A   1      44.003  26.967  30.351  1.00  0.00     0.049 A 
ATOM     59  H   UNL A   1      43.077  25.148  30.763  1.00  0.00     0.167 HD
ATOM     60  C   UNL A   1      43.439  28.440  32.234  1.00  0.00     0.074 A 
ATOM     61  C   UNL A   1      43.488  29.165  33.504  1.00  0.00     0.031 C 
ATOM     62  C   UNL A   1      44.100  27.331  31.755  1.00  0.00     0.034 A 
BRANCH  49  63
ATOM     63  C   UNL A   1      42.507  23.487  27.372  1.00  0.00     0.023 A 
ATOM     64  C   UNL A   1      43.580  23.697  26.476  1.00  0.00     0.031 A 
ATOM     65  C   UNL A   1      41.910  22.216  27.301  1.00  0.00     0.131 A 
ATOM     66  C   UNL A   1      44.003  22.728  25.559  1.00  0.00     0.055 A 
ATOM     67  C   UNL A   1      42.332  21.237  26.378  1.00  0.00     0.041 A 
ATOM     68  F   UNL A   1      40.923  21.850  28.130  1.00  0.00    -0.206 F 
ATOM     69  C   UNL A   1      43.383  21.488  25.499  1.00  0.00     0.022 A 
BRANCH  66  70
ATOM     70  S   UNL A   1      45.392  23.142  24.472  1.00  0.00     0.124 S 
ATOM     71  O   UNL A   1      44.899  22.709  23.168  1.00  0.00    -0.237 OA
ATOM     72  O   UNL A   1      45.520  24.582  24.667  1.00  0.00    -0.237 OA
ATOM     73  O   UNL A   1      46.494  22.346  25.011  1.00  0.00    -0.744 OA
ENDBRANCH  66  70
ENDBRANCH  49  63
BRANCH  50  74
ATOM     74  C   UNL A   1      40.200  32.087  31.801  1.00  0.00     0.023 A 
ATOM     75  C   UNL A   1      39.513  31.512  32.918  1.00  0.00     0.031 A 
ATOM     76  C   UNL A   1      39.793  33.371  31.419  1.00  0.00     0.131 A 
ATOM     77  C   UNL A   1      38.646  32.283  33.719  1.00  0.00     0.055 A 
ATOM     78  C   UNL A   1      38.835  34.093  32.160  1.00  0.00     0.041 A 
ATOM     79  F   UNL A   1      40.399  34.011  30.408  1.00  0.00    -0.206 F 
ATOM     80  C   UNL A   1      38.298  33.574  33.342  1.00  0.00     0.022 A 
BRANCH  77  81
ATOM     81  S   UNL A   1      38.254  31.699  35.406  1.00  0.00     0.124 S 
ATOM     82  O   UNL A   1      36.990  32.372  35.682  1.00  0.00    -0.237 OA
ATOM     83  O   UNL A   1      38.184  30.249  35.226  1.00  0.00    -0.237 OA
ATOM     84  O   UNL A   1      39.391  32.149  36.205  1.00  0.00    -0.744 OA
ENDBRANCH  77  81
ENDBRANCH  50  74
BRANCH  62  85
ATOM     85  C   UNL A   1      44.934  26.423  32.626  1.00  0.00     0.023 A 
ATOM     86  C   UNL A   1      44.371  25.830  33.747  1.00  0.00     0.031 A 
ATOM     87  C   UNL A   1      46.304  26.125  32.388  1.00  0.00     0.131 A 
ATOM     88  C   UNL A   1      45.067  24.836  34.438  1.00  0.00     0.055 A 
ATOM     89  C   UNL A   1      47.045  25.256  33.182  1.00  0.00     0.041 A 
ATOM     90  F   UNL A   1      46.994  26.596  31.341  1.00  0.00    -0.206 F 
ATOM     91  C   UNL A   1      46.408  24.560  34.186  1.00  0.00     0.022 A 
BRANCH  88  92
ATOM     92  S   UNL A   1      44.106  23.804  35.554  1.00  0.00     0.124 S 
ATOM     93  O   UNL A   1      44.060  24.610  36.769  1.00  0.00    -0.237 OA
ATOM     94  O   UNL A   1      42.844  23.687  34.827  1.00  0.00    -0.237 OA
ATOM     95  O   UNL A   1      44.891  22.575  35.642  1.00  0.00    -0.744 OA
ENDBRANCH  88  92
ENDBRANCH  62  85
ENDBRANCH  36  37
ENDBRANCH  29  31
ENDBRANCH  28  29
ENDBRANCH  27  28
ENDBRANCH   1  27
TORSDOF 18
ENDMDL
MODEL 3
REMARK VINA RESULT:     -12.2      3.723      9.731
REMARK SMILES Cc1ccc(-c2cc([C@@H](C)C(=O)OCCOC(=O)c3ccc(-c4c5nc(c(-c6cc(S(=O)(=O)[O-])ccc6F)c6ccc([nH]6)c(-c6cc(S(=O)(=O)[O-])ccc6F)c6nc(c(-c7cc(S(=O)(=O)[O-])ccc7F)c7ccc4[nH]7)C=C6)C=C5)cc3)ccc2C[C@H]2CCCC2=O)cc1
REMARK SMILES IDX 14 1 13 2 11 3 12 4 9 5 10 6 8 7 6 8 7 9 84 10 83 11 82 12
REMARK SMILES IDX 5 13 1 14 2 15 3 16 93 17 4 18 92 19 85 20 86 21 87 22 90 23
REMARK SMILES IDX 88 24 89 25 91 26 15 27 16 28 17 29 18 30 19 31 20 32 81 33
REMARK SMILES IDX 21 34 80 35 22 36 23 37 24 38 74 39 25 40 79 41 73 42 75 43
REMARK SMILES IDX 26 44 78 45 72 46 71 47 27 49 59 50 39 51 58 52 40 53 43 54
REMARK SMILES IDX 57 55 76 56 41 57 42 58 56 60 77 61 44 62 28 63 29 64 37 65
REMARK SMILES IDX 30 66 36 67 38 68 35 69 31 70 32 71 33 72 34 73 60 74 61 75
REMARK SMILES IDX 69 76 62 77 68 78 70 79 67 80 63 81 64 82 65 83 66 84 45 85
REMARK SMILES IDX 46 86 54 87 47 88 53 89 55 90 52 91 48 92 49 93 50 94 51 95
REMARK H PARENT 75 48 43 59
REMARK Flexibility Score: inf
ROOT
ATOM      1  C   UNL A   1      32.617  28.998  25.940  1.00  0.00     0.274 C 
ENDROOT
BRANCH   1   2
ATOM      2  O   UNL A   1      31.485  28.387  26.554  1.00  0.00    -0.462 OA
BRANCH   2   3
ATOM      3  C   UNL A   1      31.233  27.103  26.162  1.00  0.00     0.313 C 
ATOM      4  O   UNL A   1      30.790  26.253  26.916  1.00  0.00    -0.252 OA
BRANCH   3   5
ATOM      5  C   UNL A   1      31.772  26.866  24.732  1.00  0.00     0.126 C 
ATOM      6  C   UNL A   1      30.718  26.624  23.654  1.00  0.00     0.025 C 
BRANCH   5   7
ATOM      7  C   UNL A   1      32.684  25.677  24.831  1.00  0.00    -0.033 A 
ATOM      8  C   UNL A   1      33.304  23.437  24.153  1.00  0.00    -0.015 A 
ATOM      9  C   UNL A   1      32.340  24.442  24.267  1.00  0.00     0.013 A 
ATOM     10  C   UNL A   1      34.636  23.750  24.530  1.00  0.00    -0.039 A 
ATOM     11  C   UNL A   1      34.921  24.943  25.211  1.00  0.00     0.004 A 
ATOM     12  C   UNL A   1      33.949  25.895  25.372  1.00  0.00     0.005 A 
BRANCH   8  13
ATOM     13  C   UNL A   1      32.899  22.077  23.760  1.00  0.00    -0.018 A 
ATOM     14  C   UNL A   1      31.967  17.958  22.816  1.00  0.00     0.044 C 
ATOM     15  C   UNL A   1      32.248  19.396  23.133  1.00  0.00    -0.051 A 
ATOM     16  C   UNL A   1      32.633  19.743  24.428  1.00  0.00     0.004 A 
ATOM     17  C   UNL A   1      32.140  20.404  22.164  1.00  0.00     0.004 A 
ATOM     18  C   UNL A   1      32.942  21.066  24.736  1.00  0.00     0.009 A 
ATOM     19  C   UNL A   1      32.457  21.735  22.477  1.00  0.00     0.009 A 
ENDBRANCH   8  13
BRANCH  10  20
ATOM     20  C   UNL A   1      35.830  22.900  24.170  1.00  0.00     0.047 C 
BRANCH  20  21
ATOM     21  C   UNL A   1      36.356  22.017  25.315  1.00  0.00     0.060 C 
ATOM     22  C   UNL A   1      36.313  20.507  25.077  1.00  0.00     0.012 C 
ATOM     23  C   UNL A   1      37.808  22.248  25.673  1.00  0.00     0.136 C 
ATOM     24  C   UNL A   1      37.737  20.035  24.799  1.00  0.00     0.009 C 
ATOM     25  C   UNL A   1      38.679  21.045  25.432  1.00  0.00     0.076 C 
ATOM     26  O   UNL A   1      38.231  23.303  26.135  1.00  0.00    -0.299 OA
ENDBRANCH  20  21
ENDBRANCH  10  20
ENDBRANCH   5   7
ENDBRANCH   3   5
ENDBRANCH   2   3
ENDBRANCH   1   2
BRANCH   1  27
ATOM     27  C   UNL A   1      33.138  30.161  26.799  1.00  0.00     0.275 C 
BRANCH  27  28
ATOM     28  O   UNL A   1      34.404  30.069  27.530  1.00  0.00    -0.458 OA
BRANCH  28  29
ATOM     29  C   UNL A   1      35.300  31.080  27.734  1.00  0.00     0.338 C 
ATOM     30  O   UNL A   1      35.013  32.252  27.586  1.00  0.00    -0.246 OA
BRANCH  29  31
ATOM     31  C   UNL A   1      36.619  30.649  28.255  1.00  0.00     0.060 A 
ATOM     32  C   UNL A   1      36.780  30.272  29.605  1.00  0.00     0.016 A 
ATOM     33  C   UNL A   1      37.599  30.371  27.327  1.00  0.00     0.016 A 
ATOM     34  C   UNL A   1      37.890  29.519  29.993  1.00  0.00     0.010 A 
ATOM     35  C   UNL A   1      38.488  29.390  27.635  1.00  0.00     0.010 A 
ATOM     36  C   UNL A   1      38.721  29.066  28.978  1.00  0.00    -0.014 A 
BRANCH  36  37
ATOM     37  C   UNL A   1      40.033  28.449  29.124  1.00  0.00     0.031 A 
ATOM     38  C   UNL A   1      40.129  26.976  29.035  1.00  0.00     0.074 A 
ATOM     39  C   UNL A   1      40.972  29.428  28.982  1.00  0.00     0.049 A 
ATOM     40  N   UNL A   1      41.070  26.234  29.484  1.00  0.00    -0.248 NA
ATOM     41  C   UNL A   1      39.081  26.130  28.463  1.00  0.00     0.031 C 
ATOM     42  C   UNL A   1      42.366  29.489  28.592  1.00  0.00     0.029 A 
ATOM     43  N   UNL A   1      40.717  30.778  29.294  1.00  0.00    -0.354 N 
ATOM     44  C   UNL A   1      41.009  25.052  28.751  1.00  0.00     0.074 A 
ATOM     45  C   UNL A   1      39.645  24.921  28.351  1.00  0.00     0.031 C 
ATOM     46  C   UNL A   1      42.909  30.624  29.096  1.00  0.00     0.029 A 
ATOM     47  C   UNL A   1      41.874  31.317  29.854  1.00  0.00     0.049 A 
ATOM     48  H   UNL A   1      39.870  31.258  29.143  1.00  0.00     0.167 HD
ATOM     49  C   UNL A   1      42.177  24.500  28.315  1.00  0.00     0.034 A 
ATOM     50  C   UNL A   1      41.791  31.508  31.205  1.00  0.00     0.034 A 
ATOM     51  C   UNL A   1      43.254  25.420  28.675  1.00  0.00     0.049 A 
ATOM     52  C   UNL A   1      42.497  30.332  31.886  1.00  0.00     0.074 A 
ATOM     53  C   UNL A   1      43.965  26.391  28.000  1.00  0.00     0.029 A 
ATOM     54  N   UNL A   1      43.419  25.685  30.009  1.00  0.00    -0.354 N 
ATOM     55  N   UNL A   1      42.724  29.172  31.316  1.00  0.00    -0.248 NA
ATOM     56  C   UNL A   1      43.084  30.401  33.216  1.00  0.00     0.031 C 
ATOM     57  C   UNL A   1      44.518  27.273  28.990  1.00  0.00     0.029 A 
ATOM     58  C   UNL A   1      44.075  26.865  30.238  1.00  0.00     0.049 A 
ATOM     59  H   UNL A   1      43.102  25.091  30.726  1.00  0.00     0.167 HD
ATOM     60  C   UNL A   1      43.578  28.422  32.073  1.00  0.00     0.074 A 
ATOM     61  C   UNL A   1      43.664  29.190  33.314  1.00  0.00     0.031 C 
ATOM     62  C   UNL A   1      44.200  27.277  31.627  1.00  0.00     0.034 A 
BRANCH  49  63
ATOM     63  C   UNL A   1      42.441  23.326  27.405  1.00  0.00     0.023 A 
ATOM     64  C   UNL A   1      43.463  23.498  26.444  1.00  0.00     0.031 A 
ATOM     65  C   UNL A   1      41.847  22.052  27.425  1.00  0.00     0.131 A 
ATOM     66  C   UNL A   1      43.842  22.488  25.552  1.00  0.00     0.055 A 
ATOM     67  C   UNL A   1      42.225  21.032  26.527  1.00  0.00     0.041 A 
ATOM     68  F   UNL A   1      40.908  21.722  28.321  1.00  0.00    -0.206 F 
ATOM     69  C   UNL A   1      43.226  21.245  25.582  1.00  0.00     0.022 A 
BRANCH  66  70
ATOM     70  S   UNL A   1      45.170  22.855  24.374  1.00  0.00     0.124 S 
ATOM     71  O   UNL A   1      46.294  22.116  24.942  1.00  0.00    -0.237 OA
ATOM     72  O   UNL A   1      44.626  22.339  23.123  1.00  0.00    -0.237 OA
ATOM     73  O   UNL A   1      45.291  24.310  24.442  1.00  0.00    -0.744 OA
ENDBRANCH  66  70
ENDBRANCH  49  63
BRANCH  50  74
ATOM     74  C   UNL A   1      40.441  32.144  31.545  1.00  0.00     0.023 A 
ATOM     75  C   UNL A   1      39.670  31.518  32.575  1.00  0.00     0.031 A 
ATOM     76  C   UNL A   1      40.129  33.480  31.265  1.00  0.00     0.131 A 
ATOM     77  C   UNL A   1      38.813  32.268  33.407  1.00  0.00     0.055 A 
ATOM     78  C   UNL A   1      39.181  34.193  32.027  1.00  0.00     0.041 A 
ATOM     79  F   UNL A   1      40.819  34.167  30.342  1.00  0.00    -0.206 F 
ATOM     80  C   UNL A   1      38.560  33.607  33.134  1.00  0.00     0.022 A 
BRANCH  77  81
ATOM     81  S   UNL A   1      38.309  31.563  35.016  1.00  0.00     0.124 S 
ATOM     82  O   UNL A   1      37.020  32.206  35.246  1.00  0.00    -0.237 OA
ATOM     83  O   UNL A   1      38.270  30.129  34.730  1.00  0.00    -0.237 OA
ATOM     84  O   UNL A   1      39.380  31.964  35.924  1.00  0.00    -0.744 OA
ENDBRANCH  77  81
ENDBRANCH  50  74
BRANCH  62  85
ATOM     85  C   UNL A   1      45.018  26.376  32.520  1.00  0.00     0.023 A 
ATOM     86  C   UNL A   1      44.393  25.625  33.505  1.00  0.00     0.031 A 
ATOM     87  C   UNL A   1      46.432  26.241  32.439  1.00  0.00     0.131 A 
ATOM     88  C   UNL A   1      45.106  24.643  34.195  1.00  0.00     0.055 A 
ATOM     89  C   UNL A   1      47.163  25.377  33.247  1.00  0.00     0.041 A 
ATOM     90  F   UNL A   1      47.187  26.877  31.534  1.00  0.00    -0.206 F 
ATOM     91  C   UNL A   1      46.491  24.527  34.099  1.00  0.00     0.022 A 
BRANCH  88  92
ATOM     92  S   UNL A   1      44.138  23.417  35.087  1.00  0.00     0.124 S 
ATOM     93  O   UNL A   1      44.065  22.316  34.133  1.00  0.00    -0.237 OA
ATOM     94  O   UNL A   1      44.978  23.181  36.259  1.00  0.00    -0.237 OA
ATOM     95  O   UNL A   1      42.877  24.106  35.351  1.00  0.00    -0.744 OA
ENDBRANCH  88  92
ENDBRANCH  62  85
ENDBRANCH  36  37
ENDBRANCH  29  31
ENDBRANCH  28  29
ENDBRANCH  27  28
ENDBRANCH   1  27
TORSDOF 18
ENDMDL
