MODEL 1
REMARK VINA RESULT:     -10.9      0.000      0.000
REMARK SMILES O=C(OCCOC(=O)C1CCN(c2cc(C(F)(F)F)cc(Cl)n2)CC1)c1ccc(-c2c3nc(c(-c4cc(S(=O)(=O)[O-])ccc4F)c4ccc([nH]4)c(-c4cc(S(=O)(=O)[O-])ccc4F)c4nc(c(-c5cc(S(=O)(=O)[O-])ccc5F)c5ccc2[nH]5)C=C4)C=C3)cc1
REMARK SMILES IDX 4 1 3 2 2 3 1 4 26 5 27 6 88 7 28 8 87 9 29 10 30 11 31 12
REMARK SMILES IDX 81 13 32 14 86 15 80 16 82 17 33 18 85 19 79 20 78 21 34 23
REMARK SMILES IDX 66 24 46 25 65 26 47 27 50 28 64 29 83 30 48 31 49 32 63 34
REMARK SMILES IDX 84 35 51 36 35 37 36 38 44 39 37 40 43 41 45 42 42 43 38 44
REMARK SMILES IDX 39 45 40 46 41 47 67 48 68 49 76 50 69 51 75 52 77 53 74 54
REMARK SMILES IDX 70 55 71 56 72 57 73 58 52 59 53 60 61 61 54 62 60 63 62 64
REMARK SMILES IDX 59 65 55 66 56 67 57 68 58 69 5 70 6 71 7 72 8 73 9 74 10 75
REMARK SMILES IDX 25 76 11 77 24 78 12 79 13 80 14 81 23 82 15 83 21 84 20 85
REMARK SMILES IDX 22 86 16 87 17 88 18 89 19 90
REMARK H PARENT 82 22 50 33
REMARK Flexibility Score: inf
ROOT
ATOM      1  C   UNL A   1      40.556  20.361  26.389  1.00  0.00     0.275 C 
ENDROOT
BRANCH   1   2
ATOM      2  O   UNL A   1      39.892  21.439  27.077  1.00  0.00    -0.458 OA
BRANCH   2   3
ATOM      3  C   UNL A   1      39.296  22.559  26.594  1.00  0.00     0.338 C 
ATOM      4  O   UNL A   1      38.506  22.438  25.657  1.00  0.00    -0.246 OA
BRANCH   3   5
ATOM      5  C   UNL A   1      39.682  23.950  27.001  1.00  0.00     0.060 A 
ATOM      6  C   UNL A   1      40.095  24.970  26.143  1.00  0.00     0.016 A 
ATOM      7  C   UNL A   1      39.556  24.261  28.373  1.00  0.00     0.016 A 
ATOM      8  C   UNL A   1      40.271  26.276  26.604  1.00  0.00     0.010 A 
ATOM      9  C   UNL A   1      39.735  25.568  28.846  1.00  0.00     0.010 A 
ATOM     10  C   UNL A   1      40.087  26.586  27.954  1.00  0.00    -0.014 A 
BRANCH  10  11
ATOM     11  C   UNL A   1      40.501  27.928  28.413  1.00  0.00     0.031 A 
ATOM     12  C   UNL A   1      41.935  28.305  28.194  1.00  0.00     0.074 A 
ATOM     13  C   UNL A   1      39.601  28.821  28.866  1.00  0.00     0.049 A 
ATOM     14  N   UNL A   1      42.524  29.457  28.352  1.00  0.00    -0.248 NA
ATOM     15  C   UNL A   1      42.816  27.232  27.704  1.00  0.00     0.031 C 
ATOM     16  C   UNL A   1      38.172  28.563  29.036  1.00  0.00     0.029 A 
ATOM     17  N   UNL A   1      39.746  30.133  29.238  1.00  0.00    -0.354 N 
ATOM     18  C   UNL A   1      43.840  29.256  27.953  1.00  0.00     0.074 A 
ATOM     19  C   UNL A   1      43.974  27.859  27.607  1.00  0.00     0.031 C 
ATOM     20  C   UNL A   1      37.568  29.685  29.467  1.00  0.00     0.029 A 
ATOM     21  C   UNL A   1      38.570  30.737  29.623  1.00  0.00     0.049 A 
ATOM     22  H   UNL A   1      40.612  30.600  29.230  1.00  0.00     0.167 HD
ATOM     23  C   UNL A   1      44.840  30.164  27.866  1.00  0.00     0.034 A 
ATOM     24  C   UNL A   1      38.339  31.996  30.050  1.00  0.00     0.034 A 
ATOM     25  C   UNL A   1      44.690  31.535  28.275  1.00  0.00     0.049 A 
ATOM     26  C   UNL A   1      39.511  32.953  30.086  1.00  0.00     0.074 A 
ATOM     27  C   UNL A   1      45.638  32.538  28.299  1.00  0.00     0.029 A 
ATOM     28  N   UNL A   1      43.509  32.086  28.764  1.00  0.00    -0.354 N 
ATOM     29  N   UNL A   1      40.752  32.755  29.699  1.00  0.00    -0.248 NA
ATOM     30  C   UNL A   1      39.248  34.301  30.601  1.00  0.00     0.031 C 
ATOM     31  C   UNL A   1      45.054  33.671  28.878  1.00  0.00     0.029 A 
ATOM     32  C   UNL A   1      43.714  33.405  29.128  1.00  0.00     0.049 A 
ATOM     33  H   UNL A   1      42.652  31.606  28.840  1.00  0.00     0.167 HD
ATOM     34  C   UNL A   1      41.407  33.969  29.888  1.00  0.00     0.074 A 
ATOM     35  C   UNL A   1      40.418  34.892  30.408  1.00  0.00     0.031 C 
ATOM     36  C   UNL A   1      42.704  34.299  29.649  1.00  0.00     0.034 A 
BRANCH  23  37
ATOM     37  C   UNL A   1      46.176  29.645  27.396  1.00  0.00     0.023 A 
ATOM     38  C   UNL A   1      46.381  29.240  26.063  1.00  0.00     0.031 A 
ATOM     39  C   UNL A   1      47.216  29.435  28.316  1.00  0.00     0.131 A 
ATOM     40  C   UNL A   1      47.551  28.550  25.716  1.00  0.00     0.055 A 
ATOM     41  C   UNL A   1      48.417  28.832  27.941  1.00  0.00     0.041 A 
ATOM     42  F   UNL A   1      47.064  29.769  29.607  1.00  0.00    -0.206 F 
ATOM     43  C   UNL A   1      48.582  28.365  26.640  1.00  0.00     0.022 A 
BRANCH  40  44
ATOM     44  S   UNL A   1      47.620  27.723  24.101  1.00  0.00     0.124 S 
ATOM     45  O   UNL A   1      46.778  28.595  23.286  1.00  0.00    -0.237 OA
ATOM     46  O   UNL A   1      49.045  27.744  23.794  1.00  0.00    -0.237 OA
ATOM     47  O   UNL A   1      47.058  26.400  24.370  1.00  0.00    -0.744 OA
ENDBRANCH  40  44
ENDBRANCH  23  37
BRANCH  24  48
ATOM     48  C   UNL A   1      36.978  32.433  30.494  1.00  0.00     0.023 A 
ATOM     49  C   UNL A   1      36.048  32.972  29.589  1.00  0.00     0.031 A 
ATOM     50  C   UNL A   1      36.617  32.393  31.852  1.00  0.00     0.131 A 
ATOM     51  C   UNL A   1      34.830  33.496  30.059  1.00  0.00     0.055 A 
ATOM     52  C   UNL A   1      35.384  32.866  32.309  1.00  0.00     0.041 A 
ATOM     53  F   UNL A   1      37.465  31.895  32.767  1.00  0.00    -0.206 F 
ATOM     54  C   UNL A   1      34.488  33.436  31.411  1.00  0.00     0.022 A 
BRANCH  51  55
ATOM     55  S   UNL A   1      33.737  34.354  28.889  1.00  0.00     0.124 S 
ATOM     56  O   UNL A   1      34.649  35.312  28.277  1.00  0.00    -0.237 OA
ATOM     57  O   UNL A   1      33.289  33.257  28.037  1.00  0.00    -0.237 OA
ATOM     58  O   UNL A   1      32.706  34.933  29.748  1.00  0.00    -0.744 OA
ENDBRANCH  51  55
ENDBRANCH  24  48
BRANCH  36  59
ATOM     59  C   UNL A   1      43.103  35.733  29.899  1.00  0.00     0.023 A 
ATOM     60  C   UNL A   1      42.906  36.737  28.936  1.00  0.00     0.031 A 
ATOM     61  C   UNL A   1      43.687  36.096  31.125  1.00  0.00     0.131 A 
ATOM     62  C   UNL A   1      43.350  38.042  29.190  1.00  0.00     0.055 A 
ATOM     63  C   UNL A   1      44.057  37.412  31.402  1.00  0.00     0.041 A 
ATOM     64  F   UNL A   1      43.901  35.176  32.080  1.00  0.00    -0.206 F 
ATOM     65  C   UNL A   1      43.903  38.391  30.425  1.00  0.00     0.022 A 
BRANCH  62  66
ATOM     66  S   UNL A   1      43.296  39.255  27.843  1.00  0.00     0.124 S 
ATOM     67  O   UNL A   1      43.804  38.478  26.718  1.00  0.00    -0.237 OA
ATOM     68  O   UNL A   1      41.880  39.602  27.791  1.00  0.00    -0.237 OA
ATOM     69  O   UNL A   1      44.180  40.323  28.309  1.00  0.00    -0.744 OA
ENDBRANCH  62  66
ENDBRANCH  36  59
ENDBRANCH  10  11
ENDBRANCH   3   5
ENDBRANCH   2   3
ENDBRANCH   1   2
BRANCH   1  70
ATOM     70  C   UNL A   1      42.054  20.590  26.167  1.00  0.00     0.274 C 
BRANCH  70  71
ATOM     71  O   UNL A   1      42.320  21.786  25.423  1.00  0.00    -0.462 OA
BRANCH  71  72
ATOM     72  C   UNL A   1      43.537  21.845  24.812  1.00  0.00     0.309 C 
ATOM     73  O   UNL A   1      44.161  20.873  24.406  1.00  0.00    -0.252 OA
BRANCH  72  74
ATOM     74  C   UNL A   1      43.996  23.286  24.692  1.00  0.00     0.103 C 
ATOM     75  C   UNL A   1      45.495  23.375  24.383  1.00  0.00     0.037 C 
ATOM     76  C   UNL A   1      43.616  24.091  25.925  1.00  0.00     0.037 C 
ATOM     77  C   UNL A   1      46.367  23.083  25.596  1.00  0.00     0.119 C 
ATOM     78  C   UNL A   1      44.463  23.691  27.122  1.00  0.00     0.119 C 
ATOM     79  N   UNL A   1      45.865  23.794  26.760  1.00  0.00    -0.357 N 
BRANCH  79  80
ATOM     80  C   UNL A   1      46.767  24.409  27.590  1.00  0.00     0.130 A 
ATOM     81  C   UNL A   1      46.332  25.077  28.729  1.00  0.00     0.060 A 
ATOM     82  N   UNL A   1      48.071  24.362  27.263  1.00  0.00    -0.219 NA
ATOM     83  C   UNL A   1      47.247  25.740  29.549  1.00  0.00     0.062 A 
ATOM     84  C   UNL A   1      48.936  25.041  28.035  1.00  0.00     0.132 A 
ATOM     85  C   UNL A   1      48.589  25.739  29.174  1.00  0.00     0.054 A 
ATOM     86  Cl  UNL A   1      50.566  24.986  27.503  1.00  0.00    -0.062 Cl
BRANCH  83  87
ATOM     87  C   UNL A   1      46.761  26.402  30.801  1.00  0.00     0.416 C 
ATOM     88  F   UNL A   1      46.827  25.587  31.888  1.00  0.00    -0.166 F 
ATOM     89  F   UNL A   1      47.496  27.505  31.118  1.00  0.00    -0.166 F 
ATOM     90  F   UNL A   1      45.470  26.827  30.726  1.00  0.00    -0.166 F 
ENDBRANCH  83  87
ENDBRANCH  79  80
ENDBRANCH  72  74
ENDBRANCH  71  72
ENDBRANCH  70  71
ENDBRANCH   1  70
TORSDOF 16
ENDMDL
MODEL 2
REMARK VINA RESULT:     -10.6      6.115     12.018
REMARK SMILES O=C(OCCOC(=O)C1CCN(c2cc(C(F)(F)F)cc(Cl)n2)CC1)c1ccc(-c2c3nc(c(-c4cc(S(=O)(=O)[O-])ccc4F)c4ccc([nH]4)c(-c4cc(S(=O)(=O)[O-])ccc4F)c4nc(c(-c5cc(S(=O)(=O)[O-])ccc5F)c5ccc2[nH]5)C=C4)C=C3)cc1
REMARK SMILES IDX 4 1 3 2 2 3 1 4 26 5 27 6 88 7 28 8 87 9 29 10 30 11 31 12
REMARK SMILES IDX 81 13 32 14 86 15 80 16 82 17 33 18 85 19 79 20 78 21 34 23
REMARK SMILES IDX 66 24 46 25 65 26 47 27 50 28 64 29 83 30 48 31 49 32 63 34
REMARK SMILES IDX 84 35 51 36 35 37 36 38 44 39 37 40 43 41 45 42 42 43 38 44
REMARK SMILES IDX 39 45 40 46 41 47 67 48 68 49 76 50 69 51 75 52 77 53 74 54
REMARK SMILES IDX 70 55 71 56 72 57 73 58 52 59 53 60 61 61 54 62 60 63 62 64
REMARK SMILES IDX 59 65 55 66 56 67 57 68 58 69 5 70 6 71 7 72 8 73 9 74 10 75
REMARK SMILES IDX 25 76 11 77 24 78 12 79 13 80 14 81 23 82 15 83 21 84 20 85
REMARK SMILES IDX 22 86 16 87 17 88 18 89 19 90
REMARK H PARENT 82 22 50 33
REMARK Flexibility Score: inf
ROOT
ATOM      1  C   UNL A   1      31.424  32.135  26.906  1.00  0.00     0.275 C 
ENDROOT
BRANCH   1   2
ATOM      2  O   UNL A   1      32.581  32.995  26.876  1.00  0.00    -0.458 OA
BRANCH   2   3
ATOM      3  C   UNL A   1      33.281  33.565  27.890  1.00  0.00     0.338 C 
ATOM      4  O   UNL A   1      32.927  34.674  28.288  1.00  0.00    -0.246 OA
BRANCH   3   5
ATOM      5  C   UNL A   1      34.570  33.014  28.424  1.00  0.00     0.060 A 
ATOM      6  C   UNL A   1      35.832  33.593  28.277  1.00  0.00     0.016 A 
ATOM      7  C   UNL A   1      34.479  31.833  29.193  1.00  0.00     0.016 A 
ATOM      8  C   UNL A   1      36.943  33.088  28.955  1.00  0.00     0.010 A 
ATOM      9  C   UNL A   1      35.590  31.316  29.873  1.00  0.00     0.010 A 
ATOM     10  C   UNL A   1      36.830  31.952  29.760  1.00  0.00    -0.014 A 
BRANCH  10  11
ATOM     11  C   UNL A   1      38.077  31.344  30.268  1.00  0.00     0.031 A 
ATOM     12  C   UNL A   1      38.471  31.683  31.672  1.00  0.00     0.074 A 
ATOM     13  C   UNL A   1      38.743  30.415  29.555  1.00  0.00     0.049 A 
ATOM     14  N   UNL A   1      39.415  31.176  32.415  1.00  0.00    -0.248 NA
ATOM     15  C   UNL A   1      37.666  32.722  32.335  1.00  0.00     0.031 C 
ATOM     16  C   UNL A   1      38.382  29.967  28.210  1.00  0.00     0.029 A 
ATOM     17  N   UNL A   1      39.841  29.657  29.871  1.00  0.00    -0.354 N 
ATOM     18  C   UNL A   1      39.301  31.815  33.644  1.00  0.00     0.074 A 
ATOM     19  C   UNL A   1      38.238  32.787  33.524  1.00  0.00     0.031 C 
ATOM     20  C   UNL A   1      39.236  29.004  27.821  1.00  0.00     0.029 A 
ATOM     21  C   UNL A   1      40.217  28.779  28.880  1.00  0.00     0.049 A 
ATOM     22  H   UNL A   1      40.317  29.734  30.729  1.00  0.00     0.167 HD
ATOM     23  C   UNL A   1      40.008  31.593  34.776  1.00  0.00     0.034 A 
ATOM     24  C   UNL A   1      41.238  27.897  28.842  1.00  0.00     0.034 A 
ATOM     25  C   UNL A   1      41.101  30.660  34.846  1.00  0.00     0.049 A 
ATOM     26  C   UNL A   1      42.110  27.777  30.072  1.00  0.00     0.074 A 
ATOM     27  C   UNL A   1      41.939  30.388  35.909  1.00  0.00     0.029 A 
ATOM     28  N   UNL A   1      41.525  29.863  33.785  1.00  0.00    -0.354 N 
ATOM     29  N   UNL A   1      41.989  28.381  31.234  1.00  0.00    -0.248 NA
ATOM     30  C   UNL A   1      43.244  26.850  29.991  1.00  0.00     0.031 C 
ATOM     31  C   UNL A   1      42.918  29.490  35.468  1.00  0.00     0.029 A 
ATOM     32  C   UNL A   1      42.636  29.127  34.158  1.00  0.00     0.049 A 
ATOM     33  H   UNL A   1      41.096  29.829  32.899  1.00  0.00     0.167 HD
ATOM     34  C   UNL A   1      43.009  27.874  32.035  1.00  0.00     0.074 A 
ATOM     35  C   UNL A   1      43.723  26.906  31.225  1.00  0.00     0.031 C 
ATOM     36  C   UNL A   1      43.328  28.172  33.322  1.00  0.00     0.034 A 
BRANCH  23  37
ATOM     37  C   UNL A   1      39.655  32.451  35.966  1.00  0.00     0.023 A 
ATOM     38  C   UNL A   1      38.804  31.982  36.985  1.00  0.00     0.031 A 
ATOM     39  C   UNL A   1      40.069  33.791  36.018  1.00  0.00     0.131 A 
ATOM     40  C   UNL A   1      38.311  32.874  37.948  1.00  0.00     0.055 A 
ATOM     41  C   UNL A   1      39.649  34.650  37.035  1.00  0.00     0.041 A 
ATOM     42  F   UNL A   1      40.852  34.303  35.055  1.00  0.00    -0.206 F 
ATOM     43  C   UNL A   1      38.748  34.200  37.995  1.00  0.00     0.022 A 
BRANCH  40  44
ATOM     44  S   UNL A   1      36.941  32.331  39.008  1.00  0.00     0.124 S 
ATOM     45  O   UNL A   1      35.803  33.006  38.390  1.00  0.00    -0.237 OA
ATOM     46  O   UNL A   1      36.981  30.881  38.860  1.00  0.00    -0.237 OA
ATOM     47  O   UNL A   1      37.312  32.834  40.331  1.00  0.00    -0.744 OA
ENDBRANCH  40  44
ENDBRANCH  23  37
BRANCH  24  48
ATOM     48  C   UNL A   1      41.517  27.077  27.621  1.00  0.00     0.023 A 
ATOM     49  C   UNL A   1      41.296  25.689  27.602  1.00  0.00     0.031 A 
ATOM     50  C   UNL A   1      42.089  27.662  26.477  1.00  0.00     0.131 A 
ATOM     51  C   UNL A   1      41.694  24.929  26.487  1.00  0.00     0.055 A 
ATOM     52  C   UNL A   1      42.433  26.910  25.351  1.00  0.00     0.041 A 
ATOM     53  F   UNL A   1      42.330  28.983  26.437  1.00  0.00    -0.206 F 
ATOM     54  C   UNL A   1      42.250  25.532  25.358  1.00  0.00     0.022 A 
BRANCH  51  55
ATOM     55  S   UNL A   1      41.567  23.119  26.573  1.00  0.00     0.124 S 
ATOM     56  O   UNL A   1      42.147  22.719  25.298  1.00  0.00    -0.237 OA
ATOM     57  O   UNL A   1      42.358  22.818  27.763  1.00  0.00    -0.237 OA
ATOM     58  O   UNL A   1      40.131  22.885  26.709  1.00  0.00    -0.744 OA
ENDBRANCH  51  55
ENDBRANCH  24  48
BRANCH  36  59
ATOM     59  C   UNL A   1      44.465  27.397  33.942  1.00  0.00     0.023 A 
ATOM     60  C   UNL A   1      44.267  26.147  34.553  1.00  0.00     0.031 A 
ATOM     61  C   UNL A   1      45.769  27.922  33.918  1.00  0.00     0.131 A 
ATOM     62  C   UNL A   1      45.343  25.494  35.170  1.00  0.00     0.055 A 
ATOM     63  C   UNL A   1      46.850  27.233  34.466  1.00  0.00     0.041 A 
ATOM     64  F   UNL A   1      46.016  29.114  33.350  1.00  0.00    -0.206 F 
ATOM     65  C   UNL A   1      46.637  26.018  35.111  1.00  0.00     0.022 A 
BRANCH  62  66
ATOM     66  S   UNL A   1      45.009  24.006  36.149  1.00  0.00     0.124 S 
ATOM     67  O   UNL A   1      46.163  23.171  35.832  1.00  0.00    -0.237 OA
ATOM     68  O   UNL A   1      44.957  24.531  37.509  1.00  0.00    -0.237 OA
ATOM     69  O   UNL A   1      43.733  23.527  35.620  1.00  0.00    -0.744 OA
ENDBRANCH  62  66
ENDBRANCH  36  59
ENDBRANCH  10  11
ENDBRANCH   3   5
ENDBRANCH   2   3
ENDBRANCH   1   2
BRANCH   1  70
ATOM     70  C   UNL A   1      31.622  30.796  26.188  1.00  0.00     0.274 C 
BRANCH  70  71
ATOM     71  O   UNL A   1      32.317  29.839  26.998  1.00  0.00    -0.462 OA
BRANCH  71  72
ATOM     72  C   UNL A   1      31.768  28.594  27.046  1.00  0.00     0.309 C 
ATOM     73  O   UNL A   1      31.375  28.044  28.068  1.00  0.00    -0.252 OA
BRANCH  72  74
ATOM     74  C   UNL A   1      31.699  27.995  25.654  1.00  0.00     0.103 C 
ATOM     75  C   UNL A   1      30.890  26.692  25.641  1.00  0.00     0.037 C 
ATOM     76  C   UNL A   1      33.087  27.814  25.061  1.00  0.00     0.037 C 
ATOM     77  C   UNL A   1      31.656  25.515  26.227  1.00  0.00     0.119 C 
ATOM     78  C   UNL A   1      33.832  26.682  25.748  1.00  0.00     0.119 C 
ATOM     79  N   UNL A   1      33.011  25.485  25.702  1.00  0.00    -0.357 N 
BRANCH  79  80
ATOM     80  C   UNL A   1      33.543  24.276  25.333  1.00  0.00     0.130 A 
ATOM     81  C   UNL A   1      34.854  24.194  24.880  1.00  0.00     0.060 A 
ATOM     82  N   UNL A   1      32.759  23.185  25.405  1.00  0.00    -0.219 NA
ATOM     83  C   UNL A   1      35.380  22.969  24.463  1.00  0.00     0.062 A 
ATOM     84  C   UNL A   1      33.261  22.021  24.958  1.00  0.00     0.132 A 
ATOM     85  C   UNL A   1      34.546  21.854  24.482  1.00  0.00     0.054 A 
ATOM     86  Cl  UNL A   1      32.169  20.700  25.020  1.00  0.00    -0.062 Cl
BRANCH  83  87
ATOM     87  C   UNL A   1      36.813  22.896  24.034  1.00  0.00     0.416 C 
ATOM     88  F   UNL A   1      37.612  23.759  24.717  1.00  0.00    -0.166 F 
ATOM     89  F   UNL A   1      37.347  21.659  24.233  1.00  0.00    -0.166 F 
ATOM     90  F   UNL A   1      37.000  23.172  22.714  1.00  0.00    -0.166 F 
ENDBRANCH  83  87
ENDBRANCH  79  80
ENDBRANCH  72  74
ENDBRANCH  71  72
ENDBRANCH  70  71
ENDBRANCH   1  70
TORSDOF 16
ENDMDL
MODEL 3
REMARK VINA RESULT:     -10.6      6.242     12.177
REMARK SMILES O=C(OCCOC(=O)C1CCN(c2cc(C(F)(F)F)cc(Cl)n2)CC1)c1ccc(-c2c3nc(c(-c4cc(S(=O)(=O)[O-])ccc4F)c4ccc([nH]4)c(-c4cc(S(=O)(=O)[O-])ccc4F)c4nc(c(-c5cc(S(=O)(=O)[O-])ccc5F)c5ccc2[nH]5)C=C4)C=C3)cc1
REMARK SMILES IDX 4 1 3 2 2 3 1 4 26 5 27 6 88 7 28 8 87 9 29 10 30 11 31 12
REMARK SMILES IDX 81 13 32 14 86 15 80 16 82 17 33 18 85 19 79 20 78 21 34 23
REMARK SMILES IDX 66 24 46 25 65 26 47 27 50 28 64 29 83 30 48 31 49 32 63 34
REMARK SMILES IDX 84 35 51 36 35 37 36 38 44 39 37 40 43 41 45 42 42 43 38 44
REMARK SMILES IDX 39 45 40 46 41 47 67 48 68 49 76 50 69 51 75 52 77 53 74 54
REMARK SMILES IDX 70 55 71 56 72 57 73 58 52 59 53 60 61 61 54 62 60 63 62 64
REMARK SMILES IDX 59 65 55 66 56 67 57 68 58 69 5 70 6 71 7 72 8 73 9 74 10 75
REMARK SMILES IDX 25 76 11 77 24 78 12 79 13 80 14 81 23 82 15 83 21 84 20 85
REMARK SMILES IDX 22 86 16 87 17 88 18 89 19 90
REMARK H PARENT 82 22 50 33
REMARK Flexibility Score: inf
ROOT
ATOM      1  C   UNL A   1      32.210  30.493  26.735  1.00  0.00     0.275 C 
ENDROOT
BRANCH   1   2
ATOM      2  O   UNL A   1      33.647  30.609  26.745  1.00  0.00    -0.458 OA
BRANCH   2   3
ATOM      3  C   UNL A   1      34.477  31.212  27.634  1.00  0.00     0.338 C 
ATOM      4  O   UNL A   1      34.283  32.399  27.895  1.00  0.00    -0.246 OA
BRANCH   3   5
ATOM      5  C   UNL A   1      35.726  30.577  28.170  1.00  0.00     0.060 A 
ATOM      6  C   UNL A   1      35.794  29.668  29.227  1.00  0.00     0.016 A 
ATOM      7  C   UNL A   1      36.928  30.890  27.498  1.00  0.00     0.016 A 
ATOM      8  C   UNL A   1      36.985  29.010  29.539  1.00  0.00     0.010 A 
ATOM      9  C   UNL A   1      38.129  30.238  27.808  1.00  0.00     0.010 A 
ATOM     10  C   UNL A   1      38.157  29.285  28.830  1.00  0.00    -0.014 A 
BRANCH  10  11
ATOM     11  C   UNL A   1      39.421  28.723  29.350  1.00  0.00     0.031 A 
ATOM     12  C   UNL A   1      39.901  29.245  30.669  1.00  0.00     0.074 A 
ATOM     13  C   UNL A   1      40.030  27.688  28.740  1.00  0.00     0.049 A 
ATOM     14  N   UNL A   1      40.877  28.825  31.423  1.00  0.00    -0.248 NA
ATOM     15  C   UNL A   1      39.152  30.386  31.222  1.00  0.00     0.031 C 
ATOM     16  C   UNL A   1      39.586  27.066  27.493  1.00  0.00     0.029 A 
ATOM     17  N   UNL A   1      41.132  26.955  29.099  1.00  0.00    -0.354 N 
ATOM     18  C   UNL A   1      40.844  29.632  32.554  1.00  0.00     0.074 A 
ATOM     19  C   UNL A   1      39.792  30.603  32.357  1.00  0.00     0.031 C 
ATOM     20  C   UNL A   1      40.400  26.037  27.197  1.00  0.00     0.029 A 
ATOM     21  C   UNL A   1      41.436  25.938  28.222  1.00  0.00     0.049 A 
ATOM     22  H   UNL A   1      41.658  27.140  29.911  1.00  0.00     0.167 HD
ATOM     23  C   UNL A   1      41.611  29.553  33.666  1.00  0.00     0.034 A 
ATOM     24  C   UNL A   1      42.439  25.035  28.254  1.00  0.00     0.034 A 
ATOM     25  C   UNL A   1      42.691  28.613  33.807  1.00  0.00     0.049 A 
ATOM     26  C   UNL A   1      43.378  25.067  29.440  1.00  0.00     0.074 A 
ATOM     27  C   UNL A   1      43.584  28.472  34.850  1.00  0.00     0.029 A 
ATOM     28  N   UNL A   1      43.041  27.666  32.848  1.00  0.00    -0.354 N 
ATOM     29  N   UNL A   1      43.334  25.830  30.509  1.00  0.00    -0.248 NA
ATOM     30  C   UNL A   1      44.490  24.111  29.428  1.00  0.00     0.031 C 
ATOM     31  C   UNL A   1      44.521  27.497  34.488  1.00  0.00     0.029 A 
ATOM     32  C   UNL A   1      44.159  26.962  33.260  1.00  0.00     0.049 A 
ATOM     33  H   UNL A   1      42.561  27.518  32.000  1.00  0.00     0.167 HD
ATOM     34  C   UNL A   1      44.390  25.416  31.317  1.00  0.00     0.074 A 
ATOM     35  C   UNL A   1      45.040  24.327  30.614  1.00  0.00     0.031 C 
ATOM     36  C   UNL A   1      44.786  25.883  32.531  1.00  0.00     0.034 A 
BRANCH  23  37
ATOM     37  C   UNL A   1      41.341  30.577  34.741  1.00  0.00     0.023 A 
ATOM     38  C   UNL A   1      40.187  30.514  35.543  1.00  0.00     0.031 A 
ATOM     39  C   UNL A   1      42.179  31.695  34.878  1.00  0.00     0.131 A 
ATOM     40  C   UNL A   1      39.848  31.599  36.365  1.00  0.00     0.055 A 
ATOM     41  C   UNL A   1      41.885  32.728  35.769  1.00  0.00     0.041 A 
ATOM     42  F   UNL A   1      43.276  31.826  34.114  1.00  0.00    -0.206 F 
ATOM     43  C   UNL A   1      40.702  32.695  36.503  1.00  0.00     0.022 A 
BRANCH  40  44
ATOM     44  S   UNL A   1      38.185  31.647  37.092  1.00  0.00     0.124 S 
ATOM     45  O   UNL A   1      37.806  30.237  37.056  1.00  0.00    -0.237 OA
ATOM     46  O   UNL A   1      38.433  32.208  38.414  1.00  0.00    -0.237 OA
ATOM     47  O   UNL A   1      37.436  32.509  36.177  1.00  0.00    -0.744 OA
ENDBRANCH  40  44
ENDBRANCH  23  37
BRANCH  24  48
ATOM     48  C   UNL A   1      42.634  24.047  27.148  1.00  0.00     0.023 A 
ATOM     49  C   UNL A   1      42.053  22.767  27.194  1.00  0.00     0.031 A 
ATOM     50  C   UNL A   1      43.476  24.340  26.060  1.00  0.00     0.131 A 
ATOM     51  C   UNL A   1      42.365  21.817  26.205  1.00  0.00     0.055 A 
ATOM     52  C   UNL A   1      43.740  23.411  25.051  1.00  0.00     0.041 A 
ATOM     53  F   UNL A   1      44.065  25.543  25.962  1.00  0.00    -0.206 F 
ATOM     54  C   UNL A   1      43.195  22.133  25.129  1.00  0.00     0.022 A 
BRANCH  51  55
ATOM     55  S   UNL A   1      41.748  20.119  26.400  1.00  0.00     0.124 S 
ATOM     56  O   UNL A   1      40.308  20.311  26.290  1.00  0.00    -0.237 OA
ATOM     57  O   UNL A   1      42.393  19.435  25.283  1.00  0.00    -0.237 OA
ATOM     58  O   UNL A   1      42.229  19.732  27.725  1.00  0.00    -0.744 OA
ENDBRANCH  51  55
ENDBRANCH  24  48
BRANCH  36  59
ATOM     59  C   UNL A   1      45.944  25.175  33.190  1.00  0.00     0.023 A 
ATOM     60  C   UNL A   1      45.753  24.082  34.052  1.00  0.00     0.031 A 
ATOM     61  C   UNL A   1      47.261  25.605  32.948  1.00  0.00     0.131 A 
ATOM     62  C   UNL A   1      46.855  23.497  34.691  1.00  0.00     0.055 A 
ATOM     63  C   UNL A   1      48.360  24.970  33.527  1.00  0.00     0.041 A 
ATOM     64  F   UNL A   1      47.501  26.647  32.136  1.00  0.00    -0.206 F 
ATOM     65  C   UNL A   1      48.158  23.919  34.416  1.00  0.00     0.022 A 
BRANCH  62  66
ATOM     66  S   UNL A   1      46.555  22.249  35.971  1.00  0.00     0.124 S 
ATOM     67  O   UNL A   1      47.357  21.128  35.494  1.00  0.00    -0.237 OA
ATOM     68  O   UNL A   1      47.041  22.914  37.176  1.00  0.00    -0.237 OA
ATOM     69  O   UNL A   1      45.108  22.044  35.917  1.00  0.00    -0.744 OA
ENDBRANCH  62  66
ENDBRANCH  36  59
ENDBRANCH  10  11
ENDBRANCH   3   5
ENDBRANCH   2   3
ENDBRANCH   1   2
BRANCH   1  70
ATOM     70  C   UNL A   1      31.697  29.067  26.961  1.00  0.00     0.274 C 
BRANCH  70  71
ATOM     71  O   UNL A   1      31.391  28.395  25.733  1.00  0.00    -0.462 OA
BRANCH  71  72
ATOM     72  C   UNL A   1      31.229  27.045  25.822  1.00  0.00     0.309 C 
ATOM     73  O   UNL A   1      30.770  26.460  26.796  1.00  0.00    -0.252 OA
BRANCH  72  74
ATOM     74  C   UNL A   1      31.682  26.375  24.539  1.00  0.00     0.103 C 
ATOM     75  C   UNL A   1      31.147  24.942  24.432  1.00  0.00     0.037 C 
ATOM     76  C   UNL A   1      33.194  26.434  24.389  1.00  0.00     0.037 C 
ATOM     77  C   UNL A   1      31.888  23.965  25.332  1.00  0.00     0.119 C 
ATOM     78  C   UNL A   1      33.878  25.502  25.375  1.00  0.00     0.119 C 
ATOM     79  N   UNL A   1      33.323  24.169  25.222  1.00  0.00    -0.357 N 
BRANCH  79  80
ATOM     80  C   UNL A   1      34.136  23.068  25.148  1.00  0.00     0.130 A 
ATOM     81  C   UNL A   1      33.592  21.803  24.959  1.00  0.00     0.060 A 
ATOM     82  N   UNL A   1      35.464  23.244  25.278  1.00  0.00    -0.219 NA
ATOM     83  C   UNL A   1      34.418  20.678  24.927  1.00  0.00     0.062 A 
ATOM     84  C   UNL A   1      36.244  22.150  25.292  1.00  0.00     0.132 A 
ATOM     85  C   UNL A   1      35.785  20.859  25.124  1.00  0.00     0.054 A 
ATOM     86  Cl  UNL A   1      37.913  22.463  25.535  1.00  0.00    -0.062 Cl
BRANCH  83  87
ATOM     87  C   UNL A   1      33.813  19.333  24.665  1.00  0.00     0.416 C 
ATOM     88  F   UNL A   1      34.745  18.381  24.390  1.00  0.00    -0.166 F 
ATOM     89  F   UNL A   1      33.110  18.868  25.735  1.00  0.00    -0.166 F 
ATOM     90  F   UNL A   1      32.943  19.323  23.617  1.00  0.00    -0.166 F 
ENDBRANCH  83  87
ENDBRANCH  79  80
ENDBRANCH  72  74
ENDBRANCH  71  72
ENDBRANCH  70  71
ENDBRANCH   1  70
TORSDOF 16
ENDMDL
