MODEL 1
REMARK VINA RESULT:     -11.5      0.000      0.000
REMARK SMILES NC(=O)N[C@@H](C(=O)N[C@@H](CO)C(=O)OCCOC(=O)c1ccc(-c2c3nc(c(-c4cc(S(=O)(=O)[O-])ccc4F)c4ccc([nH]4)c(-c4cc(S(=O)(=O)[O-])ccc4F)c4nc(c(-c5cc(S(=O)(=O)[O-])ccc5F)c5ccc2[nH]5)C=C4)C=C3)cc1)c1ccccc1
REMARK SMILES IDX 15 1 14 2 12 3 13 4 9 5 8 6 6 7 7 8 5 10 4 11 1 12 2 13 3 16
REMARK SMILES IDX 83 18 84 19 88 20 85 21 87 22 86 23 10 24 11 25 16 27 17 28
REMARK SMILES IDX 18 29 19 30 20 31 21 32 82 33 22 34 81 35 23 36 24 37 25 38
REMARK SMILES IDX 75 39 26 40 80 41 74 42 76 43 27 44 79 45 73 46 72 47 28 49
REMARK SMILES IDX 60 50 40 51 59 52 41 53 44 54 58 55 77 56 42 57 43 58 57 60
REMARK SMILES IDX 78 61 45 62 29 63 30 64 38 65 31 66 37 67 39 68 36 69 32 70
REMARK SMILES IDX 33 71 34 72 35 73 61 74 62 75 70 76 63 77 69 78 71 79 68 80
REMARK SMILES IDX 64 81 65 82 66 83 67 84 46 85 47 86 55 87 48 88 54 89 56 90
REMARK SMILES IDX 53 91 49 92 50 93 51 94 52 95
REMARK H PARENT 8 9 1 14 1 15 4 17 11 26 76 48 44 59
REMARK Flexibility Score: inf
ROOT
ATOM      1  C   UNL A   1      34.897  21.386  24.704  1.00  0.00     0.274 C 
ENDROOT
BRANCH   1   2
ATOM      2  O   UNL A   1      34.296  22.693  24.676  1.00  0.00    -0.460 OA
BRANCH   2   3
ATOM      3  C   UNL A   1      34.505  23.431  23.549  1.00  0.00     0.331 C 
ATOM      4  O   UNL A   1      35.437  23.266  22.769  1.00  0.00    -0.250 OA
BRANCH   3   5
ATOM      5  C   UNL A   1      33.437  24.517  23.353  1.00  0.00     0.218 C 
BRANCH   5   6
ATOM      6  N   UNL A   1      33.854  25.598  22.450  1.00  0.00    -0.339 N 
ATOM      7  C   UNL A   1      33.394  26.886  22.327  1.00  0.00     0.248 C 
ATOM      8  O   UNL A   1      34.047  27.604  21.566  1.00  0.00    -0.272 OA
ATOM      9  H   UNL A   1      34.582  25.360  21.831  1.00  0.00     0.164 HD
BRANCH   7  10
ATOM     10  C   UNL A   1      32.176  27.376  23.182  1.00  0.00     0.203 C 
BRANCH  10  11
ATOM     11  N   UNL A   1      31.541  28.506  22.500  1.00  0.00    -0.322 N 
ATOM     12  N   UNL A   1      29.328  28.035  22.941  1.00  0.00    -0.352 N 
ATOM     13  C   UNL A   1      30.242  28.810  22.337  1.00  0.00     0.313 C 
ATOM     14  H   UNL A   1      28.369  28.233  22.839  1.00  0.00     0.161 HD
ATOM     15  H   UNL A   1      29.616  27.266  23.486  1.00  0.00     0.161 HD
ATOM     16  O   UNL A   1      29.904  29.728  21.600  1.00  0.00    -0.249 OA
ATOM     17  H   UNL A   1      32.168  29.147  22.094  1.00  0.00     0.166 HD
ENDBRANCH  10  11
BRANCH  10  18
ATOM     18  C   UNL A   1      32.431  27.759  24.639  1.00  0.00    -0.016 A 
ATOM     19  C   UNL A   1      33.626  28.436  24.964  1.00  0.00     0.006 A 
ATOM     20  C   UNL A   1      31.573  27.423  25.697  1.00  0.00     0.006 A 
ATOM     21  C   UNL A   1      33.928  28.794  26.280  1.00  0.00     0.000 A 
ATOM     22  C   UNL A   1      31.867  27.800  27.013  1.00  0.00     0.000 A 
ATOM     23  C   UNL A   1      33.041  28.486  27.303  1.00  0.00     0.000 A 
ENDBRANCH  10  18
ENDBRANCH   7  10
ENDBRANCH   5   6
BRANCH   5  24
ATOM     24  C   UNL A   1      32.156  23.842  22.850  1.00  0.00     0.193 C 
BRANCH  24  25
ATOM     25  O   UNL A   1      32.464  22.707  22.033  1.00  0.00    -0.394 OA
ATOM     26  H   UNL A   1      32.749  23.007  21.156  1.00  0.00     0.210 HD
ENDBRANCH  24  25
ENDBRANCH   5  24
ENDBRANCH   3   5
ENDBRANCH   2   3
ENDBRANCH   1   2
BRANCH   1  27
ATOM     27  C   UNL A   1      36.078  21.358  25.676  1.00  0.00     0.275 C 
BRANCH  27  28
ATOM     28  O   UNL A   1      37.316  21.671  25.011  1.00  0.00    -0.458 OA
BRANCH  28  29
ATOM     29  C   UNL A   1      38.427  21.269  25.669  1.00  0.00     0.338 C 
ATOM     30  O   UNL A   1      38.930  20.160  25.672  1.00  0.00    -0.246 OA
BRANCH  29  31
ATOM     31  C   UNL A   1      39.053  22.415  26.333  1.00  0.00     0.060 A 
ATOM     32  C   UNL A   1      38.610  23.696  26.005  1.00  0.00     0.016 A 
ATOM     33  C   UNL A   1      40.158  22.231  27.162  1.00  0.00     0.016 A 
ATOM     34  C   UNL A   1      39.311  24.808  26.462  1.00  0.00     0.010 A 
ATOM     35  C   UNL A   1      40.830  23.352  27.659  1.00  0.00     0.010 A 
ATOM     36  C   UNL A   1      40.430  24.649  27.290  1.00  0.00    -0.014 A 
BRANCH  36  37
ATOM     37  C   UNL A   1      41.222  25.830  27.727  1.00  0.00     0.031 A 
ATOM     38  C   UNL A   1      40.570  26.890  28.572  1.00  0.00     0.074 A 
ATOM     39  C   UNL A   1      42.519  25.952  27.385  1.00  0.00     0.049 A 
ATOM     40  N   UNL A   1      40.990  28.093  28.863  1.00  0.00    -0.248 NA
ATOM     41  C   UNL A   1      39.267  26.544  29.160  1.00  0.00     0.031 C 
ATOM     42  C   UNL A   1      43.299  24.958  26.646  1.00  0.00     0.029 A 
ATOM     43  N   UNL A   1      43.411  26.968  27.615  1.00  0.00    -0.354 N 
ATOM     44  C   UNL A   1      39.979  28.673  29.623  1.00  0.00     0.074 A 
ATOM     45  C   UNL A   1      38.927  27.683  29.745  1.00  0.00     0.031 C 
ATOM     46  C   UNL A   1      44.557  25.403  26.503  1.00  0.00     0.029 A 
ATOM     47  C   UNL A   1      44.647  26.752  27.051  1.00  0.00     0.049 A 
ATOM     48  H   UNL A   1      43.189  27.775  28.135  1.00  0.00     0.167 HD
ATOM     49  C   UNL A   1      39.932  29.920  30.156  1.00  0.00     0.034 A 
ATOM     50  C   UNL A   1      45.713  27.569  26.933  1.00  0.00     0.034 A 
ATOM     51  C   UNL A   1      41.002  30.882  30.040  1.00  0.00     0.049 A 
ATOM     52  C   UNL A   1      45.614  28.975  27.462  1.00  0.00     0.074 A 
ATOM     53  C   UNL A   1      41.052  32.184  30.510  1.00  0.00     0.029 A 
ATOM     54  N   UNL A   1      42.218  30.642  29.414  1.00  0.00    -0.354 N 
ATOM     55  N   UNL A   1      44.608  29.558  28.073  1.00  0.00    -0.248 NA
ATOM     56  C   UNL A   1      46.784  29.840  27.264  1.00  0.00     0.031 C 
ATOM     57  C   UNL A   1      42.278  32.744  30.128  1.00  0.00     0.029 A 
ATOM     58  C   UNL A   1      43.019  31.772  29.474  1.00  0.00     0.049 A 
ATOM     59  H   UNL A   1      42.475  29.793  28.989  1.00  0.00     0.167 HD
ATOM     60  C   UNL A   1      45.031  30.855  28.343  1.00  0.00     0.074 A 
ATOM     61  C   UNL A   1      46.386  30.965  27.839  1.00  0.00     0.031 C 
ATOM     62  C   UNL A   1      44.361  31.866  28.954  1.00  0.00     0.034 A 
BRANCH  49  63
ATOM     63  C   UNL A   1      38.651  30.325  30.844  1.00  0.00     0.023 A 
ATOM     64  C   UNL A   1      37.592  30.931  30.149  1.00  0.00     0.031 A 
ATOM     65  C   UNL A   1      38.511  30.149  32.233  1.00  0.00     0.131 A 
ATOM     66  C   UNL A   1      36.477  31.411  30.852  1.00  0.00     0.055 A 
ATOM     67  C   UNL A   1      37.365  30.559  32.917  1.00  0.00     0.041 A 
ATOM     68  F   UNL A   1      39.499  29.594  32.953  1.00  0.00    -0.206 F 
ATOM     69  C   UNL A   1      36.346  31.210  32.228  1.00  0.00     0.022 A 
BRANCH  66  70
ATOM     70  S   UNL A   1      35.271  32.440  29.965  1.00  0.00     0.124 S 
ATOM     71  O   UNL A   1      34.779  31.512  28.949  1.00  0.00    -0.237 OA
ATOM     72  O   UNL A   1      34.325  32.791  31.017  1.00  0.00    -0.237 OA
ATOM     73  O   UNL A   1      36.077  33.546  29.452  1.00  0.00    -0.744 OA
ENDBRANCH  66  70
ENDBRANCH  49  63
BRANCH  50  74
ATOM     74  C   UNL A   1      46.933  27.108  26.215  1.00  0.00     0.023 A 
ATOM     75  C   UNL A   1      47.974  26.462  26.899  1.00  0.00     0.031 A 
ATOM     76  C   UNL A   1      47.083  27.325  24.834  1.00  0.00     0.131 A 
ATOM     77  C   UNL A   1      49.132  26.077  26.204  1.00  0.00     0.055 A 
ATOM     78  C   UNL A   1      48.215  26.897  24.138  1.00  0.00     0.041 A 
ATOM     79  F   UNL A   1      46.116  27.939  24.134  1.00  0.00    -0.206 F 
ATOM     80  C   UNL A   1      49.252  26.276  24.826  1.00  0.00     0.022 A 
BRANCH  77  81
ATOM     81  S   UNL A   1      50.508  25.357  27.140  1.00  0.00     0.124 S 
ATOM     82  O   UNL A   1      50.881  26.462  28.016  1.00  0.00    -0.237 OA
ATOM     83  O   UNL A   1      49.870  24.213  27.783  1.00  0.00    -0.237 OA
ATOM     84  O   UNL A   1      51.484  25.022  26.105  1.00  0.00    -0.744 OA
ENDBRANCH  77  81
ENDBRANCH  50  74
BRANCH  62  85
ATOM     85  C   UNL A   1      45.113  33.156  29.148  1.00  0.00     0.023 A 
ATOM     86  C   UNL A   1      45.063  34.191  28.198  1.00  0.00     0.031 A 
ATOM     87  C   UNL A   1      45.903  33.343  30.296  1.00  0.00     0.131 A 
ATOM     88  C   UNL A   1      45.825  35.353  28.394  1.00  0.00     0.055 A 
ATOM     89  C   UNL A   1      46.624  34.517  30.506  1.00  0.00     0.041 A 
ATOM     90  F   UNL A   1      45.985  32.382  31.231  1.00  0.00    -0.206 F 
ATOM     91  C   UNL A   1      46.596  35.527  29.547  1.00  0.00     0.022 A 
BRANCH  88  92
ATOM     92  S   UNL A   1      45.849  36.611  27.088  1.00  0.00     0.124 S 
ATOM     93  O   UNL A   1      46.445  35.880  25.974  1.00  0.00    -0.237 OA
ATOM     94  O   UNL A   1      44.435  36.945  26.949  1.00  0.00    -0.237 OA
ATOM     95  O   UNL A   1      46.683  37.672  27.649  1.00  0.00    -0.744 OA
ENDBRANCH  88  92
ENDBRANCH  62  85
ENDBRANCH  36  37
ENDBRANCH  29  31
ENDBRANCH  28  29
ENDBRANCH  27  28
ENDBRANCH   1  27
TORSDOF 20
ENDMDL
MODEL 2
REMARK VINA RESULT:     -11.2      4.641      9.779
REMARK SMILES NC(=O)N[C@@H](C(=O)N[C@@H](CO)C(=O)OCCOC(=O)c1ccc(-c2c3nc(c(-c4cc(S(=O)(=O)[O-])ccc4F)c4ccc([nH]4)c(-c4cc(S(=O)(=O)[O-])ccc4F)c4nc(c(-c5cc(S(=O)(=O)[O-])ccc5F)c5ccc2[nH]5)C=C4)C=C3)cc1)c1ccccc1
REMARK SMILES IDX 15 1 14 2 12 3 13 4 9 5 8 6 6 7 7 8 5 10 4 11 1 12 2 13 3 16
REMARK SMILES IDX 83 18 84 19 88 20 85 21 87 22 86 23 10 24 11 25 16 27 17 28
REMARK SMILES IDX 18 29 19 30 20 31 21 32 82 33 22 34 81 35 23 36 24 37 25 38
REMARK SMILES IDX 75 39 26 40 80 41 74 42 76 43 27 44 79 45 73 46 72 47 28 49
REMARK SMILES IDX 60 50 40 51 59 52 41 53 44 54 58 55 77 56 42 57 43 58 57 60
REMARK SMILES IDX 78 61 45 62 29 63 30 64 38 65 31 66 37 67 39 68 36 69 32 70
REMARK SMILES IDX 33 71 34 72 35 73 61 74 62 75 70 76 63 77 69 78 71 79 68 80
REMARK SMILES IDX 64 81 65 82 66 83 67 84 46 85 47 86 55 87 48 88 54 89 56 90
REMARK SMILES IDX 53 91 49 92 50 93 51 94 52 95
REMARK H PARENT 8 9 1 14 1 15 4 17 11 26 76 48 44 59
REMARK Flexibility Score: inf
ROOT
ATOM      1  C   UNL A   1      32.068  28.469  25.376  1.00  0.00     0.274 C 
ENDROOT
BRANCH   1   2
ATOM      2  O   UNL A   1      30.810  27.956  25.849  1.00  0.00    -0.460 OA
BRANCH   2   3
ATOM      3  C   UNL A   1      30.587  26.625  25.655  1.00  0.00     0.331 C 
ATOM      4  O   UNL A   1      30.578  25.782  26.546  1.00  0.00    -0.250 OA
BRANCH   3   5
ATOM      5  C   UNL A   1      30.351  26.279  24.179  1.00  0.00     0.218 C 
BRANCH   5   6
ATOM      6  N   UNL A   1      30.398  24.838  23.896  1.00  0.00    -0.339 N 
ATOM      7  C   UNL A   1      31.450  24.033  23.532  1.00  0.00     0.248 C 
ATOM      8  O   UNL A   1      31.198  22.827  23.502  1.00  0.00    -0.272 OA
ATOM      9  H   UNL A   1      29.533  24.374  23.980  1.00  0.00     0.164 HD
BRANCH   7  10
ATOM     10  C   UNL A   1      32.865  24.651  23.270  1.00  0.00     0.203 C 
BRANCH  10  11
ATOM     11  N   UNL A   1      33.099  24.707  21.825  1.00  0.00    -0.322 N 
ATOM     12  N   UNL A   1      32.307  26.826  21.381  1.00  0.00    -0.352 N 
ATOM     13  C   UNL A   1      32.816  25.668  20.930  1.00  0.00     0.313 C 
ATOM     14  H   UNL A   1      32.090  27.548  20.748  1.00  0.00     0.161 HD
ATOM     15  H   UNL A   1      32.149  26.952  22.345  1.00  0.00     0.161 HD
ATOM     16  O   UNL A   1      32.955  25.465  19.730  1.00  0.00    -0.249 OA
ATOM     17  H   UNL A   1      33.534  23.908  21.448  1.00  0.00     0.166 HD
ENDBRANCH  10  11
BRANCH  10  18
ATOM     18  C   UNL A   1      34.069  23.994  23.940  1.00  0.00    -0.016 A 
ATOM     19  C   UNL A   1      34.212  24.103  25.340  1.00  0.00     0.006 A 
ATOM     20  C   UNL A   1      35.089  23.332  23.240  1.00  0.00     0.006 A 
ATOM     21  C   UNL A   1      35.302  23.543  26.010  1.00  0.00     0.000 A 
ATOM     22  C   UNL A   1      36.172  22.754  23.914  1.00  0.00     0.000 A 
ATOM     23  C   UNL A   1      36.276  22.857  25.297  1.00  0.00     0.000 A 
ENDBRANCH  10  18
ENDBRANCH   7  10
ENDBRANCH   5   6
BRANCH   5  24
ATOM     24  C   UNL A   1      29.006  26.880  23.757  1.00  0.00     0.193 C 
BRANCH  24  25
ATOM     25  O   UNL A   1      27.943  25.942  23.956  1.00  0.00    -0.394 OA
ATOM     26  H   UNL A   1      28.283  25.040  23.850  1.00  0.00     0.210 HD
ENDBRANCH  24  25
ENDBRANCH   5  24
ENDBRANCH   3   5
ENDBRANCH   2   3
ENDBRANCH   1   2
BRANCH   1  27
ATOM     27  C   UNL A   1      32.160  29.977  25.618  1.00  0.00     0.275 C 
BRANCH  27  28
ATOM     28  O   UNL A   1      32.453  30.273  26.995  1.00  0.00    -0.458 OA
BRANCH  28  29
ATOM     29  C   UNL A   1      33.127  31.429  27.193  1.00  0.00     0.338 C 
ATOM     30  O   UNL A   1      32.702  32.565  27.090  1.00  0.00    -0.246 OA
BRANCH  29  31
ATOM     31  C   UNL A   1      34.480  31.139  27.675  1.00  0.00     0.060 A 
ATOM     32  C   UNL A   1      34.790  29.828  28.036  1.00  0.00     0.016 A 
ATOM     33  C   UNL A   1      35.384  32.176  27.901  1.00  0.00     0.016 A 
ATOM     34  C   UNL A   1      35.991  29.555  28.683  1.00  0.00     0.010 A 
ATOM     35  C   UNL A   1      36.611  31.889  28.506  1.00  0.00     0.010 A 
ATOM     36  C   UNL A   1      36.913  30.581  28.929  1.00  0.00    -0.014 A 
BRANCH  36  37
ATOM     37  C   UNL A   1      38.169  30.308  29.677  1.00  0.00     0.031 A 
ATOM     38  C   UNL A   1      39.222  29.425  29.064  1.00  0.00     0.074 A 
ATOM     39  C   UNL A   1      38.378  30.853  30.891  1.00  0.00     0.049 A 
ATOM     40  N   UNL A   1      40.266  28.870  29.621  1.00  0.00    -0.248 NA
ATOM     41  C   UNL A   1      39.067  29.126  27.632  1.00  0.00     0.031 C 
ATOM     42  C   UNL A   1      37.482  31.796  31.563  1.00  0.00     0.029 A 
ATOM     43  N   UNL A   1      39.413  30.690  31.777  1.00  0.00    -0.354 N 
ATOM     44  C   UNL A   1      40.866  28.108  28.624  1.00  0.00     0.074 A 
ATOM     45  C   UNL A   1      40.065  28.277  27.428  1.00  0.00     0.031 C 
ATOM     46  C   UNL A   1      38.017  32.144  32.744  1.00  0.00     0.029 A 
ATOM     47  C   UNL A   1      39.240  31.377  32.956  1.00  0.00     0.049 A 
ATOM     48  H   UNL A   1      40.204  30.135  31.587  1.00  0.00     0.167 HD
ATOM     49  C   UNL A   1      41.977  27.332  28.706  1.00  0.00     0.034 A 
ATOM     50  C   UNL A   1      39.949  31.347  34.102  1.00  0.00     0.034 A 
ATOM     51  C   UNL A   1      42.772  27.196  29.903  1.00  0.00     0.049 A 
ATOM     52  C   UNL A   1      41.131  30.420  34.201  1.00  0.00     0.074 A 
ATOM     53  C   UNL A   1      43.896  26.415  30.113  1.00  0.00     0.029 A 
ATOM     54  N   UNL A   1      42.532  27.869  31.094  1.00  0.00    -0.354 N 
ATOM     55  N   UNL A   1      41.622  29.609  33.292  1.00  0.00    -0.248 NA
ATOM     56  C   UNL A   1      41.840  30.387  35.487  1.00  0.00     0.031 C 
ATOM     57  C   UNL A   1      44.306  26.580  31.442  1.00  0.00     0.029 A 
ATOM     58  C   UNL A   1      43.476  27.512  32.044  1.00  0.00     0.049 A 
ATOM     59  H   UNL A   1      41.798  28.507  31.242  1.00  0.00     0.167 HD
ATOM     60  C   UNL A   1      42.706  28.980  33.895  1.00  0.00     0.074 A 
ATOM     61  C   UNL A   1      42.804  29.513  35.239  1.00  0.00     0.031 C 
ATOM     62  C   UNL A   1      43.548  28.045  33.383  1.00  0.00     0.034 A 
BRANCH  49  63
ATOM     63  C   UNL A   1      42.339  26.520  27.487  1.00  0.00     0.023 A 
ATOM     64  C   UNL A   1      41.940  25.181  27.338  1.00  0.00     0.031 A 
ATOM     65  C   UNL A   1      43.144  27.082  26.480  1.00  0.00     0.131 A 
ATOM     66  C   UNL A   1      42.412  24.427  26.253  1.00  0.00     0.055 A 
ATOM     67  C   UNL A   1      43.547  26.350  25.362  1.00  0.00     0.041 A 
ATOM     68  F   UNL A   1      43.573  28.351  26.578  1.00  0.00    -0.206 F 
ATOM     69  C   UNL A   1      43.195  25.008  25.253  1.00  0.00     0.022 A 
BRANCH  66  70
ATOM     70  S   UNL A   1      42.115  22.636  26.250  1.00  0.00     0.124 S 
ATOM     71  O   UNL A   1      40.659  22.576  26.360  1.00  0.00    -0.237 OA
ATOM     72  O   UNL A   1      42.673  22.228  24.967  1.00  0.00    -0.237 OA
ATOM     73  O   UNL A   1      42.842  22.167  27.428  1.00  0.00    -0.744 OA
ENDBRANCH  66  70
ENDBRANCH  49  63
BRANCH  50  74
ATOM     74  C   UNL A   1      39.512  32.155  35.273  1.00  0.00     0.023 A 
ATOM     75  C   UNL A   1      40.021  33.444  35.492  1.00  0.00     0.031 A 
ATOM     76  C   UNL A   1      38.592  31.639  36.204  1.00  0.00     0.131 A 
ATOM     77  C   UNL A   1      39.624  34.166  36.629  1.00  0.00     0.055 A 
ATOM     78  C   UNL A   1      38.164  32.380  37.306  1.00  0.00     0.041 A 
ATOM     79  F   UNL A   1      38.076  30.411  36.040  1.00  0.00    -0.206 F 
ATOM     80  C   UNL A   1      38.688  33.649  37.528  1.00  0.00     0.022 A 
BRANCH  77  81
ATOM     81  S   UNL A   1      40.394  35.777  36.947  1.00  0.00     0.124 S 
ATOM     82  O   UNL A   1      39.676  36.639  36.014  1.00  0.00    -0.237 OA
ATOM     83  O   UNL A   1      40.101  35.978  38.362  1.00  0.00    -0.237 OA
ATOM     84  O   UNL A   1      41.802  35.549  36.631  1.00  0.00    -0.744 OA
ENDBRANCH  77  81
ENDBRANCH  50  74
BRANCH  62  85
ATOM     85  C   UNL A   1      44.671  27.585  34.275  1.00  0.00     0.023 A 
ATOM     86  C   UNL A   1      44.571  26.413  35.045  1.00  0.00     0.031 A 
ATOM     87  C   UNL A   1      45.852  28.342  34.364  1.00  0.00     0.131 A 
ATOM     88  C   UNL A   1      45.620  26.054  35.905  1.00  0.00     0.055 A 
ATOM     89  C   UNL A   1      46.909  27.957  35.187  1.00  0.00     0.041 A 
ATOM     90  F   UNL A   1      45.995  29.470  33.650  1.00  0.00    -0.206 F 
ATOM     91  C   UNL A   1      46.793  26.812  35.972  1.00  0.00     0.022 A 
BRANCH  88  92
ATOM     92  S   UNL A   1      45.406  24.616  36.989  1.00  0.00     0.124 S 
ATOM     93  O   UNL A   1      44.966  23.590  36.049  1.00  0.00    -0.237 OA
ATOM     94  O   UNL A   1      46.745  24.440  37.543  1.00  0.00    -0.237 OA
ATOM     95  O   UNL A   1      44.393  25.055  37.947  1.00  0.00    -0.744 OA
ENDBRANCH  88  92
ENDBRANCH  62  85
ENDBRANCH  36  37
ENDBRANCH  29  31
ENDBRANCH  28  29
ENDBRANCH  27  28
ENDBRANCH   1  27
TORSDOF 20
ENDMDL
MODEL 3
REMARK VINA RESULT:     -11.0      2.008      2.329
REMARK SMILES NC(=O)N[C@@H](C(=O)N[C@@H](CO)C(=O)OCCOC(=O)c1ccc(-c2c3nc(c(-c4cc(S(=O)(=O)[O-])ccc4F)c4ccc([nH]4)c(-c4cc(S(=O)(=O)[O-])ccc4F)c4nc(c(-c5cc(S(=O)(=O)[O-])ccc5F)c5ccc2[nH]5)C=C4)C=C3)cc1)c1ccccc1
REMARK SMILES IDX 15 1 14 2 12 3 13 4 9 5 8 6 6 7 7 8 5 10 4 11 1 12 2 13 3 16
REMARK SMILES IDX 83 18 84 19 88 20 85 21 87 22 86 23 10 24 11 25 16 27 17 28
REMARK SMILES IDX 18 29 19 30 20 31 21 32 82 33 22 34 81 35 23 36 24 37 25 38
REMARK SMILES IDX 75 39 26 40 80 41 74 42 76 43 27 44 79 45 73 46 72 47 28 49
REMARK SMILES IDX 60 50 40 51 59 52 41 53 44 54 58 55 77 56 42 57 43 58 57 60
REMARK SMILES IDX 78 61 45 62 29 63 30 64 38 65 31 66 37 67 39 68 36 69 32 70
REMARK SMILES IDX 33 71 34 72 35 73 61 74 62 75 70 76 63 77 69 78 71 79 68 80
REMARK SMILES IDX 64 81 65 82 66 83 67 84 46 85 47 86 55 87 48 88 54 89 56 90
REMARK SMILES IDX 53 91 49 92 50 93 51 94 52 95
REMARK H PARENT 8 9 1 14 1 15 4 17 11 26 76 48 44 59
REMARK Flexibility Score: inf
ROOT
ATOM      1  C   UNL A   1      34.334  21.574  24.904  1.00  0.00     0.274 C 
ENDROOT
BRANCH   1   2
ATOM      2  O   UNL A   1      34.553  22.995  24.837  1.00  0.00    -0.460 OA
BRANCH   2   3
ATOM      3  C   UNL A   1      34.621  23.539  23.590  1.00  0.00     0.331 C 
ATOM      4  O   UNL A   1      35.474  23.262  22.753  1.00  0.00    -0.250 OA
BRANCH   3   5
ATOM      5  C   UNL A   1      33.502  24.558  23.333  1.00  0.00     0.218 C 
BRANCH   5   6
ATOM      6  N   UNL A   1      33.903  25.665  22.453  1.00  0.00    -0.339 N 
ATOM      7  C   UNL A   1      33.423  26.948  22.358  1.00  0.00     0.248 C 
ATOM      8  O   UNL A   1      34.064  27.691  21.613  1.00  0.00    -0.272 OA
ATOM      9  H   UNL A   1      34.634  25.451  21.830  1.00  0.00     0.164 HD
BRANCH   7  10
ATOM     10  C   UNL A   1      32.197  27.401  23.222  1.00  0.00     0.203 C 
BRANCH  10  11
ATOM     11  N   UNL A   1      31.499  28.484  22.527  1.00  0.00    -0.322 N 
ATOM     12  N   UNL A   1      29.316  27.908  22.995  1.00  0.00    -0.352 N 
ATOM     13  C   UNL A   1      30.185  28.719  22.369  1.00  0.00     0.313 C 
ATOM     14  H   UNL A   1      28.347  28.056  22.898  1.00  0.00     0.161 HD
ATOM     15  H   UNL A   1      29.647  27.166  23.550  1.00  0.00     0.161 HD
ATOM     16  O   UNL A   1      29.795  29.605  21.620  1.00  0.00    -0.249 OA
ATOM     17  H   UNL A   1      32.090  29.149  22.104  1.00  0.00     0.166 HD
ENDBRANCH  10  11
BRANCH  10  18
ATOM     18  C   UNL A   1      32.456  27.827  24.666  1.00  0.00    -0.016 A 
ATOM     19  C   UNL A   1      33.704  28.401  24.991  1.00  0.00     0.006 A 
ATOM     20  C   UNL A   1      31.547  27.627  25.716  1.00  0.00     0.006 A 
ATOM     21  C   UNL A   1      34.011  28.792  26.296  1.00  0.00     0.000 A 
ATOM     22  C   UNL A   1      31.848  28.037  27.020  1.00  0.00     0.000 A 
ATOM     23  C   UNL A   1      33.077  28.621  27.309  1.00  0.00     0.000 A 
ENDBRANCH  10  18
ENDBRANCH   7  10
ENDBRANCH   5   6
BRANCH   5  24
ATOM     24  C   UNL A   1      32.295  23.808  22.760  1.00  0.00     0.193 C 
BRANCH  24  25
ATOM     25  O   UNL A   1      32.688  22.960  21.675  1.00  0.00    -0.394 OA
ATOM     26  H   UNL A   1      33.452  22.427  21.942  1.00  0.00     0.210 HD
ENDBRANCH  24  25
ENDBRANCH   5  24
ENDBRANCH   3   5
ENDBRANCH   2   3
ENDBRANCH   1   2
BRANCH   1  27
ATOM     27  C   UNL A   1      35.656  20.835  25.126  1.00  0.00     0.275 C 
BRANCH  27  28
ATOM     28  O   UNL A   1      36.590  21.641  25.867  1.00  0.00    -0.458 OA
BRANCH  28  29
ATOM     29  C   UNL A   1      37.882  21.254  25.754  1.00  0.00     0.338 C 
ATOM     30  O   UNL A   1      38.306  20.161  25.425  1.00  0.00    -0.246 OA
BRANCH  29  31
ATOM     31  C   UNL A   1      38.766  22.400  25.986  1.00  0.00     0.060 A 
ATOM     32  C   UNL A   1      40.026  22.166  26.535  1.00  0.00     0.016 A 
ATOM     33  C   UNL A   1      38.297  23.699  25.796  1.00  0.00     0.016 A 
ATOM     34  C   UNL A   1      40.808  23.240  26.952  1.00  0.00     0.010 A 
ATOM     35  C   UNL A   1      39.107  24.775  26.171  1.00  0.00     0.010 A 
ATOM     36  C   UNL A   1      40.356  24.555  26.779  1.00  0.00    -0.014 A 
BRANCH  36  37
ATOM     37  C   UNL A   1      41.157  25.702  27.283  1.00  0.00     0.031 A 
ATOM     38  C   UNL A   1      40.526  26.693  28.223  1.00  0.00     0.074 A 
ATOM     39  C   UNL A   1      42.444  25.856  26.915  1.00  0.00     0.049 A 
ATOM     40  N   UNL A   1      40.951  27.873  28.592  1.00  0.00    -0.248 NA
ATOM     41  C   UNL A   1      39.241  26.298  28.819  1.00  0.00     0.031 C 
ATOM     42  C   UNL A   1      43.205  24.923  26.083  1.00  0.00     0.029 A 
ATOM     43  N   UNL A   1      43.340  26.855  27.197  1.00  0.00    -0.354 N 
ATOM     44  C   UNL A   1      39.960  28.390  29.421  1.00  0.00     0.074 A 
ATOM     45  C   UNL A   1      38.915  27.389  29.497  1.00  0.00     0.031 C 
ATOM     46  C   UNL A   1      44.458  25.383  25.939  1.00  0.00     0.029 A 
ATOM     47  C   UNL A   1      44.560  26.687  26.585  1.00  0.00     0.049 A 
ATOM     48  H   UNL A   1      43.130  27.620  27.782  1.00  0.00     0.167 HD
ATOM     49  C   UNL A   1      39.925  29.593  30.048  1.00  0.00     0.034 A 
ATOM     50  C   UNL A   1      45.621  27.515  26.500  1.00  0.00     0.034 A 
ATOM     51  C   UNL A   1      40.989  30.565  29.975  1.00  0.00     0.049 A 
ATOM     52  C   UNL A   1      45.533  28.877  27.135  1.00  0.00     0.074 A 
ATOM     53  C   UNL A   1      41.050  31.828  30.540  1.00  0.00     0.029 A 
ATOM     54  N   UNL A   1      42.189  30.378  29.300  1.00  0.00    -0.354 N 
ATOM     55  N   UNL A   1      44.543  29.408  27.816  1.00  0.00    -0.248 NA
ATOM     56  C   UNL A   1      46.695  29.760  26.971  1.00  0.00     0.031 C 
ATOM     57  C   UNL A   1      42.264  32.420  30.168  1.00  0.00     0.029 A 
ATOM     58  C   UNL A   1      42.988  31.504  29.423  1.00  0.00     0.049 A 
ATOM     59  H   UNL A   1      42.435  29.564  28.806  1.00  0.00     0.167 HD
ATOM     60  C   UNL A   1      44.971  30.683  28.171  1.00  0.00     0.074 A 
ATOM     61  C   UNL A   1      46.311  30.837  27.641  1.00  0.00     0.031 C 
ATOM     62  C   UNL A   1      44.316  31.642  28.875  1.00  0.00     0.034 A 
BRANCH  49  63
ATOM     63  C   UNL A   1      38.663  29.939  30.799  1.00  0.00     0.023 A 
ATOM     64  C   UNL A   1      37.634  30.698  30.216  1.00  0.00     0.031 A 
ATOM     65  C   UNL A   1      38.511  29.547  32.141  1.00  0.00     0.131 A 
ATOM     66  C   UNL A   1      36.541  31.108  30.994  1.00  0.00     0.055 A 
ATOM     67  C   UNL A   1      37.385  29.893  32.888  1.00  0.00     0.041 A 
ATOM     68  F   UNL A   1      39.471  28.838  32.757  1.00  0.00    -0.206 F 
ATOM     69  C   UNL A   1      36.398  30.693  32.320  1.00  0.00     0.022 A 
BRANCH  66  70
ATOM     70  S   UNL A   1      35.386  32.321  30.292  1.00  0.00     0.124 S 
ATOM     71  O   UNL A   1      34.386  32.428  31.352  1.00  0.00    -0.237 OA
ATOM     72  O   UNL A   1      36.237  33.490  30.100  1.00  0.00    -0.237 OA
ATOM     73  O   UNL A   1      34.919  31.678  29.065  1.00  0.00    -0.744 OA
ENDBRANCH  66  70
ENDBRANCH  49  63
BRANCH  50  74
ATOM     74  C   UNL A   1      46.821  27.114  25.716  1.00  0.00     0.023 A 
ATOM     75  C   UNL A   1      47.039  27.613  24.423  1.00  0.00     0.031 A 
ATOM     76  C   UNL A   1      47.760  26.209  26.244  1.00  0.00     0.131 A 
ATOM     77  C   UNL A   1      48.158  27.183  23.690  1.00  0.00     0.055 A 
ATOM     78  C   UNL A   1      48.895  25.823  25.530  1.00  0.00     0.041 A 
ATOM     79  F   UNL A   1      47.596  25.704  27.477  1.00  0.00    -0.206 F 
ATOM     80  C   UNL A   1      49.094  26.304  24.241  1.00  0.00     0.022 A 
BRANCH  77  81
ATOM     81  S   UNL A   1      48.343  27.750  21.977  1.00  0.00     0.124 S 
ATOM     82  O   UNL A   1      47.133  28.543  21.794  1.00  0.00    -0.237 OA
ATOM     83  O   UNL A   1      49.596  28.495  22.040  1.00  0.00    -0.237 OA
ATOM     84  O   UNL A   1      48.399  26.506  21.212  1.00  0.00    -0.744 OA
ENDBRANCH  77  81
ENDBRANCH  50  74
BRANCH  62  85
ATOM     85  C   UNL A   1      45.070  32.918  29.145  1.00  0.00     0.023 A 
ATOM     86  C   UNL A   1      45.874  33.073  30.288  1.00  0.00     0.031 A 
ATOM     87  C   UNL A   1      44.967  33.996  28.250  1.00  0.00     0.131 A 
ATOM     88  C   UNL A   1      46.512  34.300  30.527  1.00  0.00     0.055 A 
ATOM     89  C   UNL A   1      45.639  35.198  28.471  1.00  0.00     0.041 A 
ATOM     90  F   UNL A   1      44.209  33.897  27.146  1.00  0.00    -0.206 F 
ATOM     91  C   UNL A   1      46.409  35.359  29.620  1.00  0.00     0.022 A 
BRANCH  88  92
ATOM     92  S   UNL A   1      47.429  34.518  32.076  1.00  0.00     0.124 S 
ATOM     93  O   UNL A   1      48.804  34.630  31.602  1.00  0.00    -0.237 OA
ATOM     94  O   UNL A   1      46.840  35.739  32.619  1.00  0.00    -0.237 OA
ATOM     95  O   UNL A   1      47.129  33.301  32.828  1.00  0.00    -0.744 OA
ENDBRANCH  88  92
ENDBRANCH  62  85
ENDBRANCH  36  37
ENDBRANCH  29  31
ENDBRANCH  28  29
ENDBRANCH  27  28
ENDBRANCH   1  27
TORSDOF 20
ENDMDL
