MODEL 1
REMARK VINA RESULT:     -11.9      0.000      0.000
REMARK SMILES Cc1cc(C)n2nc(SCC(=O)N3CCC(C(=O)OCCOC(=O)c4ccc(-c5c6nc(c(-c7cc(S(=O)(=O)[O-])ccc7F)c7ccc([nH]7)c(-c7cc(S(=O)(=O)[O-])ccc7F)c7nc(c(-c8cc(S(=O)(=O)[O-])ccc8F)c8ccc5[nH]8)C=C7)C=C6)cc4)CC3)nc2n1
REMARK SMILES IDX 20 1 19 2 17 3 18 4 16 5 11 6 12 7 13 8 14 9 89 10 15 11
REMARK SMILES IDX 88 12 10 13 9 14 8 15 1 16 2 17 3 18 92 19 4 20 91 21 5 22
REMARK SMILES IDX 6 23 90 24 7 25 21 26 22 27 23 28 24 29 25 30 26 31 87 32
REMARK SMILES IDX 27 33 86 34 28 35 29 36 30 37 80 38 31 39 85 40 79 41 81 42
REMARK SMILES IDX 32 43 84 44 78 45 77 46 33 48 65 49 45 50 64 51 46 52 49 53
REMARK SMILES IDX 63 54 82 55 47 56 48 57 62 59 83 60 50 61 34 62 35 63 43 64
REMARK SMILES IDX 36 65 42 66 44 67 41 68 37 69 38 70 39 71 40 72 66 73 67 74
REMARK SMILES IDX 75 75 68 76 74 77 76 78 73 79 69 80 70 81 71 82 72 83 51 84
REMARK SMILES IDX 52 85 60 86 53 87 59 88 61 89 58 90 54 91 55 92 56 93 57 94
REMARK H PARENT 81 47 49 58
REMARK Flexibility Score: inf
ROOT
ATOM      1  C   UNL A   1      33.670  29.853  27.345  1.00  0.00     0.274 C 
ENDROOT
BRANCH   1   2
ATOM      2  O   UNL A   1      32.819  30.110  26.210  1.00  0.00    -0.462 OA
BRANCH   2   3
ATOM      3  C   UNL A   1      32.949  29.261  25.156  1.00  0.00     0.309 C 
ATOM      4  O   UNL A   1      33.334  29.594  24.038  1.00  0.00    -0.252 OA
BRANCH   3   5
ATOM      5  C   UNL A   1      32.493  27.845  25.462  1.00  0.00     0.103 C 
ATOM      6  C   UNL A   1      33.249  24.226  24.023  1.00  0.00     0.233 C 
ATOM      7  O   UNL A   1      32.904  24.308  22.839  1.00  0.00    -0.274 OA
ATOM      8  N   UNL A   1      32.642  25.011  25.000  1.00  0.00    -0.342 N 
ATOM      9  C   UNL A   1      31.405  25.701  24.659  1.00  0.00     0.120 C 
ATOM     10  C   UNL A   1      33.307  25.569  26.170  1.00  0.00     0.120 C 
ATOM     11  C   UNL A   1      31.673  27.167  24.352  1.00  0.00     0.037 C 
ATOM     12  C   UNL A   1      33.718  27.008  25.858  1.00  0.00     0.037 C 
BRANCH   6  13
ATOM     13  C   UNL A   1      34.142  23.075  24.450  1.00  0.00     0.178 C 
BRANCH  13  14
ATOM     14  S   UNL A   1      35.593  22.695  23.469  1.00  0.00    -0.074 SA
BRANCH  14  15
ATOM     15  C   UNL A   1      36.882  22.550  24.617  1.00  0.00     0.211 A 
ATOM     16  C   UNL A   1      41.501  20.562  27.385  1.00  0.00     0.067 C 
ATOM     17  C   UNL A   1      40.341  21.398  26.908  1.00  0.00     0.043 A 
ATOM     18  C   UNL A   1      40.176  22.755  27.522  1.00  0.00     0.047 A 
ATOM     19  N   UNL A   1      39.556  20.883  26.009  1.00  0.00    -0.216 NA
ATOM     20  C   UNL A   1      39.149  23.499  27.068  1.00  0.00     0.045 A 
ATOM     21  C   UNL A   1      38.527  21.669  25.581  1.00  0.00     0.253 A 
ATOM     22  C   UNL A   1      38.852  24.876  27.574  1.00  0.00     0.067 C 
ATOM     23  N   UNL A   1      38.318  22.963  26.078  1.00  0.00    -0.200 N 
ATOM     24  N   UNL A   1      37.616  21.406  24.674  1.00  0.00    -0.183 NA
ATOM     25  N   UNL A   1      37.269  23.526  25.431  1.00  0.00    -0.138 NA
ENDBRANCH  14  15
ENDBRANCH  13  14
ENDBRANCH   6  13
ENDBRANCH   3   5
ENDBRANCH   2   3
ENDBRANCH   1   2
BRANCH   1  26
ATOM     26  C   UNL A   1      34.582  31.035  27.671  1.00  0.00     0.275 C 
BRANCH  26  27
ATOM     27  O   UNL A   1      35.963  30.694  27.538  1.00  0.00    -0.458 OA
BRANCH  27  28
ATOM     28  C   UNL A   1      36.480  30.150  28.662  1.00  0.00     0.338 C 
ATOM     29  O   UNL A   1      36.160  30.421  29.805  1.00  0.00    -0.246 OA
BRANCH  28  30
ATOM     30  C   UNL A   1      37.624  29.289  28.363  1.00  0.00     0.060 A 
ATOM     31  C   UNL A   1      38.064  28.448  29.392  1.00  0.00     0.016 A 
ATOM     32  C   UNL A   1      38.407  29.556  27.234  1.00  0.00     0.016 A 
ATOM     33  C   UNL A   1      39.374  28.021  29.377  1.00  0.00     0.010 A 
ATOM     34  C   UNL A   1      39.718  29.136  27.228  1.00  0.00     0.010 A 
ATOM     35  C   UNL A   1      40.205  28.442  28.336  1.00  0.00    -0.014 A 
BRANCH  35  36
ATOM     36  C   UNL A   1      41.612  28.111  28.427  1.00  0.00     0.031 A 
ATOM     37  C   UNL A   1      42.000  26.873  27.720  1.00  0.00     0.074 A 
ATOM     38  C   UNL A   1      42.505  28.930  29.012  1.00  0.00     0.049 A 
ATOM     39  N   UNL A   1      42.528  25.804  28.214  1.00  0.00    -0.248 NA
ATOM     40  C   UNL A   1      41.645  26.769  26.297  1.00  0.00     0.031 C 
ATOM     41  C   UNL A   1      42.296  30.294  29.503  1.00  0.00     0.029 A 
ATOM     42  N   UNL A   1      43.840  28.740  29.179  1.00  0.00    -0.354 N 
ATOM     43  C   UNL A   1      42.750  24.957  27.134  1.00  0.00     0.074 A 
ATOM     44  C   UNL A   1      42.051  25.533  26.015  1.00  0.00     0.031 C 
ATOM     45  C   UNL A   1      43.499  30.881  29.697  1.00  0.00     0.029 A 
ATOM     46  C   UNL A   1      44.547  29.899  29.466  1.00  0.00     0.049 A 
ATOM     47  H   UNL A   1      44.269  27.856  29.104  1.00  0.00     0.167 HD
ATOM     48  C   UNL A   1      43.655  23.945  27.190  1.00  0.00     0.034 A 
ATOM     49  C   UNL A   1      45.896  30.047  29.425  1.00  0.00     0.034 A 
ATOM     50  C   UNL A   1      43.976  23.591  28.548  1.00  0.00     0.049 A 
ATOM     51  C   UNL A   1      46.480  28.688  29.577  1.00  0.00     0.074 A 
ATOM     52  C   UNL A   1      43.241  23.118  29.620  1.00  0.00     0.029 A 
ATOM     53  N   UNL A   1      45.151  24.060  29.088  1.00  0.00    -0.354 N 
ATOM     54  N   UNL A   1      46.350  27.962  30.654  1.00  0.00    -0.248 NA
ATOM     55  C   UNL A   1      46.831  27.950  28.373  1.00  0.00     0.031 C 
ATOM     56  C   UNL A   1      43.787  23.774  30.762  1.00  0.00     0.029 A 
ATOM     57  C   UNL A   1      44.851  24.568  30.330  1.00  0.00     0.049 A 
ATOM     58  H   UNL A   1      46.040  24.037  28.664  1.00  0.00     0.167 HD
ATOM     59  C   UNL A   1      46.185  26.664  30.196  1.00  0.00     0.074 A 
ATOM     60  C   UNL A   1      46.596  26.704  28.795  1.00  0.00     0.031 C 
ATOM     61  C   UNL A   1      45.477  25.740  30.911  1.00  0.00     0.034 A 
BRANCH  48  62
ATOM     62  C   UNL A   1      44.461  23.476  26.006  1.00  0.00     0.023 A 
ATOM     63  C   UNL A   1      44.322  22.139  25.594  1.00  0.00     0.031 A 
ATOM     64  C   UNL A   1      45.540  24.192  25.436  1.00  0.00     0.131 A 
ATOM     65  C   UNL A   1      45.244  21.563  24.703  1.00  0.00     0.055 A 
ATOM     66  C   UNL A   1      46.411  23.636  24.498  1.00  0.00     0.041 A 
ATOM     67  F   UNL A   1      45.870  25.429  25.828  1.00  0.00    -0.206 F 
ATOM     68  C   UNL A   1      46.282  22.305  24.144  1.00  0.00     0.022 A 
BRANCH  65  69
ATOM     69  S   UNL A   1      45.161  19.778  24.408  1.00  0.00     0.124 S 
ATOM     70  O   UNL A   1      44.592  19.722  23.066  1.00  0.00    -0.237 OA
ATOM     71  O   UNL A   1      46.562  19.386  24.533  1.00  0.00    -0.237 OA
ATOM     72  O   UNL A   1      44.285  19.298  25.476  1.00  0.00    -0.744 OA
ENDBRANCH  65  69
ENDBRANCH  48  62
BRANCH  49  73
ATOM     73  C   UNL A   1      46.661  31.222  28.925  1.00  0.00     0.023 A 
ATOM     74  C   UNL A   1      46.269  31.921  27.764  1.00  0.00     0.031 A 
ATOM     75  C   UNL A   1      47.653  31.836  29.725  1.00  0.00     0.131 A 
ATOM     76  C   UNL A   1      46.853  33.169  27.451  1.00  0.00     0.055 A 
ATOM     77  C   UNL A   1      48.237  33.063  29.403  1.00  0.00     0.041 A 
ATOM     78  F   UNL A   1      48.028  31.313  30.902  1.00  0.00    -0.206 F 
ATOM     79  C   UNL A   1      47.830  33.742  28.267  1.00  0.00     0.022 A 
BRANCH  76  80
ATOM     80  S   UNL A   1      46.245  34.139  26.036  1.00  0.00     0.124 S 
ATOM     81  O   UNL A   1      45.338  33.197  25.389  1.00  0.00    -0.237 OA
ATOM     82  O   UNL A   1      45.628  35.293  26.679  1.00  0.00    -0.237 OA
ATOM     83  O   UNL A   1      47.464  34.438  25.284  1.00  0.00    -0.744 OA
ENDBRANCH  76  80
ENDBRANCH  49  73
BRANCH  61  84
ATOM     84  C   UNL A   1      45.113  26.065  32.346  1.00  0.00     0.023 A 
ATOM     85  C   UNL A   1      43.960  26.782  32.738  1.00  0.00     0.031 A 
ATOM     86  C   UNL A   1      45.899  25.486  33.358  1.00  0.00     0.131 A 
ATOM     87  C   UNL A   1      43.637  26.903  34.105  1.00  0.00     0.055 A 
ATOM     88  C   UNL A   1      45.564  25.592  34.707  1.00  0.00     0.041 A 
ATOM     89  F   UNL A   1      46.986  24.762  33.044  1.00  0.00    -0.206 F 
ATOM     90  C   UNL A   1      44.432  26.303  35.087  1.00  0.00     0.022 A 
BRANCH  87  91
ATOM     91  S   UNL A   1      42.150  27.819  34.627  1.00  0.00     0.124 S 
ATOM     92  O   UNL A   1      42.448  28.183  36.008  1.00  0.00    -0.237 OA
ATOM     93  O   UNL A   1      42.098  28.920  33.669  1.00  0.00    -0.237 OA
ATOM     94  O   UNL A   1      41.073  26.838  34.478  1.00  0.00    -0.744 OA
ENDBRANCH  87  91
ENDBRANCH  61  84
ENDBRANCH  35  36
ENDBRANCH  28  30
ENDBRANCH  27  28
ENDBRANCH  26  27
ENDBRANCH   1  26
TORSDOF 17
ENDMDL
MODEL 2
REMARK VINA RESULT:     -11.7      1.703      2.509
REMARK SMILES Cc1cc(C)n2nc(SCC(=O)N3CCC(C(=O)OCCOC(=O)c4ccc(-c5c6nc(c(-c7cc(S(=O)(=O)[O-])ccc7F)c7ccc([nH]7)c(-c7cc(S(=O)(=O)[O-])ccc7F)c7nc(c(-c8cc(S(=O)(=O)[O-])ccc8F)c8ccc5[nH]8)C=C7)C=C6)cc4)CC3)nc2n1
REMARK SMILES IDX 20 1 19 2 17 3 18 4 16 5 11 6 12 7 13 8 14 9 89 10 15 11
REMARK SMILES IDX 88 12 10 13 9 14 8 15 1 16 2 17 3 18 92 19 4 20 91 21 5 22
REMARK SMILES IDX 6 23 90 24 7 25 21 26 22 27 23 28 24 29 25 30 26 31 87 32
REMARK SMILES IDX 27 33 86 34 28 35 29 36 30 37 80 38 31 39 85 40 79 41 81 42
REMARK SMILES IDX 32 43 84 44 78 45 77 46 33 48 65 49 45 50 64 51 46 52 49 53
REMARK SMILES IDX 63 54 82 55 47 56 48 57 62 59 83 60 50 61 34 62 35 63 43 64
REMARK SMILES IDX 36 65 42 66 44 67 41 68 37 69 38 70 39 71 40 72 66 73 67 74
REMARK SMILES IDX 75 75 68 76 74 77 76 78 73 79 69 80 70 81 71 82 72 83 51 84
REMARK SMILES IDX 52 85 60 86 53 87 59 88 61 89 58 90 54 91 55 92 56 93 57 94
REMARK H PARENT 81 47 49 58
REMARK Flexibility Score: inf
ROOT
ATOM      1  C   UNL A   1      34.158  32.183  28.634  1.00  0.00     0.274 C 
ENDROOT
BRANCH   1   2
ATOM      2  O   UNL A   1      34.239  31.446  27.398  1.00  0.00    -0.462 OA
BRANCH   2   3
ATOM      3  C   UNL A   1      33.068  30.957  26.911  1.00  0.00     0.309 C 
ATOM      4  O   UNL A   1      31.978  31.508  27.040  1.00  0.00    -0.252 OA
BRANCH   3   5
ATOM      5  C   UNL A   1      33.211  29.600  26.244  1.00  0.00     0.103 C 
ATOM      6  C   UNL A   1      30.804  26.559  25.412  1.00  0.00     0.233 C 
ATOM      7  O   UNL A   1      30.389  26.205  26.522  1.00  0.00    -0.274 OA
ATOM      8  N   UNL A   1      32.055  27.153  25.273  1.00  0.00    -0.342 N 
ATOM      9  C   UNL A   1      32.981  27.080  26.395  1.00  0.00     0.120 C 
ATOM     10  C   UNL A   1      32.392  28.200  24.317  1.00  0.00     0.120 C 
ATOM     11  C   UNL A   1      32.995  28.391  27.169  1.00  0.00     0.037 C 
ATOM     12  C   UNL A   1      32.286  29.554  25.019  1.00  0.00     0.037 C 
BRANCH   6  13
ATOM     13  C   UNL A   1      30.064  26.093  24.170  1.00  0.00     0.178 C 
BRANCH  13  14
ATOM     14  S   UNL A   1      30.519  24.526  23.429  1.00  0.00    -0.074 SA
BRANCH  14  15
ATOM     15  C   UNL A   1      31.994  24.072  24.216  1.00  0.00     0.211 A 
ATOM     16  C   UNL A   1      37.568  23.739  25.549  1.00  0.00     0.067 C 
ATOM     17  C   UNL A   1      36.066  23.607  25.537  1.00  0.00     0.043 A 
ATOM     18  C   UNL A   1      35.430  22.906  26.700  1.00  0.00     0.047 A 
ATOM     19  N   UNL A   1      35.426  24.098  24.518  1.00  0.00    -0.216 NA
ATOM     20  C   UNL A   1      34.087  22.817  26.686  1.00  0.00     0.045 A 
ATOM     21  C   UNL A   1      34.067  23.983  24.543  1.00  0.00     0.253 A 
ATOM     22  C   UNL A   1      33.301  22.153  27.772  1.00  0.00     0.067 C 
ATOM     23  N   UNL A   1      33.388  23.370  25.605  1.00  0.00    -0.200 N 
ATOM     24  N   UNL A   1      33.191  24.410  23.665  1.00  0.00    -0.183 NA
ATOM     25  N   UNL A   1      32.053  23.456  25.392  1.00  0.00    -0.138 NA
ENDBRANCH  14  15
ENDBRANCH  13  14
ENDBRANCH   6  13
ENDBRANCH   3   5
ENDBRANCH   2   3
ENDBRANCH   1   2
BRANCH   1  26
ATOM     26  C   UNL A   1      35.277  31.815  29.608  1.00  0.00     0.275 C 
BRANCH  26  27
ATOM     27  O   UNL A   1      36.146  30.818  29.068  1.00  0.00    -0.458 OA
BRANCH  27  28
ATOM     28  C   UNL A   1      36.510  29.888  29.979  1.00  0.00     0.338 C 
ATOM     29  O   UNL A   1      36.144  29.838  31.139  1.00  0.00    -0.246 OA
BRANCH  28  30
ATOM     30  C   UNL A   1      37.556  29.008  29.459  1.00  0.00     0.060 A 
ATOM     31  C   UNL A   1      38.203  28.184  30.387  1.00  0.00     0.016 A 
ATOM     32  C   UNL A   1      38.076  29.242  28.181  1.00  0.00     0.016 A 
ATOM     33  C   UNL A   1      39.475  27.741  30.098  1.00  0.00     0.010 A 
ATOM     34  C   UNL A   1      39.352  28.807  27.901  1.00  0.00     0.010 A 
ATOM     35  C   UNL A   1      40.063  28.131  28.892  1.00  0.00    -0.014 A 
BRANCH  35  36
ATOM     36  C   UNL A   1      41.454  27.786  28.682  1.00  0.00     0.031 A 
ATOM     37  C   UNL A   1      41.671  26.489  28.008  1.00  0.00     0.074 A 
ATOM     38  C   UNL A   1      42.456  28.634  28.977  1.00  0.00     0.049 A 
ATOM     39  N   UNL A   1      42.302  25.454  28.453  1.00  0.00    -0.248 NA
ATOM     40  C   UNL A   1      40.998  26.277  26.719  1.00  0.00     0.031 C 
ATOM     41  C   UNL A   1      42.361  30.037  29.390  1.00  0.00     0.029 A 
ATOM     42  N   UNL A   1      43.794  28.437  28.847  1.00  0.00    -0.354 N 
ATOM     43  C   UNL A   1      42.271  24.521  27.424  1.00  0.00     0.074 A 
ATOM     44  C   UNL A   1      41.331  25.016  26.453  1.00  0.00     0.031 C 
ATOM     45  C   UNL A   1      43.575  30.617  29.253  1.00  0.00     0.029 A 
ATOM     46  C   UNL A   1      44.544  29.604  28.868  1.00  0.00     0.049 A 
ATOM     47  H   UNL A   1      44.196  27.543  28.747  1.00  0.00     0.167 HD
ATOM     48  C   UNL A   1      43.168  23.501  27.352  1.00  0.00     0.034 A 
ATOM     49  C   UNL A   1      45.847  29.726  28.504  1.00  0.00     0.034 A 
ATOM     50  C   UNL A   1      43.795  23.252  28.624  1.00  0.00     0.049 A 
ATOM     51  C   UNL A   1      46.454  28.375  28.629  1.00  0.00     0.074 A 
ATOM     52  C   UNL A   1      43.329  22.878  29.871  1.00  0.00     0.029 A 
ATOM     53  N   UNL A   1      45.061  23.744  28.838  1.00  0.00    -0.354 N 
ATOM     54  N   UNL A   1      46.579  27.740  29.762  1.00  0.00    -0.248 NA
ATOM     55  C   UNL A   1      46.519  27.537  27.441  1.00  0.00     0.031 C 
ATOM     56  C   UNL A   1      44.122  23.615  30.799  1.00  0.00     0.029 A 
ATOM     57  C   UNL A   1      45.055  24.355  30.070  1.00  0.00     0.049 A 
ATOM     58  H   UNL A   1      45.828  23.673  28.224  1.00  0.00     0.167 HD
ATOM     59  C   UNL A   1      46.316  26.411  29.462  1.00  0.00     0.074 A 
ATOM     60  C   UNL A   1      46.392  26.332  28.005  1.00  0.00     0.031 C 
ATOM     61  C   UNL A   1      45.795  25.559  30.394  1.00  0.00     0.034 A 
BRANCH  48  62
ATOM     62  C   UNL A   1      43.680  22.927  26.057  1.00  0.00     0.023 A 
ATOM     63  C   UNL A   1      43.753  21.528  25.932  1.00  0.00     0.031 A 
ATOM     64  C   UNL A   1      44.338  23.674  25.052  1.00  0.00     0.131 A 
ATOM     65  C   UNL A   1      44.485  20.937  24.887  1.00  0.00     0.055 A 
ATOM     66  C   UNL A   1      45.003  23.083  23.977  1.00  0.00     0.041 A 
ATOM     67  F   UNL A   1      44.459  25.006  25.108  1.00  0.00    -0.206 F 
ATOM     68  C   UNL A   1      45.101  21.705  23.902  1.00  0.00     0.022 A 
BRANCH  65  69
ATOM     69  S   UNL A   1      44.752  19.147  24.924  1.00  0.00     0.124 S 
ATOM     70  O   UNL A   1      44.743  18.813  23.504  1.00  0.00    -0.237 OA
ATOM     71  O   UNL A   1      46.041  19.049  25.601  1.00  0.00    -0.237 OA
ATOM     72  O   UNL A   1      43.610  18.649  25.687  1.00  0.00    -0.744 OA
ENDBRANCH  65  69
ENDBRANCH  48  62
BRANCH  49  73
ATOM     73  C   UNL A   1      46.472  30.845  27.748  1.00  0.00     0.023 A 
ATOM     74  C   UNL A   1      45.714  31.684  26.906  1.00  0.00     0.031 A 
ATOM     75  C   UNL A   1      47.791  31.267  28.035  1.00  0.00     0.131 A 
ATOM     76  C   UNL A   1      46.271  32.880  26.399  1.00  0.00     0.055 A 
ATOM     77  C   UNL A   1      48.342  32.443  27.519  1.00  0.00     0.041 A 
ATOM     78  F   UNL A   1      48.568  30.602  28.904  1.00  0.00    -0.206 F 
ATOM     79  C   UNL A   1      47.577  33.262  26.706  1.00  0.00     0.022 A 
BRANCH  76  80
ATOM     80  S   UNL A   1      45.246  34.035  25.435  1.00  0.00     0.124 S 
ATOM     81  O   UNL A   1      44.517  34.742  26.482  1.00  0.00    -0.237 OA
ATOM     82  O   UNL A   1      46.241  34.811  24.703  1.00  0.00    -0.237 OA
ATOM     83  O   UNL A   1      44.431  33.149  24.604  1.00  0.00    -0.744 OA
ENDBRANCH  76  80
ENDBRANCH  49  73
BRANCH  61  84
ATOM     84  C   UNL A   1      45.771  26.003  31.842  1.00  0.00     0.023 A 
ATOM     85  C   UNL A   1      44.634  26.518  32.505  1.00  0.00     0.031 A 
ATOM     86  C   UNL A   1      46.918  25.747  32.614  1.00  0.00     0.131 A 
ATOM     87  C   UNL A   1      44.678  26.763  33.892  1.00  0.00     0.055 A 
ATOM     88  C   UNL A   1      46.950  25.974  33.990  1.00  0.00     0.041 A 
ATOM     89  F   UNL A   1      48.017  25.224  32.047  1.00  0.00    -0.206 F 
ATOM     90  C   UNL A   1      45.830  26.485  34.635  1.00  0.00     0.022 A 
BRANCH  87  91
ATOM     91  S   UNL A   1      43.217  27.422  34.763  1.00  0.00     0.124 S 
ATOM     92  O   UNL A   1      43.705  27.634  36.121  1.00  0.00    -0.237 OA
ATOM     93  O   UNL A   1      42.902  28.625  33.998  1.00  0.00    -0.237 OA
ATOM     94  O   UNL A   1      42.229  26.348  34.634  1.00  0.00    -0.744 OA
ENDBRANCH  87  91
ENDBRANCH  61  84
ENDBRANCH  35  36
ENDBRANCH  28  30
ENDBRANCH  27  28
ENDBRANCH  26  27
ENDBRANCH   1  26
TORSDOF 17
ENDMDL
MODEL 3
REMARK VINA RESULT:     -11.5      2.537      8.287
REMARK SMILES Cc1cc(C)n2nc(SCC(=O)N3CCC(C(=O)OCCOC(=O)c4ccc(-c5c6nc(c(-c7cc(S(=O)(=O)[O-])ccc7F)c7ccc([nH]7)c(-c7cc(S(=O)(=O)[O-])ccc7F)c7nc(c(-c8cc(S(=O)(=O)[O-])ccc8F)c8ccc5[nH]8)C=C7)C=C6)cc4)CC3)nc2n1
REMARK SMILES IDX 20 1 19 2 17 3 18 4 16 5 11 6 12 7 13 8 14 9 89 10 15 11
REMARK SMILES IDX 88 12 10 13 9 14 8 15 1 16 2 17 3 18 92 19 4 20 91 21 5 22
REMARK SMILES IDX 6 23 90 24 7 25 21 26 22 27 23 28 24 29 25 30 26 31 87 32
REMARK SMILES IDX 27 33 86 34 28 35 29 36 30 37 80 38 31 39 85 40 79 41 81 42
REMARK SMILES IDX 32 43 84 44 78 45 77 46 33 48 65 49 45 50 64 51 46 52 49 53
REMARK SMILES IDX 63 54 82 55 47 56 48 57 62 59 83 60 50 61 34 62 35 63 43 64
REMARK SMILES IDX 36 65 42 66 44 67 41 68 37 69 38 70 39 71 40 72 66 73 67 74
REMARK SMILES IDX 75 75 68 76 74 77 76 78 73 79 69 80 70 81 71 82 72 83 51 84
REMARK SMILES IDX 52 85 60 86 53 87 59 88 61 89 58 90 54 91 55 92 56 93 57 94
REMARK H PARENT 81 47 49 58
REMARK Flexibility Score: inf
ROOT
ATOM      1  C   UNL A   1      42.253  19.865  26.708  1.00  0.00     0.274 C 
ENDROOT
BRANCH   1   2
ATOM      2  O   UNL A   1      41.585  20.983  26.090  1.00  0.00    -0.462 OA
BRANCH   2   3
ATOM      3  C   UNL A   1      40.513  21.488  26.758  1.00  0.00     0.309 C 
ATOM      4  O   UNL A   1      40.396  21.493  27.980  1.00  0.00    -0.252 OA
BRANCH   3   5
ATOM      5  C   UNL A   1      39.411  21.988  25.840  1.00  0.00     0.103 C 
ATOM      6  C   UNL A   1      35.465  22.341  26.044  1.00  0.00     0.233 C 
ATOM      7  O   UNL A   1      35.080  21.180  26.224  1.00  0.00    -0.274 OA
ATOM      8  N   UNL A   1      36.645  22.602  25.353  1.00  0.00    -0.342 N 
ATOM      9  C   UNL A   1      37.254  21.517  24.594  1.00  0.00     0.120 C 
ATOM     10  C   UNL A   1      37.569  23.692  25.638  1.00  0.00     0.120 C 
ATOM     11  C   UNL A   1      38.421  20.913  25.361  1.00  0.00     0.037 C 
ATOM     12  C   UNL A   1      38.694  23.159  26.526  1.00  0.00     0.037 C 
BRANCH   6  13
ATOM     13  C   UNL A   1      34.511  23.485  26.338  1.00  0.00     0.178 C 
BRANCH  13  14
ATOM     14  S   UNL A   1      32.850  23.419  25.669  1.00  0.00    -0.074 SA
BRANCH  14  15
ATOM     15  C   UNL A   1      32.384  25.075  25.469  1.00  0.00     0.211 A 
ATOM     16  C   UNL A   1      31.842  30.719  26.371  1.00  0.00     0.067 C 
ATOM     17  C   UNL A   1      31.800  29.330  25.786  1.00  0.00     0.043 A 
ATOM     18  C   UNL A   1      31.252  29.187  24.398  1.00  0.00     0.047 A 
ATOM     19  N   UNL A   1      32.230  28.352  26.525  1.00  0.00    -0.216 NA
ATOM     20  C   UNL A   1      31.243  27.944  23.881  1.00  0.00     0.045 A 
ATOM     21  C   UNL A   1      32.201  27.109  25.963  1.00  0.00     0.253 A 
ATOM     22  C   UNL A   1      30.734  27.633  22.509  1.00  0.00     0.067 C 
ATOM     23  N   UNL A   1      31.733  26.888  24.660  1.00  0.00    -0.200 N 
ATOM     24  N   UNL A   1      32.595  25.967  26.475  1.00  0.00    -0.183 NA
ATOM     25  N   UNL A   1      31.879  25.579  24.348  1.00  0.00    -0.138 NA
ENDBRANCH  14  15
ENDBRANCH  13  14
ENDBRANCH   6  13
ENDBRANCH   3   5
ENDBRANCH   2   3
ENDBRANCH   1   2
BRANCH   1  26
ATOM     26  C   UNL A   1      43.217  19.160  25.755  1.00  0.00     0.275 C 
BRANCH  26  27
ATOM     27  O   UNL A   1      43.409  19.901  24.548  1.00  0.00    -0.458 OA
BRANCH  27  28
ATOM     28  C   UNL A   1      44.701  20.238  24.339  1.00  0.00     0.338 C 
ATOM     29  O   UNL A   1      45.596  19.482  24.006  1.00  0.00    -0.246 OA
BRANCH  28  30
ATOM     30  C   UNL A   1      44.964  21.624  24.726  1.00  0.00     0.060 A 
ATOM     31  C   UNL A   1      45.891  21.825  25.755  1.00  0.00     0.016 A 
ATOM     32  C   UNL A   1      44.085  22.630  24.310  1.00  0.00     0.016 A 
ATOM     33  C   UNL A   1      45.809  22.982  26.498  1.00  0.00     0.010 A 
ATOM     34  C   UNL A   1      43.999  23.781  25.061  1.00  0.00     0.010 A 
ATOM     35  C   UNL A   1      44.807  23.906  26.191  1.00  0.00    -0.014 A 
BRANCH  35  36
ATOM     36  C   UNL A   1      44.642  25.036  27.083  1.00  0.00     0.031 A 
ATOM     37  C   UNL A   1      45.777  25.982  27.094  1.00  0.00     0.074 A 
ATOM     38  C   UNL A   1      43.498  25.257  27.755  1.00  0.00     0.049 A 
ATOM     39  N   UNL A   1      46.527  26.316  28.090  1.00  0.00    -0.248 NA
ATOM     40  C   UNL A   1      46.205  26.538  25.803  1.00  0.00     0.031 C 
ATOM     41  C   UNL A   1      42.219  24.554  27.621  1.00  0.00     0.029 A 
ATOM     42  N   UNL A   1      43.213  26.259  28.628  1.00  0.00    -0.354 N 
ATOM     43  C   UNL A   1      47.407  27.272  27.597  1.00  0.00     0.074 A 
ATOM     44  C   UNL A   1      47.267  27.254  26.165  1.00  0.00     0.031 C 
ATOM     45  C   UNL A   1      41.249  25.290  28.209  1.00  0.00     0.029 A 
ATOM     46  C   UNL A   1      41.856  26.440  28.860  1.00  0.00     0.049 A 
ATOM     47  H   UNL A   1      43.908  26.807  29.058  1.00  0.00     0.167 HD
ATOM     48  C   UNL A   1      48.047  28.149  28.416  1.00  0.00     0.034 A 
ATOM     49  C   UNL A   1      41.283  27.510  29.469  1.00  0.00     0.034 A 
ATOM     50  C   UNL A   1      48.067  27.688  29.780  1.00  0.00     0.049 A 
ATOM     51  C   UNL A   1      42.337  28.139  30.308  1.00  0.00     0.074 A 
ATOM     52  C   UNL A   1      48.586  26.573  30.412  1.00  0.00     0.029 A 
ATOM     53  N   UNL A   1      47.163  28.225  30.666  1.00  0.00    -0.354 N 
ATOM     54  N   UNL A   1      42.894  27.551  31.331  1.00  0.00    -0.248 NA
ATOM     55  C   UNL A   1      43.092  29.250  29.747  1.00  0.00     0.031 C 
ATOM     56  C   UNL A   1      47.624  26.228  31.405  1.00  0.00     0.029 A 
ATOM     57  C   UNL A   1      46.600  27.176  31.355  1.00  0.00     0.049 A 
ATOM     58  H   UNL A   1      46.957  29.181  30.786  1.00  0.00     0.167 HD
ATOM     59  C   UNL A   1      44.229  27.925  31.280  1.00  0.00     0.074 A 
ATOM     60  C   UNL A   1      44.268  29.052  30.351  1.00  0.00     0.031 C 
ATOM     61  C   UNL A   1      45.214  27.121  31.779  1.00  0.00     0.034 A 
BRANCH  48  62
ATOM     62  C   UNL A   1      48.399  29.559  28.020  1.00  0.00     0.023 A 
ATOM     63  C   UNL A   1      47.350  30.454  27.742  1.00  0.00     0.031 A 
ATOM     64  C   UNL A   1      49.695  29.990  27.652  1.00  0.00     0.131 A 
ATOM     65  C   UNL A   1      47.602  31.675  27.091  1.00  0.00     0.055 A 
ATOM     66  C   UNL A   1      49.948  31.233  27.071  1.00  0.00     0.041 A 
ATOM     67  F   UNL A   1      50.770  29.195  27.740  1.00  0.00    -0.206 F 
ATOM     68  C   UNL A   1      48.894  32.075  26.764  1.00  0.00     0.022 A 
BRANCH  65  69
ATOM     69  S   UNL A   1      46.190  32.664  26.535  1.00  0.00     0.124 S 
ATOM     70  O   UNL A   1      45.439  31.696  25.745  1.00  0.00    -0.237 OA
ATOM     71  O   UNL A   1      45.589  33.070  27.802  1.00  0.00    -0.237 OA
ATOM     72  O   UNL A   1      46.813  33.743  25.769  1.00  0.00    -0.744 OA
ENDBRANCH  65  69
ENDBRANCH  48  62
BRANCH  49  73
ATOM     73  C   UNL A   1      40.013  28.188  29.094  1.00  0.00     0.023 A 
ATOM     74  C   UNL A   1      39.135  28.707  30.069  1.00  0.00     0.031 A 
ATOM     75  C   UNL A   1      39.757  28.561  27.754  1.00  0.00     0.131 A 
ATOM     76  C   UNL A   1      38.071  29.558  29.692  1.00  0.00     0.055 A 
ATOM     77  C   UNL A   1      38.695  29.390  27.385  1.00  0.00     0.041 A 
ATOM     78  F   UNL A   1      40.584  28.211  26.758  1.00  0.00    -0.206 F 
ATOM     79  C   UNL A   1      37.853  29.903  28.357  1.00  0.00     0.022 A 
BRANCH  76  80
ATOM     80  S   UNL A   1      37.030  30.345  30.960  1.00  0.00     0.124 S 
ATOM     81  O   UNL A   1      35.965  30.935  30.156  1.00  0.00    -0.237 OA
ATOM     82  O   UNL A   1      36.652  29.220  31.808  1.00  0.00    -0.237 OA
ATOM     83  O   UNL A   1      37.935  31.307  31.589  1.00  0.00    -0.744 OA
ENDBRANCH  76  80
ENDBRANCH  49  73
BRANCH  61  84
ATOM     84  C   UNL A   1      44.814  25.945  32.645  1.00  0.00     0.023 A 
ATOM     85  C   UNL A   1      44.497  26.032  34.020  1.00  0.00     0.031 A 
ATOM     86  C   UNL A   1      44.603  24.712  32.003  1.00  0.00     0.131 A 
ATOM     87  C   UNL A   1      43.994  24.904  34.700  1.00  0.00     0.055 A 
ATOM     88  C   UNL A   1      44.088  23.605  32.676  1.00  0.00     0.041 A 
ATOM     89  F   UNL A   1      44.852  24.578  30.690  1.00  0.00    -0.206 F 
ATOM     90  C   UNL A   1      43.783  23.696  34.029  1.00  0.00     0.022 A 
BRANCH  87  91
ATOM     91  S   UNL A   1      43.575  25.003  36.472  1.00  0.00     0.124 S 
ATOM     92  O   UNL A   1      42.165  24.630  36.503  1.00  0.00    -0.237 OA
ATOM     93  O   UNL A   1      44.504  24.053  37.076  1.00  0.00    -0.237 OA
ATOM     94  O   UNL A   1      43.839  26.404  36.809  1.00  0.00    -0.744 OA
ENDBRANCH  87  91
ENDBRANCH  61  84
ENDBRANCH  35  36
ENDBRANCH  28  30
ENDBRANCH  27  28
ENDBRANCH  26  27
ENDBRANCH   1  26
TORSDOF 17
ENDMDL
