MODEL 1
REMARK VINA RESULT:     -12.7      0.000      0.000
REMARK SMILES O=C(C[C@H](NC(=O)[C@]12C[C@H]3C[C@H](C[C@H](C3)C1)C2)c1cccc([N+](=O)[O-])c1)OCCOC(=O)c1ccc(-c2c3nc(c(-c4cc(S(=O)(=O)[O-])ccc4F)c4ccc([nH]4)c(-c4cc(S(=O)(=O)[O-])ccc4F)c4nc(c(-c5cc(S(=O)(=O)[O-])ccc5F)c5ccc2[nH]5)C=C4)C=C3)cc1
REMARK SMILES IDX 28 1 27 2 2 3 1 4 3 5 4 6 18 7 19 8 26 9 20 10 22 11 21 12
REMARK SMILES IDX 23 13 24 14 25 15 5 16 6 17 7 19 8 20 9 21 16 22 17 23 10 24
REMARK SMILES IDX 14 25 12 26 11 27 15 28 13 29 29 30 30 31 31 32 32 33 33 34
REMARK SMILES IDX 34 35 95 36 35 37 94 38 36 39 37 40 38 41 88 42 39 43 93 44
REMARK SMILES IDX 87 45 89 46 40 47 92 48 86 49 85 50 41 52 73 53 53 54 72 55
REMARK SMILES IDX 54 56 57 57 71 58 90 59 55 60 56 61 70 63 91 64 58 65 42 66
REMARK SMILES IDX 43 67 51 68 44 69 50 70 52 71 49 72 45 73 46 74 47 75 48 76
REMARK SMILES IDX 74 77 75 78 83 79 76 80 82 81 84 82 81 83 77 84 78 85 79 86
REMARK SMILES IDX 80 87 59 88 60 89 68 90 61 91 67 92 69 93 66 94 62 95 63 96
REMARK SMILES IDX 64 97 65 98
REMARK H PARENT 5 18 89 51 57 62
REMARK Flexibility Score: inf
ROOT
ATOM      1  C   UNL A   1      31.339  31.541  26.151  1.00  0.00     0.274 C 
ENDROOT
BRANCH   1   2
ATOM      2  O   UNL A   1      31.889  30.591  27.070  1.00  0.00    -0.462 OA
BRANCH   2   3
ATOM      3  C   UNL A   1      31.849  29.306  26.653  1.00  0.00     0.308 C 
ATOM      4  O   UNL A   1      31.599  28.355  27.376  1.00  0.00    -0.252 OA
BRANCH   3   5
ATOM      5  C   UNL A   1      32.388  29.189  25.252  1.00  0.00     0.152 C 
BRANCH   5   6
ATOM      6  C   UNL A   1      32.003  27.930  24.491  1.00  0.00     0.123 C 
BRANCH   6   7
ATOM      7  C   UNL A   1      30.623  28.179  23.838  1.00  0.00    -0.018 A 
ATOM      8  C   UNL A   1      29.651  27.158  23.836  1.00  0.00     0.006 A 
ATOM      9  C   UNL A   1      30.238  29.451  23.372  1.00  0.00     0.091 A 
ATOM     10  C   UNL A   1      28.316  27.413  23.498  1.00  0.00     0.007 A 
ATOM     11  C   UNL A   1      28.907  29.681  22.979  1.00  0.00     0.269 A 
ATOM     12  C   UNL A   1      27.936  28.681  23.074  1.00  0.00     0.085 A 
BRANCH  11  13
ATOM     13  N   UNL A   1      28.508  30.987  22.458  1.00  0.00     0.062 N 
ATOM     14  O   UNL A   1      28.004  31.021  21.325  1.00  0.00    -0.258 OA
ATOM     15  O   UNL A   1      28.717  31.969  23.175  1.00  0.00    -0.258 OA
ENDBRANCH  11  13
ENDBRANCH   6   7
BRANCH   6  16
ATOM     16  N   UNL A   1      32.949  27.410  23.473  1.00  0.00    -0.348 N 
ATOM     17  C   UNL A   1      33.447  26.224  23.024  1.00  0.00     0.226 C 
ATOM     18  H   UNL A   1      33.338  28.156  22.962  1.00  0.00     0.164 HD
ATOM     19  O   UNL A   1      33.823  26.246  21.845  1.00  0.00    -0.274 OA
BRANCH  17  20
ATOM     20  C   UNL A   1      33.611  24.934  23.855  1.00  0.00     0.050 C 
ATOM     21  C   UNL A   1      32.226  24.435  24.323  1.00  0.00     0.020 C 
ATOM     22  C   UNL A   1      34.378  25.206  25.198  1.00  0.00     0.020 C 
ATOM     23  C   UNL A   1      34.480  23.882  23.128  1.00  0.00     0.020 C 
ATOM     24  C   UNL A   1      32.335  23.107  25.081  1.00  0.00    -0.010 C 
ATOM     25  C   UNL A   1      34.497  23.910  26.046  1.00  0.00    -0.010 C 
ATOM     26  C   UNL A   1      34.511  22.564  23.920  1.00  0.00    -0.010 C 
ATOM     27  C   UNL A   1      33.081  22.079  24.216  1.00  0.00     0.007 C 
ATOM     28  C   UNL A   1      33.099  23.371  26.381  1.00  0.00     0.007 C 
ATOM     29  C   UNL A   1      35.240  22.824  25.249  1.00  0.00     0.007 C 
ENDBRANCH  17  20
ENDBRANCH   6  16
ENDBRANCH   5   6
ENDBRANCH   3   5
ENDBRANCH   2   3
ENDBRANCH   1   2
BRANCH   1  30
ATOM     30  C   UNL A   1      31.790  32.966  26.497  1.00  0.00     0.275 C 
BRANCH  30  31
ATOM     31  O   UNL A   1      32.146  33.081  27.898  1.00  0.00    -0.458 OA
BRANCH  31  32
ATOM     32  C   UNL A   1      33.185  33.942  28.097  1.00  0.00     0.338 C 
ATOM     33  O   UNL A   1      33.073  35.135  28.306  1.00  0.00    -0.246 OA
BRANCH  32  34
ATOM     34  C   UNL A   1      34.474  33.230  28.286  1.00  0.00     0.060 A 
ATOM     35  C   UNL A   1      34.388  31.889  28.669  1.00  0.00     0.016 A 
ATOM     36  C   UNL A   1      35.726  33.841  28.238  1.00  0.00     0.016 A 
ATOM     37  C   UNL A   1      35.531  31.146  28.983  1.00  0.00     0.010 A 
ATOM     38  C   UNL A   1      36.878  33.107  28.612  1.00  0.00     0.010 A 
ATOM     39  C   UNL A   1      36.790  31.754  28.996  1.00  0.00    -0.014 A 
BRANCH  39  40
ATOM     40  C   UNL A   1      37.912  31.032  29.674  1.00  0.00     0.031 A 
ATOM     41  C   UNL A   1      38.180  31.355  31.124  1.00  0.00     0.074 A 
ATOM     42  C   UNL A   1      38.593  30.015  29.106  1.00  0.00     0.049 A 
ATOM     43  N   UNL A   1      39.085  30.875  31.939  1.00  0.00    -0.248 NA
ATOM     44  C   UNL A   1      37.264  32.324  31.746  1.00  0.00     0.031 C 
ATOM     45  C   UNL A   1      38.327  29.451  27.787  1.00  0.00     0.029 A 
ATOM     46  N   UNL A   1      39.641  29.255  29.583  1.00  0.00    -0.354 N 
ATOM     47  C   UNL A   1      38.840  31.472  33.171  1.00  0.00     0.074 A 
ATOM     48  C   UNL A   1      37.703  32.349  32.993  1.00  0.00     0.031 C 
ATOM     49  C   UNL A   1      39.201  28.455  27.548  1.00  0.00     0.029 A 
ATOM     50  C   UNL A   1      40.117  28.327  28.681  1.00  0.00     0.049 A 
ATOM     51  H   UNL A   1      40.016  29.366  30.486  1.00  0.00     0.167 HD
ATOM     52  C   UNL A   1      39.507  31.321  34.343  1.00  0.00     0.034 A 
ATOM     53  C   UNL A   1      41.184  27.496  28.747  1.00  0.00     0.034 A 
ATOM     54  C   UNL A   1      40.683  30.502  34.504  1.00  0.00     0.049 A 
ATOM     55  C   UNL A   1      42.040  27.497  29.996  1.00  0.00     0.074 A 
ATOM     56  C   UNL A   1      41.502  30.377  35.614  1.00  0.00     0.029 A 
ATOM     57  N   UNL A   1      41.219  29.680  33.523  1.00  0.00    -0.354 N 
ATOM     58  N   UNL A   1      41.859  28.142  31.127  1.00  0.00    -0.248 NA
ATOM     59  C   UNL A   1      43.249  26.658  29.977  1.00  0.00     0.031 C 
ATOM     60  C   UNL A   1      42.573  29.540  35.277  1.00  0.00     0.029 A 
ATOM     61  C   UNL A   1      42.376  29.073  33.988  1.00  0.00     0.049 A 
ATOM     62  H   UNL A   1      40.835  29.548  32.625  1.00  0.00     0.167 HD
ATOM     63  C   UNL A   1      42.907  27.751  31.962  1.00  0.00     0.074 A 
ATOM     64  C   UNL A   1      43.708  26.809  31.209  1.00  0.00     0.031 C 
ATOM     65  C   UNL A   1      43.176  28.133  33.236  1.00  0.00     0.034 A 
BRANCH  52  66
ATOM     66  C   UNL A   1      39.038  32.177  35.494  1.00  0.00     0.023 A 
ATOM     67  C   UNL A   1      39.462  33.508  35.656  1.00  0.00     0.031 A 
ATOM     68  C   UNL A   1      38.231  31.611  36.498  1.00  0.00     0.131 A 
ATOM     69  C   UNL A   1      39.144  34.200  36.835  1.00  0.00     0.055 A 
ATOM     70  C   UNL A   1      37.853  32.333  37.630  1.00  0.00     0.041 A 
ATOM     71  F   UNL A   1      37.827  30.335  36.410  1.00  0.00    -0.206 F 
ATOM     72  C   UNL A   1      38.324  33.629  37.812  1.00  0.00     0.022 A 
BRANCH  69  73
ATOM     73  S   UNL A   1      39.957  35.791  37.159  1.00  0.00     0.124 S 
ATOM     74  O   UNL A   1      39.655  36.532  35.937  1.00  0.00    -0.237 OA
ATOM     75  O   UNL A   1      39.284  36.249  38.369  1.00  0.00    -0.237 OA
ATOM     76  O   UNL A   1      41.364  35.428  37.326  1.00  0.00    -0.744 OA
ENDBRANCH  69  73
ENDBRANCH  52  66
BRANCH  53  77
ATOM     77  C   UNL A   1      41.578  26.642  27.578  1.00  0.00     0.023 A 
ATOM     78  C   UNL A   1      41.289  25.265  27.536  1.00  0.00     0.031 A 
ATOM     79  C   UNL A   1      42.360  27.174  26.536  1.00  0.00     0.131 A 
ATOM     80  C   UNL A   1      41.820  24.465  26.507  1.00  0.00     0.055 A 
ATOM     81  C   UNL A   1      42.834  26.387  25.485  1.00  0.00     0.041 A 
ATOM     82  F   UNL A   1      42.696  28.474  26.535  1.00  0.00    -0.206 F 
ATOM     83  C   UNL A   1      42.577  25.021  25.474  1.00  0.00     0.022 A 
BRANCH  80  84
ATOM     84  S   UNL A   1      41.606  22.663  26.593  1.00  0.00     0.124 S 
ATOM     85  O   UNL A   1      40.153  22.537  26.606  1.00  0.00    -0.237 OA
ATOM     86  O   UNL A   1      42.278  22.217  25.378  1.00  0.00    -0.237 OA
ATOM     87  O   UNL A   1      42.274  22.298  27.840  1.00  0.00    -0.744 OA
ENDBRANCH  80  84
ENDBRANCH  53  77
BRANCH  65  88
ATOM     88  C   UNL A   1      44.352  27.479  33.927  1.00  0.00     0.023 A 
ATOM     89  C   UNL A   1      44.224  26.283  34.655  1.00  0.00     0.031 A 
ATOM     90  C   UNL A   1      45.626  28.075  33.860  1.00  0.00     0.131 A 
ATOM     91  C   UNL A   1      45.335  25.753  35.335  1.00  0.00     0.055 A 
ATOM     92  C   UNL A   1      46.738  27.512  34.488  1.00  0.00     0.041 A 
ATOM     93  F   UNL A   1      45.811  29.219  33.180  1.00  0.00    -0.206 F 
ATOM     94  C   UNL A   1      46.593  26.352  35.242  1.00  0.00     0.022 A 
BRANCH  91  95
ATOM     95  S   UNL A   1      45.093  24.323  36.426  1.00  0.00     0.124 S 
ATOM     96  O   UNL A   1      44.139  23.518  35.671  1.00  0.00    -0.237 OA
ATOM     97  O   UNL A   1      46.444  23.779  36.531  1.00  0.00    -0.237 OA
ATOM     98  O   UNL A   1      44.568  24.914  37.656  1.00  0.00    -0.744 OA
ENDBRANCH  91  95
ENDBRANCH  65  88
ENDBRANCH  39  40
ENDBRANCH  32  34
ENDBRANCH  31  32
ENDBRANCH  30  31
ENDBRANCH   1  30
TORSDOF 19
ENDMDL
MODEL 2
REMARK VINA RESULT:     -12.6      1.527      7.478
REMARK SMILES O=C(C[C@H](NC(=O)[C@]12C[C@H]3C[C@H](C[C@H](C3)C1)C2)c1cccc([N+](=O)[O-])c1)OCCOC(=O)c1ccc(-c2c3nc(c(-c4cc(S(=O)(=O)[O-])ccc4F)c4ccc([nH]4)c(-c4cc(S(=O)(=O)[O-])ccc4F)c4nc(c(-c5cc(S(=O)(=O)[O-])ccc5F)c5ccc2[nH]5)C=C4)C=C3)cc1
REMARK SMILES IDX 28 1 27 2 2 3 1 4 3 5 4 6 18 7 19 8 26 9 20 10 22 11 21 12
REMARK SMILES IDX 23 13 24 14 25 15 5 16 6 17 7 19 8 20 9 21 16 22 17 23 10 24
REMARK SMILES IDX 14 25 12 26 11 27 15 28 13 29 29 30 30 31 31 32 32 33 33 34
REMARK SMILES IDX 34 35 95 36 35 37 94 38 36 39 37 40 38 41 88 42 39 43 93 44
REMARK SMILES IDX 87 45 89 46 40 47 92 48 86 49 85 50 41 52 73 53 53 54 72 55
REMARK SMILES IDX 54 56 57 57 71 58 90 59 55 60 56 61 70 63 91 64 58 65 42 66
REMARK SMILES IDX 43 67 51 68 44 69 50 70 52 71 49 72 45 73 46 74 47 75 48 76
REMARK SMILES IDX 74 77 75 78 83 79 76 80 82 81 84 82 81 83 77 84 78 85 79 86
REMARK SMILES IDX 80 87 59 88 60 89 68 90 61 91 67 92 69 93 66 94 62 95 63 96
REMARK SMILES IDX 64 97 65 98
REMARK H PARENT 5 18 89 51 57 62
REMARK Flexibility Score: inf
ROOT
ATOM      1  C   UNL A   1      31.278  30.484  25.589  1.00  0.00     0.274 C 
ENDROOT
BRANCH   1   2
ATOM      2  O   UNL A   1      31.972  29.339  26.096  1.00  0.00    -0.462 OA
BRANCH   2   3
ATOM      3  C   UNL A   1      32.992  28.904  25.323  1.00  0.00     0.308 C 
ATOM      4  O   UNL A   1      34.167  28.944  25.649  1.00  0.00    -0.252 OA
BRANCH   3   5
ATOM      5  C   UNL A   1      32.506  28.599  23.932  1.00  0.00     0.152 C 
BRANCH   5   6
ATOM      6  C   UNL A   1      31.949  27.201  23.711  1.00  0.00     0.123 C 
BRANCH   6   7
ATOM      7  C   UNL A   1      30.427  27.334  23.469  1.00  0.00    -0.018 A 
ATOM      8  C   UNL A   1      29.545  26.362  23.983  1.00  0.00     0.006 A 
ATOM      9  C   UNL A   1      29.864  28.483  22.878  1.00  0.00     0.091 A 
ATOM     10  C   UNL A   1      28.160  26.570  24.018  1.00  0.00     0.007 A 
ATOM     11  C   UNL A   1      28.468  28.653  22.867  1.00  0.00     0.269 A 
ATOM     12  C   UNL A   1      27.615  27.722  23.466  1.00  0.00     0.085 A 
BRANCH  11  13
ATOM     13  N   UNL A   1      27.874  29.822  22.221  1.00  0.00     0.062 N 
ATOM     14  O   UNL A   1      28.196  30.051  21.045  1.00  0.00    -0.258 OA
ATOM     15  O   UNL A   1      27.106  30.512  22.898  1.00  0.00    -0.258 OA
ENDBRANCH  11  13
ENDBRANCH   6   7
BRANCH   6  16
ATOM     16  N   UNL A   1      32.551  26.368  22.641  1.00  0.00    -0.348 N 
ATOM     17  C   UNL A   1      33.096  25.131  22.467  1.00  0.00     0.226 C 
ATOM     18  H   UNL A   1      32.560  26.864  21.791  1.00  0.00     0.164 HD
ATOM     19  O   UNL A   1      33.007  24.696  21.312  1.00  0.00    -0.274 OA
BRANCH  17  20
ATOM     20  C   UNL A   1      33.822  24.298  23.545  1.00  0.00     0.050 C 
ATOM     21  C   UNL A   1      34.748  23.264  22.870  1.00  0.00     0.020 C 
ATOM     22  C   UNL A   1      32.817  23.413  24.364  1.00  0.00     0.020 C 
ATOM     23  C   UNL A   1      34.497  25.191  24.612  1.00  0.00     0.020 C 
ATOM     24  C   UNL A   1      35.554  22.471  23.906  1.00  0.00    -0.010 C 
ATOM     25  C   UNL A   1      33.563  22.546  25.415  1.00  0.00    -0.010 C 
ATOM     26  C   UNL A   1      35.322  24.337  25.590  1.00  0.00    -0.010 C 
ATOM     27  C   UNL A   1      36.311  23.443  24.823  1.00  0.00     0.007 C 
ATOM     28  C   UNL A   1      34.570  21.623  24.715  1.00  0.00     0.007 C 
ATOM     29  C   UNL A   1      34.348  23.448  26.382  1.00  0.00     0.007 C 
ENDBRANCH  17  20
ENDBRANCH   6  16
ENDBRANCH   5   6
ENDBRANCH   3   5
ENDBRANCH   2   3
ENDBRANCH   1   2
BRANCH   1  30
ATOM     30  C   UNL A   1      31.537  31.717  26.465  1.00  0.00     0.275 C 
BRANCH  30  31
ATOM     31  O   UNL A   1      32.561  31.452  27.458  1.00  0.00    -0.458 OA
BRANCH  31  32
ATOM     32  C   UNL A   1      33.450  32.480  27.567  1.00  0.00     0.338 C 
ATOM     33  O   UNL A   1      33.157  33.661  27.565  1.00  0.00    -0.246 OA
BRANCH  32  34
ATOM     34  C   UNL A   1      34.807  32.010  27.947  1.00  0.00     0.060 A 
ATOM     35  C   UNL A   1      34.894  30.700  28.425  1.00  0.00     0.016 A 
ATOM     36  C   UNL A   1      35.941  32.820  27.981  1.00  0.00     0.016 A 
ATOM     37  C   UNL A   1      36.098  30.182  28.916  1.00  0.00     0.010 A 
ATOM     38  C   UNL A   1      37.144  32.316  28.532  1.00  0.00     0.010 A 
ATOM     39  C   UNL A   1      37.232  30.994  29.012  1.00  0.00    -0.014 A 
BRANCH  39  40
ATOM     40  C   UNL A   1      38.369  30.516  29.859  1.00  0.00     0.031 A 
ATOM     41  C   UNL A   1      39.344  29.543  29.240  1.00  0.00     0.074 A 
ATOM     42  C   UNL A   1      38.649  31.015  31.081  1.00  0.00     0.049 A 
ATOM     43  N   UNL A   1      40.408  28.978  29.752  1.00  0.00    -0.248 NA
ATOM     44  C   UNL A   1      39.101  29.198  27.831  1.00  0.00     0.031 C 
ATOM     45  C   UNL A   1      37.923  32.096  31.739  1.00  0.00     0.029 A 
ATOM     46  N   UNL A   1      39.641  30.690  31.981  1.00  0.00    -0.354 N 
ATOM     47  C   UNL A   1      40.969  28.225  28.727  1.00  0.00     0.074 A 
ATOM     48  C   UNL A   1      40.124  28.403  27.566  1.00  0.00     0.031 C 
ATOM     49  C   UNL A   1      38.475  32.329  32.944  1.00  0.00     0.029 A 
ATOM     50  C   UNL A   1      39.575  31.391  33.167  1.00  0.00     0.049 A 
ATOM     51  H   UNL A   1      40.335  30.017  31.794  1.00  0.00     0.167 HD
ATOM     52  C   UNL A   1      42.075  27.439  28.747  1.00  0.00     0.034 A 
ATOM     53  C   UNL A   1      40.294  31.270  34.307  1.00  0.00     0.034 A 
ATOM     54  C   UNL A   1      42.877  27.204  29.922  1.00  0.00     0.049 A 
ATOM     55  C   UNL A   1      41.397  30.234  34.375  1.00  0.00     0.074 A 
ATOM     56  C   UNL A   1      43.942  26.333  30.079  1.00  0.00     0.029 A 
ATOM     57  N   UNL A   1      42.694  27.829  31.147  1.00  0.00    -0.354 N 
ATOM     58  N   UNL A   1      41.859  29.450  33.427  1.00  0.00    -0.248 NA
ATOM     59  C   UNL A   1      42.076  30.066  35.669  1.00  0.00     0.031 C 
ATOM     60  C   UNL A   1      44.352  26.378  31.418  1.00  0.00     0.029 A 
ATOM     61  C   UNL A   1      43.601  27.339  32.075  1.00  0.00     0.049 A 
ATOM     62  H   UNL A   1      42.016  28.520  31.333  1.00  0.00     0.167 HD
ATOM     63  C   UNL A   1      42.906  28.730  34.002  1.00  0.00     0.074 A 
ATOM     64  C   UNL A   1      43.014  29.180  35.374  1.00  0.00     0.031 C 
ATOM     65  C   UNL A   1      43.709  27.788  33.444  1.00  0.00     0.034 A 
BRANCH  52  66
ATOM     66  C   UNL A   1      42.380  26.682  27.478  1.00  0.00     0.023 A 
ATOM     67  C   UNL A   1      42.012  25.335  27.306  1.00  0.00     0.031 A 
ATOM     68  C   UNL A   1      43.144  27.295  26.469  1.00  0.00     0.131 A 
ATOM     69  C   UNL A   1      42.476  24.625  26.188  1.00  0.00     0.055 A 
ATOM     70  C   UNL A   1      43.534  26.604  25.322  1.00  0.00     0.041 A 
ATOM     71  F   UNL A   1      43.551  28.567  26.598  1.00  0.00    -0.206 F 
ATOM     72  C   UNL A   1      43.217  25.257  25.185  1.00  0.00     0.022 A 
BRANCH  69  73
ATOM     73  S   UNL A   1      42.254  22.824  26.145  1.00  0.00     0.124 S 
ATOM     74  O   UNL A   1      40.805  22.702  26.287  1.00  0.00    -0.237 OA
ATOM     75  O   UNL A   1      42.801  22.470  24.840  1.00  0.00    -0.237 OA
ATOM     76  O   UNL A   1      43.026  22.355  27.295  1.00  0.00    -0.744 OA
ENDBRANCH  69  73
ENDBRANCH  52  66
BRANCH  53  77
ATOM     77  C   UNL A   1      39.963  32.080  35.526  1.00  0.00     0.023 A 
ATOM     78  C   UNL A   1      39.063  31.615  36.503  1.00  0.00     0.031 A 
ATOM     79  C   UNL A   1      40.456  33.390  35.668  1.00  0.00     0.131 A 
ATOM     80  C   UNL A   1      38.648  32.468  37.542  1.00  0.00     0.055 A 
ATOM     81  C   UNL A   1      40.088  34.212  36.735  1.00  0.00     0.041 A 
ATOM     82  F   UNL A   1      41.294  33.903  34.754  1.00  0.00    -0.206 F 
ATOM     83  C   UNL A   1      39.168  33.758  37.672  1.00  0.00     0.022 A 
BRANCH  80  84
ATOM     84  S   UNL A   1      37.331  31.914  38.665  1.00  0.00     0.124 S 
ATOM     85  O   UNL A   1      37.118  30.542  38.218  1.00  0.00    -0.237 OA
ATOM     86  O   UNL A   1      37.958  32.072  39.972  1.00  0.00    -0.237 OA
ATOM     87  O   UNL A   1      36.234  32.839  38.387  1.00  0.00    -0.744 OA
ENDBRANCH  80  84
ENDBRANCH  53  77
BRANCH  65  88
ATOM     88  C   UNL A   1      44.823  27.226  34.298  1.00  0.00     0.023 A 
ATOM     89  C   UNL A   1      44.610  26.182  35.217  1.00  0.00     0.031 A 
ATOM     90  C   UNL A   1      46.124  27.755  34.194  1.00  0.00     0.131 A 
ATOM     91  C   UNL A   1      45.665  25.742  36.035  1.00  0.00     0.055 A 
ATOM     92  C   UNL A   1      47.181  27.273  34.968  1.00  0.00     0.041 A 
ATOM     93  F   UNL A   1      46.388  28.753  33.335  1.00  0.00    -0.206 F 
ATOM     94  C   UNL A   1      46.951  26.271  35.904  1.00  0.00     0.022 A 
BRANCH  91  95
ATOM     95  S   UNL A   1      45.313  24.538  37.346  1.00  0.00     0.124 S 
ATOM     96  O   UNL A   1      46.247  24.940  38.392  1.00  0.00    -0.237 OA
ATOM     97  O   UNL A   1      43.900  24.782  37.623  1.00  0.00    -0.237 OA
ATOM     98  O   UNL A   1      45.605  23.250  36.717  1.00  0.00    -0.744 OA
ENDBRANCH  91  95
ENDBRANCH  65  88
ENDBRANCH  39  40
ENDBRANCH  32  34
ENDBRANCH  31  32
ENDBRANCH  30  31
ENDBRANCH   1  30
TORSDOF 19
ENDMDL
MODEL 3
REMARK VINA RESULT:     -12.5      4.873     10.652
REMARK SMILES O=C(C[C@H](NC(=O)[C@]12C[C@H]3C[C@H](C[C@H](C3)C1)C2)c1cccc([N+](=O)[O-])c1)OCCOC(=O)c1ccc(-c2c3nc(c(-c4cc(S(=O)(=O)[O-])ccc4F)c4ccc([nH]4)c(-c4cc(S(=O)(=O)[O-])ccc4F)c4nc(c(-c5cc(S(=O)(=O)[O-])ccc5F)c5ccc2[nH]5)C=C4)C=C3)cc1
REMARK SMILES IDX 28 1 27 2 2 3 1 4 3 5 4 6 18 7 19 8 26 9 20 10 22 11 21 12
REMARK SMILES IDX 23 13 24 14 25 15 5 16 6 17 7 19 8 20 9 21 16 22 17 23 10 24
REMARK SMILES IDX 14 25 12 26 11 27 15 28 13 29 29 30 30 31 31 32 32 33 33 34
REMARK SMILES IDX 34 35 95 36 35 37 94 38 36 39 37 40 38 41 88 42 39 43 93 44
REMARK SMILES IDX 87 45 89 46 40 47 92 48 86 49 85 50 41 52 73 53 53 54 72 55
REMARK SMILES IDX 54 56 57 57 71 58 90 59 55 60 56 61 70 63 91 64 58 65 42 66
REMARK SMILES IDX 43 67 51 68 44 69 50 70 52 71 49 72 45 73 46 74 47 75 48 76
REMARK SMILES IDX 74 77 75 78 83 79 76 80 82 81 84 82 81 83 77 84 78 85 79 86
REMARK SMILES IDX 80 87 59 88 60 89 68 90 61 91 67 92 69 93 66 94 62 95 63 96
REMARK SMILES IDX 64 97 65 98
REMARK H PARENT 5 18 89 51 57 62
REMARK Flexibility Score: inf
ROOT
ATOM      1  C   UNL A   1      37.385  19.805  24.938  1.00  0.00     0.274 C 
ENDROOT
BRANCH   1   2
ATOM      2  O   UNL A   1      37.535  21.229  24.945  1.00  0.00    -0.462 OA
BRANCH   2   3
ATOM      3  C   UNL A   1      36.456  21.916  24.506  1.00  0.00     0.308 C 
ATOM      4  O   UNL A   1      36.441  22.601  23.496  1.00  0.00    -0.252 OA
BRANCH   3   5
ATOM      5  C   UNL A   1      35.373  21.919  25.551  1.00  0.00     0.152 C 
BRANCH   5   6
ATOM      6  C   UNL A   1      34.065  22.587  25.156  1.00  0.00     0.123 C 
BRANCH   6   7
ATOM      7  C   UNL A   1      33.240  21.561  24.343  1.00  0.00    -0.018 A 
ATOM      8  C   UNL A   1      32.635  21.947  23.130  1.00  0.00     0.006 A 
ATOM      9  C   UNL A   1      33.196  20.197  24.692  1.00  0.00     0.091 A 
ATOM     10  C   UNL A   1      32.107  21.006  22.238  1.00  0.00     0.007 A 
ATOM     11  C   UNL A   1      32.610  19.267  23.814  1.00  0.00     0.269 A 
ATOM     12  C   UNL A   1      32.099  19.657  22.573  1.00  0.00     0.085 A 
BRANCH  11  13
ATOM     13  N   UNL A   1      32.524  17.856  24.186  1.00  0.00     0.062 N 
ATOM     14  O   UNL A   1      32.092  17.588  25.317  1.00  0.00    -0.258 OA
ATOM     15  O   UNL A   1      32.905  17.028  23.353  1.00  0.00    -0.258 OA
ENDBRANCH  11  13
ENDBRANCH   6   7
BRANCH   6  16
ATOM     16  N   UNL A   1      33.220  23.164  26.230  1.00  0.00    -0.348 N 
ATOM     17  C   UNL A   1      32.354  24.196  26.432  1.00  0.00     0.226 C 
ATOM     18  H   UNL A   1      33.316  22.636  27.055  1.00  0.00     0.164 HD
ATOM     19  O   UNL A   1      31.521  23.992  27.325  1.00  0.00    -0.274 OA
BRANCH  17  20
ATOM     20  C   UNL A   1      32.367  25.551  25.693  1.00  0.00     0.050 C 
ATOM     21  C   UNL A   1      33.757  26.209  25.832  1.00  0.00     0.020 C 
ATOM     22  C   UNL A   1      31.400  26.586  26.371  1.00  0.00     0.020 C 
ATOM     23  C   UNL A   1      31.837  25.429  24.245  1.00  0.00     0.020 C 
ATOM     24  C   UNL A   1      33.840  27.519  25.041  1.00  0.00    -0.010 C 
ATOM     25  C   UNL A   1      31.455  27.960  25.647  1.00  0.00    -0.010 C 
ATOM     26  C   UNL A   1      31.989  26.764  23.498  1.00  0.00    -0.010 C 
ATOM     27  C   UNL A   1      33.442  27.264  23.579  1.00  0.00     0.007 C 
ATOM     28  C   UNL A   1      32.883  28.521  25.692  1.00  0.00     0.007 C 
ATOM     29  C   UNL A   1      31.063  27.793  24.169  1.00  0.00     0.007 C 
ENDBRANCH  17  20
ENDBRANCH   6  16
ENDBRANCH   5   6
ENDBRANCH   3   5
ENDBRANCH   2   3
ENDBRANCH   1   2
BRANCH   1  30
ATOM     30  C   UNL A   1      38.589  19.123  25.603  1.00  0.00     0.275 C 
BRANCH  30  31
ATOM     31  O   UNL A   1      39.840  19.657  25.100  1.00  0.00    -0.458 OA
BRANCH  31  32
ATOM     32  C   UNL A   1      40.817  19.661  26.053  1.00  0.00     0.338 C 
ATOM     33  O   UNL A   1      41.641  18.781  26.213  1.00  0.00    -0.246 OA
BRANCH  32  34
ATOM     34  C   UNL A   1      40.937  20.981  26.725  1.00  0.00     0.060 A 
ATOM     35  C   UNL A   1      40.342  22.062  26.071  1.00  0.00     0.016 A 
ATOM     36  C   UNL A   1      41.703  21.217  27.866  1.00  0.00     0.016 A 
ATOM     37  C   UNL A   1      40.483  23.370  26.550  1.00  0.00     0.010 A 
ATOM     38  C   UNL A   1      41.894  22.545  28.317  1.00  0.00     0.010 A 
ATOM     39  C   UNL A   1      41.292  23.635  27.658  1.00  0.00    -0.014 A 
BRANCH  39  40
ATOM     40  C   UNL A   1      41.695  25.055  27.911  1.00  0.00     0.031 A 
ATOM     41  C   UNL A   1      43.068  25.486  27.452  1.00  0.00     0.074 A 
ATOM     42  C   UNL A   1      40.852  25.994  28.387  1.00  0.00     0.049 A 
ATOM     43  N   UNL A   1      43.658  26.650  27.548  1.00  0.00    -0.248 NA
ATOM     44  C   UNL A   1      43.860  24.465  26.749  1.00  0.00     0.031 C 
ATOM     45  C   UNL A   1      39.441  25.788  28.693  1.00  0.00     0.029 A 
ATOM     46  N   UNL A   1      41.060  27.327  28.676  1.00  0.00    -0.354 N 
ATOM     47  C   UNL A   1      44.884  26.507  26.906  1.00  0.00     0.074 A 
ATOM     48  C   UNL A   1      44.950  25.142  26.429  1.00  0.00     0.031 C 
ATOM     49  C   UNL A   1      38.915  26.940  29.149  1.00  0.00     0.029 A 
ATOM     50  C   UNL A   1      39.957  27.965  29.205  1.00  0.00     0.049 A 
ATOM     51  H   UNL A   1      41.918  27.782  28.520  1.00  0.00     0.167 HD
ATOM     52  C   UNL A   1      45.876  27.418  26.740  1.00  0.00     0.034 A 
ATOM     53  C   UNL A   1      39.813  29.214  29.704  1.00  0.00     0.034 A 
ATOM     54  C   UNL A   1      45.841  28.756  27.276  1.00  0.00     0.049 A 
ATOM     55  C   UNL A   1      41.004  30.152  29.695  1.00  0.00     0.074 A 
ATOM     56  C   UNL A   1      46.841  29.714  27.270  1.00  0.00     0.029 A 
ATOM     57  N   UNL A   1      44.756  29.322  27.930  1.00  0.00    -0.354 N 
ATOM     58  N   UNL A   1      42.196  29.974  29.174  1.00  0.00    -0.248 NA
ATOM     59  C   UNL A   1      40.828  31.459  30.346  1.00  0.00     0.031 C 
ATOM     60  C   UNL A   1      46.386  30.829  27.986  1.00  0.00     0.029 A 
ATOM     61  C   UNL A   1      45.072  30.602  28.363  1.00  0.00     0.049 A 
ATOM     62  H   UNL A   1      43.886  28.879  28.069  1.00  0.00     0.167 HD
ATOM     63  C   UNL A   1      42.893  31.162  29.398  1.00  0.00     0.074 A 
ATOM     64  C   UNL A   1      41.985  32.050  30.093  1.00  0.00     0.031 C 
ATOM     65  C   UNL A   1      44.165  31.489  29.056  1.00  0.00     0.034 A 
BRANCH  52  66
ATOM     66  C   UNL A   1      47.128  26.926  26.058  1.00  0.00     0.023 A 
ATOM     67  C   UNL A   1      48.128  26.222  26.753  1.00  0.00     0.031 A 
ATOM     68  C   UNL A   1      47.365  27.260  24.713  1.00  0.00     0.131 A 
ATOM     69  C   UNL A   1      49.351  25.946  26.121  1.00  0.00     0.055 A 
ATOM     70  C   UNL A   1      48.552  26.912  24.068  1.00  0.00     0.041 A 
ATOM     71  F   UNL A   1      46.460  27.960  24.014  1.00  0.00    -0.206 F 
ATOM     72  C   UNL A   1      49.561  26.267  24.777  1.00  0.00     0.022 A 
BRANCH  69  73
ATOM     73  S   UNL A   1      50.730  25.322  27.124  1.00  0.00     0.124 S 
ATOM     74  O   UNL A   1      51.646  24.835  26.096  1.00  0.00    -0.237 OA
ATOM     75  O   UNL A   1      51.157  26.513  27.849  1.00  0.00    -0.237 OA
ATOM     76  O   UNL A   1      50.113  24.279  27.942  1.00  0.00    -0.744 OA
ENDBRANCH  69  73
ENDBRANCH  52  66
BRANCH  53  77
ATOM     77  C   UNL A   1      38.527  29.656  30.337  1.00  0.00     0.023 A 
ATOM     78  C   UNL A   1      37.604  30.468  29.652  1.00  0.00     0.031 A 
ATOM     79  C   UNL A   1      38.261  29.367  31.689  1.00  0.00     0.131 A 
ATOM     80  C   UNL A   1      36.493  31.001  30.333  1.00  0.00     0.055 A 
ATOM     81  C   UNL A   1      37.124  29.848  32.342  1.00  0.00     0.041 A 
ATOM     82  F   UNL A   1      39.117  28.623  32.406  1.00  0.00    -0.206 F 
ATOM     83  C   UNL A   1      36.240  30.683  31.668  1.00  0.00     0.022 A 
BRANCH  80  84
ATOM     84  S   UNL A   1      35.436  32.210  29.483  1.00  0.00     0.124 S 
ATOM     85  O   UNL A   1      36.418  32.992  28.740  1.00  0.00    -0.237 OA
ATOM     86  O   UNL A   1      34.567  31.350  28.687  1.00  0.00    -0.237 OA
ATOM     87  O   UNL A   1      34.776  32.916  30.578  1.00  0.00    -0.744 OA
ENDBRANCH  80  84
ENDBRANCH  53  77
BRANCH  65  88
ATOM     88  C   UNL A   1      44.633  32.893  29.366  1.00  0.00     0.023 A 
ATOM     89  C   UNL A   1      44.326  33.986  28.536  1.00  0.00     0.031 A 
ATOM     90  C   UNL A   1      45.411  33.137  30.514  1.00  0.00     0.131 A 
ATOM     91  C   UNL A   1      44.842  35.259  28.833  1.00  0.00     0.055 A 
ATOM     92  C   UNL A   1      45.871  34.415  30.836  1.00  0.00     0.041 A 
ATOM     93  F   UNL A   1      45.737  32.133  31.344  1.00  0.00    -0.206 F 
ATOM     94  C   UNL A   1      45.599  35.482  29.986  1.00  0.00     0.022 A 
BRANCH  91  95
ATOM     95  S   UNL A   1      44.597  36.604  27.640  1.00  0.00     0.124 S 
ATOM     96  O   UNL A   1      45.969  36.975  27.310  1.00  0.00    -0.237 OA
ATOM     97  O   UNL A   1      43.841  35.946  26.579  1.00  0.00    -0.237 OA
ATOM     98  O   UNL A   1      43.851  37.606  28.400  1.00  0.00    -0.744 OA
ENDBRANCH  91  95
ENDBRANCH  65  88
ENDBRANCH  39  40
ENDBRANCH  32  34
ENDBRANCH  31  32
ENDBRANCH  30  31
ENDBRANCH   1  30
TORSDOF 19
ENDMDL
