MODEL 1
REMARK VINA RESULT:     -12.1      0.000      0.000
REMARK SMILES COc1c(C(=O)OCCOC(=O)c2ccc(-c3c4nc(c(-c5cc(S(=O)(=O)[O-])ccc5F)c5ccc([nH]5)c(-c5cc(S(=O)(=O)[O-])ccc5F)c5nc(c(-c6cc(S(=O)(=O)[O-])ccc6F)c6ccc3[nH]6)C=C5)C=C4)cc2)cccc1-c1cc(C)ccc1C
REMARK SMILES IDX 9 1 8 2 7 3 5 4 6 5 4 6 3 7 79 8 76 9 78 10 77 11 2 12 1 13
REMARK SMILES IDX 80 14 81 15 86 16 82 17 85 18 87 19 83 20 84 21 10 22 11 23
REMARK SMILES IDX 12 24 13 25 14 26 75 27 15 28 74 29 16 30 17 31 18 32 68 33
REMARK SMILES IDX 19 34 73 35 67 36 69 37 20 38 72 39 66 40 65 41 21 43 53 44
REMARK SMILES IDX 33 45 52 46 34 47 37 48 51 49 70 50 35 51 36 52 50 54 71 55
REMARK SMILES IDX 38 56 22 57 23 58 31 59 24 60 30 61 32 62 29 63 25 64 26 65
REMARK SMILES IDX 27 66 28 67 54 68 55 69 63 70 56 71 62 72 64 73 61 74 57 75
REMARK SMILES IDX 58 76 59 77 60 78 39 79 40 80 48 81 41 82 47 83 49 84 46 85
REMARK SMILES IDX 42 86 43 87 44 88 45 89
REMARK H PARENT 69 42 37 53
REMARK Flexibility Score: inf
ROOT
ATOM      1  C   UNL A   1      37.232  20.323  24.829  1.00  0.00     0.275 C 
ENDROOT
BRANCH   1   2
ATOM      2  C   UNL A   1      35.721  20.402  25.031  1.00  0.00     0.275 C 
BRANCH   2   3
ATOM      3  O   UNL A   1      35.227  21.680  24.586  1.00  0.00    -0.458 OA
BRANCH   3   4
ATOM      4  C   UNL A   1      33.918  21.737  24.239  1.00  0.00     0.342 C 
ATOM      5  O   UNL A   1      33.114  20.817  24.290  1.00  0.00    -0.246 OA
BRANCH   4   6
ATOM      6  C   UNL A   1      33.516  23.131  23.934  1.00  0.00     0.102 A 
ATOM      7  C   UNL A   1      33.150  24.059  24.921  1.00  0.00     0.141 A 
ATOM      8  C   UNL A   1      32.815  25.382  24.547  1.00  0.00     0.025 A 
ATOM      9  C   UNL A   1      33.546  23.518  22.586  1.00  0.00     0.019 A 
ATOM     10  C   UNL A   1      32.735  25.694  23.173  1.00  0.00     0.012 A 
ATOM     11  C   UNL A   1      33.102  24.774  22.199  1.00  0.00     0.002 A 
BRANCH   7  12
ATOM     12  O   UNL A   1      33.304  23.694  26.239  1.00  0.00    -0.495 OA
ATOM     13  C   UNL A   1      32.151  23.026  26.753  1.00  0.00     0.278 C 
ENDBRANCH   7  12
BRANCH   8  14
ATOM     14  C   UNL A   1      32.674  26.498  25.504  1.00  0.00    -0.011 A 
ATOM     15  C   UNL A   1      33.814  27.247  25.864  1.00  0.00     0.012 A 
ATOM     16  C   UNL A   1      31.450  26.777  26.154  1.00  0.00    -0.043 A 
ATOM     17  C   UNL A   1      33.756  28.252  26.840  1.00  0.00    -0.050 A 
ATOM     18  C   UNL A   1      31.389  27.818  27.095  1.00  0.00     0.004 A 
ATOM     19  C   UNL A   1      30.185  26.006  25.872  1.00  0.00     0.045 C 
ATOM     20  C   UNL A   1      35.008  28.967  27.251  1.00  0.00     0.044 C 
ATOM     21  C   UNL A   1      32.531  28.539  27.442  1.00  0.00     0.004 A 
ENDBRANCH   8  14
ENDBRANCH   4   6
ENDBRANCH   3   4
ENDBRANCH   2   3
ENDBRANCH   1   2
BRANCH   1  22
ATOM     22  O   UNL A   1      37.872  21.380  25.565  1.00  0.00    -0.458 OA
BRANCH  22  23
ATOM     23  C   UNL A   1      39.105  21.096  26.046  1.00  0.00     0.338 C 
ATOM     24  O   UNL A   1      39.712  20.043  25.967  1.00  0.00    -0.246 OA
BRANCH  23  25
ATOM     25  C   UNL A   1      39.666  22.316  26.643  1.00  0.00     0.060 A 
ATOM     26  C   UNL A   1      39.231  23.544  26.152  1.00  0.00     0.016 A 
ATOM     27  C   UNL A   1      40.679  22.259  27.594  1.00  0.00     0.016 A 
ATOM     28  C   UNL A   1      39.852  24.726  26.549  1.00  0.00     0.010 A 
ATOM     29  C   UNL A   1      41.250  23.453  28.053  1.00  0.00     0.010 A 
ATOM     30  C   UNL A   1      40.865  24.698  27.515  1.00  0.00    -0.014 A 
BRANCH  30  31
ATOM     31  C   UNL A   1      41.569  25.949  27.918  1.00  0.00     0.031 A 
ATOM     32  C   UNL A   1      40.834  26.990  28.722  1.00  0.00     0.074 A 
ATOM     33  C   UNL A   1      42.854  26.166  27.573  1.00  0.00     0.049 A 
ATOM     34  N   UNL A   1      41.162  28.229  28.982  1.00  0.00    -0.248 NA
ATOM     35  C   UNL A   1      39.545  26.577  29.293  1.00  0.00     0.031 C 
ATOM     36  C   UNL A   1      43.711  25.223  26.855  1.00  0.00     0.029 A 
ATOM     37  N   UNL A   1      43.663  27.259  27.775  1.00  0.00    -0.354 N 
ATOM     38  C   UNL A   1      40.093  28.766  29.694  1.00  0.00     0.074 A 
ATOM     39  C   UNL A   1      39.104  27.713  29.811  1.00  0.00     0.031 C 
ATOM     40  C   UNL A   1      44.925  25.768  26.689  1.00  0.00     0.029 A 
ATOM     41  C   UNL A   1      44.909  27.133  27.206  1.00  0.00     0.049 A 
ATOM     42  H   UNL A   1      43.378  28.055  28.279  1.00  0.00     0.167 HD
ATOM     43  C   UNL A   1      39.951  30.019  30.197  1.00  0.00     0.034 A 
ATOM     44  C   UNL A   1      45.907  28.029  27.060  1.00  0.00     0.034 A 
ATOM     45  C   UNL A   1      40.967  31.041  30.102  1.00  0.00     0.049 A 
ATOM     46  C   UNL A   1      45.713  29.429  27.576  1.00  0.00     0.074 A 
ATOM     47  C   UNL A   1      40.935  32.339  30.584  1.00  0.00     0.029 A 
ATOM     48  N   UNL A   1      42.203  30.880  29.487  1.00  0.00    -0.354 N 
ATOM     49  N   UNL A   1      44.669  29.951  28.179  1.00  0.00    -0.248 NA
ATOM     50  C   UNL A   1      46.826  30.367  27.380  1.00  0.00     0.031 C 
ATOM     51  C   UNL A   1      42.123  32.978  30.210  1.00  0.00     0.029 A 
ATOM     52  C   UNL A   1      42.931  32.060  29.558  1.00  0.00     0.049 A 
ATOM     53  H   UNL A   1      42.517  30.049  29.064  1.00  0.00     0.167 HD
ATOM     54  C   UNL A   1      45.006  31.274  28.445  1.00  0.00     0.074 A 
ATOM     55  C   UNL A   1      46.356  31.465  27.953  1.00  0.00     0.031 C 
ATOM     56  C   UNL A   1      44.268  32.243  29.045  1.00  0.00     0.034 A 
BRANCH  43  57
ATOM     57  C   UNL A   1      38.620  30.363  30.827  1.00  0.00     0.023 A 
ATOM     58  C   UNL A   1      37.612  31.046  30.124  1.00  0.00     0.031 A 
ATOM     59  C   UNL A   1      38.382  30.053  32.178  1.00  0.00     0.131 A 
ATOM     60  C   UNL A   1      36.457  31.477  30.797  1.00  0.00     0.055 A 
ATOM     61  C   UNL A   1      37.192  30.407  32.819  1.00  0.00     0.041 A 
ATOM     62  F   UNL A   1      39.313  29.420  32.909  1.00  0.00    -0.206 F 
ATOM     63  C   UNL A   1      36.230  31.141  32.134  1.00  0.00     0.022 A 
BRANCH  60  64
ATOM     64  S   UNL A   1      35.339  32.628  29.950  1.00  0.00     0.124 S 
ATOM     65  O   UNL A   1      34.311  32.843  30.966  1.00  0.00    -0.237 OA
ATOM     66  O   UNL A   1      36.210  33.764  29.671  1.00  0.00    -0.237 OA
ATOM     67  O   UNL A   1      34.897  31.876  28.778  1.00  0.00    -0.744 OA
ENDBRANCH  60  64
ENDBRANCH  43  57
BRANCH  44  68
ATOM     68  C   UNL A   1      47.147  27.649  26.324  1.00  0.00     0.023 A 
ATOM     69  C   UNL A   1      47.267  27.859  24.942  1.00  0.00     0.031 A 
ATOM     70  C   UNL A   1      48.229  27.054  26.999  1.00  0.00     0.131 A 
ATOM     71  C   UNL A   1      48.436  27.457  24.275  1.00  0.00     0.055 A 
ATOM     72  C   UNL A   1      49.406  26.701  26.341  1.00  0.00     0.041 A 
ATOM     73  F   UNL A   1      48.163  26.831  28.322  1.00  0.00    -0.206 F 
ATOM     74  C   UNL A   1      49.512  26.895  24.967  1.00  0.00     0.022 A 
BRANCH  71  75
ATOM     75  S   UNL A   1      48.513  27.631  22.471  1.00  0.00     0.124 S 
ATOM     76  O   UNL A   1      49.725  28.426  22.300  1.00  0.00    -0.237 OA
ATOM     77  O   UNL A   1      48.589  26.242  22.033  1.00  0.00    -0.237 OA
ATOM     78  O   UNL A   1      47.265  28.318  22.143  1.00  0.00    -0.744 OA
ENDBRANCH  71  75
ENDBRANCH  44  68
BRANCH  56  79
ATOM     79  C   UNL A   1      44.931  33.585  29.234  1.00  0.00     0.023 A 
ATOM     80  C   UNL A   1      44.909  34.571  28.232  1.00  0.00     0.031 A 
ATOM     81  C   UNL A   1      45.610  33.871  30.432  1.00  0.00     0.131 A 
ATOM     82  C   UNL A   1      45.597  35.778  28.426  1.00  0.00     0.055 A 
ATOM     83  C   UNL A   1      46.248  35.094  30.639  1.00  0.00     0.041 A 
ATOM     84  F   UNL A   1      45.664  32.964  31.420  1.00  0.00    -0.206 F 
ATOM     85  C   UNL A   1      46.255  36.052  29.629  1.00  0.00     0.022 A 
BRANCH  82  86
ATOM     86  S   UNL A   1      45.695  36.958  27.052  1.00  0.00     0.124 S 
ATOM     87  O   UNL A   1      46.192  36.120  25.966  1.00  0.00    -0.237 OA
ATOM     88  O   UNL A   1      44.313  37.409  26.927  1.00  0.00    -0.237 OA
ATOM     89  O   UNL A   1      46.634  37.969  27.534  1.00  0.00    -0.744 OA
ENDBRANCH  82  86
ENDBRANCH  56  79
ENDBRANCH  30  31
ENDBRANCH  23  25
ENDBRANCH  22  23
ENDBRANCH   1  22
TORSDOF 16
ENDMDL
MODEL 2
REMARK VINA RESULT:     -12.0      5.093     10.143
REMARK SMILES COc1c(C(=O)OCCOC(=O)c2ccc(-c3c4nc(c(-c5cc(S(=O)(=O)[O-])ccc5F)c5ccc([nH]5)c(-c5cc(S(=O)(=O)[O-])ccc5F)c5nc(c(-c6cc(S(=O)(=O)[O-])ccc6F)c6ccc3[nH]6)C=C5)C=C4)cc2)cccc1-c1cc(C)ccc1C
REMARK SMILES IDX 9 1 8 2 7 3 5 4 6 5 4 6 3 7 79 8 76 9 78 10 77 11 2 12 1 13
REMARK SMILES IDX 80 14 81 15 86 16 82 17 85 18 87 19 83 20 84 21 10 22 11 23
REMARK SMILES IDX 12 24 13 25 14 26 75 27 15 28 74 29 16 30 17 31 18 32 68 33
REMARK SMILES IDX 19 34 73 35 67 36 69 37 20 38 72 39 66 40 65 41 21 43 53 44
REMARK SMILES IDX 33 45 52 46 34 47 37 48 51 49 70 50 35 51 36 52 50 54 71 55
REMARK SMILES IDX 38 56 22 57 23 58 31 59 24 60 30 61 32 62 29 63 25 64 26 65
REMARK SMILES IDX 27 66 28 67 54 68 55 69 63 70 56 71 62 72 64 73 61 74 57 75
REMARK SMILES IDX 58 76 59 77 60 78 39 79 40 80 48 81 41 82 47 83 49 84 46 85
REMARK SMILES IDX 42 86 43 87 44 88 45 89
REMARK H PARENT 69 42 37 53
REMARK Flexibility Score: inf
ROOT
ATOM      1  C   UNL A   1      31.682  30.878  26.404  1.00  0.00     0.275 C 
ENDROOT
BRANCH   1   2
ATOM      2  C   UNL A   1      31.358  30.010  25.191  1.00  0.00     0.275 C 
BRANCH   2   3
ATOM      3  O   UNL A   1      31.655  28.629  25.475  1.00  0.00    -0.458 OA
BRANCH   3   4
ATOM      4  C   UNL A   1      30.999  27.702  24.735  1.00  0.00     0.342 C 
ATOM      5  O   UNL A   1      30.214  27.925  23.824  1.00  0.00    -0.246 OA
BRANCH   4   6
ATOM      6  C   UNL A   1      31.478  26.337  25.057  1.00  0.00     0.102 A 
ATOM      7  C   UNL A   1      32.673  25.802  24.550  1.00  0.00     0.141 A 
ATOM      8  C   UNL A   1      33.077  24.504  24.938  1.00  0.00     0.025 A 
ATOM      9  C   UNL A   1      30.694  25.583  25.943  1.00  0.00     0.019 A 
ATOM     10  C   UNL A   1      32.198  23.731  25.728  1.00  0.00     0.012 A 
ATOM     11  C   UNL A   1      31.019  24.265  26.231  1.00  0.00     0.002 A 
BRANCH   7  12
ATOM     12  O   UNL A   1      33.498  26.635  23.831  1.00  0.00    -0.495 OA
ATOM     13  C   UNL A   1      33.243  26.570  22.428  1.00  0.00     0.278 C 
ENDBRANCH   7  12
BRANCH   8  14
ATOM     14  C   UNL A   1      34.422  23.948  24.683  1.00  0.00    -0.011 A 
ATOM     15  C   UNL A   1      35.457  24.192  25.611  1.00  0.00     0.012 A 
ATOM     16  C   UNL A   1      34.736  23.267  23.485  1.00  0.00    -0.043 A 
ATOM     17  C   UNL A   1      36.773  23.773  25.371  1.00  0.00    -0.050 A 
ATOM     18  C   UNL A   1      36.047  22.808  23.275  1.00  0.00     0.004 A 
ATOM     19  C   UNL A   1      33.712  22.994  22.412  1.00  0.00     0.045 C 
ATOM     20  C   UNL A   1      37.858  24.125  26.345  1.00  0.00     0.044 C 
ATOM     21  C   UNL A   1      37.056  23.068  24.201  1.00  0.00     0.004 A 
ENDBRANCH   8  14
ENDBRANCH   4   6
ENDBRANCH   3   4
ENDBRANCH   2   3
ENDBRANCH   1   2
BRANCH   1  22
ATOM     22  O   UNL A   1      33.081  30.763  26.718  1.00  0.00    -0.458 OA
BRANCH  22  23
ATOM     23  C   UNL A   1      33.618  31.807  27.391  1.00  0.00     0.338 C 
ATOM     24  O   UNL A   1      33.100  32.881  27.640  1.00  0.00    -0.246 OA
BRANCH  23  25
ATOM     25  C   UNL A   1      34.953  31.418  27.867  1.00  0.00     0.060 A 
ATOM     26  C   UNL A   1      35.139  30.107  28.293  1.00  0.00     0.016 A 
ATOM     27  C   UNL A   1      35.978  32.350  27.994  1.00  0.00     0.016 A 
ATOM     28  C   UNL A   1      36.324  29.726  28.919  1.00  0.00     0.010 A 
ATOM     29  C   UNL A   1      37.199  31.948  28.550  1.00  0.00     0.010 A 
ATOM     30  C   UNL A   1      37.376  30.640  29.048  1.00  0.00    -0.014 A 
BRANCH  30  31
ATOM     31  C   UNL A   1      38.635  30.262  29.754  1.00  0.00     0.031 A 
ATOM     32  C   UNL A   1      39.583  29.285  29.109  1.00  0.00     0.074 A 
ATOM     33  C   UNL A   1      38.936  30.778  30.961  1.00  0.00     0.049 A 
ATOM     34  N   UNL A   1      40.600  28.644  29.626  1.00  0.00    -0.248 NA
ATOM     35  C   UNL A   1      39.336  28.977  27.694  1.00  0.00     0.031 C 
ATOM     36  C   UNL A   1      38.148  31.782  31.676  1.00  0.00     0.029 A 
ATOM     37  N   UNL A   1      39.989  30.520  31.808  1.00  0.00    -0.354 N 
ATOM     38  C   UNL A   1      41.078  27.811  28.619  1.00  0.00     0.074 A 
ATOM     39  C   UNL A   1      40.226  28.024  27.466  1.00  0.00     0.031 C 
ATOM     40  C   UNL A   1      38.749  32.066  32.842  1.00  0.00     0.029 A 
ATOM     41  C   UNL A   1      39.913  31.200  33.002  1.00  0.00     0.049 A 
ATOM     42  H   UNL A   1      40.726  29.908  31.581  1.00  0.00     0.167 HD
ATOM     43  C   UNL A   1      42.125  26.947  28.656  1.00  0.00     0.034 A 
ATOM     44  C   UNL A   1      40.657  31.100  34.122  1.00  0.00     0.034 A 
ATOM     45  C   UNL A   1      42.986  26.780  29.804  1.00  0.00     0.049 A 
ATOM     46  C   UNL A   1      41.781  30.100  34.166  1.00  0.00     0.074 A 
ATOM     47  C   UNL A   1      44.080  25.943  29.950  1.00  0.00     0.029 A 
ATOM     48  N   UNL A   1      42.853  27.465  31.006  1.00  0.00    -0.354 N 
ATOM     49  N   UNL A   1      42.177  29.260  33.238  1.00  0.00    -0.248 NA
ATOM     50  C   UNL A   1      42.550  30.023  35.415  1.00  0.00     0.031 C 
ATOM     51  C   UNL A   1      44.570  26.081  31.254  1.00  0.00     0.029 A 
ATOM     52  C   UNL A   1      43.829  27.056  31.902  1.00  0.00     0.049 A 
ATOM     53  H   UNL A   1      42.166  28.145  31.193  1.00  0.00     0.167 HD
ATOM     54  C   UNL A   1      43.250  28.565  33.786  1.00  0.00     0.074 A 
ATOM     55  C   UNL A   1      43.449  29.096  35.120  1.00  0.00     0.031 C 
ATOM     56  C   UNL A   1      44.004  27.579  33.237  1.00  0.00     0.034 A 
BRANCH  43  57
ATOM     57  C   UNL A   1      42.343  26.073  27.442  1.00  0.00     0.023 A 
ATOM     58  C   UNL A   1      41.880  24.746  27.381  1.00  0.00     0.031 A 
ATOM     59  C   UNL A   1      43.082  26.560  26.349  1.00  0.00     0.131 A 
ATOM     60  C   UNL A   1      42.239  23.928  26.297  1.00  0.00     0.055 A 
ATOM     61  C   UNL A   1      43.361  25.768  25.233  1.00  0.00     0.041 A 
ATOM     62  F   UNL A   1      43.569  27.811  26.356  1.00  0.00    -0.206 F 
ATOM     63  C   UNL A   1      42.956  24.437  25.212  1.00  0.00     0.022 A 
BRANCH  60  64
ATOM     64  S   UNL A   1      41.904  22.148  26.407  1.00  0.00     0.124 S 
ATOM     65  O   UNL A   1      40.456  22.107  26.214  1.00  0.00    -0.237 OA
ATOM     66  O   UNL A   1      42.711  21.609  25.318  1.00  0.00    -0.237 OA
ATOM     67  O   UNL A   1      42.355  21.798  27.752  1.00  0.00    -0.744 OA
ENDBRANCH  60  64
ENDBRANCH  43  57
BRANCH  44  68
ATOM     68  C   UNL A   1      40.310  31.914  35.322  1.00  0.00     0.023 A 
ATOM     69  C   UNL A   1      39.279  31.527  36.192  1.00  0.00     0.031 A 
ATOM     70  C   UNL A   1      41.002  33.106  35.605  1.00  0.00     0.131 A 
ATOM     71  C   UNL A   1      38.955  32.338  37.293  1.00  0.00     0.055 A 
ATOM     72  C   UNL A   1      40.709  33.881  36.727  1.00  0.00     0.041 A 
ATOM     73  F   UNL A   1      41.996  33.520  34.803  1.00  0.00    -0.206 F 
ATOM     74  C   UNL A   1      39.673  33.502  37.575  1.00  0.00     0.022 A 
BRANCH  71  75
ATOM     75  S   UNL A   1      37.540  31.874  38.329  1.00  0.00     0.124 S 
ATOM     76  O   UNL A   1      38.113  31.952  39.668  1.00  0.00    -0.237 OA
ATOM     77  O   UNL A   1      36.562  32.900  37.988  1.00  0.00    -0.237 OA
ATOM     78  O   UNL A   1      37.210  30.525  37.869  1.00  0.00    -0.744 OA
ENDBRANCH  71  75
ENDBRANCH  44  68
BRANCH  56  79
ATOM     79  C   UNL A   1      45.141  27.046  34.073  1.00  0.00     0.023 A 
ATOM     80  C   UNL A   1      44.985  25.924  34.907  1.00  0.00     0.031 A 
ATOM     81  C   UNL A   1      46.394  27.683  34.045  1.00  0.00     0.131 A 
ATOM     82  C   UNL A   1      46.050  25.505  35.717  1.00  0.00     0.055 A 
ATOM     83  C   UNL A   1      47.466  27.228  34.815  1.00  0.00     0.041 A 
ATOM     84  F   UNL A   1      46.597  28.759  33.269  1.00  0.00    -0.206 F 
ATOM     85  C   UNL A   1      47.294  26.140  35.667  1.00  0.00     0.022 A 
BRANCH  82  86
ATOM     86  S   UNL A   1      45.767  24.164  36.908  1.00  0.00     0.124 S 
ATOM     87  O   UNL A   1      44.998  23.211  36.115  1.00  0.00    -0.237 OA
ATOM     88  O   UNL A   1      47.127  23.758  37.250  1.00  0.00    -0.237 OA
ATOM     89  O   UNL A   1      45.026  24.815  37.987  1.00  0.00    -0.744 OA
ENDBRANCH  82  86
ENDBRANCH  56  79
ENDBRANCH  30  31
ENDBRANCH  23  25
ENDBRANCH  22  23
ENDBRANCH   1  22
TORSDOF 16
ENDMDL
MODEL 3
REMARK VINA RESULT:     -11.8      1.122      1.880
REMARK SMILES COc1c(C(=O)OCCOC(=O)c2ccc(-c3c4nc(c(-c5cc(S(=O)(=O)[O-])ccc5F)c5ccc([nH]5)c(-c5cc(S(=O)(=O)[O-])ccc5F)c5nc(c(-c6cc(S(=O)(=O)[O-])ccc6F)c6ccc3[nH]6)C=C5)C=C4)cc2)cccc1-c1cc(C)ccc1C
REMARK SMILES IDX 9 1 8 2 7 3 5 4 6 5 4 6 3 7 79 8 76 9 78 10 77 11 2 12 1 13
REMARK SMILES IDX 80 14 81 15 86 16 82 17 85 18 87 19 83 20 84 21 10 22 11 23
REMARK SMILES IDX 12 24 13 25 14 26 75 27 15 28 74 29 16 30 17 31 18 32 68 33
REMARK SMILES IDX 19 34 73 35 67 36 69 37 20 38 72 39 66 40 65 41 21 43 53 44
REMARK SMILES IDX 33 45 52 46 34 47 37 48 51 49 70 50 35 51 36 52 50 54 71 55
REMARK SMILES IDX 38 56 22 57 23 58 31 59 24 60 30 61 32 62 29 63 25 64 26 65
REMARK SMILES IDX 27 66 28 67 54 68 55 69 63 70 56 71 62 72 64 73 61 74 57 75
REMARK SMILES IDX 58 76 59 77 60 78 39 79 40 80 48 81 41 82 47 83 49 84 46 85
REMARK SMILES IDX 42 86 43 87 44 88 45 89
REMARK H PARENT 69 42 37 53
REMARK Flexibility Score: inf
ROOT
ATOM      1  C   UNL A   1      36.013  20.635  25.041  1.00  0.00     0.275 C 
ENDROOT
BRANCH   1   2
ATOM      2  C   UNL A   1      34.586  21.142  25.232  1.00  0.00     0.275 C 
BRANCH   2   3
ATOM      3  O   UNL A   1      34.244  22.067  24.182  1.00  0.00    -0.458 OA
BRANCH   3   4
ATOM      4  C   UNL A   1      32.946  22.091  23.794  1.00  0.00     0.342 C 
ATOM      5  O   UNL A   1      32.423  21.357  22.966  1.00  0.00    -0.246 OA
BRANCH   4   6
ATOM      6  C   UNL A   1      32.164  23.032  24.630  1.00  0.00     0.102 A 
ATOM      7  C   UNL A   1      32.196  24.424  24.456  1.00  0.00     0.141 A 
ATOM      8  C   UNL A   1      31.389  25.250  25.273  1.00  0.00     0.025 A 
ATOM      9  C   UNL A   1      31.335  22.468  25.613  1.00  0.00     0.019 A 
ATOM     10  C   UNL A   1      30.669  24.654  26.332  1.00  0.00     0.012 A 
ATOM     11  C   UNL A   1      30.636  23.275  26.499  1.00  0.00     0.002 A 
BRANCH   7  12
ATOM     12  O   UNL A   1      32.880  24.922  23.371  1.00  0.00    -0.495 OA
ATOM     13  C   UNL A   1      34.084  25.589  23.752  1.00  0.00     0.278 C 
ENDBRANCH   7  12
BRANCH   8  14
ATOM     14  C   UNL A   1      31.143  26.682  25.011  1.00  0.00    -0.011 A 
ATOM     15  C   UNL A   1      30.229  27.052  24.001  1.00  0.00     0.012 A 
ATOM     16  C   UNL A   1      31.874  27.700  25.666  1.00  0.00    -0.043 A 
ATOM     17  C   UNL A   1      30.031  28.392  23.644  1.00  0.00    -0.050 A 
ATOM     18  C   UNL A   1      31.634  29.044  25.336  1.00  0.00     0.004 A 
ATOM     19  C   UNL A   1      32.904  27.407  26.727  1.00  0.00     0.045 C 
ATOM     20  C   UNL A   1      29.111  28.736  22.510  1.00  0.00     0.044 C 
ATOM     21  C   UNL A   1      30.732  29.386  24.329  1.00  0.00     0.004 A 
ENDBRANCH   8  14
ENDBRANCH   4   6
ENDBRANCH   3   4
ENDBRANCH   2   3
ENDBRANCH   1   2
BRANCH   1  22
ATOM     22  O   UNL A   1      36.944  21.684  25.357  1.00  0.00    -0.458 OA
BRANCH  22  23
ATOM     23  C   UNL A   1      38.200  21.281  25.662  1.00  0.00     0.338 C 
ATOM     24  O   UNL A   1      38.720  20.208  25.416  1.00  0.00    -0.246 OA
BRANCH  23  25
ATOM     25  C   UNL A   1      38.908  22.402  26.297  1.00  0.00     0.060 A 
ATOM     26  C   UNL A   1      38.421  23.688  26.086  1.00  0.00     0.016 A 
ATOM     27  C   UNL A   1      40.092  22.206  27.000  1.00  0.00     0.016 A 
ATOM     28  C   UNL A   1      39.145  24.799  26.510  1.00  0.00     0.010 A 
ATOM     29  C   UNL A   1      40.781  23.320  27.497  1.00  0.00     0.010 A 
ATOM     30  C   UNL A   1      40.333  24.630  27.232  1.00  0.00    -0.014 A 
BRANCH  30  31
ATOM     31  C   UNL A   1      41.143  25.809  27.656  1.00  0.00     0.031 A 
ATOM     32  C   UNL A   1      40.514  26.871  28.520  1.00  0.00     0.074 A 
ATOM     33  C   UNL A   1      42.429  25.941  27.275  1.00  0.00     0.049 A 
ATOM     34  N   UNL A   1      40.945  28.072  28.811  1.00  0.00    -0.248 NA
ATOM     35  C   UNL A   1      39.216  26.535  29.119  1.00  0.00     0.031 C 
ATOM     36  C   UNL A   1      43.189  24.963  26.496  1.00  0.00     0.029 A 
ATOM     37  N   UNL A   1      43.326  26.961  27.488  1.00  0.00    -0.354 N 
ATOM     38  C   UNL A   1      39.942  28.660  29.577  1.00  0.00     0.074 A 
ATOM     39  C   UNL A   1      38.879  27.682  29.690  1.00  0.00     0.031 C 
ATOM     40  C   UNL A   1      44.436  25.422  26.309  1.00  0.00     0.029 A 
ATOM     41  C   UNL A   1      44.540  26.764  26.873  1.00  0.00     0.049 A 
ATOM     42  H   UNL A   1      43.118  27.758  28.029  1.00  0.00     0.167 HD
ATOM     43  C   UNL A   1      39.911  29.901  30.128  1.00  0.00     0.034 A 
ATOM     44  C   UNL A   1      45.598  27.586  26.725  1.00  0.00     0.034 A 
ATOM     45  C   UNL A   1      40.999  30.846  30.035  1.00  0.00     0.049 A 
ATOM     46  C   UNL A   1      45.529  28.977  27.296  1.00  0.00     0.074 A 
ATOM     47  C   UNL A   1      41.082  32.124  30.562  1.00  0.00     0.029 A 
ATOM     48  N   UNL A   1      42.200  30.616  29.374  1.00  0.00    -0.354 N 
ATOM     49  N   UNL A   1      44.547  29.553  27.952  1.00  0.00    -0.248 NA
ATOM     50  C   UNL A   1      46.703  29.835  27.096  1.00  0.00     0.031 C 
ATOM     51  C   UNL A   1      42.304  32.685  30.171  1.00  0.00     0.029 A 
ATOM     52  C   UNL A   1      43.018  31.734  29.461  1.00  0.00     0.049 A 
ATOM     53  H   UNL A   1      42.436  29.780  28.911  1.00  0.00     0.167 HD
ATOM     54  C   UNL A   1      44.992  30.836  28.252  1.00  0.00     0.074 A 
ATOM     55  C   UNL A   1      46.337  30.944  27.722  1.00  0.00     0.031 C 
ATOM     56  C   UNL A   1      44.349  31.835  28.910  1.00  0.00     0.034 A 
BRANCH  43  57
ATOM     57  C   UNL A   1      38.631  30.320  30.814  1.00  0.00     0.023 A 
ATOM     58  C   UNL A   1      37.587  30.962  30.125  1.00  0.00     0.031 A 
ATOM     59  C   UNL A   1      38.481  30.127  32.199  1.00  0.00     0.131 A 
ATOM     60  C   UNL A   1      36.486  31.468  30.834  1.00  0.00     0.055 A 
ATOM     61  C   UNL A   1      37.342  30.555  32.885  1.00  0.00     0.041 A 
ATOM     62  F   UNL A   1      39.451  29.540  32.917  1.00  0.00    -0.206 F 
ATOM     63  C   UNL A   1      36.346  31.248  32.206  1.00  0.00     0.022 A 
BRANCH  60  64
ATOM     64  S   UNL A   1      35.328  32.566  29.970  1.00  0.00     0.124 S 
ATOM     65  O   UNL A   1      34.896  31.723  28.857  1.00  0.00    -0.237 OA
ATOM     66  O   UNL A   1      34.326  32.836  30.995  1.00  0.00    -0.237 OA
ATOM     67  O   UNL A   1      36.158  33.708  29.590  1.00  0.00    -0.744 OA
ENDBRANCH  60  64
ENDBRANCH  43  57
BRANCH  44  68
ATOM     68  C   UNL A   1      46.783  27.142  25.936  1.00  0.00     0.023 A 
ATOM     69  C   UNL A   1      47.018  27.628  24.641  1.00  0.00     0.031 A 
ATOM     70  C   UNL A   1      47.691  26.209  26.468  1.00  0.00     0.131 A 
ATOM     71  C   UNL A   1      48.125  27.160  23.911  1.00  0.00     0.055 A 
ATOM     72  C   UNL A   1      48.815  25.785  25.758  1.00  0.00     0.041 A 
ATOM     73  F   UNL A   1      47.510  25.713  27.702  1.00  0.00    -0.206 F 
ATOM     74  C   UNL A   1      49.033  26.255  24.467  1.00  0.00     0.022 A 
BRANCH  71  75
ATOM     75  S   UNL A   1      48.335  27.715  22.197  1.00  0.00     0.124 S 
ATOM     76  O   UNL A   1      48.399  26.446  21.479  1.00  0.00    -0.237 OA
ATOM     77  O   UNL A   1      47.132  28.513  21.985  1.00  0.00    -0.237 OA
ATOM     78  O   UNL A   1      49.584  28.473  22.236  1.00  0.00    -0.744 OA
ENDBRANCH  71  75
ENDBRANCH  44  68
BRANCH  56  79
ATOM     79  C   UNL A   1      45.119  33.115  29.124  1.00  0.00     0.023 A 
ATOM     80  C   UNL A   1      45.040  34.187  28.218  1.00  0.00     0.031 A 
ATOM     81  C   UNL A   1      45.956  33.253  30.245  1.00  0.00     0.131 A 
ATOM     82  C   UNL A   1      45.825  35.331  28.422  1.00  0.00     0.055 A 
ATOM     83  C   UNL A   1      46.695  34.415  30.470  1.00  0.00     0.041 A 
ATOM     84  F   UNL A   1      46.070  32.259  31.140  1.00  0.00    -0.206 F 
ATOM     85  C   UNL A   1      46.642  35.459  29.550  1.00  0.00     0.022 A 
BRANCH  82  86
ATOM     86  S   UNL A   1      45.834  36.624  27.149  1.00  0.00     0.124 S 
ATOM     87  O   UNL A   1      44.408  36.860  26.946  1.00  0.00    -0.237 OA
ATOM     88  O   UNL A   1      46.572  37.701  27.801  1.00  0.00    -0.237 OA
ATOM     89  O   UNL A   1      46.524  35.994  26.025  1.00  0.00    -0.744 OA
ENDBRANCH  82  86
ENDBRANCH  56  79
ENDBRANCH  30  31
ENDBRANCH  23  25
ENDBRANCH  22  23
ENDBRANCH   1  22
TORSDOF 16
ENDMDL
