MODEL 1
REMARK VINA RESULT:     -13.3      0.000      0.000
REMARK SMILES C[C@H](C(=O)OCCOC(=O)c1ccc(-c2c3nc(c(-c4cc(S(=O)(=O)[O-])ccc4F)c4ccc([nH]4)c(-c4cc(S(=O)(=O)[O-])ccc4F)c4nc(c(-c5cc(S(=O)(=O)[O-])ccc5F)c5ccc2[nH]5)C=C4)C=C3)cc1)c1ccc2c3cc(Cl)ccc3n(C(=O)c3ccc(Cl)cc3)c2c1
REMARK SMILES IDX 6 1 5 2 3 3 4 4 2 5 1 6 74 7 75 8 96 9 76 10 95 11 77 12
REMARK SMILES IDX 85 13 78 14 84 15 79 16 83 17 80 18 82 19 81 20 86 21 87 22
REMARK SMILES IDX 88 23 89 24 94 25 90 26 93 27 91 28 92 29 7 30 8 31 9 32
REMARK SMILES IDX 10 33 11 34 12 35 73 36 13 37 72 38 14 39 15 40 16 41 66 42
REMARK SMILES IDX 17 43 71 44 65 45 67 46 18 47 70 48 64 49 63 50 19 52 51 53
REMARK SMILES IDX 31 54 50 55 32 56 35 57 49 58 68 59 33 60 34 61 48 63 69 64
REMARK SMILES IDX 36 65 20 66 21 67 29 68 22 69 28 70 30 71 27 72 23 73 24 74
REMARK SMILES IDX 25 75 26 76 52 77 53 78 61 79 54 80 60 81 62 82 59 83 55 84
REMARK SMILES IDX 56 85 57 86 58 87 37 88 38 89 46 90 39 91 45 92 47 93 44 94
REMARK SMILES IDX 40 95 41 96 42 97 43 98
REMARK H PARENT 67 51 35 62
REMARK Flexibility Score: inf
ROOT
ATOM      1  C   UNL A   1      31.405  29.701  24.145  1.00  0.00     0.274 C 
ENDROOT
BRANCH   1   2
ATOM      2  O   UNL A   1      30.258  28.879  23.856  1.00  0.00    -0.462 OA
BRANCH   2   3
ATOM      3  C   UNL A   1      30.497  27.667  23.274  1.00  0.00     0.313 C 
ATOM      4  O   UNL A   1      30.658  27.502  22.070  1.00  0.00    -0.252 OA
BRANCH   3   5
ATOM      5  C   UNL A   1      30.460  26.530  24.301  1.00  0.00     0.126 C 
ATOM      6  C   UNL A   1      29.444  25.453  23.909  1.00  0.00     0.025 C 
BRANCH   5   7
ATOM      7  C   UNL A   1      31.842  25.980  24.642  1.00  0.00    -0.032 A 
ATOM      8  C   UNL A   1      32.829  26.687  25.333  1.00  0.00     0.005 A 
ATOM      9  C   UNL A   1      32.117  24.660  24.253  1.00  0.00     0.032 A 
ATOM     10  C   UNL A   1      34.065  26.096  25.643  1.00  0.00     0.011 A 
ATOM     11  C   UNL A   1      33.365  24.076  24.534  1.00  0.00     0.057 A 
ATOM     12  C   UNL A   1      34.339  24.770  25.240  1.00  0.00     0.008 A 
ATOM     13  N   UNL A   1      33.845  22.793  24.248  1.00  0.00    -0.276 N 
ATOM     14  C   UNL A   1      35.468  23.908  25.360  1.00  0.00     0.009 A 
ATOM     15  C   UNL A   1      35.172  22.713  24.687  1.00  0.00     0.057 A 
ATOM     16  C   UNL A   1      36.744  24.079  25.945  1.00  0.00     0.031 A 
ATOM     17  C   UNL A   1      36.166  21.732  24.495  1.00  0.00     0.029 A 
ATOM     18  C   UNL A   1      37.703  23.077  25.802  1.00  0.00     0.041 A 
ATOM     19  C   UNL A   1      37.425  21.927  25.075  1.00  0.00     0.023 A 
ATOM     20  Cl  UNL A   1      39.263  23.280  26.501  1.00  0.00    -0.084 Cl
BRANCH  13  21
ATOM     21  C   UNL A   1      33.074  21.816  23.566  1.00  0.00     0.262 C 
ATOM     22  O   UNL A   1      32.495  22.197  22.546  1.00  0.00    -0.268 OA
BRANCH  21  23
ATOM     23  C   UNL A   1      32.826  20.394  23.944  1.00  0.00     0.040 A 
ATOM     24  C   UNL A   1      33.029  20.052  25.297  1.00  0.00     0.015 A 
ATOM     25  C   UNL A   1      32.527  19.375  23.036  1.00  0.00     0.015 A 
ATOM     26  C   UNL A   1      32.901  18.735  25.740  1.00  0.00     0.021 A 
ATOM     27  C   UNL A   1      32.363  18.056  23.486  1.00  0.00     0.021 A 
ATOM     28  C   UNL A   1      32.552  17.743  24.834  1.00  0.00     0.041 A 
ATOM     29  Cl  UNL A   1      32.377  16.121  25.375  1.00  0.00    -0.084 Cl
ENDBRANCH  21  23
ENDBRANCH  13  21
ENDBRANCH   5   7
ENDBRANCH   3   5
ENDBRANCH   2   3
ENDBRANCH   1   2
BRANCH   1  30
ATOM     30  C   UNL A   1      31.405  30.083  25.623  1.00  0.00     0.275 C 
BRANCH  30  31
ATOM     31  O   UNL A   1      32.765  30.234  26.054  1.00  0.00    -0.458 OA
BRANCH  31  32
ATOM     32  C   UNL A   1      32.998  31.216  26.955  1.00  0.00     0.338 C 
ATOM     33  O   UNL A   1      32.300  32.184  27.191  1.00  0.00    -0.246 OA
BRANCH  32  34
ATOM     34  C   UNL A   1      34.295  30.951  27.605  1.00  0.00     0.060 A 
ATOM     35  C   UNL A   1      34.689  29.642  27.885  1.00  0.00     0.016 A 
ATOM     36  C   UNL A   1      35.102  32.020  27.987  1.00  0.00     0.016 A 
ATOM     37  C   UNL A   1      35.858  29.394  28.601  1.00  0.00     0.010 A 
ATOM     38  C   UNL A   1      36.316  31.767  28.633  1.00  0.00     0.010 A 
ATOM     39  C   UNL A   1      36.694  30.454  28.972  1.00  0.00    -0.014 A 
BRANCH  39  40
ATOM     40  C   UNL A   1      37.936  30.211  29.757  1.00  0.00     0.031 A 
ATOM     41  C   UNL A   1      39.033  29.367  29.165  1.00  0.00     0.074 A 
ATOM     42  C   UNL A   1      38.080  30.728  30.994  1.00  0.00     0.049 A 
ATOM     43  N   UNL A   1      40.093  28.860  29.738  1.00  0.00    -0.248 NA
ATOM     44  C   UNL A   1      38.905  29.037  27.737  1.00  0.00     0.031 C 
ATOM     45  C   UNL A   1      37.121  31.608  31.664  1.00  0.00     0.029 A 
ATOM     46  N   UNL A   1      39.089  30.579  31.913  1.00  0.00    -0.354 N 
ATOM     47  C   UNL A   1      40.732  28.108  28.757  1.00  0.00     0.074 A 
ATOM     48  C   UNL A   1      39.930  28.218  27.557  1.00  0.00     0.031 C 
ATOM     49  C   UNL A   1      37.595  31.933  32.877  1.00  0.00     0.029 A 
ATOM     50  C   UNL A   1      38.846  31.221  33.106  1.00  0.00     0.049 A 
ATOM     51  H   UNL A   1      39.909  30.064  31.736  1.00  0.00     0.167 HD
ATOM     52  C   UNL A   1      41.880  27.393  28.852  1.00  0.00     0.034 A 
ATOM     53  C   UNL A   1      39.527  31.200  34.270  1.00  0.00     0.034 A 
ATOM     54  C   UNL A   1      42.686  27.323  30.048  1.00  0.00     0.049 A 
ATOM     55  C   UNL A   1      40.771  30.354  34.370  1.00  0.00     0.074 A 
ATOM     56  C   UNL A   1      43.875  26.643  30.251  1.00  0.00     0.029 A 
ATOM     57  N   UNL A   1      42.388  27.964  31.244  1.00  0.00    -0.354 N 
ATOM     58  N   UNL A   1      41.336  29.602  33.453  1.00  0.00    -0.248 NA
ATOM     59  C   UNL A   1      41.463  30.346  35.666  1.00  0.00     0.031 C 
ATOM     60  C   UNL A   1      44.264  26.824  31.583  1.00  0.00     0.029 A 
ATOM     61  C   UNL A   1      43.357  27.674  32.194  1.00  0.00     0.049 A 
ATOM     62  H   UNL A   1      41.604  28.539  31.397  1.00  0.00     0.167 HD
ATOM     63  C   UNL A   1      42.460  29.048  34.057  1.00  0.00     0.074 A 
ATOM     64  C   UNL A   1      42.502  29.566  35.410  1.00  0.00     0.031 C 
ATOM     65  C   UNL A   1      43.376  28.190  33.543  1.00  0.00     0.034 A 
BRANCH  52  66
ATOM     66  C   UNL A   1      42.293  26.578  27.649  1.00  0.00     0.023 A 
ATOM     67  C   UNL A   1      42.232  25.175  27.642  1.00  0.00     0.031 A 
ATOM     68  C   UNL A   1      42.789  27.223  26.502  1.00  0.00     0.131 A 
ATOM     69  C   UNL A   1      42.724  24.460  26.538  1.00  0.00     0.055 A 
ATOM     70  C   UNL A   1      43.204  26.508  25.376  1.00  0.00     0.041 A 
ATOM     71  F   UNL A   1      42.891  28.560  26.459  1.00  0.00    -0.206 F 
ATOM     72  C   UNL A   1      43.188  25.117  25.396  1.00  0.00     0.022 A 
BRANCH  69  73
ATOM     73  S   UNL A   1      42.880  22.657  26.671  1.00  0.00     0.124 S 
ATOM     74  O   UNL A   1      42.278  22.216  25.414  1.00  0.00    -0.237 OA
ATOM     75  O   UNL A   1      44.321  22.472  26.788  1.00  0.00    -0.237 OA
ATOM     76  O   UNL A   1      42.108  22.333  27.870  1.00  0.00    -0.744 OA
ENDBRANCH  69  73
ENDBRANCH  52  66
BRANCH  53  77
ATOM     77  C   UNL A   1      39.018  31.944  35.458  1.00  0.00     0.023 A 
ATOM     78  C   UNL A   1      38.397  31.272  36.523  1.00  0.00     0.031 A 
ATOM     79  C   UNL A   1      39.106  33.347  35.524  1.00  0.00     0.131 A 
ATOM     80  C   UNL A   1      37.854  32.004  37.590  1.00  0.00     0.055 A 
ATOM     81  C   UNL A   1      38.612  34.066  36.614  1.00  0.00     0.041 A 
ATOM     82  F   UNL A   1      39.686  34.040  34.532  1.00  0.00    -0.206 F 
ATOM     83  C   UNL A   1      37.970  33.396  37.650  1.00  0.00     0.022 A 
BRANCH  80  84
ATOM     84  S   UNL A   1      36.915  31.118  38.864  1.00  0.00     0.124 S 
ATOM     85  O   UNL A   1      35.689  31.904  38.932  1.00  0.00    -0.237 OA
ATOM     86  O   UNL A   1      36.793  29.787  38.279  1.00  0.00    -0.237 OA
ATOM     87  O   UNL A   1      37.777  31.202  40.041  1.00  0.00    -0.744 OA
ENDBRANCH  80  84
ENDBRANCH  53  77
BRANCH  65  88
ATOM     88  C   UNL A   1      44.523  27.800  34.440  1.00  0.00     0.023 A 
ATOM     89  C   UNL A   1      44.394  26.788  35.408  1.00  0.00     0.031 A 
ATOM     90  C   UNL A   1      45.756  28.470  34.341  1.00  0.00     0.131 A 
ATOM     91  C   UNL A   1      45.463  26.510  36.272  1.00  0.00     0.055 A 
ATOM     92  C   UNL A   1      46.833  28.151  35.168  1.00  0.00     0.041 A 
ATOM     93  F   UNL A   1      45.931  29.445  33.435  1.00  0.00    -0.206 F 
ATOM     94  C   UNL A   1      46.686  27.175  36.149  1.00  0.00     0.022 A 
BRANCH  91  95
ATOM     95  S   UNL A   1      45.208  25.324  37.622  1.00  0.00     0.124 S 
ATOM     96  O   UNL A   1      45.976  24.171  37.162  1.00  0.00    -0.237 OA
ATOM     97  O   UNL A   1      45.756  26.037  38.771  1.00  0.00    -0.237 OA
ATOM     98  O   UNL A   1      43.759  25.136  37.645  1.00  0.00    -0.744 OA
ENDBRANCH  91  95
ENDBRANCH  65  88
ENDBRANCH  39  40
ENDBRANCH  32  34
ENDBRANCH  31  32
ENDBRANCH  30  31
ENDBRANCH   1  30
TORSDOF 17
ENDMDL
MODEL 2
REMARK VINA RESULT:     -12.9      0.721      7.251
REMARK SMILES C[C@H](C(=O)OCCOC(=O)c1ccc(-c2c3nc(c(-c4cc(S(=O)(=O)[O-])ccc4F)c4ccc([nH]4)c(-c4cc(S(=O)(=O)[O-])ccc4F)c4nc(c(-c5cc(S(=O)(=O)[O-])ccc5F)c5ccc2[nH]5)C=C4)C=C3)cc1)c1ccc2c3cc(Cl)ccc3n(C(=O)c3ccc(Cl)cc3)c2c1
REMARK SMILES IDX 6 1 5 2 3 3 4 4 2 5 1 6 74 7 75 8 96 9 76 10 95 11 77 12
REMARK SMILES IDX 85 13 78 14 84 15 79 16 83 17 80 18 82 19 81 20 86 21 87 22
REMARK SMILES IDX 88 23 89 24 94 25 90 26 93 27 91 28 92 29 7 30 8 31 9 32
REMARK SMILES IDX 10 33 11 34 12 35 73 36 13 37 72 38 14 39 15 40 16 41 66 42
REMARK SMILES IDX 17 43 71 44 65 45 67 46 18 47 70 48 64 49 63 50 19 52 51 53
REMARK SMILES IDX 31 54 50 55 32 56 35 57 49 58 68 59 33 60 34 61 48 63 69 64
REMARK SMILES IDX 36 65 20 66 21 67 29 68 22 69 28 70 30 71 27 72 23 73 24 74
REMARK SMILES IDX 25 75 26 76 52 77 53 78 61 79 54 80 60 81 62 82 59 83 55 84
REMARK SMILES IDX 56 85 57 86 58 87 37 88 38 89 46 90 39 91 45 92 47 93 44 94
REMARK SMILES IDX 40 95 41 96 42 97 43 98
REMARK H PARENT 67 51 35 62
REMARK Flexibility Score: inf
ROOT
ATOM      1  C   UNL A   1      31.362  29.830  24.249  1.00  0.00     0.274 C 
ENDROOT
BRANCH   1   2
ATOM      2  O   UNL A   1      30.261  28.910  24.114  1.00  0.00    -0.462 OA
BRANCH   2   3
ATOM      3  C   UNL A   1      30.531  27.704  23.532  1.00  0.00     0.313 C 
ATOM      4  O   UNL A   1      30.712  27.546  22.331  1.00  0.00    -0.252 OA
BRANCH   3   5
ATOM      5  C   UNL A   1      30.499  26.564  24.556  1.00  0.00     0.126 C 
ATOM      6  C   UNL A   1      29.451  25.510  24.189  1.00  0.00     0.025 C 
BRANCH   5   7
ATOM      7  C   UNL A   1      31.880  25.985  24.857  1.00  0.00    -0.032 A 
ATOM      8  C   UNL A   1      32.897  26.667  25.529  1.00  0.00     0.005 A 
ATOM      9  C   UNL A   1      32.119  24.665  24.447  1.00  0.00     0.032 A 
ATOM     10  C   UNL A   1      34.128  26.049  25.801  1.00  0.00     0.011 A 
ATOM     11  C   UNL A   1      33.362  24.054  24.690  1.00  0.00     0.057 A 
ATOM     12  C   UNL A   1      34.367  24.722  25.378  1.00  0.00     0.008 A 
ATOM     13  N   UNL A   1      33.811  22.766  24.380  1.00  0.00    -0.276 N 
ATOM     14  C   UNL A   1      35.482  23.838  25.460  1.00  0.00     0.009 A 
ATOM     15  C   UNL A   1      35.146  22.656  24.783  1.00  0.00     0.057 A 
ATOM     16  C   UNL A   1      36.775  23.979  26.014  1.00  0.00     0.031 A 
ATOM     17  C   UNL A   1      36.117  21.659  24.556  1.00  0.00     0.029 A 
ATOM     18  C   UNL A   1      37.711  22.961  25.837  1.00  0.00     0.041 A 
ATOM     19  C   UNL A   1      37.393  21.824  25.105  1.00  0.00     0.023 A 
ATOM     20  Cl  UNL A   1      39.292  23.127  26.498  1.00  0.00    -0.084 Cl
BRANCH  13  21
ATOM     21  C   UNL A   1      33.005  21.811  23.708  1.00  0.00     0.262 C 
ATOM     22  O   UNL A   1      32.348  22.231  22.752  1.00  0.00    -0.268 OA
BRANCH  21  23
ATOM     23  C   UNL A   1      32.802  20.368  24.031  1.00  0.00     0.040 A 
ATOM     24  C   UNL A   1      32.984  19.987  25.377  1.00  0.00     0.015 A 
ATOM     25  C   UNL A   1      32.567  19.370  23.082  1.00  0.00     0.015 A 
ATOM     26  C   UNL A   1      32.897  18.653  25.773  1.00  0.00     0.021 A 
ATOM     27  C   UNL A   1      32.443  18.031  23.485  1.00  0.00     0.021 A 
ATOM     28  C   UNL A   1      32.610  17.679  24.825  1.00  0.00     0.041 A 
ATOM     29  Cl  UNL A   1      32.485  16.034  25.308  1.00  0.00    -0.084 Cl
ENDBRANCH  21  23
ENDBRANCH  13  21
ENDBRANCH   5   7
ENDBRANCH   3   5
ENDBRANCH   2   3
ENDBRANCH   1   2
BRANCH   1  30
ATOM     30  C   UNL A   1      31.445  30.326  25.689  1.00  0.00     0.275 C 
BRANCH  30  31
ATOM     31  O   UNL A   1      32.819  30.304  26.101  1.00  0.00    -0.458 OA
BRANCH  31  32
ATOM     32  C   UNL A   1      33.188  31.248  26.996  1.00  0.00     0.338 C 
ATOM     33  O   UNL A   1      32.612  32.289  27.254  1.00  0.00    -0.246 OA
BRANCH  32  34
ATOM     34  C   UNL A   1      34.466  30.835  27.607  1.00  0.00     0.060 A 
ATOM     35  C   UNL A   1      34.746  29.483  27.807  1.00  0.00     0.016 A 
ATOM     36  C   UNL A   1      35.368  31.805  28.033  1.00  0.00     0.016 A 
ATOM     37  C   UNL A   1      35.898  29.093  28.487  1.00  0.00     0.010 A 
ATOM     38  C   UNL A   1      36.564  31.411  28.642  1.00  0.00     0.010 A 
ATOM     39  C   UNL A   1      36.829  30.053  28.901  1.00  0.00    -0.014 A 
BRANCH  39  40
ATOM     40  C   UNL A   1      38.054  29.658  29.650  1.00  0.00     0.031 A 
ATOM     41  C   UNL A   1      38.274  30.188  31.041  1.00  0.00     0.074 A 
ATOM     42  C   UNL A   1      38.971  28.844  29.089  1.00  0.00     0.049 A 
ATOM     43  N   UNL A   1      39.347  30.146  31.788  1.00  0.00    -0.248 NA
ATOM     44  C   UNL A   1      37.132  30.872  31.667  1.00  0.00     0.031 C 
ATOM     45  C   UNL A   1      38.856  28.216  27.772  1.00  0.00     0.029 A 
ATOM     46  N   UNL A   1      40.187  28.412  29.556  1.00  0.00    -0.354 N 
ATOM     47  C   UNL A   1      39.029  30.842  32.950  1.00  0.00     0.074 A 
ATOM     48  C   UNL A   1      37.665  31.305  32.800  1.00  0.00     0.031 C 
ATOM     49  C   UNL A   1      39.947  27.468  27.544  1.00  0.00     0.029 A 
ATOM     50  C   UNL A   1      40.876  27.628  28.657  1.00  0.00     0.049 A 
ATOM     51  H   UNL A   1      40.535  28.640  30.449  1.00  0.00     0.167 HD
ATOM     52  C   UNL A   1      39.805  31.074  34.037  1.00  0.00     0.034 A 
ATOM     53  C   UNL A   1      42.130  27.135  28.702  1.00  0.00     0.034 A 
ATOM     54  C   UNL A   1      41.151  30.573  34.183  1.00  0.00     0.049 A 
ATOM     55  C   UNL A   1      42.994  27.450  29.896  1.00  0.00     0.074 A 
ATOM     56  C   UNL A   1      42.021  30.733  35.249  1.00  0.00     0.029 A 
ATOM     57  N   UNL A   1      41.821  29.809  33.237  1.00  0.00    -0.354 N 
ATOM     58  N   UNL A   1      42.702  28.158  30.964  1.00  0.00    -0.248 NA
ATOM     59  C   UNL A   1      44.360  26.911  29.886  1.00  0.00     0.031 C 
ATOM     60  C   UNL A   1      43.234  30.117  34.923  1.00  0.00     0.029 A 
ATOM     61  C   UNL A   1      43.101  29.512  33.683  1.00  0.00     0.049 A 
ATOM     62  H   UNL A   1      41.444  29.521  32.374  1.00  0.00     0.167 HD
ATOM     63  C   UNL A   1      43.844  28.128  31.760  1.00  0.00     0.074 A 
ATOM     64  C   UNL A   1      44.820  27.321  31.058  1.00  0.00     0.031 C 
ATOM     65  C   UNL A   1      44.066  28.715  32.963  1.00  0.00     0.034 A 
BRANCH  52  66
ATOM     66  C   UNL A   1      39.236  31.958  35.122  1.00  0.00     0.023 A 
ATOM     67  C   UNL A   1      38.714  31.433  36.316  1.00  0.00     0.031 A 
ATOM     68  C   UNL A   1      39.187  33.351  34.938  1.00  0.00     0.131 A 
ATOM     69  C   UNL A   1      38.103  32.287  37.247  1.00  0.00     0.055 A 
ATOM     70  C   UNL A   1      38.649  34.204  35.903  1.00  0.00     0.041 A 
ATOM     71  F   UNL A   1      39.651  33.908  33.808  1.00  0.00    -0.206 F 
ATOM     72  C   UNL A   1      38.088  33.672  37.060  1.00  0.00     0.022 A 
BRANCH  69  73
ATOM     73  S   UNL A   1      37.205  31.553  38.641  1.00  0.00     0.124 S 
ATOM     74  O   UNL A   1      37.028  30.175  38.185  1.00  0.00    -0.237 OA
ATOM     75  O   UNL A   1      38.131  31.744  39.750  1.00  0.00    -0.237 OA
ATOM     76  O   UNL A   1      35.975  32.340  38.711  1.00  0.00    -0.744 OA
ENDBRANCH  69  73
ENDBRANCH  52  66
BRANCH  53  77
ATOM     77  C   UNL A   1      42.675  26.351  27.557  1.00  0.00     0.023 A 
ATOM     78  C   UNL A   1      42.551  24.953  27.510  1.00  0.00     0.031 A 
ATOM     79  C   UNL A   1      43.371  26.986  26.511  1.00  0.00     0.131 A 
ATOM     80  C   UNL A   1      43.146  24.233  26.463  1.00  0.00     0.055 A 
ATOM     81  C   UNL A   1      43.914  26.270  25.444  1.00  0.00     0.041 A 
ATOM     82  F   UNL A   1      43.523  28.320  26.508  1.00  0.00    -0.206 F 
ATOM     83  C   UNL A   1      43.814  24.883  25.421  1.00  0.00     0.022 A 
BRANCH  80  84
ATOM     84  S   UNL A   1      43.107  22.420  26.523  1.00  0.00     0.124 S 
ATOM     85  O   UNL A   1      44.521  22.088  26.399  1.00  0.00    -0.237 OA
ATOM     86  O   UNL A   1      42.501  22.174  27.826  1.00  0.00    -0.237 OA
ATOM     87  O   UNL A   1      42.278  22.060  25.374  1.00  0.00    -0.744 OA
ENDBRANCH  80  84
ENDBRANCH  53  77
BRANCH  65  88
ATOM     88  C   UNL A   1      45.405  28.459  33.608  1.00  0.00     0.023 A 
ATOM     89  C   UNL A   1      45.616  27.366  34.467  1.00  0.00     0.031 A 
ATOM     90  C   UNL A   1      46.478  29.338  33.377  1.00  0.00     0.131 A 
ATOM     91  C   UNL A   1      46.855  27.209  35.104  1.00  0.00     0.055 A 
ATOM     92  C   UNL A   1      47.725  29.146  33.972  1.00  0.00     0.041 A 
ATOM     93  F   UNL A   1      46.330  30.399  32.566  1.00  0.00    -0.206 F 
ATOM     94  C   UNL A   1      47.915  28.084  34.851  1.00  0.00     0.022 A 
BRANCH  91  95
ATOM     95  S   UNL A   1      47.040  25.894  36.340  1.00  0.00     0.124 S 
ATOM     96  O   UNL A   1      48.409  25.445  36.103  1.00  0.00    -0.237 OA
ATOM     97  O   UNL A   1      46.812  26.607  37.592  1.00  0.00    -0.237 OA
ATOM     98  O   UNL A   1      46.001  24.932  35.977  1.00  0.00    -0.744 OA
ENDBRANCH  91  95
ENDBRANCH  65  88
ENDBRANCH  39  40
ENDBRANCH  32  34
ENDBRANCH  31  32
ENDBRANCH  30  31
ENDBRANCH   1  30
TORSDOF 17
ENDMDL
MODEL 3
REMARK VINA RESULT:     -12.4      3.012      8.685
REMARK SMILES C[C@H](C(=O)OCCOC(=O)c1ccc(-c2c3nc(c(-c4cc(S(=O)(=O)[O-])ccc4F)c4ccc([nH]4)c(-c4cc(S(=O)(=O)[O-])ccc4F)c4nc(c(-c5cc(S(=O)(=O)[O-])ccc5F)c5ccc2[nH]5)C=C4)C=C3)cc1)c1ccc2c3cc(Cl)ccc3n(C(=O)c3ccc(Cl)cc3)c2c1
REMARK SMILES IDX 6 1 5 2 3 3 4 4 2 5 1 6 74 7 75 8 96 9 76 10 95 11 77 12
REMARK SMILES IDX 85 13 78 14 84 15 79 16 83 17 80 18 82 19 81 20 86 21 87 22
REMARK SMILES IDX 88 23 89 24 94 25 90 26 93 27 91 28 92 29 7 30 8 31 9 32
REMARK SMILES IDX 10 33 11 34 12 35 73 36 13 37 72 38 14 39 15 40 16 41 66 42
REMARK SMILES IDX 17 43 71 44 65 45 67 46 18 47 70 48 64 49 63 50 19 52 51 53
REMARK SMILES IDX 31 54 50 55 32 56 35 57 49 58 68 59 33 60 34 61 48 63 69 64
REMARK SMILES IDX 36 65 20 66 21 67 29 68 22 69 28 70 30 71 27 72 23 73 24 74
REMARK SMILES IDX 25 75 26 76 52 77 53 78 61 79 54 80 60 81 62 82 59 83 55 84
REMARK SMILES IDX 56 85 57 86 58 87 37 88 38 89 46 90 39 91 45 92 47 93 44 94
REMARK SMILES IDX 40 95 41 96 42 97 43 98
REMARK H PARENT 67 51 35 62
REMARK Flexibility Score: inf
ROOT
ATOM      1  C   UNL A   1      33.951  34.210  28.002  1.00  0.00     0.274 C 
ENDROOT
BRANCH   1   2
ATOM      2  O   UNL A   1      32.940  33.239  27.666  1.00  0.00    -0.462 OA
BRANCH   2   3
ATOM      3  C   UNL A   1      33.330  31.931  27.616  1.00  0.00     0.313 C 
ATOM      4  O   UNL A   1      34.470  31.546  27.843  1.00  0.00    -0.252 OA
BRANCH   3   5
ATOM      5  C   UNL A   1      32.185  31.017  27.166  1.00  0.00     0.126 C 
ATOM      6  C   UNL A   1      31.159  31.779  26.321  1.00  0.00     0.025 C 
BRANCH   5   7
ATOM      7  C   UNL A   1      32.667  29.717  26.528  1.00  0.00    -0.032 A 
ATOM      8  C   UNL A   1      33.949  29.185  26.683  1.00  0.00     0.005 A 
ATOM      9  C   UNL A   1      31.737  29.003  25.757  1.00  0.00     0.032 A 
ATOM     10  C   UNL A   1      34.303  27.960  26.093  1.00  0.00     0.011 A 
ATOM     11  C   UNL A   1      32.098  27.792  25.139  1.00  0.00     0.057 A 
ATOM     12  C   UNL A   1      33.366  27.250  25.311  1.00  0.00     0.008 A 
ATOM     13  N   UNL A   1      31.343  26.924  24.344  1.00  0.00    -0.276 N 
ATOM     14  C   UNL A   1      33.409  26.034  24.568  1.00  0.00     0.009 A 
ATOM     15  C   UNL A   1      32.172  25.878  23.924  1.00  0.00     0.057 A 
ATOM     16  C   UNL A   1      34.431  25.082  24.351  1.00  0.00     0.031 A 
ATOM     17  C   UNL A   1      31.979  24.847  22.983  1.00  0.00     0.029 A 
ATOM     18  C   UNL A   1      34.210  24.030  23.464  1.00  0.00     0.041 A 
ATOM     19  C   UNL A   1      33.007  23.921  22.776  1.00  0.00     0.023 A 
ATOM     20  Cl  UNL A   1      35.451  22.870  23.185  1.00  0.00    -0.084 Cl
BRANCH  13  21
ATOM     21  C   UNL A   1      29.985  27.170  24.011  1.00  0.00     0.262 C 
ATOM     22  O   UNL A   1      29.163  26.364  24.455  1.00  0.00    -0.268 OA
BRANCH  21  23
ATOM     23  C   UNL A   1      29.416  28.247  23.150  1.00  0.00     0.040 A 
ATOM     24  C   UNL A   1      30.332  29.001  22.387  1.00  0.00     0.015 A 
ATOM     25  C   UNL A   1      28.072  28.629  23.144  1.00  0.00     0.015 A 
ATOM     26  C   UNL A   1      29.915  30.082  21.610  1.00  0.00     0.021 A 
ATOM     27  C   UNL A   1      27.645  29.693  22.335  1.00  0.00     0.021 A 
ATOM     28  C   UNL A   1      28.568  30.414  21.575  1.00  0.00     0.041 A 
ATOM     29  Cl  UNL A   1      28.043  31.735  20.607  1.00  0.00    -0.084 Cl
ENDBRANCH  21  23
ENDBRANCH  13  21
ENDBRANCH   5   7
ENDBRANCH   3   5
ENDBRANCH   2   3
ENDBRANCH   1   2
BRANCH   1  30
ATOM     30  C   UNL A   1      33.317  35.371  28.761  1.00  0.00     0.275 C 
BRANCH  30  31
ATOM     31  O   UNL A   1      32.735  34.862  29.970  1.00  0.00    -0.458 OA
BRANCH  31  32
ATOM     32  C   UNL A   1      33.303  35.278  31.125  1.00  0.00     0.338 C 
ATOM     33  O   UNL A   1      32.969  36.223  31.815  1.00  0.00    -0.246 OA
BRANCH  32  34
ATOM     34  C   UNL A   1      34.460  34.409  31.413  1.00  0.00     0.060 A 
ATOM     35  C   UNL A   1      34.273  33.053  31.682  1.00  0.00     0.016 A 
ATOM     36  C   UNL A   1      35.736  34.962  31.469  1.00  0.00     0.016 A 
ATOM     37  C   UNL A   1      35.347  32.254  32.068  1.00  0.00     0.010 A 
ATOM     38  C   UNL A   1      36.827  34.142  31.775  1.00  0.00     0.010 A 
ATOM     39  C   UNL A   1      36.641  32.786  32.105  1.00  0.00    -0.014 A 
BRANCH  39  40
ATOM     40  C   UNL A   1      37.798  31.955  32.537  1.00  0.00     0.031 A 
ATOM     41  C   UNL A   1      38.453  32.231  33.864  1.00  0.00     0.074 A 
ATOM     42  C   UNL A   1      38.270  30.970  31.747  1.00  0.00     0.049 A 
ATOM     43  N   UNL A   1      39.583  31.780  34.344  1.00  0.00    -0.248 NA
ATOM     44  C   UNL A   1      37.744  33.154  34.763  1.00  0.00     0.031 C 
ATOM     45  C   UNL A   1      37.696  30.560  30.465  1.00  0.00     0.029 A 
ATOM     46  N   UNL A   1      39.351  30.137  31.906  1.00  0.00    -0.354 N 
ATOM     47  C   UNL A   1      39.748  32.403  35.576  1.00  0.00     0.074 A 
ATOM     48  C   UNL A   1      38.605  33.273  35.762  1.00  0.00     0.031 C 
ATOM     49  C   UNL A   1      38.418  29.546  29.963  1.00  0.00     0.029 A 
ATOM     50  C   UNL A   1      39.553  29.288  30.841  1.00  0.00     0.049 A 
ATOM     51  H   UNL A   1      39.926  30.145  32.705  1.00  0.00     0.167 HD
ATOM     52  C   UNL A   1      40.760  32.261  36.468  1.00  0.00     0.034 A 
ATOM     53  C   UNL A   1      40.563  28.435  30.577  1.00  0.00     0.034 A 
ATOM     54  C   UNL A   1      41.874  31.362  36.281  1.00  0.00     0.049 A 
ATOM     55  C   UNL A   1      41.705  28.334  31.555  1.00  0.00     0.074 A 
ATOM     56  C   UNL A   1      42.945  31.127  37.127  1.00  0.00     0.029 A 
ATOM     57  N   UNL A   1      42.056  30.543  35.175  1.00  0.00    -0.354 N 
ATOM     58  N   UNL A   1      41.880  28.971  32.692  1.00  0.00    -0.248 NA
ATOM     59  C   UNL A   1      42.793  27.409  31.210  1.00  0.00     0.031 C 
ATOM     60  C   UNL A   1      43.803  30.211  36.506  1.00  0.00     0.029 A 
ATOM     61  C   UNL A   1      43.234  29.821  35.305  1.00  0.00     0.049 A 
ATOM     62  H   UNL A   1      41.441  30.483  34.409  1.00  0.00     0.167 HD
ATOM     63  C   UNL A   1      43.087  28.505  33.205  1.00  0.00     0.074 A 
ATOM     64  C   UNL A   1      43.588  27.525  32.264  1.00  0.00     0.031 C 
ATOM     65  C   UNL A   1      43.725  28.855  34.350  1.00  0.00     0.034 A 
BRANCH  52  66
ATOM     66  C   UNL A   1      40.738  33.148  37.691  1.00  0.00     0.023 A 
ATOM     67  C   UNL A   1      40.137  32.744  38.894  1.00  0.00     0.031 A 
ATOM     68  C   UNL A   1      41.303  34.434  37.635  1.00  0.00     0.131 A 
ATOM     69  C   UNL A   1      40.052  33.643  39.969  1.00  0.00     0.055 A 
ATOM     70  C   UNL A   1      41.284  35.296  38.734  1.00  0.00     0.041 A 
ATOM     71  F   UNL A   1      41.872  34.883  36.506  1.00  0.00    -0.206 F 
ATOM     72  C   UNL A   1      40.642  34.908  39.905  1.00  0.00     0.022 A 
BRANCH  69  73
ATOM     73  S   UNL A   1      39.038  33.188  41.403  1.00  0.00     0.124 S 
ATOM     74  O   UNL A   1      37.795  33.903  41.124  1.00  0.00    -0.237 OA
ATOM     75  O   UNL A   1      38.977  31.735  41.298  1.00  0.00    -0.237 OA
ATOM     76  O   UNL A   1      39.801  33.701  42.540  1.00  0.00    -0.744 OA
ENDBRANCH  69  73
ENDBRANCH  52  66
BRANCH  53  77
ATOM     77  C   UNL A   1      40.584  27.658  29.304  1.00  0.00     0.023 A 
ATOM     78  C   UNL A   1      41.469  27.991  28.266  1.00  0.00     0.031 A 
ATOM     79  C   UNL A   1      39.686  26.596  29.091  1.00  0.00     0.131 A 
ATOM     80  C   UNL A   1      41.410  27.296  27.048  1.00  0.00     0.055 A 
ATOM     81  C   UNL A   1      39.669  25.873  27.897  1.00  0.00     0.041 A 
ATOM     82  F   UNL A   1      38.816  26.239  30.048  1.00  0.00    -0.206 F 
ATOM     83  C   UNL A   1      40.526  26.229  26.862  1.00  0.00     0.022 A 
BRANCH  80  84
ATOM     84  S   UNL A   1      42.452  27.859  25.674  1.00  0.00     0.124 S 
ATOM     85  O   UNL A   1      42.256  26.796  24.696  1.00  0.00    -0.237 OA
ATOM     86  O   UNL A   1      41.852  29.149  25.350  1.00  0.00    -0.237 OA
ATOM     87  O   UNL A   1      43.787  27.927  26.265  1.00  0.00    -0.744 OA
ENDBRANCH  80  84
ENDBRANCH  53  77
BRANCH  65  88
ATOM     88  C   UNL A   1      45.011  28.133  34.661  1.00  0.00     0.023 A 
ATOM     89  C   UNL A   1      45.026  26.929  35.387  1.00  0.00     0.031 A 
ATOM     90  C   UNL A   1      46.241  28.671  34.243  1.00  0.00     0.131 A 
ATOM     91  C   UNL A   1      46.250  26.330  35.719  1.00  0.00     0.055 A 
ATOM     92  C   UNL A   1      47.453  28.042  34.530  1.00  0.00     0.041 A 
ATOM     93  F   UNL A   1      46.283  29.820  33.548  1.00  0.00    -0.206 F 
ATOM     94  C   UNL A   1      47.463  26.872  35.283  1.00  0.00     0.022 A 
BRANCH  91  95
ATOM     95  S   UNL A   1      46.244  24.877  36.805  1.00  0.00     0.124 S 
ATOM     96  O   UNL A   1      47.372  24.107  36.288  1.00  0.00    -0.237 OA
ATOM     97  O   UNL A   1      46.432  25.472  38.124  1.00  0.00    -0.237 OA
ATOM     98  O   UNL A   1      44.929  24.281  36.576  1.00  0.00    -0.744 OA
ENDBRANCH  91  95
ENDBRANCH  65  88
ENDBRANCH  39  40
ENDBRANCH  32  34
ENDBRANCH  31  32
ENDBRANCH  30  31
ENDBRANCH   1  30
TORSDOF 17
ENDMDL
