MODEL 1
REMARK VINA RESULT:     -10.2      0.000      0.000
REMARK SMILES CCCN(CC)c1ccnc(C(=O)OCCOC(=O)c2ccc(-c3c4nc(c(-c5cc(S(=O)(=O)[O-])ccc5F)c5ccc([nH]5)c(-c5cc(S(=O)(=O)[O-])ccc5F)c5nc(c(-c6cc(S(=O)(=O)[O-])ccc6F)c6ccc3[nH]6)C=C5)C=C4)cc2)c1
REMARK SMILES IDX 15 1 14 2 12 3 13 4 11 5 7 6 8 7 83 8 9 9 10 10 4 11 3 12
REMARK SMILES IDX 2 13 1 14 5 15 6 16 16 17 17 18 18 19 19 20 20 21 21 22
REMARK SMILES IDX 82 23 22 24 81 25 23 26 24 27 25 28 75 29 26 30 80 31 74 32
REMARK SMILES IDX 76 33 27 34 79 35 73 36 72 37 28 39 60 40 40 41 59 42 41 43
REMARK SMILES IDX 44 44 58 45 77 46 42 47 43 48 57 50 78 51 45 52 29 53 30 54
REMARK SMILES IDX 38 55 31 56 37 57 39 58 36 59 32 60 33 61 34 62 35 63 61 64
REMARK SMILES IDX 62 65 70 66 63 67 69 68 71 69 68 70 64 71 65 72 66 73 67 74
REMARK SMILES IDX 46 75 47 76 55 77 48 78 54 79 56 80 53 81 49 82 50 83 51 84
REMARK SMILES IDX 52 85
REMARK H PARENT 76 38 44 49
REMARK Flexibility Score: inf
ROOT
ATOM      1  C   UNL A   1      35.143  20.748  24.706  1.00  0.00     0.275 C 
ENDROOT
BRANCH   1   2
ATOM      2  O   UNL A   1      34.967  22.174  24.619  1.00  0.00    -0.457 OA
BRANCH   2   3
ATOM      3  C   UNL A   1      33.795  22.584  24.060  1.00  0.00     0.357 C 
ATOM      4  O   UNL A   1      33.368  22.199  22.980  1.00  0.00    -0.244 OA
BRANCH   3   5
ATOM      5  C   UNL A   1      33.067  23.550  24.946  1.00  0.00     0.150 A 
ATOM      6  C   UNL A   1      32.437  25.767  25.631  1.00  0.00     0.041 A 
ATOM      7  C   UNL A   1      31.624  25.175  26.598  1.00  0.00     0.046 A 
ATOM      8  C   UNL A   1      33.194  24.927  24.810  1.00  0.00     0.062 A 
ATOM      9  C   UNL A   1      31.582  23.796  26.696  1.00  0.00     0.114 A 
ATOM     10  N   UNL A   1      32.261  22.974  25.877  1.00  0.00    -0.249 NA
BRANCH   6  11
ATOM     11  N   UNL A   1      32.441  27.138  25.441  1.00  0.00    -0.372 N 
BRANCH  11  12
ATOM     12  C   UNL A   1      31.191  27.900  25.361  1.00  0.00     0.116 C 
BRANCH  12  13
ATOM     13  C   UNL A   1      30.633  27.983  23.936  1.00  0.00     0.018 C 
ATOM     14  C   UNL A   1      29.568  26.924  23.671  1.00  0.00     0.006 C 
ENDBRANCH  12  13
ENDBRANCH  11  12
BRANCH  11  15
ATOM     15  C   UNL A   1      33.722  27.807  25.224  1.00  0.00     0.113 C 
ATOM     16  C   UNL A   1      34.232  28.478  26.492  1.00  0.00     0.027 C 
ENDBRANCH  11  15
ENDBRANCH   6  11
ENDBRANCH   3   5
ENDBRANCH   2   3
ENDBRANCH   1   2
BRANCH   1  17
ATOM     17  C   UNL A   1      36.593  20.366  25.024  1.00  0.00     0.275 C 
BRANCH  17  18
ATOM     18  O   UNL A   1      37.305  21.417  25.701  1.00  0.00    -0.458 OA
BRANCH  18  19
ATOM     19  C   UNL A   1      38.610  21.148  25.952  1.00  0.00     0.338 C 
ATOM     20  O   UNL A   1      39.202  20.114  25.694  1.00  0.00    -0.246 OA
BRANCH  19  21
ATOM     21  C   UNL A   1      39.283  22.349  26.478  1.00  0.00     0.060 A 
ATOM     22  C   UNL A   1      38.775  23.592  26.101  1.00  0.00     0.016 A 
ATOM     23  C   UNL A   1      40.439  22.267  27.259  1.00  0.00     0.016 A 
ATOM     24  C   UNL A   1      39.414  24.763  26.497  1.00  0.00     0.010 A 
ATOM     25  C   UNL A   1      41.085  23.447  27.654  1.00  0.00     0.010 A 
ATOM     26  C   UNL A   1      40.581  24.702  27.267  1.00  0.00    -0.014 A 
BRANCH  26  27
ATOM     27  C   UNL A   1      41.302  25.958  27.599  1.00  0.00     0.031 A 
ATOM     28  C   UNL A   1      40.617  27.013  28.421  1.00  0.00     0.074 A 
ATOM     29  C   UNL A   1      42.578  26.130  27.205  1.00  0.00     0.049 A 
ATOM     30  N   UNL A   1      41.032  28.209  28.752  1.00  0.00    -0.248 NA
ATOM     31  C   UNL A   1      39.284  26.673  28.938  1.00  0.00     0.031 C 
ATOM     32  C   UNL A   1      43.369  25.148  26.463  1.00  0.00     0.029 A 
ATOM     33  N   UNL A   1      43.436  27.187  27.380  1.00  0.00    -0.354 N 
ATOM     34  C   UNL A   1      40.004  28.775  29.499  1.00  0.00     0.074 A 
ATOM     35  C   UNL A   1      38.937  27.796  29.551  1.00  0.00     0.031 C 
ATOM     36  C   UNL A   1      44.597  25.647  26.250  1.00  0.00     0.029 A 
ATOM     37  C   UNL A   1      44.664  27.003  26.789  1.00  0.00     0.049 A 
ATOM     38  H   UNL A   1      43.196  27.999  27.882  1.00  0.00     0.167 HD
ATOM     39  C   UNL A   1      39.957  29.998  30.084  1.00  0.00     0.034 A 
ATOM     40  C   UNL A   1      45.711  27.844  26.666  1.00  0.00     0.034 A 
ATOM     41  C   UNL A   1      41.033  30.959  30.023  1.00  0.00     0.049 A 
ATOM     42  C   UNL A   1      45.606  29.227  27.258  1.00  0.00     0.074 A 
ATOM     43  C   UNL A   1      41.091  32.228  30.576  1.00  0.00     0.029 A 
ATOM     44  N   UNL A   1      42.243  30.759  29.370  1.00  0.00    -0.354 N 
ATOM     45  N   UNL A   1      44.612  29.768  27.924  1.00  0.00    -0.248 NA
ATOM     46  C   UNL A   1      46.764  30.114  27.078  1.00  0.00     0.031 C 
ATOM     47  C   UNL A   1      42.307  32.816  30.205  1.00  0.00     0.029 A 
ATOM     48  C   UNL A   1      43.041  31.890  29.481  1.00  0.00     0.049 A 
ATOM     49  H   UNL A   1      42.498  29.935  28.896  1.00  0.00     0.167 HD
ATOM     50  C   UNL A   1      45.034  31.052  28.259  1.00  0.00     0.074 A 
ATOM     51  C   UNL A   1      46.377  31.197  27.736  1.00  0.00     0.031 C 
ATOM     52  C   UNL A   1      44.372  32.023  28.939  1.00  0.00     0.034 A 
BRANCH  39  53
ATOM     53  C   UNL A   1      38.673  30.382  30.778  1.00  0.00     0.023 A 
ATOM     54  C   UNL A   1      37.621  31.019  30.099  1.00  0.00     0.031 A 
ATOM     55  C   UNL A   1      38.517  30.138  32.155  1.00  0.00     0.131 A 
ATOM     56  C   UNL A   1      36.491  31.454  30.812  1.00  0.00     0.055 A 
ATOM     57  C   UNL A   1      37.359  30.506  32.842  1.00  0.00     0.041 A 
ATOM     58  F   UNL A   1      39.498  29.553  32.861  1.00  0.00    -0.206 F 
ATOM     59  C   UNL A   1      36.344  31.181  32.173  1.00  0.00     0.022 A 
BRANCH  56  60
ATOM     60  S   UNL A   1      35.277  32.502  29.962  1.00  0.00     0.124 S 
ATOM     61  O   UNL A   1      34.747  31.585  28.955  1.00  0.00    -0.237 OA
ATOM     62  O   UNL A   1      34.364  32.865  31.038  1.00  0.00    -0.237 OA
ATOM     63  O   UNL A   1      36.084  33.599  29.431  1.00  0.00    -0.744 OA
ENDBRANCH  56  60
ENDBRANCH  39  53
BRANCH  40  64
ATOM     64  C   UNL A   1      46.921  27.434  25.898  1.00  0.00     0.023 A 
ATOM     65  C   UNL A   1      47.092  27.802  24.554  1.00  0.00     0.031 A 
ATOM     66  C   UNL A   1      47.907  26.625  26.491  1.00  0.00     0.131 A 
ATOM     67  C   UNL A   1      48.203  27.329  23.836  1.00  0.00     0.055 A 
ATOM     68  C   UNL A   1      49.037  26.202  25.789  1.00  0.00     0.041 A 
ATOM     69  F   UNL A   1      47.789  26.240  27.771  1.00  0.00    -0.206 F 
ATOM     70  C   UNL A   1      49.183  26.544  24.449  1.00  0.00     0.022 A 
BRANCH  67  71
ATOM     71  S   UNL A   1      48.311  27.689  22.061  1.00  0.00     0.124 S 
ATOM     72  O   UNL A   1      48.535  26.361  21.501  1.00  0.00    -0.237 OA
ATOM     73  O   UNL A   1      47.008  28.287  21.791  1.00  0.00    -0.237 OA
ATOM     74  O   UNL A   1      49.446  28.605  21.967  1.00  0.00    -0.744 OA
ENDBRANCH  67  71
ENDBRANCH  40  64
BRANCH  52  75
ATOM     75  C   UNL A   1      45.119  33.311  29.184  1.00  0.00     0.023 A 
ATOM     76  C   UNL A   1      45.152  34.341  28.228  1.00  0.00     0.031 A 
ATOM     77  C   UNL A   1      45.824  33.500  30.387  1.00  0.00     0.131 A 
ATOM     78  C   UNL A   1      45.917  35.492  28.468  1.00  0.00     0.055 A 
ATOM     79  C   UNL A   1      46.540  34.670  30.642  1.00  0.00     0.041 A 
ATOM     80  F   UNL A   1      45.826  32.547  31.333  1.00  0.00    -0.206 F 
ATOM     81  C   UNL A   1      46.599  35.668  29.675  1.00  0.00     0.022 A 
BRANCH  78  82
ATOM     82  S   UNL A   1      46.079  36.725  27.148  1.00  0.00     0.124 S 
ATOM     83  O   UNL A   1      47.194  37.538  27.625  1.00  0.00    -0.237 OA
ATOM     84  O   UNL A   1      46.350  35.897  25.976  1.00  0.00    -0.237 OA
ATOM     85  O   UNL A   1      44.780  37.396  27.142  1.00  0.00    -0.744 OA
ENDBRANCH  78  82
ENDBRANCH  52  75
ENDBRANCH  26  27
ENDBRANCH  19  21
ENDBRANCH  18  19
ENDBRANCH  17  18
ENDBRANCH   1  17
TORSDOF 18
ENDMDL
MODEL 2
REMARK VINA RESULT:      -9.9      1.015      7.829
REMARK SMILES CCCN(CC)c1ccnc(C(=O)OCCOC(=O)c2ccc(-c3c4nc(c(-c5cc(S(=O)(=O)[O-])ccc5F)c5ccc([nH]5)c(-c5cc(S(=O)(=O)[O-])ccc5F)c5nc(c(-c6cc(S(=O)(=O)[O-])ccc6F)c6ccc3[nH]6)C=C5)C=C4)cc2)c1
REMARK SMILES IDX 15 1 14 2 12 3 13 4 11 5 7 6 8 7 83 8 9 9 10 10 4 11 3 12
REMARK SMILES IDX 2 13 1 14 5 15 6 16 16 17 17 18 18 19 19 20 20 21 21 22
REMARK SMILES IDX 82 23 22 24 81 25 23 26 24 27 25 28 75 29 26 30 80 31 74 32
REMARK SMILES IDX 76 33 27 34 79 35 73 36 72 37 28 39 60 40 40 41 59 42 41 43
REMARK SMILES IDX 44 44 58 45 77 46 42 47 43 48 57 50 78 51 45 52 29 53 30 54
REMARK SMILES IDX 38 55 31 56 37 57 39 58 36 59 32 60 33 61 34 62 35 63 61 64
REMARK SMILES IDX 62 65 70 66 63 67 69 68 71 69 68 70 64 71 65 72 66 73 67 74
REMARK SMILES IDX 46 75 47 76 55 77 48 78 54 79 56 80 53 81 49 82 50 83 51 84
REMARK SMILES IDX 52 85
REMARK H PARENT 76 38 44 49
REMARK Flexibility Score: inf
ROOT
ATOM      1  C   UNL A   1      36.702  22.362  23.857  1.00  0.00     0.275 C 
ENDROOT
BRANCH   1   2
ATOM      2  O   UNL A   1      35.765  23.124  24.641  1.00  0.00    -0.457 OA
BRANCH   2   3
ATOM      3  C   UNL A   1      34.886  23.881  23.928  1.00  0.00     0.357 C 
ATOM      4  O   UNL A   1      34.787  23.865  22.709  1.00  0.00    -0.244 OA
BRANCH   3   5
ATOM      5  C   UNL A   1      34.027  24.721  24.824  1.00  0.00     0.150 A 
ATOM      6  C   UNL A   1      33.215  26.830  25.647  1.00  0.00     0.041 A 
ATOM      7  C   UNL A   1      32.347  26.109  26.467  1.00  0.00     0.046 A 
ATOM      8  C   UNL A   1      34.092  26.109  24.831  1.00  0.00     0.062 A 
ATOM      9  C   UNL A   1      32.369  24.727  26.430  1.00  0.00     0.114 A 
ATOM     10  N   UNL A   1      33.167  24.021  25.610  1.00  0.00    -0.249 NA
BRANCH   6  11
ATOM     11  N   UNL A   1      33.164  28.212  25.588  1.00  0.00    -0.372 N 
BRANCH  11  12
ATOM     12  C   UNL A   1      32.982  28.913  24.314  1.00  0.00     0.116 C 
BRANCH  12  13
ATOM     13  C   UNL A   1      31.632  28.613  23.655  1.00  0.00     0.018 C 
ATOM     14  C   UNL A   1      31.787  27.856  22.340  1.00  0.00     0.006 C 
ENDBRANCH  12  13
ENDBRANCH  11  12
BRANCH  11  15
ATOM     15  C   UNL A   1      33.392  28.969  26.816  1.00  0.00     0.113 C 
ATOM     16  C   UNL A   1      34.857  28.951  27.229  1.00  0.00     0.027 C 
ENDBRANCH  11  15
ENDBRANCH   6  11
ENDBRANCH   3   5
ENDBRANCH   2   3
ENDBRANCH   1   2
BRANCH   1  17
ATOM     17  C   UNL A   1      37.298  21.192  24.648  1.00  0.00     0.275 C 
BRANCH  17  18
ATOM     18  O   UNL A   1      37.680  21.568  25.984  1.00  0.00    -0.458 OA
BRANCH  18  19
ATOM     19  C   UNL A   1      39.003  21.436  26.254  1.00  0.00     0.338 C 
ATOM     20  O   UNL A   1      39.700  20.464  26.018  1.00  0.00    -0.246 OA
BRANCH  19  21
ATOM     21  C   UNL A   1      39.543  22.705  26.772  1.00  0.00     0.060 A 
ATOM     22  C   UNL A   1      38.921  23.887  26.367  1.00  0.00     0.016 A 
ATOM     23  C   UNL A   1      40.687  22.750  27.573  1.00  0.00     0.016 A 
ATOM     24  C   UNL A   1      39.433  25.121  26.754  1.00  0.00     0.010 A 
ATOM     25  C   UNL A   1      41.205  23.994  27.961  1.00  0.00     0.010 A 
ATOM     26  C   UNL A   1      40.586  25.187  27.545  1.00  0.00    -0.014 A 
BRANCH  26  27
ATOM     27  C   UNL A   1      41.173  26.513  27.869  1.00  0.00     0.031 A 
ATOM     28  C   UNL A   1      42.587  26.819  27.465  1.00  0.00     0.074 A 
ATOM     29  C   UNL A   1      40.425  27.452  28.479  1.00  0.00     0.049 A 
ATOM     30  N   UNL A   1      43.315  27.876  27.720  1.00  0.00    -0.248 NA
ATOM     31  C   UNL A   1      43.273  25.794  26.665  1.00  0.00     0.031 C 
ATOM     32  C   UNL A   1      39.021  27.295  28.858  1.00  0.00     0.029 A 
ATOM     33  N   UNL A   1      40.740  28.726  28.883  1.00  0.00    -0.354 N 
ATOM     34  C   UNL A   1      44.552  27.637  27.131  1.00  0.00     0.074 A 
ATOM     35  C   UNL A   1      44.480  26.323  26.525  1.00  0.00     0.031 C 
ATOM     36  C   UNL A   1      38.594  28.431  29.435  1.00  0.00     0.029 A 
ATOM     37  C   UNL A   1      39.706  29.374  29.518  1.00  0.00     0.049 A 
ATOM     38  H   UNL A   1      41.621  29.138  28.731  1.00  0.00     0.167 HD
ATOM     39  C   UNL A   1      45.645  28.440  27.102  1.00  0.00     0.034 A 
ATOM     40  C   UNL A   1      39.669  30.576  30.127  1.00  0.00     0.034 A 
ATOM     41  C   UNL A   1      45.696  29.750  27.709  1.00  0.00     0.049 A 
ATOM     42  C   UNL A   1      40.919  31.419  30.149  1.00  0.00     0.074 A 
ATOM     43  C   UNL A   1      46.752  30.646  27.742  1.00  0.00     0.029 A 
ATOM     44  N   UNL A   1      44.646  30.352  28.391  1.00  0.00    -0.354 N 
ATOM     45  N   UNL A   1      42.098  31.164  29.627  1.00  0.00    -0.248 NA
ATOM     46  C   UNL A   1      40.835  32.710  30.845  1.00  0.00     0.031 C 
ATOM     47  C   UNL A   1      46.360  31.760  28.495  1.00  0.00     0.029 A 
ATOM     48  C   UNL A   1      45.037  31.594  28.872  1.00  0.00     0.049 A 
ATOM     49  H   UNL A   1      43.753  29.955  28.514  1.00  0.00     0.167 HD
ATOM     50  C   UNL A   1      42.888  32.273  29.916  1.00  0.00     0.074 A 
ATOM     51  C   UNL A   1      42.049  33.204  30.642  1.00  0.00     0.031 C 
ATOM     52  C   UNL A   1      44.191  32.503  29.608  1.00  0.00     0.034 A 
BRANCH  39  53
ATOM     53  C   UNL A   1      46.889  27.889  26.448  1.00  0.00     0.023 A 
ATOM     54  C   UNL A   1      47.161  28.079  25.082  1.00  0.00     0.031 A 
ATOM     55  C   UNL A   1      47.801  27.127  27.201  1.00  0.00     0.131 A 
ATOM     56  C   UNL A   1      48.275  27.457  24.497  1.00  0.00     0.055 A 
ATOM     57  C   UNL A   1      48.947  26.573  26.629  1.00  0.00     0.041 A 
ATOM     58  F   UNL A   1      47.583  26.893  28.505  1.00  0.00    -0.206 F 
ATOM     59  C   UNL A   1      49.182  26.724  25.266  1.00  0.00     0.022 A 
BRANCH  56  60
ATOM     60  S   UNL A   1      48.449  27.503  22.691  1.00  0.00     0.124 S 
ATOM     61  O   UNL A   1      47.263  28.260  22.299  1.00  0.00    -0.237 OA
ATOM     62  O   UNL A   1      49.728  28.180  22.514  1.00  0.00    -0.237 OA
ATOM     63  O   UNL A   1      48.433  26.092  22.309  1.00  0.00    -0.744 OA
ENDBRANCH  56  60
ENDBRANCH  39  53
BRANCH  40  64
ATOM     64  C   UNL A   1      38.433  31.030  30.825  1.00  0.00     0.023 A 
ATOM     65  C   UNL A   1      37.377  31.631  30.122  1.00  0.00     0.031 A 
ATOM     66  C   UNL A   1      38.311  30.910  32.221  1.00  0.00     0.131 A 
ATOM     67  C   UNL A   1      36.263  32.123  30.821  1.00  0.00     0.055 A 
ATOM     68  C   UNL A   1      37.179  31.352  32.906  1.00  0.00     0.041 A 
ATOM     69  F   UNL A   1      39.295  30.349  32.942  1.00  0.00    -0.206 F 
ATOM     70  C   UNL A   1      36.150  31.975  32.206  1.00  0.00     0.022 A 
BRANCH  67  71
ATOM     71  S   UNL A   1      34.991  33.035  29.903  1.00  0.00     0.124 S 
ATOM     72  O   UNL A   1      34.570  32.048  28.915  1.00  0.00    -0.237 OA
ATOM     73  O   UNL A   1      34.023  33.346  30.951  1.00  0.00    -0.237 OA
ATOM     74  O   UNL A   1      35.716  34.185  29.367  1.00  0.00    -0.744 OA
ENDBRANCH  67  71
ENDBRANCH  40  64
BRANCH  52  75
ATOM     75  C   UNL A   1      44.764  33.834  30.027  1.00  0.00     0.023 A 
ATOM     76  C   UNL A   1      44.687  34.967  29.197  1.00  0.00     0.031 A 
ATOM     77  C   UNL A   1      45.412  33.964  31.268  1.00  0.00     0.131 A 
ATOM     78  C   UNL A   1      45.297  36.166  29.596  1.00  0.00     0.055 A 
ATOM     79  C   UNL A   1      45.970  35.174  31.682  1.00  0.00     0.041 A 
ATOM     80  F   UNL A   1      45.514  32.913  32.098  1.00  0.00    -0.206 F 
ATOM     81  C   UNL A   1      45.924  36.280  30.839  1.00  0.00     0.022 A 
BRANCH  78  82
ATOM     82  S   UNL A   1      45.330  37.558  28.433  1.00  0.00     0.124 S 
ATOM     83  O   UNL A   1      44.045  37.418  27.754  1.00  0.00    -0.237 OA
ATOM     84  O   UNL A   1      45.458  38.708  29.323  1.00  0.00    -0.237 OA
ATOM     85  O   UNL A   1      46.503  37.286  27.604  1.00  0.00    -0.744 OA
ENDBRANCH  78  82
ENDBRANCH  52  75
ENDBRANCH  26  27
ENDBRANCH  19  21
ENDBRANCH  18  19
ENDBRANCH  17  18
ENDBRANCH   1  17
TORSDOF 18
ENDMDL
MODEL 3
REMARK VINA RESULT:      -9.8      5.219     10.149
REMARK SMILES CCCN(CC)c1ccnc(C(=O)OCCOC(=O)c2ccc(-c3c4nc(c(-c5cc(S(=O)(=O)[O-])ccc5F)c5ccc([nH]5)c(-c5cc(S(=O)(=O)[O-])ccc5F)c5nc(c(-c6cc(S(=O)(=O)[O-])ccc6F)c6ccc3[nH]6)C=C5)C=C4)cc2)c1
REMARK SMILES IDX 15 1 14 2 12 3 13 4 11 5 7 6 8 7 83 8 9 9 10 10 4 11 3 12
REMARK SMILES IDX 2 13 1 14 5 15 6 16 16 17 17 18 18 19 19 20 20 21 21 22
REMARK SMILES IDX 82 23 22 24 81 25 23 26 24 27 25 28 75 29 26 30 80 31 74 32
REMARK SMILES IDX 76 33 27 34 79 35 73 36 72 37 28 39 60 40 40 41 59 42 41 43
REMARK SMILES IDX 44 44 58 45 77 46 42 47 43 48 57 50 78 51 45 52 29 53 30 54
REMARK SMILES IDX 38 55 31 56 37 57 39 58 36 59 32 60 33 61 34 62 35 63 61 64
REMARK SMILES IDX 62 65 70 66 63 67 69 68 71 69 68 70 64 71 65 72 66 73 67 74
REMARK SMILES IDX 46 75 47 76 55 77 48 78 54 79 56 80 53 81 49 82 50 83 51 84
REMARK SMILES IDX 52 85
REMARK H PARENT 76 38 44 49
REMARK Flexibility Score: inf
ROOT
ATOM      1  C   UNL A   1      32.160  28.524  25.551  1.00  0.00     0.275 C 
ENDROOT
BRANCH   1   2
ATOM      2  O   UNL A   1      31.199  27.528  25.949  1.00  0.00    -0.457 OA
BRANCH   2   3
ATOM      3  C   UNL A   1      30.982  26.533  25.045  1.00  0.00     0.357 C 
ATOM      4  O   UNL A   1      30.539  26.703  23.917  1.00  0.00    -0.244 OA
BRANCH   3   5
ATOM      5  C   UNL A   1      31.383  25.195  25.590  1.00  0.00     0.150 A 
ATOM      6  C   UNL A   1      32.931  23.376  25.871  1.00  0.00     0.041 A 
ATOM      7  C   UNL A   1      31.992  22.784  26.716  1.00  0.00     0.046 A 
ATOM      8  C   UNL A   1      32.597  24.596  25.276  1.00  0.00     0.062 A 
ATOM      9  C   UNL A   1      30.789  23.426  26.949  1.00  0.00     0.114 A 
ATOM     10  N   UNL A   1      30.477  24.626  26.428  1.00  0.00    -0.249 NA
BRANCH   6  11
ATOM     11  N   UNL A   1      34.180  22.811  25.681  1.00  0.00    -0.372 N 
BRANCH  11  12
ATOM     12  C   UNL A   1      35.329  23.625  25.272  1.00  0.00     0.116 C 
BRANCH  12  13
ATOM     13  C   UNL A   1      36.487  22.787  24.719  1.00  0.00     0.018 C 
ATOM     14  C   UNL A   1      36.672  22.978  23.218  1.00  0.00     0.006 C 
ENDBRANCH  12  13
ENDBRANCH  11  12
BRANCH  11  15
ATOM     15  C   UNL A   1      34.314  21.362  25.803  1.00  0.00     0.113 C 
ATOM     16  C   UNL A   1      33.794  20.639  24.568  1.00  0.00     0.027 C 
ENDBRANCH  11  15
ENDBRANCH   6  11
ENDBRANCH   3   5
ENDBRANCH   2   3
ENDBRANCH   1   2
BRANCH   1  17
ATOM     17  C   UNL A   1      32.274  29.655  26.579  1.00  0.00     0.275 C 
BRANCH  17  18
ATOM     18  O   UNL A   1      33.297  30.608  26.240  1.00  0.00    -0.458 OA
BRANCH  18  19
ATOM     19  C   UNL A   1      33.629  31.464  27.238  1.00  0.00     0.338 C 
ATOM     20  O   UNL A   1      32.922  32.337  27.712  1.00  0.00    -0.246 OA
BRANCH  19  21
ATOM     21  C   UNL A   1      34.952  31.117  27.785  1.00  0.00     0.060 A 
ATOM     22  C   UNL A   1      35.150  29.804  28.214  1.00  0.00     0.016 A 
ATOM     23  C   UNL A   1      35.957  32.072  27.955  1.00  0.00     0.016 A 
ATOM     24  C   UNL A   1      36.348  29.433  28.816  1.00  0.00     0.010 A 
ATOM     25  C   UNL A   1      37.163  31.699  28.565  1.00  0.00     0.010 A 
ATOM     26  C   UNL A   1      37.362  30.379  29.008  1.00  0.00    -0.014 A 
BRANCH  26  27
ATOM     27  C   UNL A   1      38.595  29.987  29.738  1.00  0.00     0.031 A 
ATOM     28  C   UNL A   1      39.543  29.000  29.118  1.00  0.00     0.074 A 
ATOM     29  C   UNL A   1      38.885  30.550  30.926  1.00  0.00     0.049 A 
ATOM     30  N   UNL A   1      40.628  28.463  29.617  1.00  0.00    -0.248 NA
ATOM     31  C   UNL A   1      39.226  28.559  27.752  1.00  0.00     0.031 C 
ATOM     32  C   UNL A   1      38.075  31.569  31.594  1.00  0.00     0.029 A 
ATOM     33  N   UNL A   1      39.941  30.348  31.780  1.00  0.00    -0.354 N 
ATOM     34  C   UNL A   1      41.112  27.604  28.636  1.00  0.00     0.074 A 
ATOM     35  C   UNL A   1      40.188  27.678  27.522  1.00  0.00     0.031 C 
ATOM     36  C   UNL A   1      38.667  31.907  32.752  1.00  0.00     0.029 A 
ATOM     37  C   UNL A   1      39.864  31.091  32.935  1.00  0.00     0.049 A 
ATOM     38  H   UNL A   1      40.683  29.733  31.583  1.00  0.00     0.167 HD
ATOM     39  C   UNL A   1      42.224  26.827  28.665  1.00  0.00     0.034 A 
ATOM     40  C   UNL A   1      40.650  31.088  34.031  1.00  0.00     0.034 A 
ATOM     41  C   UNL A   1      43.135  26.770  29.784  1.00  0.00     0.049 A 
ATOM     42  C   UNL A   1      41.837  30.159  34.072  1.00  0.00     0.074 A 
ATOM     43  C   UNL A   1      44.288  26.015  29.922  1.00  0.00     0.029 A 
ATOM     44  N   UNL A   1      42.997  27.496  30.960  1.00  0.00    -0.354 N 
ATOM     45  N   UNL A   1      42.261  29.318  33.157  1.00  0.00    -0.248 NA
ATOM     46  C   UNL A   1      42.649  30.176  35.297  1.00  0.00     0.031 C 
ATOM     47  C   UNL A   1      44.811  26.240  31.202  1.00  0.00     0.029 A 
ATOM     48  C   UNL A   1      44.026  27.187  31.838  1.00  0.00     0.049 A 
ATOM     49  H   UNL A   1      42.273  28.138  31.144  1.00  0.00     0.167 HD
ATOM     50  C   UNL A   1      43.401  28.721  33.689  1.00  0.00     0.074 A 
ATOM     51  C   UNL A   1      43.606  29.310  34.996  1.00  0.00     0.031 C 
ATOM     52  C   UNL A   1      44.207  27.773  33.145  1.00  0.00     0.034 A 
BRANCH  39  53
ATOM     53  C   UNL A   1      42.469  25.929  27.477  1.00  0.00     0.023 A 
ATOM     54  C   UNL A   1      41.969  24.617  27.417  1.00  0.00     0.031 A 
ATOM     55  C   UNL A   1      43.252  26.385  26.400  1.00  0.00     0.131 A 
ATOM     56  C   UNL A   1      42.315  23.785  26.340  1.00  0.00     0.055 A 
ATOM     57  C   UNL A   1      43.530  25.576  25.296  1.00  0.00     0.041 A 
ATOM     58  F   UNL A   1      43.776  27.621  26.411  1.00  0.00    -0.206 F 
ATOM     59  C   UNL A   1      43.072  24.263  25.269  1.00  0.00     0.022 A 
BRANCH  56  60
ATOM     60  S   UNL A   1      41.874  22.026  26.424  1.00  0.00     0.124 S 
ATOM     61  O   UNL A   1      42.667  21.470  25.330  1.00  0.00    -0.237 OA
ATOM     62  O   UNL A   1      42.296  21.658  27.770  1.00  0.00    -0.237 OA
ATOM     63  O   UNL A   1      40.430  22.023  26.201  1.00  0.00    -0.744 OA
ENDBRANCH  56  60
ENDBRANCH  39  53
BRANCH  40  64
ATOM     64  C   UNL A   1      40.308  31.939  35.206  1.00  0.00     0.023 A 
ATOM     65  C   UNL A   1      39.333  31.544  36.135  1.00  0.00     0.031 A 
ATOM     66  C   UNL A   1      40.924  33.190  35.389  1.00  0.00     0.131 A 
ATOM     67  C   UNL A   1      38.977  32.407  37.184  1.00  0.00     0.055 A 
ATOM     68  C   UNL A   1      40.605  34.023  36.463  1.00  0.00     0.041 A 
ATOM     69  F   UNL A   1      41.859  33.620  34.525  1.00  0.00    -0.206 F 
ATOM     70  C   UNL A   1      39.616  33.637  37.362  1.00  0.00     0.022 A 
BRANCH  67  71
ATOM     71  S   UNL A   1      37.604  31.936  38.272  1.00  0.00     0.124 S 
ATOM     72  O   UNL A   1      36.609  32.956  37.957  1.00  0.00    -0.237 OA
ATOM     73  O   UNL A   1      37.303  30.583  37.815  1.00  0.00    -0.237 OA
ATOM     74  O   UNL A   1      38.184  32.024  39.611  1.00  0.00    -0.744 OA
ENDBRANCH  67  71
ENDBRANCH  40  64
BRANCH  52  75
ATOM     75  C   UNL A   1      45.405  27.351  33.959  1.00  0.00     0.023 A 
ATOM     76  C   UNL A   1      45.346  26.272  34.859  1.00  0.00     0.031 A 
ATOM     77  C   UNL A   1      46.618  28.054  33.844  1.00  0.00     0.131 A 
ATOM     78  C   UNL A   1      46.464  25.961  35.648  1.00  0.00     0.055 A 
ATOM     79  C   UNL A   1      47.742  27.705  34.593  1.00  0.00     0.041 A 
ATOM     80  F   UNL A   1      46.728  29.093  33.001  1.00  0.00    -0.206 F 
ATOM     81  C   UNL A   1      47.665  26.660  35.510  1.00  0.00     0.022 A 
BRANCH  78  82
ATOM     82  S   UNL A   1      46.304  24.676  36.920  1.00  0.00     0.124 S 
ATOM     83  O   UNL A   1      45.451  23.695  36.256  1.00  0.00    -0.237 OA
ATOM     84  O   UNL A   1      47.691  24.273  37.134  1.00  0.00    -0.237 OA
ATOM     85  O   UNL A   1      45.685  25.378  38.042  1.00  0.00    -0.744 OA
ENDBRANCH  78  82
ENDBRANCH  52  75
ENDBRANCH  26  27
ENDBRANCH  19  21
ENDBRANCH  18  19
ENDBRANCH  17  18
ENDBRANCH   1  17
TORSDOF 18
ENDMDL
