MODEL 1
REMARK VINA RESULT:     -12.0      0.000      0.000
REMARK SMILES Cc1nc(=O)[nH]c(C)c1CC(=O)Nc1sccc1C(=O)OCCOC(=O)c1ccc(-c2c3nc(c(-c4cc(S(=O)(=O)[O-])ccc4F)c4ccc([nH]4)c(-c4cc(S(=O)(=O)[O-])ccc4F)c4nc(c(-c5cc(S(=O)(=O)[O-])ccc5F)c5ccc2[nH]5)C=C4)C=C3)cc1
REMARK SMILES IDX 22 1 21 2 19 3 20 4 18 5 14 6 15 7 16 8 17 9 13 10 11 11
REMARK SMILES IDX 12 12 10 14 9 15 1 16 2 17 3 18 4 19 7 20 5 21 6 22 8 23
REMARK SMILES IDX 23 25 24 26 25 27 26 28 27 29 28 30 89 31 29 32 88 33 30 34
REMARK SMILES IDX 31 35 32 36 82 37 33 38 87 39 81 40 83 41 34 42 86 43 80 44
REMARK SMILES IDX 79 45 35 47 67 48 47 49 66 50 48 51 51 52 65 53 84 54 49 55
REMARK SMILES IDX 50 56 64 58 85 59 52 60 36 61 37 62 45 63 38 64 44 65 46 66
REMARK SMILES IDX 43 67 39 68 40 69 41 70 42 71 68 72 69 73 77 74 70 75 76 76
REMARK SMILES IDX 78 77 75 78 71 79 72 80 73 81 74 82 53 83 54 84 62 85 55 86
REMARK SMILES IDX 61 87 63 88 60 89 56 90 57 91 58 92 59 93
REMARK H PARENT 13 13 6 24 83 46 51 57
REMARK Flexibility Score: inf
ROOT
ATOM      1  C   UNL A   1      32.558  29.424  24.901  1.00  0.00     0.275 C 
ENDROOT
BRANCH   1   2
ATOM      2  O   UNL A   1      31.738  28.446  24.223  1.00  0.00    -0.458 OA
BRANCH   2   3
ATOM      3  C   UNL A   1      32.362  27.278  23.896  1.00  0.00     0.341 C 
ATOM      4  O   UNL A   1      33.308  27.202  23.129  1.00  0.00    -0.246 OA
BRANCH   3   5
ATOM      5  C   UNL A   1      31.793  26.099  24.532  1.00  0.00     0.094 A 
ATOM      6  C   UNL A   1      31.972  24.800  24.110  1.00  0.00     0.110 A 
ATOM      7  S   UNL A   1      30.991  23.680  24.929  1.00  0.00    -0.126 S 
ATOM      8  C   UNL A   1      30.502  24.863  26.060  1.00  0.00     0.068 A 
ATOM      9  C   UNL A   1      30.961  26.112  25.706  1.00  0.00     0.029 A 
BRANCH   6  10
ATOM     10  N   UNL A   1      32.764  24.241  23.142  1.00  0.00    -0.317 N 
ATOM     11  C   UNL A   1      34.004  23.687  23.335  1.00  0.00     0.229 C 
ATOM     12  O   UNL A   1      34.687  23.412  22.344  1.00  0.00    -0.274 OA
ATOM     13  H   UNL A   1      32.411  24.236  22.224  1.00  0.00     0.170 HD
BRANCH  11  14
ATOM     14  C   UNL A   1      34.428  23.232  24.741  1.00  0.00     0.139 C 
BRANCH  14  15
ATOM     15  C   UNL A   1      35.376  22.077  24.904  1.00  0.00     0.002 A 
ATOM     16  C   UNL A   1      37.296  23.805  25.309  1.00  0.00     0.067 C 
ATOM     17  C   UNL A   1      36.839  22.369  25.150  1.00  0.00     0.049 A 
ATOM     18  N   UNL A   1      37.774  21.478  25.237  1.00  0.00    -0.198 NA
ATOM     19  C   UNL A   1      37.446  20.165  25.090  1.00  0.00     0.345 A 
ATOM     20  C   UNL A   1      35.096  20.759  24.869  1.00  0.00     0.022 A 
ATOM     21  O   UNL A   1      38.267  19.252  25.108  1.00  0.00    -0.246 OA
ATOM     22  N   UNL A   1      36.119  19.852  24.958  1.00  0.00    -0.310 N 
ATOM     23  C   UNL A   1      33.728  20.163  24.713  1.00  0.00     0.065 C 
ATOM     24  H   UNL A   1      35.881  18.897  24.923  1.00  0.00     0.171 HD
ENDBRANCH  14  15
ENDBRANCH  11  14
ENDBRANCH   6  10
ENDBRANCH   3   5
ENDBRANCH   2   3
ENDBRANCH   1   2
BRANCH   1  25
ATOM     25  C   UNL A   1      31.818  30.310  25.914  1.00  0.00     0.275 C 
BRANCH  25  26
ATOM     26  O   UNL A   1      32.486  30.380  27.188  1.00  0.00    -0.458 OA
BRANCH  26  27
ATOM     27  C   UNL A   1      33.195  31.516  27.378  1.00  0.00     0.338 C 
ATOM     28  O   UNL A   1      32.734  32.645  27.465  1.00  0.00    -0.246 OA
BRANCH  27  29
ATOM     29  C   UNL A   1      34.619  31.236  27.622  1.00  0.00     0.060 A 
ATOM     30  C   UNL A   1      34.966  29.908  27.876  1.00  0.00     0.016 A 
ATOM     31  C   UNL A   1      35.551  32.253  27.815  1.00  0.00     0.016 A 
ATOM     32  C   UNL A   1      36.195  29.584  28.422  1.00  0.00     0.010 A 
ATOM     33  C   UNL A   1      36.808  31.926  28.339  1.00  0.00     0.010 A 
ATOM     34  C   UNL A   1      37.111  30.598  28.699  1.00  0.00    -0.014 A 
BRANCH  34  35
ATOM     35  C   UNL A   1      38.285  30.277  29.544  1.00  0.00     0.031 A 
ATOM     36  C   UNL A   1      39.372  29.416  28.960  1.00  0.00     0.074 A 
ATOM     37  C   UNL A   1      38.430  30.827  30.763  1.00  0.00     0.049 A 
ATOM     38  N   UNL A   1      40.404  28.867  29.543  1.00  0.00    -0.248 NA
ATOM     39  C   UNL A   1      39.274  29.135  27.518  1.00  0.00     0.031 C 
ATOM     40  C   UNL A   1      37.508  31.787  31.372  1.00  0.00     0.029 A 
ATOM     41  N   UNL A   1      39.415  30.667  31.702  1.00  0.00    -0.354 N 
ATOM     42  C   UNL A   1      41.045  28.127  28.554  1.00  0.00     0.074 A 
ATOM     43  C   UNL A   1      40.284  28.299  27.335  1.00  0.00     0.031 C 
ATOM     44  C   UNL A   1      37.975  32.132  32.583  1.00  0.00     0.029 A 
ATOM     45  C   UNL A   1      39.178  31.359  32.867  1.00  0.00     0.049 A 
ATOM     46  H   UNL A   1      40.214  30.110  31.557  1.00  0.00     0.167 HD
ATOM     47  C   UNL A   1      42.161  27.365  28.665  1.00  0.00     0.034 A 
ATOM     48  C   UNL A   1      39.832  31.323  34.045  1.00  0.00     0.034 A 
ATOM     49  C   UNL A   1      42.911  27.242  29.891  1.00  0.00     0.049 A 
ATOM     50  C   UNL A   1      41.019  30.401  34.176  1.00  0.00     0.074 A 
ATOM     51  C   UNL A   1      44.040  26.484  30.145  1.00  0.00     0.029 A 
ATOM     52  N   UNL A   1      42.605  27.906  31.074  1.00  0.00    -0.354 N 
ATOM     53  N   UNL A   1      41.564  29.620  33.269  1.00  0.00    -0.248 NA
ATOM     54  C   UNL A   1      41.669  30.345  35.490  1.00  0.00     0.031 C 
ATOM     55  C   UNL A   1      44.383  26.646  31.493  1.00  0.00     0.029 A 
ATOM     56  C   UNL A   1      43.509  27.559  32.065  1.00  0.00     0.049 A 
ATOM     57  H   UNL A   1      41.855  28.532  31.191  1.00  0.00     0.167 HD
ATOM     58  C   UNL A   1      42.632  28.992  33.903  1.00  0.00     0.074 A 
ATOM     59  C   UNL A   1      42.664  29.500  35.260  1.00  0.00     0.031 C 
ATOM     60  C   UNL A   1      43.508  28.077  33.413  1.00  0.00     0.034 A 
BRANCH  47  61
ATOM     61  C   UNL A   1      42.563  26.547  27.461  1.00  0.00     0.023 A 
ATOM     62  C   UNL A   1      42.137  25.221  27.275  1.00  0.00     0.031 A 
ATOM     63  C   UNL A   1      43.452  27.091  26.515  1.00  0.00     0.131 A 
ATOM     64  C   UNL A   1      42.658  24.460  26.215  1.00  0.00     0.055 A 
ATOM     65  C   UNL A   1      43.905  26.355  25.419  1.00  0.00     0.041 A 
ATOM     66  F   UNL A   1      43.916  28.342  26.654  1.00  0.00    -0.206 F 
ATOM     67  C   UNL A   1      43.522  25.026  25.273  1.00  0.00     0.022 A 
BRANCH  64  68
ATOM     68  S   UNL A   1      42.313  22.679  26.168  1.00  0.00     0.124 S 
ATOM     69  O   UNL A   1      43.088  22.198  27.308  1.00  0.00    -0.237 OA
ATOM     70  O   UNL A   1      40.863  22.634  26.315  1.00  0.00    -0.237 OA
ATOM     71  O   UNL A   1      42.820  22.265  24.860  1.00  0.00    -0.744 OA
ENDBRANCH  64  68
ENDBRANCH  47  61
BRANCH  48  72
ATOM     72  C   UNL A   1      39.333  32.106  35.212  1.00  0.00     0.023 A 
ATOM     73  C   UNL A   1      39.762  33.422  35.443  1.00  0.00     0.031 A 
ATOM     74  C   UNL A   1      38.448  31.529  36.142  1.00  0.00     0.131 A 
ATOM     75  C   UNL A   1      39.332  34.106  36.592  1.00  0.00     0.055 A 
ATOM     76  C   UNL A   1      37.982  32.231  37.254  1.00  0.00     0.041 A 
ATOM     77  F   UNL A   1      38.014  30.269  35.976  1.00  0.00    -0.206 F 
ATOM     78  C   UNL A   1      38.433  33.524  37.490  1.00  0.00     0.022 A 
BRANCH  75  79
ATOM     79  S   UNL A   1      40.027  35.745  36.941  1.00  0.00     0.124 S 
ATOM     80  O   UNL A   1      41.450  35.445  37.066  1.00  0.00    -0.237 OA
ATOM     81  O   UNL A   1      39.633  36.501  35.758  1.00  0.00    -0.237 OA
ATOM     82  O   UNL A   1      39.362  36.141  38.181  1.00  0.00    -0.744 OA
ENDBRANCH  75  79
ENDBRANCH  48  72
BRANCH  60  83
ATOM     83  C   UNL A   1      44.595  27.615  34.349  1.00  0.00     0.023 A 
ATOM     84  C   UNL A   1      44.377  26.591  35.284  1.00  0.00     0.031 A 
ATOM     85  C   UNL A   1      45.862  28.223  34.309  1.00  0.00     0.131 A 
ATOM     86  C   UNL A   1      45.396  26.239  36.181  1.00  0.00     0.055 A 
ATOM     87  C   UNL A   1      46.890  27.832  35.167  1.00  0.00     0.041 A 
ATOM     88  F   UNL A   1      46.121  29.208  33.433  1.00  0.00    -0.206 F 
ATOM     89  C   UNL A   1      46.656  26.843  36.119  1.00  0.00     0.022 A 
BRANCH  86  90
ATOM     90  S   UNL A   1      45.030  25.039  37.491  1.00  0.00     0.124 S 
ATOM     91  O   UNL A   1      46.193  25.175  38.361  1.00  0.00    -0.237 OA
ATOM     92  O   UNL A   1      43.769  25.539  38.029  1.00  0.00    -0.237 OA
ATOM     93  O   UNL A   1      44.935  23.768  36.776  1.00  0.00    -0.744 OA
ENDBRANCH  86  90
ENDBRANCH  60  83
ENDBRANCH  34  35
ENDBRANCH  27  29
ENDBRANCH  26  27
ENDBRANCH  25  26
ENDBRANCH   1  25
TORSDOF 17
ENDMDL
MODEL 2
REMARK VINA RESULT:     -11.9      4.682     10.178
REMARK SMILES Cc1nc(=O)[nH]c(C)c1CC(=O)Nc1sccc1C(=O)OCCOC(=O)c1ccc(-c2c3nc(c(-c4cc(S(=O)(=O)[O-])ccc4F)c4ccc([nH]4)c(-c4cc(S(=O)(=O)[O-])ccc4F)c4nc(c(-c5cc(S(=O)(=O)[O-])ccc5F)c5ccc2[nH]5)C=C4)C=C3)cc1
REMARK SMILES IDX 22 1 21 2 19 3 20 4 18 5 14 6 15 7 16 8 17 9 13 10 11 11
REMARK SMILES IDX 12 12 10 14 9 15 1 16 2 17 3 18 4 19 7 20 5 21 6 22 8 23
REMARK SMILES IDX 23 25 24 26 25 27 26 28 27 29 28 30 89 31 29 32 88 33 30 34
REMARK SMILES IDX 31 35 32 36 82 37 33 38 87 39 81 40 83 41 34 42 86 43 80 44
REMARK SMILES IDX 79 45 35 47 67 48 47 49 66 50 48 51 51 52 65 53 84 54 49 55
REMARK SMILES IDX 50 56 64 58 85 59 52 60 36 61 37 62 45 63 38 64 44 65 46 66
REMARK SMILES IDX 43 67 39 68 40 69 41 70 42 71 68 72 69 73 77 74 70 75 76 76
REMARK SMILES IDX 78 77 75 78 71 79 72 80 73 81 74 82 53 83 54 84 62 85 55 86
REMARK SMILES IDX 61 87 63 88 60 89 56 90 57 91 58 92 59 93
REMARK H PARENT 13 13 6 24 83 46 51 57
REMARK Flexibility Score: inf
ROOT
ATOM      1  C   UNL A   1      35.584  21.455  25.622  1.00  0.00     0.275 C 
ENDROOT
BRANCH   1   2
ATOM      2  O   UNL A   1      35.104  22.553  24.816  1.00  0.00    -0.458 OA
BRANCH   2   3
ATOM      3  C   UNL A   1      33.827  22.960  25.072  1.00  0.00     0.341 C 
ATOM      4  O   UNL A   1      33.199  22.644  26.070  1.00  0.00    -0.246 OA
BRANCH   3   5
ATOM      5  C   UNL A   1      33.250  23.805  24.037  1.00  0.00     0.094 A 
ATOM      6  C   UNL A   1      32.219  24.700  24.221  1.00  0.00     0.110 A 
ATOM      7  S   UNL A   1      31.627  25.360  22.771  1.00  0.00    -0.126 S 
ATOM      8  C   UNL A   1      32.916  24.678  21.880  1.00  0.00     0.068 A 
ATOM      9  C   UNL A   1      33.676  23.838  22.663  1.00  0.00     0.029 A 
BRANCH   6  10
ATOM     10  N   UNL A   1      31.561  25.139  25.339  1.00  0.00    -0.317 N 
ATOM     11  C   UNL A   1      31.856  26.269  26.058  1.00  0.00     0.229 C 
ATOM     12  O   UNL A   1      31.315  26.427  27.157  1.00  0.00    -0.274 OA
ATOM     13  H   UNL A   1      30.806  24.593  25.656  1.00  0.00     0.170 HD
BRANCH  11  14
ATOM     14  C   UNL A   1      32.673  27.397  25.408  1.00  0.00     0.139 C 
BRANCH  14  15
ATOM     15  C   UNL A   1      32.281  28.831  25.625  1.00  0.00     0.002 A 
ATOM     16  C   UNL A   1      34.106  28.971  27.493  1.00  0.00     0.067 C 
ATOM     17  C   UNL A   1      32.979  29.617  26.712  1.00  0.00     0.049 A 
ATOM     18  N   UNL A   1      32.694  30.832  27.056  1.00  0.00    -0.198 NA
ATOM     19  C   UNL A   1      31.682  31.477  26.411  1.00  0.00     0.345 A 
ATOM     20  C   UNL A   1      31.361  29.554  24.955  1.00  0.00     0.022 A 
ATOM     21  O   UNL A   1      31.307  32.610  26.698  1.00  0.00    -0.246 OA
ATOM     22  N   UNL A   1      31.087  30.834  25.359  1.00  0.00    -0.310 N 
ATOM     23  C   UNL A   1      30.560  29.071  23.782  1.00  0.00     0.065 C 
ATOM     24  H   UNL A   1      30.405  31.332  24.851  1.00  0.00     0.171 HD
ENDBRANCH  14  15
ENDBRANCH  11  14
ENDBRANCH   6  10
ENDBRANCH   3   5
ENDBRANCH   2   3
ENDBRANCH   1   2
BRANCH   1  25
ATOM     25  C   UNL A   1      36.781  20.690  25.040  1.00  0.00     0.275 C 
BRANCH  25  26
ATOM     26  O   UNL A   1      37.953  21.514  24.891  1.00  0.00    -0.458 OA
BRANCH  26  27
ATOM     27  C   UNL A   1      38.958  21.203  25.742  1.00  0.00     0.338 C 
ATOM     28  O   UNL A   1      39.558  20.139  25.787  1.00  0.00    -0.246 OA
BRANCH  27  29
ATOM     29  C   UNL A   1      39.372  22.365  26.545  1.00  0.00     0.060 A 
ATOM     30  C   UNL A   1      38.866  23.609  26.162  1.00  0.00     0.016 A 
ATOM     31  C   UNL A   1      40.384  22.284  27.499  1.00  0.00     0.016 A 
ATOM     32  C   UNL A   1      39.427  24.782  26.633  1.00  0.00     0.010 A 
ATOM     33  C   UNL A   1      40.934  23.470  28.002  1.00  0.00     0.010 A 
ATOM     34  C   UNL A   1      40.495  24.721  27.526  1.00  0.00    -0.014 A 
BRANCH  34  35
ATOM     35  C   UNL A   1      41.267  25.959  27.788  1.00  0.00     0.031 A 
ATOM     36  C   UNL A   1      40.647  27.015  28.662  1.00  0.00     0.074 A 
ATOM     37  C   UNL A   1      42.531  26.091  27.349  1.00  0.00     0.049 A 
ATOM     38  N   UNL A   1      41.044  28.236  28.902  1.00  0.00    -0.248 NA
ATOM     39  C   UNL A   1      39.404  26.639  29.355  1.00  0.00     0.031 C 
ATOM     40  C   UNL A   1      43.282  25.072  26.614  1.00  0.00     0.029 A 
ATOM     41  N   UNL A   1      43.412  27.134  27.468  1.00  0.00    -0.354 N 
ATOM     42  C   UNL A   1      40.070  28.794  29.725  1.00  0.00     0.074 A 
ATOM     43  C   UNL A   1      39.065  27.775  29.941  1.00  0.00     0.031 C 
ATOM     44  C   UNL A   1      44.513  25.540  26.351  1.00  0.00     0.029 A 
ATOM     45  C   UNL A   1      44.608  26.917  26.824  1.00  0.00     0.049 A 
ATOM     46  H   UNL A   1      43.209  27.959  27.965  1.00  0.00     0.167 HD
ATOM     47  C   UNL A   1      40.022  30.047  30.239  1.00  0.00     0.034 A 
ATOM     48  C   UNL A   1      45.635  27.759  26.596  1.00  0.00     0.034 A 
ATOM     49  C   UNL A   1      41.059  31.027  30.027  1.00  0.00     0.049 A 
ATOM     50  C   UNL A   1      45.524  29.176  27.100  1.00  0.00     0.074 A 
ATOM     51  C   UNL A   1      41.119  32.337  30.467  1.00  0.00     0.029 A 
ATOM     52  N   UNL A   1      42.229  30.794  29.311  1.00  0.00    -0.354 N 
ATOM     53  N   UNL A   1      44.554  29.735  27.789  1.00  0.00    -0.248 NA
ATOM     54  C   UNL A   1      46.636  30.079  26.782  1.00  0.00     0.031 C 
ATOM     55  C   UNL A   1      42.297  32.911  29.972  1.00  0.00     0.029 A 
ATOM     56  C   UNL A   1      43.006  31.941  29.280  1.00  0.00     0.049 A 
ATOM     57  H   UNL A   1      42.471  29.939  28.888  1.00  0.00     0.167 HD
ATOM     58  C   UNL A   1      44.949  31.052  28.001  1.00  0.00     0.074 A 
ATOM     59  C   UNL A   1      46.252  31.197  27.383  1.00  0.00     0.031 C 
ATOM     60  C   UNL A   1      44.298  32.056  28.645  1.00  0.00     0.034 A 
BRANCH  47  61
ATOM     61  C   UNL A   1      38.770  30.440  30.989  1.00  0.00     0.023 A 
ATOM     62  C   UNL A   1      37.695  31.097  30.367  1.00  0.00     0.031 A 
ATOM     63  C   UNL A   1      38.687  30.209  32.374  1.00  0.00     0.131 A 
ATOM     64  C   UNL A   1      36.621  31.569  31.140  1.00  0.00     0.055 A 
ATOM     65  C   UNL A   1      37.581  30.610  33.125  1.00  0.00     0.041 A 
ATOM     66  F   UNL A   1      39.695  29.611  33.029  1.00  0.00    -0.206 F 
ATOM     67  C   UNL A   1      36.546  31.310  32.512  1.00  0.00     0.022 A 
BRANCH  64  68
ATOM     68  S   UNL A   1      35.396  32.656  30.360  1.00  0.00     0.124 S 
ATOM     69  O   UNL A   1      34.343  32.689  31.372  1.00  0.00    -0.237 OA
ATOM     70  O   UNL A   1      36.144  33.894  30.175  1.00  0.00    -0.237 OA
ATOM     71  O   UNL A   1      35.043  31.950  29.129  1.00  0.00    -0.744 OA
ENDBRANCH  64  68
ENDBRANCH  47  61
BRANCH  48  72
ATOM     72  C   UNL A   1      46.808  27.320  25.786  1.00  0.00     0.023 A 
ATOM     73  C   UNL A   1      47.008  27.791  24.479  1.00  0.00     0.031 A 
ATOM     74  C   UNL A   1      47.727  26.384  26.296  1.00  0.00     0.131 A 
ATOM     75  C   UNL A   1      48.081  27.302  23.715  1.00  0.00     0.055 A 
ATOM     76  C   UNL A   1      48.821  25.940  25.553  1.00  0.00     0.041 A 
ATOM     77  F   UNL A   1      47.577  25.892  27.536  1.00  0.00    -0.206 F 
ATOM     78  C   UNL A   1      48.996  26.391  24.250  1.00  0.00     0.022 A 
BRANCH  75  79
ATOM     79  S   UNL A   1      48.220  27.812  21.981  1.00  0.00     0.124 S 
ATOM     80  O   UNL A   1      49.421  28.640  22.009  1.00  0.00    -0.237 OA
ATOM     81  O   UNL A   1      48.341  26.530  21.295  1.00  0.00    -0.237 OA
ATOM     82  O   UNL A   1      46.972  28.532  21.735  1.00  0.00    -0.744 OA
ENDBRANCH  75  79
ENDBRANCH  48  72
BRANCH  60  83
ATOM     83  C   UNL A   1      45.021  33.374  28.746  1.00  0.00     0.023 A 
ATOM     84  C   UNL A   1      45.877  33.666  29.820  1.00  0.00     0.031 A 
ATOM     85  C   UNL A   1      44.836  34.354  27.756  1.00  0.00     0.131 A 
ATOM     86  C   UNL A   1      46.476  34.930  29.910  1.00  0.00     0.055 A 
ATOM     87  C   UNL A   1      45.478  35.591  27.820  1.00  0.00     0.041 A 
ATOM     88  F   UNL A   1      44.028  34.124  26.708  1.00  0.00    -0.206 F 
ATOM     89  C   UNL A   1      46.294  35.889  28.908  1.00  0.00     0.022 A 
BRANCH  86  90
ATOM     90  S   UNL A   1      47.432  35.340  31.395  1.00  0.00     0.124 S 
ATOM     91  O   UNL A   1      46.379  35.572  32.379  1.00  0.00    -0.237 OA
ATOM     92  O   UNL A   1      48.235  34.138  31.592  1.00  0.00    -0.237 OA
ATOM     93  O   UNL A   1      48.185  36.530  31.002  1.00  0.00    -0.744 OA
ENDBRANCH  86  90
ENDBRANCH  60  83
ENDBRANCH  34  35
ENDBRANCH  27  29
ENDBRANCH  26  27
ENDBRANCH  25  26
ENDBRANCH   1  25
TORSDOF 17
ENDMDL
MODEL 3
REMARK VINA RESULT:     -11.8      2.242      2.846
REMARK SMILES Cc1nc(=O)[nH]c(C)c1CC(=O)Nc1sccc1C(=O)OCCOC(=O)c1ccc(-c2c3nc(c(-c4cc(S(=O)(=O)[O-])ccc4F)c4ccc([nH]4)c(-c4cc(S(=O)(=O)[O-])ccc4F)c4nc(c(-c5cc(S(=O)(=O)[O-])ccc5F)c5ccc2[nH]5)C=C4)C=C3)cc1
REMARK SMILES IDX 22 1 21 2 19 3 20 4 18 5 14 6 15 7 16 8 17 9 13 10 11 11
REMARK SMILES IDX 12 12 10 14 9 15 1 16 2 17 3 18 4 19 7 20 5 21 6 22 8 23
REMARK SMILES IDX 23 25 24 26 25 27 26 28 27 29 28 30 89 31 29 32 88 33 30 34
REMARK SMILES IDX 31 35 32 36 82 37 33 38 87 39 81 40 83 41 34 42 86 43 80 44
REMARK SMILES IDX 79 45 35 47 67 48 47 49 66 50 48 51 51 52 65 53 84 54 49 55
REMARK SMILES IDX 50 56 64 58 85 59 52 60 36 61 37 62 45 63 38 64 44 65 46 66
REMARK SMILES IDX 43 67 39 68 40 69 41 70 42 71 68 72 69 73 77 74 70 75 76 76
REMARK SMILES IDX 78 77 75 78 71 79 72 80 73 81 74 82 53 83 54 84 62 85 55 86
REMARK SMILES IDX 61 87 63 88 60 89 56 90 57 91 58 92 59 93
REMARK H PARENT 13 13 6 24 83 46 51 57
REMARK Flexibility Score: inf
ROOT
ATOM      1  C   UNL A   1      31.478  29.878  25.797  1.00  0.00     0.275 C 
ENDROOT
BRANCH   1   2
ATOM      2  O   UNL A   1      32.203  29.647  24.569  1.00  0.00    -0.458 OA
BRANCH   2   3
ATOM      3  C   UNL A   1      33.095  28.616  24.595  1.00  0.00     0.341 C 
ATOM      4  O   UNL A   1      34.073  28.579  25.325  1.00  0.00    -0.246 OA
BRANCH   3   5
ATOM      5  C   UNL A   1      32.799  27.546  23.654  1.00  0.00     0.094 A 
ATOM      6  C   UNL A   1      31.732  26.680  23.743  1.00  0.00     0.110 A 
ATOM      7  S   UNL A   1      31.798  25.405  22.620  1.00  0.00    -0.126 S 
ATOM      8  C   UNL A   1      33.111  26.131  21.803  1.00  0.00     0.068 A 
ATOM      9  C   UNL A   1      33.574  27.235  22.483  1.00  0.00     0.029 A 
BRANCH   6  10
ATOM     10  N   UNL A   1      30.645  26.629  24.575  1.00  0.00    -0.317 N 
ATOM     11  C   UNL A   1      30.523  25.849  25.696  1.00  0.00     0.229 C 
ATOM     12  O   UNL A   1      29.412  25.751  26.228  1.00  0.00    -0.274 OA
ATOM     13  H   UNL A   1      29.881  27.206  24.347  1.00  0.00     0.170 HD
BRANCH  11  14
ATOM     14  C   UNL A   1      31.781  25.293  26.382  1.00  0.00     0.139 C 
BRANCH  14  15
ATOM     15  C   UNL A   1      32.201  23.870  26.145  1.00  0.00     0.002 A 
ATOM     16  C   UNL A   1      34.524  24.765  25.345  1.00  0.00     0.067 C 
ATOM     17  C   UNL A   1      33.578  23.604  25.578  1.00  0.00     0.049 A 
ATOM     18  N   UNL A   1      34.042  22.440  25.258  1.00  0.00    -0.198 NA
ATOM     19  C   UNL A   1      33.246  21.347  25.424  1.00  0.00     0.345 A 
ATOM     20  C   UNL A   1      31.499  22.745  26.383  1.00  0.00     0.022 A 
ATOM     21  O   UNL A   1      33.578  20.209  25.105  1.00  0.00    -0.246 OA
ATOM     22  N   UNL A   1      32.027  21.533  26.020  1.00  0.00    -0.310 N 
ATOM     23  C   UNL A   1      30.136  22.683  27.006  1.00  0.00     0.065 C 
ATOM     24  H   UNL A   1      31.486  20.731  26.203  1.00  0.00     0.171 HD
ENDBRANCH  14  15
ENDBRANCH  11  14
ENDBRANCH   6  10
ENDBRANCH   3   5
ENDBRANCH   2   3
ENDBRANCH   1   2
BRANCH   1  25
ATOM     25  C   UNL A   1      31.735  31.238  26.463  1.00  0.00     0.275 C 
BRANCH  25  26
ATOM     26  O   UNL A   1      32.664  31.157  27.560  1.00  0.00    -0.458 OA
BRANCH  26  27
ATOM     27  C   UNL A   1      33.502  32.215  27.653  1.00  0.00     0.338 C 
ATOM     28  O   UNL A   1      33.174  33.392  27.679  1.00  0.00    -0.246 OA
BRANCH  27  29
ATOM     29  C   UNL A   1      34.895  31.791  27.870  1.00  0.00     0.060 A 
ATOM     30  C   UNL A   1      35.106  30.438  28.146  1.00  0.00     0.016 A 
ATOM     31  C   UNL A   1      35.934  32.706  28.016  1.00  0.00     0.016 A 
ATOM     32  C   UNL A   1      36.307  29.998  28.671  1.00  0.00     0.010 A 
ATOM     33  C   UNL A   1      37.163  32.258  28.518  1.00  0.00     0.010 A 
ATOM     34  C   UNL A   1      37.333  30.913  28.902  1.00  0.00    -0.014 A 
BRANCH  34  35
ATOM     35  C   UNL A   1      38.487  30.487  29.726  1.00  0.00     0.031 A 
ATOM     36  C   UNL A   1      39.497  29.555  29.114  1.00  0.00     0.074 A 
ATOM     37  C   UNL A   1      38.689  31.003  30.952  1.00  0.00     0.049 A 
ATOM     38  N   UNL A   1      40.490  28.917  29.674  1.00  0.00    -0.248 NA
ATOM     39  C   UNL A   1      39.361  29.307  27.669  1.00  0.00     0.031 C 
ATOM     40  C   UNL A   1      37.852  32.021  31.589  1.00  0.00     0.029 A 
ATOM     41  N   UNL A   1      39.670  30.750  31.876  1.00  0.00    -0.354 N 
ATOM     42  C   UNL A   1      41.060  28.147  28.665  1.00  0.00     0.074 A 
ATOM     43  C   UNL A   1      40.301  28.399  27.460  1.00  0.00     0.031 C 
ATOM     44  C   UNL A   1      38.358  32.308  32.799  1.00  0.00     0.029 A 
ATOM     45  C   UNL A   1      39.501  31.438  33.055  1.00  0.00     0.049 A 
ATOM     46  H   UNL A   1      40.420  30.136  31.711  1.00  0.00     0.167 HD
ATOM     47  C   UNL A   1      42.114  27.299  28.750  1.00  0.00     0.034 A 
ATOM     48  C   UNL A   1      40.163  31.330  34.224  1.00  0.00     0.034 A 
ATOM     49  C   UNL A   1      42.867  27.096  29.964  1.00  0.00     0.049 A 
ATOM     50  C   UNL A   1      41.276  30.317  34.324  1.00  0.00     0.074 A 
ATOM     51  C   UNL A   1      43.936  26.248  30.190  1.00  0.00     0.029 A 
ATOM     52  N   UNL A   1      42.627  27.761  31.161  1.00  0.00    -0.354 N 
ATOM     53  N   UNL A   1      41.748  29.512  33.398  1.00  0.00    -0.248 NA
ATOM     54  C   UNL A   1      41.935  30.188  35.629  1.00  0.00     0.031 C 
ATOM     55  C   UNL A   1      44.306  26.359  31.537  1.00  0.00     0.029 A 
ATOM     56  C   UNL A   1      43.512  27.327  32.135  1.00  0.00     0.049 A 
ATOM     57  H   UNL A   1      41.929  28.441  31.298  1.00  0.00     0.167 HD
ATOM     58  C   UNL A   1      42.771  28.792  34.007  1.00  0.00     0.074 A 
ATOM     59  C   UNL A   1      42.858  29.272  35.372  1.00  0.00     0.031 C 
ATOM     60  C   UNL A   1      43.568  27.820  33.491  1.00  0.00     0.034 A 
BRANCH  47  61
ATOM     61  C   UNL A   1      42.438  26.473  27.527  1.00  0.00     0.023 A 
ATOM     62  C   UNL A   1      41.995  25.148  27.374  1.00  0.00     0.031 A 
ATOM     63  C   UNL A   1      43.268  27.009  26.525  1.00  0.00     0.131 A 
ATOM     64  C   UNL A   1      42.447  24.380  26.288  1.00  0.00     0.055 A 
ATOM     65  C   UNL A   1      43.650  26.266  25.407  1.00  0.00     0.041 A 
ATOM     66  F   UNL A   1      43.745  28.259  26.628  1.00  0.00    -0.206 F 
ATOM     67  C   UNL A   1      43.253  24.937  25.291  1.00  0.00     0.022 A 
BRANCH  64  68
ATOM     68  S   UNL A   1      42.092  22.600  26.271  1.00  0.00     0.124 S 
ATOM     69  O   UNL A   1      42.629  22.205  24.971  1.00  0.00    -0.237 OA
ATOM     70  O   UNL A   1      42.824  22.121  27.437  1.00  0.00    -0.237 OA
ATOM     71  O   UNL A   1      40.635  22.539  26.380  1.00  0.00    -0.744 OA
ENDBRANCH  64  68
ENDBRANCH  47  61
BRANCH  48  72
ATOM     72  C   UNL A   1      39.740  32.129  35.410  1.00  0.00     0.023 A 
ATOM     73  C   UNL A   1      38.900  31.583  36.394  1.00  0.00     0.031 A 
ATOM     74  C   UNL A   1      40.137  33.471  35.554  1.00  0.00     0.131 A 
ATOM     75  C   UNL A   1      38.459  32.385  37.460  1.00  0.00     0.055 A 
ATOM     76  C   UNL A   1      39.739  34.248  36.642  1.00  0.00     0.041 A 
ATOM     77  F   UNL A   1      40.930  34.047  34.636  1.00  0.00    -0.206 F 
ATOM     78  C   UNL A   1      38.886  33.709  37.598  1.00  0.00     0.022 A 
BRANCH  75  79
ATOM     79  S   UNL A   1      37.253  31.697  38.626  1.00  0.00     0.124 S 
ATOM     80  O   UNL A   1      37.059  30.352  38.095  1.00  0.00    -0.237 OA
ATOM     81  O   UNL A   1      37.969  31.789  39.894  1.00  0.00    -0.237 OA
ATOM     82  O   UNL A   1      36.104  32.590  38.497  1.00  0.00    -0.744 OA
ENDBRANCH  75  79
ENDBRANCH  48  72
BRANCH  60  83
ATOM     83  C   UNL A   1      44.626  27.259  34.405  1.00  0.00     0.023 A 
ATOM     84  C   UNL A   1      45.869  27.892  34.568  1.00  0.00     0.031 A 
ATOM     85  C   UNL A   1      44.388  26.066  35.108  1.00  0.00     0.131 A 
ATOM     86  C   UNL A   1      46.851  27.300  35.376  1.00  0.00     0.055 A 
ATOM     87  C   UNL A   1      45.348  25.510  35.954  1.00  0.00     0.041 A 
ATOM     88  F   UNL A   1      43.216  25.422  34.985  1.00  0.00    -0.206 F 
ATOM     89  C   UNL A   1      46.592  26.121  36.081  1.00  0.00     0.022 A 
BRANCH  86  90
ATOM     90  S   UNL A   1      48.503  28.044  35.429  1.00  0.00     0.124 S 
ATOM     91  O   UNL A   1      48.540  28.791  34.175  1.00  0.00    -0.237 OA
ATOM     92  O   UNL A   1      48.447  28.846  36.646  1.00  0.00    -0.237 OA
ATOM     93  O   UNL A   1      49.398  26.891  35.489  1.00  0.00    -0.744 OA
ENDBRANCH  86  90
ENDBRANCH  60  83
ENDBRANCH  34  35
ENDBRANCH  27  29
ENDBRANCH  26  27
ENDBRANCH  25  26
ENDBRANCH   1  25
TORSDOF 17
ENDMDL
