MODEL 1
REMARK VINA RESULT:     -10.9      0.000      0.000
REMARK SMILES CC[C@](C)([NH3+])C(=O)N1CC[NH+]([C@H](C)C(=O)OCCOC(=O)c2ccc(-c3c4nc(c(-c5cc(S(=O)(=O)[O-])ccc5F)c5ccc([nH]5)c(-c5cc(S(=O)(=O)[O-])ccc5F)c5nc(c(-c6cc(S(=O)(=O)[O-])ccc6F)c6ccc3[nH]6)C=C5)C=C4)cc2)CC1
REMARK SMILES IDX 17 1 16 2 14 3 15 4 12 5 13 6 11 7 6 8 7 9 8 10 9 11 86 12
REMARK SMILES IDX 10 13 85 14 3 16 4 17 2 18 1 19 5 20 18 24 19 25 20 26 21 27
REMARK SMILES IDX 22 28 23 29 84 30 24 31 83 32 25 33 26 34 27 35 77 36 28 37
REMARK SMILES IDX 82 38 76 39 78 40 29 41 81 42 75 43 74 44 30 46 62 47 42 48
REMARK SMILES IDX 61 49 43 50 46 51 60 52 79 53 44 54 45 55 59 57 80 58 47 59
REMARK SMILES IDX 31 60 32 61 40 62 33 63 39 64 41 65 38 66 34 67 35 68 36 69
REMARK SMILES IDX 37 70 63 71 64 72 72 73 65 74 71 75 73 76 70 77 66 78 67 79
REMARK SMILES IDX 68 80 69 81 48 82 49 83 57 84 50 85 56 86 58 87 55 88 51 89
REMARK SMILES IDX 52 90 53 91 54 92
REMARK H PARENT 11 15 5 21 5 22 5 23 78 45 46 56
REMARK Flexibility Score: inf
ROOT
ATOM      1  C   UNL A   1      35.982  20.087  25.021  1.00  0.00     0.274 C 
ENDROOT
BRANCH   1   2
ATOM      2  O   UNL A   1      35.235  21.221  24.546  1.00  0.00    -0.458 OA
BRANCH   2   3
ATOM      3  C   UNL A   1      34.298  21.720  25.403  1.00  0.00     0.364 C 
ATOM      4  O   UNL A   1      33.664  21.037  26.200  1.00  0.00    -0.245 OA
BRANCH   3   5
ATOM      5  C   UNL A   1      34.104  23.241  25.249  1.00  0.00     0.292 C 
ATOM      6  C   UNL A   1      35.407  24.043  25.362  1.00  0.00     0.088 C 
BRANCH   5   7
ATOM      7  N   UNL A   1      33.269  23.527  24.057  1.00  0.00    -0.321 N 
ATOM      8  C   UNL A   1      30.749  26.385  22.613  1.00  0.00     0.283 C 
ATOM      9  O   UNL A   1      31.063  27.206  21.736  1.00  0.00    -0.268 OA
ATOM     10  N   UNL A   1      31.377  25.154  22.628  1.00  0.00    -0.326 N 
ATOM     11  C   UNL A   1      32.745  25.055  22.126  1.00  0.00     0.181 C 
ATOM     12  C   UNL A   1      30.924  23.898  23.219  1.00  0.00     0.181 C 
ATOM     13  C   UNL A   1      33.680  24.735  23.314  1.00  0.00     0.284 C 
ATOM     14  C   UNL A   1      31.828  23.512  24.399  1.00  0.00     0.284 C 
ATOM     15  H   UNL A   1      33.430  22.766  23.397  1.00  0.00     0.348 HD
BRANCH   8  16
ATOM     16  C   UNL A   1      29.868  26.872  23.824  1.00  0.00     0.171 C 
ATOM     17  C   UNL A   1      29.259  28.242  23.467  1.00  0.00     0.090 C 
BRANCH  16  18
ATOM     18  C   UNL A   1      30.743  26.983  25.100  1.00  0.00     0.075 C 
ATOM     19  C   UNL A   1      31.865  28.016  25.041  1.00  0.00     0.011 C 
ENDBRANCH  16  18
BRANCH  16  20
ATOM     20  N   UNL A   1      28.720  25.984  24.118  1.00  0.00    -0.345 N 
ATOM     21  H   UNL A   1      28.746  25.177  23.494  1.00  0.00     0.345 HD
ATOM     22  H   UNL A   1      27.849  26.496  23.977  1.00  0.00     0.345 HD
ATOM     23  H   UNL A   1      28.775  25.667  25.086  1.00  0.00     0.345 HD
ENDBRANCH  16  20
ENDBRANCH   8  16
ENDBRANCH   5   7
ENDBRANCH   3   5
ENDBRANCH   2   3
ENDBRANCH   1   2
BRANCH   1  24
ATOM     24  C   UNL A   1      37.492  20.293  24.862  1.00  0.00     0.275 C 
BRANCH  24  25
ATOM     25  O   UNL A   1      37.977  21.375  25.677  1.00  0.00    -0.458 OA
BRANCH  25  26
ATOM     26  C   UNL A   1      39.242  21.216  26.139  1.00  0.00     0.338 C 
ATOM     27  O   UNL A   1      39.942  20.226  26.021  1.00  0.00    -0.246 OA
BRANCH  26  28
ATOM     28  C   UNL A   1      39.748  22.489  26.678  1.00  0.00     0.060 A 
ATOM     29  C   UNL A   1      39.234  23.667  26.135  1.00  0.00     0.016 A 
ATOM     30  C   UNL A   1      40.764  22.540  27.635  1.00  0.00     0.016 A 
ATOM     31  C   UNL A   1      39.715  24.904  26.548  1.00  0.00     0.010 A 
ATOM     32  C   UNL A   1      41.259  23.786  28.043  1.00  0.00     0.010 A 
ATOM     33  C   UNL A   1      40.740  24.975  27.497  1.00  0.00    -0.014 A 
BRANCH  33  34
ATOM     34  C   UNL A   1      41.293  26.306  27.847  1.00  0.00     0.031 A 
ATOM     35  C   UNL A   1      42.689  26.668  27.430  1.00  0.00     0.074 A 
ATOM     36  C   UNL A   1      40.511  27.210  28.467  1.00  0.00     0.049 A 
ATOM     37  N   UNL A   1      43.358  27.772  27.642  1.00  0.00    -0.248 NA
ATOM     38  C   UNL A   1      43.429  25.650  26.668  1.00  0.00     0.031 C 
ATOM     39  C   UNL A   1      39.119  26.985  28.866  1.00  0.00     0.029 A 
ATOM     40  N   UNL A   1      40.766  28.500  28.854  1.00  0.00    -0.354 N 
ATOM     41  C   UNL A   1      44.604  27.580  27.053  1.00  0.00     0.074 A 
ATOM     42  C   UNL A   1      44.602  26.242  26.497  1.00  0.00     0.031 C 
ATOM     43  C   UNL A   1      38.642  28.105  29.433  1.00  0.00     0.029 A 
ATOM     44  C   UNL A   1      39.702  29.109  29.478  1.00  0.00     0.049 A 
ATOM     45  H   UNL A   1      41.629  28.948  28.701  1.00  0.00     0.167 HD
ATOM     46  C   UNL A   1      45.648  28.444  26.981  1.00  0.00     0.034 A 
ATOM     47  C   UNL A   1      39.603  30.327  30.044  1.00  0.00     0.034 A 
ATOM     48  C   UNL A   1      45.633  29.773  27.547  1.00  0.00     0.049 A 
ATOM     49  C   UNL A   1      40.798  31.244  30.006  1.00  0.00     0.074 A 
ATOM     50  C   UNL A   1      46.638  30.725  27.543  1.00  0.00     0.029 A 
ATOM     51  N   UNL A   1      44.558  30.337  28.223  1.00  0.00    -0.354 N 
ATOM     52  N   UNL A   1      41.981  31.040  29.471  1.00  0.00    -0.248 NA
ATOM     53  C   UNL A   1      40.642  32.556  30.643  1.00  0.00     0.031 C 
ATOM     54  C   UNL A   1      46.191  31.839  28.266  1.00  0.00     0.029 A 
ATOM     55  C   UNL A   1      44.884  31.612  28.662  1.00  0.00     0.049 A 
ATOM     56  H   UNL A   1      43.690  29.896  28.369  1.00  0.00     0.167 HD
ATOM     57  C   UNL A   1      42.706  32.205  29.702  1.00  0.00     0.074 A 
ATOM     58  C   UNL A   1      41.815  33.117  30.392  1.00  0.00     0.031 C 
ATOM     59  C   UNL A   1      43.993  32.496  29.377  1.00  0.00     0.034 A 
BRANCH  46  60
ATOM     60  C   UNL A   1      46.912  27.941  26.324  1.00  0.00     0.023 A 
ATOM     61  C   UNL A   1      47.137  28.077  24.943  1.00  0.00     0.031 A 
ATOM     62  C   UNL A   1      47.889  27.277  27.088  1.00  0.00     0.131 A 
ATOM     63  C   UNL A   1      48.274  27.497  24.359  1.00  0.00     0.055 A 
ATOM     64  C   UNL A   1      49.054  26.767  26.513  1.00  0.00     0.041 A 
ATOM     65  F   UNL A   1      47.717  27.096  28.408  1.00  0.00    -0.206 F 
ATOM     66  C   UNL A   1      49.245  26.863  25.137  1.00  0.00     0.022 A 
BRANCH  63  67
ATOM     67  S   UNL A   1      48.399  27.461  22.550  1.00  0.00     0.124 S 
ATOM     68  O   UNL A   1      48.514  26.027  22.289  1.00  0.00    -0.237 OA
ATOM     69  O   UNL A   1      47.150  28.087  22.133  1.00  0.00    -0.237 OA
ATOM     70  O   UNL A   1      49.608  28.235  22.272  1.00  0.00    -0.744 OA
ENDBRANCH  63  67
ENDBRANCH  46  60
BRANCH  47  71
ATOM     71  C   UNL A   1      38.349  30.738  30.739  1.00  0.00     0.023 A 
ATOM     72  C   UNL A   1      37.330  31.427  30.061  1.00  0.00     0.031 A 
ATOM     73  C   UNL A   1      38.177  30.488  32.113  1.00  0.00     0.131 A 
ATOM     74  C   UNL A   1      36.203  31.877  30.767  1.00  0.00     0.055 A 
ATOM     75  C   UNL A   1      37.031  30.893  32.799  1.00  0.00     0.041 A 
ATOM     76  F   UNL A   1      39.122  29.836  32.807  1.00  0.00    -0.206 F 
ATOM     77  C   UNL A   1      36.042  31.604  32.128  1.00  0.00     0.022 A 
BRANCH  74  78
ATOM     78  S   UNL A   1      34.983  32.899  29.896  1.00  0.00     0.124 S 
ATOM     79  O   UNL A   1      34.433  31.952  28.933  1.00  0.00    -0.237 OA
ATOM     80  O   UNL A   1      34.094  33.299  30.982  1.00  0.00    -0.237 OA
ATOM     81  O   UNL A   1      35.789  33.977  29.324  1.00  0.00    -0.744 OA
ENDBRANCH  74  78
ENDBRANCH  47  71
BRANCH  59  82
ATOM     82  C   UNL A   1      44.487  33.871  29.760  1.00  0.00     0.023 A 
ATOM     83  C   UNL A   1      44.336  34.971  28.897  1.00  0.00     0.031 A 
ATOM     84  C   UNL A   1      45.164  34.071  30.975  1.00  0.00     0.131 A 
ATOM     85  C   UNL A   1      44.921  36.203  29.226  1.00  0.00     0.055 A 
ATOM     86  C   UNL A   1      45.689  35.317  31.327  1.00  0.00     0.041 A 
ATOM     87  F   UNL A   1      45.338  33.056  31.836  1.00  0.00    -0.206 F 
ATOM     88  C   UNL A   1      45.585  36.387  30.442  1.00  0.00     0.022 A 
BRANCH  85  89
ATOM     89  S   UNL A   1      44.908  37.530  27.988  1.00  0.00     0.124 S 
ATOM     90  O   UNL A   1      44.620  38.704  28.804  1.00  0.00    -0.237 OA
ATOM     91  O   UNL A   1      46.257  37.452  27.436  1.00  0.00    -0.237 OA
ATOM     92  O   UNL A   1      43.840  37.135  27.072  1.00  0.00    -0.744 OA
ENDBRANCH  85  89
ENDBRANCH  59  82
ENDBRANCH  33  34
ENDBRANCH  26  28
ENDBRANCH  25  26
ENDBRANCH  24  25
ENDBRANCH   1  24
TORSDOF 18
ENDMDL
MODEL 2
REMARK VINA RESULT:     -10.6      1.701      2.072
REMARK SMILES CC[C@](C)([NH3+])C(=O)N1CC[NH+]([C@H](C)C(=O)OCCOC(=O)c2ccc(-c3c4nc(c(-c5cc(S(=O)(=O)[O-])ccc5F)c5ccc([nH]5)c(-c5cc(S(=O)(=O)[O-])ccc5F)c5nc(c(-c6cc(S(=O)(=O)[O-])ccc6F)c6ccc3[nH]6)C=C5)C=C4)cc2)CC1
REMARK SMILES IDX 17 1 16 2 14 3 15 4 12 5 13 6 11 7 6 8 7 9 8 10 9 11 86 12
REMARK SMILES IDX 10 13 85 14 3 16 4 17 2 18 1 19 5 20 18 24 19 25 20 26 21 27
REMARK SMILES IDX 22 28 23 29 84 30 24 31 83 32 25 33 26 34 27 35 77 36 28 37
REMARK SMILES IDX 82 38 76 39 78 40 29 41 81 42 75 43 74 44 30 46 62 47 42 48
REMARK SMILES IDX 61 49 43 50 46 51 60 52 79 53 44 54 45 55 59 57 80 58 47 59
REMARK SMILES IDX 31 60 32 61 40 62 33 63 39 64 41 65 38 66 34 67 35 68 36 69
REMARK SMILES IDX 37 70 63 71 64 72 72 73 65 74 71 75 73 76 70 77 66 78 67 79
REMARK SMILES IDX 68 80 69 81 48 82 49 83 57 84 50 85 56 86 58 87 55 88 51 89
REMARK SMILES IDX 52 90 53 91 54 92
REMARK H PARENT 11 15 5 21 5 22 5 23 78 45 46 56
REMARK Flexibility Score: inf
ROOT
ATOM      1  C   UNL A   1      36.049  20.311  25.035  1.00  0.00     0.274 C 
ENDROOT
BRANCH   1   2
ATOM      2  O   UNL A   1      35.051  21.342  24.931  1.00  0.00    -0.458 OA
BRANCH   2   3
ATOM      3  C   UNL A   1      33.759  20.941  25.110  1.00  0.00     0.364 C 
ATOM      4  O   UNL A   1      33.435  19.840  25.540  1.00  0.00    -0.245 OA
BRANCH   3   5
ATOM      5  C   UNL A   1      32.741  22.020  24.691  1.00  0.00     0.292 C 
ATOM      6  C   UNL A   1      31.500  22.079  25.592  1.00  0.00     0.088 C 
BRANCH   5   7
ATOM      7  N   UNL A   1      33.435  23.310  24.459  1.00  0.00    -0.321 N 
ATOM      8  C   UNL A   1      32.631  27.296  24.202  1.00  0.00     0.283 C 
ATOM      9  O   UNL A   1      32.880  28.112  25.103  1.00  0.00    -0.268 OA
ATOM     10  N   UNL A   1      33.413  26.161  24.095  1.00  0.00    -0.326 N 
ATOM     11  C   UNL A   1      34.019  25.608  25.303  1.00  0.00     0.181 C 
ATOM     12  C   UNL A   1      33.635  25.303  22.935  1.00  0.00     0.181 C 
ATOM     13  C   UNL A   1      33.359  24.243  25.601  1.00  0.00     0.284 C 
ATOM     14  C   UNL A   1      33.016  23.918  23.176  1.00  0.00     0.284 C 
ATOM     15  H   UNL A   1      34.430  23.096  24.382  1.00  0.00     0.348 HD
BRANCH   8  16
ATOM     16  C   UNL A   1      31.281  27.439  23.404  1.00  0.00     0.171 C 
ATOM     17  C   UNL A   1      30.638  28.792  23.768  1.00  0.00     0.090 C 
BRANCH  16  18
ATOM     18  C   UNL A   1      30.328  26.270  23.768  1.00  0.00     0.075 C 
ATOM     19  C   UNL A   1      30.071  26.069  25.259  1.00  0.00     0.011 C 
ENDBRANCH  16  18
BRANCH  16  20
ATOM     20  N   UNL A   1      31.459  27.459  21.934  1.00  0.00    -0.345 N 
ATOM     21  H   UNL A   1      31.776  28.383  21.643  1.00  0.00     0.345 HD
ATOM     22  H   UNL A   1      30.569  27.246  21.481  1.00  0.00     0.345 HD
ATOM     23  H   UNL A   1      32.152  26.761  21.666  1.00  0.00     0.345 HD
ENDBRANCH  16  20
ENDBRANCH   8  16
ENDBRANCH   5   7
ENDBRANCH   3   5
ENDBRANCH   2   3
ENDBRANCH   1   2
BRANCH   1  24
ATOM     24  C   UNL A   1      37.455  20.852  24.757  1.00  0.00     0.275 C 
BRANCH  24  25
ATOM     25  O   UNL A   1      37.875  21.800  25.755  1.00  0.00    -0.458 OA
BRANCH  25  26
ATOM     26  C   UNL A   1      39.129  21.607  26.231  1.00  0.00     0.338 C 
ATOM     27  O   UNL A   1      39.814  20.607  26.098  1.00  0.00    -0.246 OA
BRANCH  26  28
ATOM     28  C   UNL A   1      39.650  22.857  26.811  1.00  0.00     0.060 A 
ATOM     29  C   UNL A   1      39.122  24.056  26.331  1.00  0.00     0.016 A 
ATOM     30  C   UNL A   1      40.690  22.868  27.742  1.00  0.00     0.016 A 
ATOM     31  C   UNL A   1      39.614  25.274  26.784  1.00  0.00     0.010 A 
ATOM     32  C   UNL A   1      41.195  24.095  28.190  1.00  0.00     0.010 A 
ATOM     33  C   UNL A   1      40.663  25.306  27.709  1.00  0.00    -0.014 A 
BRANCH  33  34
ATOM     34  C   UNL A   1      41.225  26.621  28.101  1.00  0.00     0.031 A 
ATOM     35  C   UNL A   1      42.641  26.966  27.740  1.00  0.00     0.074 A 
ATOM     36  C   UNL A   1      40.436  27.528  28.707  1.00  0.00     0.049 A 
ATOM     37  N   UNL A   1      43.320  28.054  27.994  1.00  0.00    -0.248 NA
ATOM     38  C   UNL A   1      43.391  25.948  26.989  1.00  0.00     0.031 C 
ATOM     39  C   UNL A   1      39.028  27.322  29.052  1.00  0.00     0.029 A 
ATOM     40  N   UNL A   1      40.698  28.807  29.125  1.00  0.00    -0.354 N 
ATOM     41  C   UNL A   1      44.583  27.851  27.447  1.00  0.00     0.074 A 
ATOM     42  C   UNL A   1      44.579  26.522  26.869  1.00  0.00     0.031 C 
ATOM     43  C   UNL A   1      38.549  28.440  29.620  1.00  0.00     0.029 A 
ATOM     44  C   UNL A   1      39.623  29.424  29.721  1.00  0.00     0.049 A 
ATOM     45  H   UNL A   1      41.574  29.243  29.011  1.00  0.00     0.167 HD
ATOM     46  C   UNL A   1      45.644  28.697  27.428  1.00  0.00     0.034 A 
ATOM     47  C   UNL A   1      39.524  30.635  30.303  1.00  0.00     0.034 A 
ATOM     48  C   UNL A   1      45.631  30.017  28.015  1.00  0.00     0.049 A 
ATOM     49  C   UNL A   1      40.735  31.532  30.323  1.00  0.00     0.074 A 
ATOM     50  C   UNL A   1      46.650  30.952  28.063  1.00  0.00     0.029 A 
ATOM     51  N   UNL A   1      44.541  30.589  28.661  1.00  0.00    -0.354 N 
ATOM     52  N   UNL A   1      41.933  31.316  29.828  1.00  0.00    -0.248 NA
ATOM     53  C   UNL A   1      40.578  32.836  30.976  1.00  0.00     0.031 C 
ATOM     54  C   UNL A   1      46.197  32.061  28.788  1.00  0.00     0.029 A 
ATOM     55  C   UNL A   1      44.872  31.851  29.133  1.00  0.00     0.049 A 
ATOM     56  H   UNL A   1      43.661  30.161  28.769  1.00  0.00     0.167 HD
ATOM     57  C   UNL A   1      42.668  32.464  30.104  1.00  0.00     0.074 A 
ATOM     58  C   UNL A   1      41.768  33.380  30.776  1.00  0.00     0.031 C 
ATOM     59  C   UNL A   1      43.971  32.739  29.831  1.00  0.00     0.034 A 
BRANCH  46  60
ATOM     60  C   UNL A   1      46.922  28.183  26.809  1.00  0.00     0.023 A 
ATOM     61  C   UNL A   1      47.141  28.218  25.420  1.00  0.00     0.031 A 
ATOM     62  C   UNL A   1      47.919  27.612  27.619  1.00  0.00     0.131 A 
ATOM     63  C   UNL A   1      48.295  27.628  24.879  1.00  0.00     0.055 A 
ATOM     64  C   UNL A   1      49.099  27.094  27.081  1.00  0.00     0.041 A 
ATOM     65  F   UNL A   1      47.755  27.530  28.949  1.00  0.00    -0.206 F 
ATOM     66  C   UNL A   1      49.286  27.087  25.702  1.00  0.00     0.022 A 
BRANCH  63  67
ATOM     67  S   UNL A   1      48.420  27.453  23.078  1.00  0.00     0.124 S 
ATOM     68  O   UNL A   1      47.257  28.213  22.625  1.00  0.00    -0.237 OA
ATOM     69  O   UNL A   1      49.721  28.046  22.792  1.00  0.00    -0.237 OA
ATOM     70  O   UNL A   1      48.332  26.010  22.865  1.00  0.00    -0.744 OA
ENDBRANCH  63  67
ENDBRANCH  46  60
BRANCH  47  71
ATOM     71  C   UNL A   1      38.253  31.056  30.959  1.00  0.00     0.023 A 
ATOM     72  C   UNL A   1      37.244  31.718  30.241  1.00  0.00     0.031 A 
ATOM     73  C   UNL A   1      38.053  30.845  32.336  1.00  0.00     0.131 A 
ATOM     74  C   UNL A   1      36.099  32.180  30.910  1.00  0.00     0.055 A 
ATOM     75  C   UNL A   1      36.890  31.261  32.986  1.00  0.00     0.041 A 
ATOM     76  F   UNL A   1      38.987  30.219  33.069  1.00  0.00    -0.206 F 
ATOM     77  C   UNL A   1      35.911  31.944  32.275  1.00  0.00     0.022 A 
BRANCH  74  78
ATOM     78  S   UNL A   1      34.891  33.168  29.984  1.00  0.00     0.124 S 
ATOM     79  O   UNL A   1      34.267  32.159  29.136  1.00  0.00    -0.237 OA
ATOM     80  O   UNL A   1      34.060  33.709  31.055  1.00  0.00    -0.237 OA
ATOM     81  O   UNL A   1      35.719  34.148  29.284  1.00  0.00    -0.744 OA
ENDBRANCH  74  78
ENDBRANCH  47  71
BRANCH  59  82
ATOM     82  C   UNL A   1      44.474  34.098  30.254  1.00  0.00     0.023 A 
ATOM     83  C   UNL A   1      45.049  34.306  31.520  1.00  0.00     0.031 A 
ATOM     84  C   UNL A   1      44.328  35.207  29.404  1.00  0.00     0.131 A 
ATOM     85  C   UNL A   1      45.386  35.605  31.931  1.00  0.00     0.055 A 
ATOM     86  C   UNL A   1      44.725  36.489  29.793  1.00  0.00     0.041 A 
ATOM     87  F   UNL A   1      43.784  35.067  28.184  1.00  0.00    -0.206 F 
ATOM     88  C   UNL A   1      45.241  36.696  31.069  1.00  0.00     0.022 A 
BRANCH  85  89
ATOM     89  S   UNL A   1      45.904  35.867  33.650  1.00  0.00     0.124 S 
ATOM     90  O   UNL A   1      47.120  35.065  33.727  1.00  0.00    -0.237 OA
ATOM     91  O   UNL A   1      46.090  37.314  33.700  1.00  0.00    -0.237 OA
ATOM     92  O   UNL A   1      44.776  35.359  34.429  1.00  0.00    -0.744 OA
ENDBRANCH  85  89
ENDBRANCH  59  82
ENDBRANCH  33  34
ENDBRANCH  26  28
ENDBRANCH  25  26
ENDBRANCH  24  25
ENDBRANCH   1  24
TORSDOF 18
ENDMDL
MODEL 3
REMARK VINA RESULT:     -10.6      1.855      7.927
REMARK SMILES CC[C@](C)([NH3+])C(=O)N1CC[NH+]([C@H](C)C(=O)OCCOC(=O)c2ccc(-c3c4nc(c(-c5cc(S(=O)(=O)[O-])ccc5F)c5ccc([nH]5)c(-c5cc(S(=O)(=O)[O-])ccc5F)c5nc(c(-c6cc(S(=O)(=O)[O-])ccc6F)c6ccc3[nH]6)C=C5)C=C4)cc2)CC1
REMARK SMILES IDX 17 1 16 2 14 3 15 4 12 5 13 6 11 7 6 8 7 9 8 10 9 11 86 12
REMARK SMILES IDX 10 13 85 14 3 16 4 17 2 18 1 19 5 20 18 24 19 25 20 26 21 27
REMARK SMILES IDX 22 28 23 29 84 30 24 31 83 32 25 33 26 34 27 35 77 36 28 37
REMARK SMILES IDX 82 38 76 39 78 40 29 41 81 42 75 43 74 44 30 46 62 47 42 48
REMARK SMILES IDX 61 49 43 50 46 51 60 52 79 53 44 54 45 55 59 57 80 58 47 59
REMARK SMILES IDX 31 60 32 61 40 62 33 63 39 64 41 65 38 66 34 67 35 68 36 69
REMARK SMILES IDX 37 70 63 71 64 72 72 73 65 74 71 75 73 76 70 77 66 78 67 79
REMARK SMILES IDX 68 80 69 81 48 82 49 83 57 84 50 85 56 86 58 87 55 88 51 89
REMARK SMILES IDX 52 90 53 91 54 92
REMARK H PARENT 11 15 5 21 5 22 5 23 78 45 46 56
REMARK Flexibility Score: inf
ROOT
ATOM      1  C   UNL A   1      34.953  20.880  24.973  1.00  0.00     0.274 C 
ENDROOT
BRANCH   1   2
ATOM      2  O   UNL A   1      34.708  22.292  24.844  1.00  0.00    -0.458 OA
BRANCH   2   3
ATOM      3  C   UNL A   1      33.562  22.754  25.423  1.00  0.00     0.364 C 
ATOM      4  O   UNL A   1      33.190  22.446  26.550  1.00  0.00    -0.245 OA
BRANCH   3   5
ATOM      5  C   UNL A   1      32.767  23.694  24.496  1.00  0.00     0.292 C 
ATOM      6  C   UNL A   1      31.252  23.448  24.520  1.00  0.00     0.088 C 
BRANCH   5   7
ATOM      7  N   UNL A   1      33.199  25.098  24.707  1.00  0.00    -0.321 N 
ATOM      8  C   UNL A   1      31.726  28.891  24.497  1.00  0.00     0.283 C 
ATOM      9  O   UNL A   1      31.407  29.565  25.489  1.00  0.00    -0.268 OA
ATOM     10  N   UNL A   1      32.710  27.929  24.633  1.00  0.00    -0.326 N 
ATOM     11  C   UNL A   1      32.880  27.275  25.928  1.00  0.00     0.181 C 
ATOM     12  C   UNL A   1      33.561  27.333  23.608  1.00  0.00     0.181 C 
ATOM     13  C   UNL A   1      32.468  25.793  25.785  1.00  0.00     0.284 C 
ATOM     14  C   UNL A   1      33.214  25.848  23.430  1.00  0.00     0.284 C 
ATOM     15  H   UNL A   1      34.160  25.060  25.046  1.00  0.00     0.348 HD
BRANCH   8  16
ATOM     16  C   UNL A   1      30.818  28.958  23.213  1.00  0.00     0.171 C 
ATOM     17  C   UNL A   1      29.679  29.965  23.470  1.00  0.00     0.090 C 
BRANCH  16  18
ATOM     18  C   UNL A   1      30.239  27.552  22.903  1.00  0.00     0.075 C 
ATOM     19  C   UNL A   1      28.869  27.256  23.508  1.00  0.00     0.011 C 
ENDBRANCH  16  18
BRANCH  16  20
ATOM     20  N   UNL A   1      31.527  29.449  22.009  1.00  0.00    -0.345 N 
ATOM     21  H   UNL A   1      31.053  29.108  21.173  1.00  0.00     0.345 HD
ATOM     22  H   UNL A   1      32.489  29.109  22.018  1.00  0.00     0.345 HD
ATOM     23  H   UNL A   1      31.527  30.469  22.007  1.00  0.00     0.345 HD
ENDBRANCH  16  20
ENDBRANCH   8  16
ENDBRANCH   5   7
ENDBRANCH   3   5
ENDBRANCH   2   3
ENDBRANCH   1   2
BRANCH   1  24
ATOM     24  C   UNL A   1      36.452  20.567  25.029  1.00  0.00     0.275 C 
BRANCH  24  25
ATOM     25  O   UNL A   1      37.180  21.549  25.789  1.00  0.00    -0.458 OA
BRANCH  25  26
ATOM     26  C   UNL A   1      38.499  21.279  25.951  1.00  0.00     0.338 C 
ATOM     27  O   UNL A   1      39.078  20.255  25.631  1.00  0.00    -0.246 OA
BRANCH  26  28
ATOM     28  C   UNL A   1      39.207  22.478  26.429  1.00  0.00     0.060 A 
ATOM     29  C   UNL A   1      38.714  23.719  26.024  1.00  0.00     0.016 A 
ATOM     30  C   UNL A   1      40.376  22.399  27.188  1.00  0.00     0.016 A 
ATOM     31  C   UNL A   1      39.372  24.890  26.381  1.00  0.00     0.010 A 
ATOM     32  C   UNL A   1      41.047  23.578  27.538  1.00  0.00     0.010 A 
ATOM     33  C   UNL A   1      40.551  24.830  27.131  1.00  0.00    -0.014 A 
BRANCH  33  34
ATOM     34  C   UNL A   1      41.276  26.092  27.417  1.00  0.00     0.031 A 
ATOM     35  C   UNL A   1      40.643  27.134  28.295  1.00  0.00     0.074 A 
ATOM     36  C   UNL A   1      42.529  26.260  26.955  1.00  0.00     0.049 A 
ATOM     37  N   UNL A   1      41.105  28.302  28.660  1.00  0.00    -0.248 NA
ATOM     38  C   UNL A   1      39.314  26.814  28.835  1.00  0.00     0.031 C 
ATOM     39  C   UNL A   1      43.263  25.287  26.142  1.00  0.00     0.029 A 
ATOM     40  N   UNL A   1      43.411  27.297  27.113  1.00  0.00    -0.354 N 
ATOM     41  C   UNL A   1      40.119  28.866  29.463  1.00  0.00     0.074 A 
ATOM     42  C   UNL A   1      39.024  27.918  29.508  1.00  0.00     0.031 C 
ATOM     43  C   UNL A   1      44.488  25.772  25.883  1.00  0.00     0.029 A 
ATOM     44  C   UNL A   1      44.611  27.104  26.470  1.00  0.00     0.049 A 
ATOM     45  H   UNL A   1      43.206  28.105  27.637  1.00  0.00     0.167 HD
ATOM     46  C   UNL A   1      40.131  30.063  30.103  1.00  0.00     0.034 A 
ATOM     47  C   UNL A   1      45.678  27.917  26.348  1.00  0.00     0.034 A 
ATOM     48  C   UNL A   1      41.231  30.997  30.042  1.00  0.00     0.049 A 
ATOM     49  C   UNL A   1      45.641  29.267  27.018  1.00  0.00     0.074 A 
ATOM     50  C   UNL A   1      41.344  32.240  30.641  1.00  0.00     0.029 A 
ATOM     51  N   UNL A   1      42.409  30.793  29.334  1.00  0.00    -0.354 N 
ATOM     52  N   UNL A   1      44.690  29.801  27.750  1.00  0.00    -0.248 NA
ATOM     53  C   UNL A   1      46.822  30.119  26.847  1.00  0.00     0.031 C 
ATOM     54  C   UNL A   1      42.561  32.810  30.248  1.00  0.00     0.029 A 
ATOM     55  C   UNL A   1      43.241  31.896  29.459  1.00  0.00     0.049 A 
ATOM     56  H   UNL A   1      42.623  29.983  28.817  1.00  0.00     0.167 HD
ATOM     57  C   UNL A   1      45.166  31.051  28.135  1.00  0.00     0.074 A 
ATOM     58  C   UNL A   1      46.501  31.173  27.582  1.00  0.00     0.031 C 
ATOM     59  C   UNL A   1      44.557  32.014  28.874  1.00  0.00     0.034 A 
BRANCH  46  60
ATOM     60  C   UNL A   1      38.885  30.446  30.867  1.00  0.00     0.023 A 
ATOM     61  C   UNL A   1      37.913  31.303  30.321  1.00  0.00     0.031 A 
ATOM     62  C   UNL A   1      38.689  29.978  32.179  1.00  0.00     0.131 A 
ATOM     63  C   UNL A   1      36.827  31.720  31.108  1.00  0.00     0.055 A 
ATOM     64  C   UNL A   1      37.569  30.337  32.930  1.00  0.00     0.041 A 
ATOM     65  F   UNL A   1      39.595  29.176  32.760  1.00  0.00    -0.206 F 
ATOM     66  C   UNL A   1      36.637  31.225  32.400  1.00  0.00     0.022 A 
BRANCH  63  67
ATOM     67  S   UNL A   1      35.742  33.026  30.470  1.00  0.00     0.124 S 
ATOM     68  O   UNL A   1      36.221  34.195  31.205  1.00  0.00    -0.237 OA
ATOM     69  O   UNL A   1      36.032  33.008  29.041  1.00  0.00    -0.237 OA
ATOM     70  O   UNL A   1      34.403  32.573  30.841  1.00  0.00    -0.744 OA
ENDBRANCH  63  67
ENDBRANCH  46  60
BRANCH  47  71
ATOM     71  C   UNL A   1      46.850  27.508  25.522  1.00  0.00     0.023 A 
ATOM     72  C   UNL A   1      46.981  27.920  24.186  1.00  0.00     0.031 A 
ATOM     73  C   UNL A   1      47.835  26.653  26.049  1.00  0.00     0.131 A 
ATOM     74  C   UNL A   1      48.051  27.444  23.410  1.00  0.00     0.055 A 
ATOM     75  C   UNL A   1      48.923  26.223  25.288  1.00  0.00     0.041 A 
ATOM     76  F   UNL A   1      47.755  26.229  27.319  1.00  0.00    -0.206 F 
ATOM     77  C   UNL A   1      49.028  26.608  23.957  1.00  0.00     0.022 A 
BRANCH  74  78
ATOM     78  S   UNL A   1      48.102  27.868  21.647  1.00  0.00     0.124 S 
ATOM     79  O   UNL A   1      49.208  28.817  21.600  1.00  0.00    -0.237 OA
ATOM     80  O   UNL A   1      48.346  26.568  21.031  1.00  0.00    -0.237 OA
ATOM     81  O   UNL A   1      46.779  28.436  21.395  1.00  0.00    -0.744 OA
ENDBRANCH  74  78
ENDBRANCH  47  71
BRANCH  59  82
ATOM     82  C   UNL A   1      45.355  33.269  29.131  1.00  0.00     0.023 A 
ATOM     83  C   UNL A   1      46.128  33.422  30.296  1.00  0.00     0.031 A 
ATOM     84  C   UNL A   1      45.299  34.345  28.228  1.00  0.00     0.131 A 
ATOM     85  C   UNL A   1      46.753  34.649  30.565  1.00  0.00     0.055 A 
ATOM     86  C   UNL A   1      45.976  35.543  28.471  1.00  0.00     0.041 A 
ATOM     87  F   UNL A   1      44.575  34.255  27.102  1.00  0.00    -0.206 F 
ATOM     88  C   UNL A   1      46.693  35.706  29.653  1.00  0.00     0.022 A 
BRANCH  85  89
ATOM     89  S   UNL A   1      47.543  34.887  32.181  1.00  0.00     0.124 S 
ATOM     90  O   UNL A   1      46.825  33.929  33.015  1.00  0.00    -0.237 OA
ATOM     91  O   UNL A   1      48.937  34.564  31.895  1.00  0.00    -0.237 OA
ATOM     92  O   UNL A   1      47.283  36.293  32.487  1.00  0.00    -0.744 OA
ENDBRANCH  85  89
ENDBRANCH  59  82
ENDBRANCH  33  34
ENDBRANCH  26  28
ENDBRANCH  25  26
ENDBRANCH  24  25
ENDBRANCH   1  24
TORSDOF 18
ENDMDL
