MODEL 1
REMARK VINA RESULT:      -9.4      0.000      0.000
REMARK SMILES COc1ccc(C(=O)SC[C@H]([NH3+])C(=O)OCCOC(=O)c2ccc(-c3c4nc(c(-c5cc(S(=O)(=O)[O-])ccc5F)c5ccc([nH]5)c(-c5cc(S(=O)(=O)[O-])ccc5F)c5nc(c(-c6cc(S(=O)(=O)[O-])ccc6F)c6ccc3[nH]6)C=C5)C=C4)cc2)cc1
REMARK SMILES IDX 16 1 15 2 13 3 14 4 11 5 10 6 9 7 7 8 8 9 6 10 3 11 4 12
REMARK SMILES IDX 85 13 5 14 84 15 2 16 1 17 12 18 17 22 18 23 19 24 20 25
REMARK SMILES IDX 21 26 22 27 83 28 23 29 82 30 24 31 25 32 26 33 76 34 27 35
REMARK SMILES IDX 81 36 75 37 77 38 28 39 80 40 74 41 73 42 29 44 61 45 41 46
REMARK SMILES IDX 60 47 42 48 45 49 59 50 78 51 43 52 44 53 58 55 79 56 46 57
REMARK SMILES IDX 30 58 31 59 39 60 32 61 38 62 40 63 37 64 33 65 34 66 35 67
REMARK SMILES IDX 36 68 62 69 63 70 71 71 64 72 70 73 72 74 69 75 65 76 66 77
REMARK SMILES IDX 67 78 68 79 47 80 48 81 56 82 49 83 55 84 57 85 54 86 50 87
REMARK SMILES IDX 51 88 52 89 53 90
REMARK H PARENT 12 19 12 20 12 21 77 43 45 54
REMARK Flexibility Score: inf
ROOT
ATOM      1  C   UNL A   1      33.679  34.845  28.798  1.00  0.00     0.274 C 
ENDROOT
BRANCH   1   2
ATOM      2  O   UNL A   1      32.814  34.809  29.944  1.00  0.00    -0.458 OA
BRANCH   2   3
ATOM      3  C   UNL A   1      32.918  35.829  30.837  1.00  0.00     0.365 C 
ATOM      4  O   UNL A   1      32.157  36.790  30.888  1.00  0.00    -0.245 OA
BRANCH   3   5
ATOM      5  C   UNL A   1      34.087  35.642  31.817  1.00  0.00     0.302 C 
BRANCH   5   6
ATOM      6  C   UNL A   1      33.828  34.440  32.737  1.00  0.00     0.155 C 
BRANCH   6   7
ATOM      7  S   UNL A   1      35.094  33.128  32.668  1.00  0.00    -0.076 SA
BRANCH   7   8
ATOM      8  C   UNL A   1      36.533  34.111  32.943  1.00  0.00     0.219 C 
ATOM      9  O   UNL A   1      36.571  34.927  33.858  1.00  0.00    -0.282 OA
BRANCH   8  10
ATOM     10  C   UNL A   1      37.668  33.991  31.979  1.00  0.00     0.029 A 
ATOM     11  C   UNL A   1      39.844  34.032  30.199  1.00  0.00     0.118 A 
ATOM     12  C   UNL A   1      40.028  34.383  31.535  1.00  0.00     0.047 A 
ATOM     13  C   UNL A   1      38.596  33.584  29.767  1.00  0.00     0.047 A 
ATOM     14  C   UNL A   1      38.945  34.373  32.419  1.00  0.00     0.016 A 
ATOM     15  C   UNL A   1      37.512  33.566  30.652  1.00  0.00     0.016 A 
BRANCH  11  16
ATOM     16  O   UNL A   1      40.940  34.130  29.386  1.00  0.00    -0.497 OA
ATOM     17  C   UNL A   1      41.189  35.456  28.926  1.00  0.00     0.278 C 
ENDBRANCH  11  16
ENDBRANCH   8  10
ENDBRANCH   7   8
ENDBRANCH   6   7
ENDBRANCH   5   6
BRANCH   5  18
ATOM     18  N   UNL A   1      34.440  36.893  32.525  1.00  0.00    -0.345 N 
ATOM     19  H   UNL A   1      33.619  37.495  32.582  1.00  0.00     0.345 HD
ATOM     20  H   UNL A   1      35.180  37.375  32.014  1.00  0.00     0.345 HD
ATOM     21  H   UNL A   1      34.765  36.672  33.466  1.00  0.00     0.345 HD
ENDBRANCH   5  18
ENDBRANCH   3   5
ENDBRANCH   2   3
ENDBRANCH   1   2
BRANCH   1  22
ATOM     22  C   UNL A   1      33.619  33.513  28.046  1.00  0.00     0.275 C 
BRANCH  22  23
ATOM     23  O   UNL A   1      34.414  32.497  28.691  1.00  0.00    -0.458 OA
BRANCH  23  24
ATOM     24  C   UNL A   1      34.432  31.298  28.063  1.00  0.00     0.338 C 
ATOM     25  O   UNL A   1      33.634  30.882  27.240  1.00  0.00    -0.246 OA
BRANCH  24  26
ATOM     26  C   UNL A   1      35.671  30.574  28.390  1.00  0.00     0.060 A 
ATOM     27  C   UNL A   1      35.714  29.890  29.607  1.00  0.00     0.016 A 
ATOM     28  C   UNL A   1      36.801  30.644  27.574  1.00  0.00     0.016 A 
ATOM     29  C   UNL A   1      36.889  29.278  30.026  1.00  0.00     0.010 A 
ATOM     30  C   UNL A   1      37.985  30.030  27.996  1.00  0.00     0.010 A 
ATOM     31  C   UNL A   1      38.038  29.356  29.230  1.00  0.00    -0.014 A 
BRANCH  31  32
ATOM     32  C   UNL A   1      39.311  28.797  29.743  1.00  0.00     0.031 A 
ATOM     33  C   UNL A   1      39.959  29.419  30.947  1.00  0.00     0.074 A 
ATOM     34  C   UNL A   1      39.851  27.711  29.159  1.00  0.00     0.049 A 
ATOM     35  N   UNL A   1      41.106  29.140  31.508  1.00  0.00    -0.248 NA
ATOM     36  C   UNL A   1      39.211  30.500  31.606  1.00  0.00     0.031 C 
ATOM     37  C   UNL A   1      39.269  26.986  28.029  1.00  0.00     0.029 A 
ATOM     38  N   UNL A   1      41.007  27.029  29.436  1.00  0.00    -0.354 N 
ATOM     39  C   UNL A   1      41.229  30.020  32.578  1.00  0.00     0.074 A 
ATOM     40  C   UNL A   1      40.047  30.856  32.570  1.00  0.00     0.031 C 
ATOM     41  C   UNL A   1      40.075  25.960  27.707  1.00  0.00     0.029 A 
ATOM     42  C   UNL A   1      41.252  25.988  28.571  1.00  0.00     0.049 A 
ATOM     43  H   UNL A   1      41.606  27.262  30.183  1.00  0.00     0.167 HD
ATOM     44  C   UNL A   1      42.235  30.115  33.481  1.00  0.00     0.034 A 
ATOM     45  C   UNL A   1      42.321  25.173  28.468  1.00  0.00     0.034 A 
ATOM     46  C   UNL A   1      43.407  29.273  33.468  1.00  0.00     0.049 A 
ATOM     47  C   UNL A   1      43.465  25.352  29.435  1.00  0.00     0.074 A 
ATOM     48  C   UNL A   1      44.497  29.294  34.321  1.00  0.00     0.029 A 
ATOM     49  N   UNL A   1      43.642  28.255  32.552  1.00  0.00    -0.354 N 
ATOM     50  N   UNL A   1      43.588  26.216  30.417  1.00  0.00    -0.248 NA
ATOM     51  C   UNL A   1      44.611  24.448  29.279  1.00  0.00     0.031 C 
ATOM     52  C   UNL A   1      45.414  28.328  33.888  1.00  0.00     0.029 A 
ATOM     53  C   UNL A   1      44.866  27.658  32.805  1.00  0.00     0.049 A 
ATOM     54  H   UNL A   1      43.027  27.996  31.827  1.00  0.00     0.167 HD
ATOM     55  C   UNL A   1      44.816  25.938  31.012  1.00  0.00     0.074 A 
ATOM     56  C   UNL A   1      45.385  24.821  30.288  1.00  0.00     0.031 C 
ATOM     57  C   UNL A   1      45.419  26.548  32.064  1.00  0.00     0.034 A 
BRANCH  44  58
ATOM     58  C   UNL A   1      42.135  31.212  34.513  1.00  0.00     0.023 A 
ATOM     59  C   UNL A   1      42.503  32.537  34.226  1.00  0.00     0.031 A 
ATOM     60  C   UNL A   1      41.694  30.917  35.816  1.00  0.00     0.131 A 
ATOM     61  C   UNL A   1      42.486  33.504  35.243  1.00  0.00     0.055 A 
ATOM     62  C   UNL A   1      41.610  31.898  36.804  1.00  0.00     0.041 A 
ATOM     63  F   UNL A   1      41.351  29.663  36.153  1.00  0.00    -0.206 F 
ATOM     64  C   UNL A   1      42.019  33.198  36.524  1.00  0.00     0.022 A 
BRANCH  61  65
ATOM     65  S   UNL A   1      43.202  35.136  34.906  1.00  0.00     0.124 S 
ATOM     66  O   UNL A   1      44.467  34.777  34.270  1.00  0.00    -0.237 OA
ATOM     67  O   UNL A   1      42.201  35.746  34.039  1.00  0.00    -0.237 OA
ATOM     68  O   UNL A   1      43.328  35.737  36.232  1.00  0.00    -0.744 OA
ENDBRANCH  61  65
ENDBRANCH  44  58
BRANCH  45  69
ATOM     69  C   UNL A   1      42.394  24.154  27.383  1.00  0.00     0.023 A 
ATOM     70  C   UNL A   1      41.797  22.892  27.527  1.00  0.00     0.031 A 
ATOM     71  C   UNL A   1      43.116  24.412  26.203  1.00  0.00     0.131 A 
ATOM     72  C   UNL A   1      41.970  21.920  26.530  1.00  0.00     0.055 A 
ATOM     73  C   UNL A   1      43.241  23.459  25.191  1.00  0.00     0.041 A 
ATOM     74  F   UNL A   1      43.709  25.601  26.016  1.00  0.00    -0.206 F 
ATOM     75  C   UNL A   1      42.677  22.198  25.358  1.00  0.00     0.022 A 
BRANCH  72  76
ATOM     76  S   UNL A   1      41.333  20.247  26.829  1.00  0.00     0.124 S 
ATOM     77  O   UNL A   1      40.964  20.316  28.237  1.00  0.00    -0.237 OA
ATOM     78  O   UNL A   1      40.229  20.170  25.877  1.00  0.00    -0.237 OA
ATOM     79  O   UNL A   1      42.476  19.389  26.524  1.00  0.00    -0.744 OA
ENDBRANCH  72  76
ENDBRANCH  45  69
BRANCH  57  80
ATOM     80  C   UNL A   1      46.739  25.976  32.517  1.00  0.00     0.023 A 
ATOM     81  C   UNL A   1      46.810  24.965  33.490  1.00  0.00     0.031 A 
ATOM     82  C   UNL A   1      47.940  26.466  31.976  1.00  0.00     0.131 A 
ATOM     83  C   UNL A   1      48.063  24.513  33.934  1.00  0.00     0.055 A 
ATOM     84  C   UNL A   1      49.181  25.974  32.383  1.00  0.00     0.041 A 
ATOM     85  F   UNL A   1      47.926  27.431  31.044  1.00  0.00    -0.206 F 
ATOM     86  C   UNL A   1      49.247  25.001  33.377  1.00  0.00     0.022 A 
BRANCH  83  87
ATOM     87  S   UNL A   1      48.126  23.334  35.311  1.00  0.00     0.124 S 
ATOM     88  O   UNL A   1      48.640  24.162  36.398  1.00  0.00    -0.237 OA
ATOM     89  O   UNL A   1      46.732  22.919  35.431  1.00  0.00    -0.237 OA
ATOM     90  O   UNL A   1      49.040  22.298  34.835  1.00  0.00    -0.744 OA
ENDBRANCH  83  87
ENDBRANCH  57  80
ENDBRANCH  31  32
ENDBRANCH  24  26
ENDBRANCH  23  24
ENDBRANCH  22  23
ENDBRANCH   1  22
TORSDOF 20
ENDMDL
MODEL 2
REMARK VINA RESULT:      -9.2      5.433      9.878
REMARK SMILES COc1ccc(C(=O)SC[C@H]([NH3+])C(=O)OCCOC(=O)c2ccc(-c3c4nc(c(-c5cc(S(=O)(=O)[O-])ccc5F)c5ccc([nH]5)c(-c5cc(S(=O)(=O)[O-])ccc5F)c5nc(c(-c6cc(S(=O)(=O)[O-])ccc6F)c6ccc3[nH]6)C=C5)C=C4)cc2)cc1
REMARK SMILES IDX 16 1 15 2 13 3 14 4 11 5 10 6 9 7 7 8 8 9 6 10 3 11 4 12
REMARK SMILES IDX 85 13 5 14 84 15 2 16 1 17 12 18 17 22 18 23 19 24 20 25
REMARK SMILES IDX 21 26 22 27 83 28 23 29 82 30 24 31 25 32 26 33 76 34 27 35
REMARK SMILES IDX 81 36 75 37 77 38 28 39 80 40 74 41 73 42 29 44 61 45 41 46
REMARK SMILES IDX 60 47 42 48 45 49 59 50 78 51 43 52 44 53 58 55 79 56 46 57
REMARK SMILES IDX 30 58 31 59 39 60 32 61 38 62 40 63 37 64 33 65 34 66 35 67
REMARK SMILES IDX 36 68 62 69 63 70 71 71 64 72 70 73 72 74 69 75 65 76 66 77
REMARK SMILES IDX 67 78 68 79 47 80 48 81 56 82 49 83 55 84 57 85 54 86 50 87
REMARK SMILES IDX 51 88 52 89 53 90
REMARK H PARENT 12 19 12 20 12 21 77 43 45 54
REMARK Flexibility Score: inf
ROOT
ATOM      1  C   UNL A   1      35.680  20.660  24.804  1.00  0.00     0.274 C 
ENDROOT
BRANCH   1   2
ATOM      2  O   UNL A   1      35.234  21.691  25.700  1.00  0.00    -0.458 OA
BRANCH   2   3
ATOM      3  C   UNL A   1      34.183  21.399  26.512  1.00  0.00     0.365 C 
ATOM      4  O   UNL A   1      34.124  21.687  27.703  1.00  0.00    -0.245 OA
BRANCH   3   5
ATOM      5  C   UNL A   1      33.040  20.688  25.771  1.00  0.00     0.302 C 
BRANCH   5   6
ATOM      6  C   UNL A   1      31.766  21.546  25.803  1.00  0.00     0.155 C 
BRANCH   6   7
ATOM      7  S   UNL A   1      31.809  23.031  24.745  1.00  0.00    -0.076 SA
BRANCH   7   8
ATOM      8  C   UNL A   1      31.540  24.263  25.979  1.00  0.00     0.219 C 
ATOM      9  O   UNL A   1      31.362  23.949  27.151  1.00  0.00    -0.282 OA
BRANCH   8  10
ATOM     10  C   UNL A   1      31.442  25.690  25.547  1.00  0.00     0.029 A 
ATOM     11  C   UNL A   1      31.109  28.418  24.956  1.00  0.00     0.118 A 
ATOM     12  C   UNL A   1      31.761  28.032  26.125  1.00  0.00     0.047 A 
ATOM     13  C   UNL A   1      30.695  27.450  24.043  1.00  0.00     0.047 A 
ATOM     14  C   UNL A   1      31.918  26.676  26.426  1.00  0.00     0.016 A 
ATOM     15  C   UNL A   1      30.859  26.092  24.337  1.00  0.00     0.016 A 
BRANCH  11  16
ATOM     16  O   UNL A   1      30.940  29.763  24.769  1.00  0.00    -0.497 OA
ATOM     17  C   UNL A   1      30.020  30.080  23.726  1.00  0.00     0.278 C 
ENDBRANCH  11  16
ENDBRANCH   8  10
ENDBRANCH   7   8
ENDBRANCH   6   7
ENDBRANCH   5   6
BRANCH   5  18
ATOM     18  N   UNL A   1      32.853  19.292  26.224  1.00  0.00    -0.345 N 
ATOM     19  H   UNL A   1      32.811  18.674  25.414  1.00  0.00     0.345 HD
ATOM     20  H   UNL A   1      31.982  19.219  26.752  1.00  0.00     0.345 HD
ATOM     21  H   UNL A   1      33.634  19.019  26.820  1.00  0.00     0.345 HD
ENDBRANCH   5  18
ENDBRANCH   3   5
ENDBRANCH   2   3
ENDBRANCH   1   2
BRANCH   1  22
ATOM     22  C   UNL A   1      37.174  20.395  25.002  1.00  0.00     0.275 C 
BRANCH  22  23
ATOM     23  O   UNL A   1      37.846  21.529  25.587  1.00  0.00    -0.458 OA
BRANCH  23  24
ATOM     24  C   UNL A   1      39.068  21.265  26.109  1.00  0.00     0.338 C 
ATOM     25  O   UNL A   1      39.685  20.215  26.053  1.00  0.00    -0.246 OA
BRANCH  24  26
ATOM     26  C   UNL A   1      39.663  22.497  26.650  1.00  0.00     0.060 A 
ATOM     27  C   UNL A   1      39.198  23.713  26.142  1.00  0.00     0.016 A 
ATOM     28  C   UNL A   1      40.721  22.465  27.559  1.00  0.00     0.016 A 
ATOM     29  C   UNL A   1      39.793  24.908  26.529  1.00  0.00     0.010 A 
ATOM     30  C   UNL A   1      41.322  23.668  27.947  1.00  0.00     0.010 A 
ATOM     31  C   UNL A   1      40.870  24.893  27.423  1.00  0.00    -0.014 A 
BRANCH  31  32
ATOM     32  C   UNL A   1      41.566  26.163  27.737  1.00  0.00     0.031 A 
ATOM     33  C   UNL A   1      40.857  27.213  28.545  1.00  0.00     0.074 A 
ATOM     34  C   UNL A   1      42.839  26.348  27.342  1.00  0.00     0.049 A 
ATOM     35  N   UNL A   1      41.248  28.419  28.862  1.00  0.00    -0.248 NA
ATOM     36  C   UNL A   1      39.529  26.853  29.062  1.00  0.00     0.031 C 
ATOM     37  C   UNL A   1      43.644  25.366  26.614  1.00  0.00     0.029 A 
ATOM     38  N   UNL A   1      43.677  27.421  27.497  1.00  0.00    -0.354 N 
ATOM     39  C   UNL A   1      40.210  28.971  29.605  1.00  0.00     0.074 A 
ATOM     40  C   UNL A   1      39.163  27.974  29.669  1.00  0.00     0.031 C 
ATOM     41  C   UNL A   1      44.861  25.886  26.383  1.00  0.00     0.029 A 
ATOM     42  C   UNL A   1      44.904  27.251  26.898  1.00  0.00     0.049 A 
ATOM     43  H   UNL A   1      43.425  28.236  27.988  1.00  0.00     0.167 HD
ATOM     44  C   UNL A   1      40.143  30.198  30.180  1.00  0.00     0.034 A 
ATOM     45  C   UNL A   1      45.929  28.113  26.753  1.00  0.00     0.034 A 
ATOM     46  C   UNL A   1      41.198  31.179  30.101  1.00  0.00     0.049 A 
ATOM     47  C   UNL A   1      45.798  29.500  27.332  1.00  0.00     0.074 A 
ATOM     48  C   UNL A   1      41.230  32.459  30.628  1.00  0.00     0.029 A 
ATOM     49  N   UNL A   1      42.411  30.989  29.451  1.00  0.00    -0.354 N 
ATOM     50  N   UNL A   1      44.794  30.026  27.997  1.00  0.00    -0.248 NA
ATOM     51  C   UNL A   1      46.936  30.408  27.142  1.00  0.00     0.031 C 
ATOM     52  C   UNL A   1      42.437  33.060  30.250  1.00  0.00     0.029 A 
ATOM     53  C   UNL A   1      43.188  32.133  29.545  1.00  0.00     0.049 A 
ATOM     54  H   UNL A   1      42.681  30.161  28.990  1.00  0.00     0.167 HD
ATOM     55  C   UNL A   1      45.194  31.318  28.326  1.00  0.00     0.074 A 
ATOM     56  C   UNL A   1      46.533  31.485  27.800  1.00  0.00     0.031 C 
ATOM     57  C   UNL A   1      44.519  32.280  29.005  1.00  0.00     0.034 A 
BRANCH  44  58
ATOM     58  C   UNL A   1      38.859  30.560  30.885  1.00  0.00     0.023 A 
ATOM     59  C   UNL A   1      37.768  31.119  30.199  1.00  0.00     0.031 A 
ATOM     60  C   UNL A   1      38.739  30.372  32.274  1.00  0.00     0.131 A 
ATOM     61  C   UNL A   1      36.631  31.531  30.911  1.00  0.00     0.055 A 
ATOM     62  C   UNL A   1      37.578  30.716  32.966  1.00  0.00     0.041 A 
ATOM     63  F   UNL A   1      39.758  29.863  32.985  1.00  0.00    -0.206 F 
ATOM     64  C   UNL A   1      36.519  31.311  32.286  1.00  0.00     0.022 A 
BRANCH  61  65
ATOM     65  S   UNL A   1      35.351  32.473  30.037  1.00  0.00     0.124 S 
ATOM     66  O   UNL A   1      36.100  33.644  29.590  1.00  0.00    -0.237 OA
ATOM     67  O   UNL A   1      34.933  31.545  28.993  1.00  0.00    -0.237 OA
ATOM     68  O   UNL A   1      34.353  32.738  31.072  1.00  0.00    -0.744 OA
ENDBRANCH  61  65
ENDBRANCH  44  58
BRANCH  45  69
ATOM     69  C   UNL A   1      47.145  27.722  25.985  1.00  0.00     0.023 A 
ATOM     70  C   UNL A   1      47.251  27.979  24.609  1.00  0.00     0.031 A 
ATOM     71  C   UNL A   1      48.200  27.033  26.611  1.00  0.00     0.131 A 
ATOM     72  C   UNL A   1      48.364  27.508  23.895  1.00  0.00     0.055 A 
ATOM     73  C   UNL A   1      49.328  26.613  25.906  1.00  0.00     0.041 A 
ATOM     74  F   UNL A   1      48.148  26.760  27.924  1.00  0.00    -0.206 F 
ATOM     75  C   UNL A   1      49.409  26.839  24.536  1.00  0.00     0.022 A 
BRANCH  72  76
ATOM     76  S   UNL A   1      48.384  27.704  22.091  1.00  0.00     0.124 S 
ATOM     77  O   UNL A   1      48.596  26.332  21.645  1.00  0.00    -0.237 OA
ATOM     78  O   UNL A   1      47.062  28.266  21.833  1.00  0.00    -0.237 OA
ATOM     79  O   UNL A   1      49.503  28.616  21.860  1.00  0.00    -0.744 OA
ENDBRANCH  72  76
ENDBRANCH  45  69
BRANCH  57  80
ATOM     80  C   UNL A   1      45.250  33.576  29.256  1.00  0.00     0.023 A 
ATOM     81  C   UNL A   1      45.168  34.655  28.360  1.00  0.00     0.031 A 
ATOM     82  C   UNL A   1      46.055  33.719  30.399  1.00  0.00     0.131 A 
ATOM     83  C   UNL A   1      45.921  35.815  28.596  1.00  0.00     0.055 A 
ATOM     84  C   UNL A   1      46.760  34.896  30.655  1.00  0.00     0.041 A 
ATOM     85  F   UNL A   1      46.168  32.717  31.285  1.00  0.00    -0.206 F 
ATOM     86  C   UNL A   1      46.706  35.947  29.744  1.00  0.00     0.022 A 
BRANCH  83  87
ATOM     87  S   UNL A   1      45.928  37.121  27.337  1.00  0.00     0.124 S 
ATOM     88  O   UNL A   1      46.605  38.212  28.032  1.00  0.00    -0.237 OA
ATOM     89  O   UNL A   1      46.673  36.500  26.247  1.00  0.00    -0.237 OA
ATOM     90  O   UNL A   1      44.508  37.344  27.067  1.00  0.00    -0.744 OA
ENDBRANCH  83  87
ENDBRANCH  57  80
ENDBRANCH  31  32
ENDBRANCH  24  26
ENDBRANCH  23  24
ENDBRANCH  22  23
ENDBRANCH   1  22
TORSDOF 20
ENDMDL
MODEL 3
REMARK VINA RESULT:      -9.2      5.888     10.742
REMARK SMILES COc1ccc(C(=O)SC[C@H]([NH3+])C(=O)OCCOC(=O)c2ccc(-c3c4nc(c(-c5cc(S(=O)(=O)[O-])ccc5F)c5ccc([nH]5)c(-c5cc(S(=O)(=O)[O-])ccc5F)c5nc(c(-c6cc(S(=O)(=O)[O-])ccc6F)c6ccc3[nH]6)C=C5)C=C4)cc2)cc1
REMARK SMILES IDX 16 1 15 2 13 3 14 4 11 5 10 6 9 7 7 8 8 9 6 10 3 11 4 12
REMARK SMILES IDX 85 13 5 14 84 15 2 16 1 17 12 18 17 22 18 23 19 24 20 25
REMARK SMILES IDX 21 26 22 27 83 28 23 29 82 30 24 31 25 32 26 33 76 34 27 35
REMARK SMILES IDX 81 36 75 37 77 38 28 39 80 40 74 41 73 42 29 44 61 45 41 46
REMARK SMILES IDX 60 47 42 48 45 49 59 50 78 51 43 52 44 53 58 55 79 56 46 57
REMARK SMILES IDX 30 58 31 59 39 60 32 61 38 62 40 63 37 64 33 65 34 66 35 67
REMARK SMILES IDX 36 68 62 69 63 70 71 71 64 72 70 73 72 74 69 75 65 76 66 77
REMARK SMILES IDX 67 78 68 79 47 80 48 81 56 82 49 83 55 84 57 85 54 86 50 87
REMARK SMILES IDX 51 88 52 89 53 90
REMARK H PARENT 12 19 12 20 12 21 77 43 45 54
REMARK Flexibility Score: inf
ROOT
ATOM      1  C   UNL A   1      36.795  22.843  24.036  1.00  0.00     0.274 C 
ENDROOT
BRANCH   1   2
ATOM      2  O   UNL A   1      35.549  23.235  24.635  1.00  0.00    -0.458 OA
BRANCH   2   3
ATOM      3  C   UNL A   1      34.571  23.682  23.802  1.00  0.00     0.365 C 
ATOM      4  O   UNL A   1      34.593  23.573  22.581  1.00  0.00    -0.245 OA
BRANCH   3   5
ATOM      5  C   UNL A   1      33.394  24.320  24.559  1.00  0.00     0.302 C 
BRANCH   5   6
ATOM      6  C   UNL A   1      32.072  23.653  24.153  1.00  0.00     0.155 C 
BRANCH   6   7
ATOM      7  S   UNL A   1      31.770  22.017  24.901  1.00  0.00    -0.076 SA
BRANCH   7   8
ATOM      8  C   UNL A   1      32.120  21.000  23.502  1.00  0.00     0.219 C 
ATOM      9  O   UNL A   1      32.012  21.441  22.363  1.00  0.00    -0.282 OA
BRANCH   8  10
ATOM     10  C   UNL A   1      32.460  19.564  23.737  1.00  0.00     0.029 A 
ATOM     11  C   UNL A   1      33.343  16.948  24.266  1.00  0.00     0.118 A 
ATOM     12  C   UNL A   1      33.251  17.876  25.302  1.00  0.00     0.047 A 
ATOM     13  C   UNL A   1      32.921  17.297  22.984  1.00  0.00     0.047 A 
ATOM     14  C   UNL A   1      32.822  19.180  25.039  1.00  0.00     0.016 A 
ATOM     15  C   UNL A   1      32.483  18.599  22.720  1.00  0.00     0.016 A 
BRANCH  11  16
ATOM     16  O   UNL A   1      33.832  15.714  24.596  1.00  0.00    -0.497 OA
ATOM     17  C   UNL A   1      35.108  15.760  25.232  1.00  0.00     0.278 C 
ENDBRANCH  11  16
ENDBRANCH   8  10
ENDBRANCH   7   8
ENDBRANCH   6   7
ENDBRANCH   5   6
BRANCH   5  18
ATOM     18  N   UNL A   1      33.393  25.797  24.464  1.00  0.00    -0.345 N 
ATOM     19  H   UNL A   1      33.806  26.193  25.308  1.00  0.00     0.345 HD
ATOM     20  H   UNL A   1      32.434  26.131  24.365  1.00  0.00     0.345 HD
ATOM     21  H   UNL A   1      33.938  26.086  23.651  1.00  0.00     0.345 HD
ENDBRANCH   5  18
ENDBRANCH   3   5
ENDBRANCH   2   3
ENDBRANCH   1   2
BRANCH   1  22
ATOM     22  C   UNL A   1      37.178  21.431  24.489  1.00  0.00     0.275 C 
BRANCH  22  23
ATOM     23  O   UNL A   1      37.566  21.401  25.877  1.00  0.00    -0.458 OA
BRANCH  23  24
ATOM     24  C   UNL A   1      38.888  21.203  26.099  1.00  0.00     0.338 C 
ATOM     25  O   UNL A   1      39.550  20.225  25.794  1.00  0.00    -0.246 OA
BRANCH  24  26
ATOM     26  C   UNL A   1      39.499  22.426  26.641  1.00  0.00     0.060 A 
ATOM     27  C   UNL A   1      39.057  23.648  26.128  1.00  0.00     0.016 A 
ATOM     28  C   UNL A   1      40.550  22.379  27.558  1.00  0.00     0.016 A 
ATOM     29  C   UNL A   1      39.669  24.834  26.516  1.00  0.00     0.010 A 
ATOM     30  C   UNL A   1      41.167  23.573  27.948  1.00  0.00     0.010 A 
ATOM     31  C   UNL A   1      40.738  24.804  27.419  1.00  0.00    -0.014 A 
BRANCH  31  32
ATOM     32  C   UNL A   1      41.452  26.064  27.735  1.00  0.00     0.031 A 
ATOM     33  C   UNL A   1      40.759  27.122  28.545  1.00  0.00     0.074 A 
ATOM     34  C   UNL A   1      42.727  26.231  27.339  1.00  0.00     0.049 A 
ATOM     35  N   UNL A   1      41.167  28.321  28.865  1.00  0.00    -0.248 NA
ATOM     36  C   UNL A   1      39.426  26.779  29.063  1.00  0.00     0.031 C 
ATOM     37  C   UNL A   1      43.518  25.239  26.609  1.00  0.00     0.029 A 
ATOM     38  N   UNL A   1      43.580  27.292  27.496  1.00  0.00    -0.354 N 
ATOM     39  C   UNL A   1      40.137  28.886  29.609  1.00  0.00     0.074 A 
ATOM     40  C   UNL A   1      39.076  27.903  29.671  1.00  0.00     0.031 C 
ATOM     41  C   UNL A   1      44.743  25.742  26.379  1.00  0.00     0.029 A 
ATOM     42  C   UNL A   1      44.805  27.106  26.896  1.00  0.00     0.049 A 
ATOM     43  H   UNL A   1      43.341  28.109  27.990  1.00  0.00     0.167 HD
ATOM     44  C   UNL A   1      40.088  30.112  30.187  1.00  0.00     0.034 A 
ATOM     45  C   UNL A   1      45.842  27.954  26.752  1.00  0.00     0.034 A 
ATOM     46  C   UNL A   1      41.156  31.079  30.110  1.00  0.00     0.049 A 
ATOM     47  C   UNL A   1      45.730  29.341  27.335  1.00  0.00     0.074 A 
ATOM     48  C   UNL A   1      41.207  32.357  30.640  1.00  0.00     0.029 A 
ATOM     49  N   UNL A   1      42.367  30.873  29.459  1.00  0.00    -0.354 N 
ATOM     50  N   UNL A   1      44.735  29.880  28.001  1.00  0.00    -0.248 NA
ATOM     51  C   UNL A   1      46.882  30.234  27.146  1.00  0.00     0.031 C 
ATOM     52  C   UNL A   1      42.422  32.942  30.262  1.00  0.00     0.029 A 
ATOM     53  C   UNL A   1      43.159  32.006  29.554  1.00  0.00     0.049 A 
ATOM     54  H   UNL A   1      42.624  30.042  28.996  1.00  0.00     0.167 HD
ATOM     55  C   UNL A   1      45.153  31.165  28.333  1.00  0.00     0.074 A 
ATOM     56  C   UNL A   1      46.494  31.314  27.807  1.00  0.00     0.031 C 
ATOM     57  C   UNL A   1      44.492  32.135  29.015  1.00  0.00     0.034 A 
BRANCH  44  58
ATOM     58  C   UNL A   1      38.809  30.491  30.894  1.00  0.00     0.023 A 
ATOM     59  C   UNL A   1      37.731  31.080  30.212  1.00  0.00     0.031 A 
ATOM     60  C   UNL A   1      38.682  30.288  32.280  1.00  0.00     0.131 A 
ATOM     61  C   UNL A   1      36.600  31.505  30.926  1.00  0.00     0.055 A 
ATOM     62  C   UNL A   1      37.526  30.647  32.973  1.00  0.00     0.041 A 
ATOM     63  F   UNL A   1      39.689  29.750  32.987  1.00  0.00    -0.206 F 
ATOM     64  C   UNL A   1      36.481  31.271  32.298  1.00  0.00     0.022 A 
BRANCH  61  65
ATOM     65  S   UNL A   1      35.341  32.483  30.061  1.00  0.00     0.124 S 
ATOM     66  O   UNL A   1      36.105  33.663  29.665  1.00  0.00    -0.237 OA
ATOM     67  O   UNL A   1      34.936  31.591  28.981  1.00  0.00    -0.237 OA
ATOM     68  O   UNL A   1      34.327  32.721  31.086  1.00  0.00    -0.744 OA
ENDBRANCH  61  65
ENDBRANCH  44  58
BRANCH  45  69
ATOM     69  C   UNL A   1      47.052  27.548  25.983  1.00  0.00     0.023 A 
ATOM     70  C   UNL A   1      47.192  27.867  24.623  1.00  0.00     0.031 A 
ATOM     71  C   UNL A   1      48.065  26.781  26.588  1.00  0.00     0.131 A 
ATOM     72  C   UNL A   1      48.294  27.384  23.902  1.00  0.00     0.055 A 
ATOM     73  C   UNL A   1      49.185  26.347  25.879  1.00  0.00     0.041 A 
ATOM     74  F   UNL A   1      47.979  26.446  27.885  1.00  0.00    -0.206 F 
ATOM     75  C   UNL A   1      49.298  26.637  24.523  1.00  0.00     0.022 A 
BRANCH  72  76
ATOM     76  S   UNL A   1      48.353  27.668  22.111  1.00  0.00     0.124 S 
ATOM     77  O   UNL A   1      47.032  28.231  21.856  1.00  0.00    -0.237 OA
ATOM     78  O   UNL A   1      49.479  28.588  21.988  1.00  0.00    -0.237 OA
ATOM     79  O   UNL A   1      48.579  26.333  21.562  1.00  0.00    -0.744 OA
ENDBRANCH  72  76
ENDBRANCH  45  69
BRANCH  57  80
ATOM     80  C   UNL A   1      45.242  33.420  29.268  1.00  0.00     0.023 A 
ATOM     81  C   UNL A   1      45.100  34.535  28.425  1.00  0.00     0.031 A 
ATOM     82  C   UNL A   1      46.123  33.517  30.358  1.00  0.00     0.131 A 
ATOM     83  C   UNL A   1      45.870  35.685  28.657  1.00  0.00     0.055 A 
ATOM     84  C   UNL A   1      46.847  34.682  30.613  1.00  0.00     0.041 A 
ATOM     85  F   UNL A   1      46.295  32.479  31.192  1.00  0.00    -0.206 F 
ATOM     86  C   UNL A   1      46.733  35.770  29.753  1.00  0.00     0.022 A 
BRANCH  83  87
ATOM     87  S   UNL A   1      45.793  37.042  27.455  1.00  0.00     0.124 S 
ATOM     88  O   UNL A   1      46.349  38.156  28.217  1.00  0.00    -0.237 OA
ATOM     89  O   UNL A   1      46.621  36.540  26.364  1.00  0.00    -0.237 OA
ATOM     90  O   UNL A   1      44.367  37.149  27.150  1.00  0.00    -0.744 OA
ENDBRANCH  83  87
ENDBRANCH  57  80
ENDBRANCH  31  32
ENDBRANCH  24  26
ENDBRANCH  23  24
ENDBRANCH  22  23
ENDBRANCH   1  22
TORSDOF 20
ENDMDL
