MODEL 1
REMARK VINA RESULT:     -11.1      0.000      0.000
REMARK SMILES CC1(C)CC[N@@H+]([C@H](CC(=O)OCCOC(=O)c2ccc(-c3c4nc(c(-c5cc(S(=O)(=O)[O-])ccc5F)c5ccc([nH]5)c(-c5cc(S(=O)(=O)[O-])ccc5F)c5nc(c(-c6cc(S(=O)(=O)[O-])ccc6F)c6ccc3[nH]6)C=C5)C=C4)cc2)C(F)(F)F)C1
REMARK SMILES IDX 13 1 12 2 11 3 9 4 10 5 8 6 7 7 6 8 1 9 2 10 3 11 4 12 84 13
REMARK SMILES IDX 5 14 80 16 81 17 82 18 83 19 14 20 15 21 16 22 17 23 18 24
REMARK SMILES IDX 79 25 19 26 78 27 20 28 21 29 22 30 72 31 23 32 77 33 71 34
REMARK SMILES IDX 73 35 24 36 76 37 70 38 69 39 25 41 57 42 37 43 56 44 38 45
REMARK SMILES IDX 41 46 55 47 74 48 39 49 40 50 54 52 75 53 42 54 26 55 27 56
REMARK SMILES IDX 35 57 28 58 34 59 36 60 33 61 29 62 30 63 31 64 32 65 58 66
REMARK SMILES IDX 59 67 67 68 60 69 66 70 68 71 65 72 61 73 62 74 63 75 64 76
REMARK SMILES IDX 43 77 44 78 52 79 45 80 51 81 53 82 50 83 46 84 47 85 48 86
REMARK SMILES IDX 49 87
REMARK H PARENT 6 15 73 40 41 51
REMARK Flexibility Score: inf
ROOT
ATOM      1  C   UNL A   1      36.722  20.504  25.032  1.00  0.00     0.275 C 
ENDROOT
BRANCH   1   2
ATOM      2  C   UNL A   1      35.460  21.252  25.513  1.00  0.00     0.274 C 
BRANCH   2   3
ATOM      3  O   UNL A   1      34.280  20.938  24.723  1.00  0.00    -0.462 OA
BRANCH   3   4
ATOM      4  C   UNL A   1      33.096  20.900  25.376  1.00  0.00     0.312 C 
ATOM      5  O   UNL A   1      32.174  20.146  25.069  1.00  0.00    -0.252 OA
BRANCH   4   6
ATOM      6  C   UNL A   1      32.889  21.975  26.427  1.00  0.00     0.197 C 
BRANCH   6   7
ATOM      7  C   UNL A   1      32.584  23.460  26.132  1.00  0.00     0.302 C 
BRANCH   7   8
ATOM      8  N   UNL A   1      33.352  24.141  25.069  1.00  0.00    -0.324 N 
ATOM      9  C   UNL A   1      31.307  25.999  23.422  1.00  0.00     0.017 C 
ATOM     10  C   UNL A   1      32.753  25.534  23.220  1.00  0.00     0.019 C 
ATOM     11  C   UNL A   1      33.098  25.735  21.740  1.00  0.00     0.017 C 
ATOM     12  C   UNL A   1      33.745  26.295  24.112  1.00  0.00     0.073 C 
ATOM     13  C   UNL A   1      32.916  24.082  23.680  1.00  0.00     0.269 C 
ATOM     14  C   UNL A   1      33.961  25.427  25.352  1.00  0.00     0.263 C 
ATOM     15  H   UNL A   1      34.085  23.436  25.142  1.00  0.00     0.348 HD
ENDBRANCH   7   8
BRANCH   7  16
ATOM     16  C   UNL A   1      31.064  23.770  26.183  1.00  0.00     0.441 C 
ATOM     17  F   UNL A   1      30.484  23.139  27.236  1.00  0.00    -0.165 F 
ATOM     18  F   UNL A   1      30.851  25.098  26.372  1.00  0.00    -0.165 F 
ATOM     19  F   UNL A   1      30.383  23.421  25.074  1.00  0.00    -0.165 F 
ENDBRANCH   7  16
ENDBRANCH   6   7
ENDBRANCH   4   6
ENDBRANCH   3   4
ENDBRANCH   2   3
ENDBRANCH   1   2
BRANCH   1  20
ATOM     20  O   UNL A   1      37.864  21.365  24.783  1.00  0.00    -0.458 OA
BRANCH  20  21
ATOM     21  C   UNL A   1      38.857  21.170  25.667  1.00  0.00     0.338 C 
ATOM     22  O   UNL A   1      39.505  20.140  25.773  1.00  0.00    -0.246 OA
BRANCH  21  23
ATOM     23  C   UNL A   1      39.203  22.285  26.546  1.00  0.00     0.060 A 
ATOM     24  C   UNL A   1      38.654  23.512  26.178  1.00  0.00     0.016 A 
ATOM     25  C   UNL A   1      40.325  22.230  27.378  1.00  0.00     0.016 A 
ATOM     26  C   UNL A   1      39.301  24.688  26.543  1.00  0.00     0.010 A 
ATOM     27  C   UNL A   1      40.927  23.427  27.806  1.00  0.00     0.010 A 
ATOM     28  C   UNL A   1      40.452  24.669  27.351  1.00  0.00    -0.014 A 
BRANCH  28  29
ATOM     29  C   UNL A   1      41.135  25.966  27.645  1.00  0.00     0.031 A 
ATOM     30  C   UNL A   1      40.518  27.006  28.552  1.00  0.00     0.074 A 
ATOM     31  C   UNL A   1      42.389  26.161  27.187  1.00  0.00     0.049 A 
ATOM     32  N   UNL A   1      40.969  28.197  28.863  1.00  0.00    -0.248 NA
ATOM     33  C   UNL A   1      39.235  26.673  29.188  1.00  0.00     0.031 C 
ATOM     34  C   UNL A   1      43.130  25.219  26.345  1.00  0.00     0.029 A 
ATOM     35  N   UNL A   1      43.284  27.178  27.407  1.00  0.00    -0.354 N 
ATOM     36  C   UNL A   1      40.006  28.777  29.684  1.00  0.00     0.074 A 
ATOM     37  C   UNL A   1      38.948  27.797  29.833  1.00  0.00     0.031 C 
ATOM     38  C   UNL A   1      44.390  25.651  26.205  1.00  0.00     0.029 A 
ATOM     39  C   UNL A   1      44.521  26.950  26.851  1.00  0.00     0.049 A 
ATOM     40  H   UNL A   1      43.061  27.991  27.917  1.00  0.00     0.167 HD
ATOM     41  C   UNL A   1      40.000  30.012  30.247  1.00  0.00     0.034 A 
ATOM     42  C   UNL A   1      45.633  27.710  26.827  1.00  0.00     0.034 A 
ATOM     43  C   UNL A   1      41.081  30.965  30.139  1.00  0.00     0.049 A 
ATOM     44  C   UNL A   1      45.600  29.072  27.455  1.00  0.00     0.074 A 
ATOM     45  C   UNL A   1      41.160  32.246  30.660  1.00  0.00     0.029 A 
ATOM     46  N   UNL A   1      42.282  30.735  29.483  1.00  0.00    -0.354 N 
ATOM     47  N   UNL A   1      44.621  29.654  28.106  1.00  0.00    -0.248 NA
ATOM     48  C   UNL A   1      46.807  29.893  27.307  1.00  0.00     0.031 C 
ATOM     49  C   UNL A   1      42.388  32.805  30.284  1.00  0.00     0.029 A 
ATOM     50  C   UNL A   1      43.098  31.855  29.572  1.00  0.00     0.049 A 
ATOM     51  H   UNL A   1      42.521  29.900  29.020  1.00  0.00     0.167 HD
ATOM     52  C   UNL A   1      45.082  30.928  28.411  1.00  0.00     0.074 A 
ATOM     53  C   UNL A   1      46.444  31.010  27.921  1.00  0.00     0.031 C 
ATOM     54  C   UNL A   1      44.430  31.947  29.025  1.00  0.00     0.034 A 
BRANCH  41  55
ATOM     55  C   UNL A   1      38.750  30.445  30.973  1.00  0.00     0.023 A 
ATOM     56  C   UNL A   1      37.703  31.128  30.331  1.00  0.00     0.031 A 
ATOM     57  C   UNL A   1      38.602  30.142  32.340  1.00  0.00     0.131 A 
ATOM     58  C   UNL A   1      36.569  31.513  31.065  1.00  0.00     0.055 A 
ATOM     59  C   UNL A   1      37.451  30.482  33.051  1.00  0.00     0.041 A 
ATOM     60  F   UNL A   1      39.579  29.504  33.004  1.00  0.00    -0.206 F 
ATOM     61  C   UNL A   1      36.429  31.178  32.415  1.00  0.00     0.022 A 
BRANCH  58  62
ATOM     62  S   UNL A   1      35.309  32.539  30.257  1.00  0.00     0.124 S 
ATOM     63  O   UNL A   1      36.083  33.719  29.881  1.00  0.00    -0.237 OA
ATOM     64  O   UNL A   1      34.866  31.687  29.161  1.00  0.00    -0.237 OA
ATOM     65  O   UNL A   1      34.321  32.762  31.311  1.00  0.00    -0.744 OA
ENDBRANCH  58  62
ENDBRANCH  41  55
BRANCH  42  66
ATOM     66  C   UNL A   1      46.838  27.234  26.097  1.00  0.00     0.023 A 
ATOM     67  C   UNL A   1      47.090  27.624  24.774  1.00  0.00     0.031 A 
ATOM     68  C   UNL A   1      47.762  26.380  26.729  1.00  0.00     0.131 A 
ATOM     69  C   UNL A   1      48.237  27.147  24.118  1.00  0.00     0.055 A 
ATOM     70  C   UNL A   1      48.920  25.946  26.088  1.00  0.00     0.041 A 
ATOM     71  F   UNL A   1      47.561  25.984  27.996  1.00  0.00    -0.206 F 
ATOM     72  C   UNL A   1      49.160  26.326  24.771  1.00  0.00     0.022 A 
BRANCH  69  73
ATOM     73  S   UNL A   1      48.495  27.593  22.379  1.00  0.00     0.124 S 
ATOM     74  O   UNL A   1      49.749  28.337  22.446  1.00  0.00    -0.237 OA
ATOM     75  O   UNL A   1      48.559  26.286  21.735  1.00  0.00    -0.237 OA
ATOM     76  O   UNL A   1      47.314  28.388  22.053  1.00  0.00    -0.744 OA
ENDBRANCH  69  73
ENDBRANCH  42  66
BRANCH  54  77
ATOM     77  C   UNL A   1      45.189  33.239  29.158  1.00  0.00     0.023 A 
ATOM     78  C   UNL A   1      45.091  34.237  28.171  1.00  0.00     0.031 A 
ATOM     79  C   UNL A   1      46.057  33.453  30.240  1.00  0.00     0.131 A 
ATOM     80  C   UNL A   1      45.891  35.385  28.259  1.00  0.00     0.055 A 
ATOM     81  C   UNL A   1      46.822  34.616  30.343  1.00  0.00     0.041 A 
ATOM     82  F   UNL A   1      46.190  32.528  31.202  1.00  0.00    -0.206 F 
ATOM     83  C   UNL A   1      46.751  35.584  29.343  1.00  0.00     0.022 A 
BRANCH  80  84
ATOM     84  S   UNL A   1      45.864  36.573  26.888  1.00  0.00     0.124 S 
ATOM     85  O   UNL A   1      46.867  37.547  27.306  1.00  0.00    -0.237 OA
ATOM     86  O   UNL A   1      46.222  35.738  25.745  1.00  0.00    -0.237 OA
ATOM     87  O   UNL A   1      44.488  37.065  26.888  1.00  0.00    -0.744 OA
ENDBRANCH  80  84
ENDBRANCH  54  77
ENDBRANCH  28  29
ENDBRANCH  21  23
ENDBRANCH  20  21
ENDBRANCH   1  20
TORSDOF 17
ENDMDL
MODEL 2
REMARK VINA RESULT:     -11.1      5.177     10.281
REMARK SMILES CC1(C)CC[N@@H+]([C@H](CC(=O)OCCOC(=O)c2ccc(-c3c4nc(c(-c5cc(S(=O)(=O)[O-])ccc5F)c5ccc([nH]5)c(-c5cc(S(=O)(=O)[O-])ccc5F)c5nc(c(-c6cc(S(=O)(=O)[O-])ccc6F)c6ccc3[nH]6)C=C5)C=C4)cc2)C(F)(F)F)C1
REMARK SMILES IDX 13 1 12 2 11 3 9 4 10 5 8 6 7 7 6 8 1 9 2 10 3 11 4 12 84 13
REMARK SMILES IDX 5 14 80 16 81 17 82 18 83 19 14 20 15 21 16 22 17 23 18 24
REMARK SMILES IDX 79 25 19 26 78 27 20 28 21 29 22 30 72 31 23 32 77 33 71 34
REMARK SMILES IDX 73 35 24 36 76 37 70 38 69 39 25 41 57 42 37 43 56 44 38 45
REMARK SMILES IDX 41 46 55 47 74 48 39 49 40 50 54 52 75 53 42 54 26 55 27 56
REMARK SMILES IDX 35 57 28 58 34 59 36 60 33 61 29 62 30 63 31 64 32 65 58 66
REMARK SMILES IDX 59 67 67 68 60 69 66 70 68 71 65 72 61 73 62 74 63 75 64 76
REMARK SMILES IDX 43 77 44 78 52 79 45 80 51 81 53 82 50 83 46 84 47 85 48 86
REMARK SMILES IDX 49 87
REMARK H PARENT 6 15 73 40 41 51
REMARK Flexibility Score: inf
ROOT
ATOM      1  C   UNL A   1      31.756  30.186  25.760  1.00  0.00     0.275 C 
ENDROOT
BRANCH   1   2
ATOM      2  C   UNL A   1      31.404  28.720  25.429  1.00  0.00     0.274 C 
BRANCH   2   3
ATOM      3  O   UNL A   1      31.504  27.840  26.583  1.00  0.00    -0.462 OA
BRANCH   3   4
ATOM      4  C   UNL A   1      31.904  26.568  26.352  1.00  0.00     0.312 C 
ATOM      5  O   UNL A   1      31.176  25.589  26.502  1.00  0.00    -0.252 OA
BRANCH   4   6
ATOM      6  C   UNL A   1      33.381  26.388  26.052  1.00  0.00     0.197 C 
BRANCH   6   7
ATOM      7  C   UNL A   1      33.954  25.622  24.839  1.00  0.00     0.302 C 
BRANCH   7   8
ATOM      8  N   UNL A   1      34.170  24.166  24.961  1.00  0.00    -0.324 N 
ATOM      9  C   UNL A   1      37.206  23.703  25.915  1.00  0.00     0.017 C 
ATOM     10  C   UNL A   1      36.086  22.801  25.389  1.00  0.00     0.019 C 
ATOM     11  C   UNL A   1      36.735  21.500  24.901  1.00  0.00     0.017 C 
ATOM     12  C   UNL A   1      35.020  22.505  26.453  1.00  0.00     0.073 C 
ATOM     13  C   UNL A   1      35.292  23.520  24.293  1.00  0.00     0.269 C 
ATOM     14  C   UNL A   1      33.896  23.516  26.229  1.00  0.00     0.263 C 
ATOM     15  H   UNL A   1      33.370  23.993  24.352  1.00  0.00     0.348 HD
ENDBRANCH   7   8
BRANCH   7  16
ATOM     16  C   UNL A   1      33.354  26.115  23.495  1.00  0.00     0.441 C 
ATOM     17  F   UNL A   1      33.479  27.463  23.382  1.00  0.00    -0.165 F 
ATOM     18  F   UNL A   1      34.028  25.582  22.444  1.00  0.00    -0.165 F 
ATOM     19  F   UNL A   1      32.053  25.811  23.317  1.00  0.00    -0.165 F 
ENDBRANCH   7  16
ENDBRANCH   6   7
ENDBRANCH   4   6
ENDBRANCH   3   4
ENDBRANCH   2   3
ENDBRANCH   1   2
BRANCH   1  20
ATOM     20  O   UNL A   1      32.170  30.402  27.135  1.00  0.00    -0.458 OA
BRANCH  20  21
ATOM     21  C   UNL A   1      32.987  31.461  27.265  1.00  0.00     0.338 C 
ATOM     22  O   UNL A   1      32.625  32.628  27.259  1.00  0.00    -0.246 OA
BRANCH  21  23
ATOM     23  C   UNL A   1      34.411  31.192  27.457  1.00  0.00     0.060 A 
ATOM     24  C   UNL A   1      34.735  29.847  27.621  1.00  0.00     0.016 A 
ATOM     25  C   UNL A   1      35.284  32.192  27.897  1.00  0.00     0.016 A 
ATOM     26  C   UNL A   1      35.876  29.500  28.335  1.00  0.00     0.010 A 
ATOM     27  C   UNL A   1      36.475  31.829  28.552  1.00  0.00     0.010 A 
ATOM     28  C   UNL A   1      36.760  30.480  28.823  1.00  0.00    -0.014 A 
BRANCH  28  29
ATOM     29  C   UNL A   1      37.930  30.038  29.643  1.00  0.00     0.031 A 
ATOM     30  C   UNL A   1      39.042  29.199  29.059  1.00  0.00     0.074 A 
ATOM     31  C   UNL A   1      38.056  30.504  30.903  1.00  0.00     0.049 A 
ATOM     32  N   UNL A   1      40.097  28.700  29.658  1.00  0.00    -0.248 NA
ATOM     33  C   UNL A   1      38.964  28.874  27.627  1.00  0.00     0.031 C 
ATOM     34  C   UNL A   1      37.085  31.367  31.579  1.00  0.00     0.029 A 
ATOM     35  N   UNL A   1      39.069  30.370  31.819  1.00  0.00    -0.354 N 
ATOM     36  C   UNL A   1      40.778  27.960  28.696  1.00  0.00     0.074 A 
ATOM     37  C   UNL A   1      40.021  28.086  27.466  1.00  0.00     0.031 C 
ATOM     38  C   UNL A   1      37.592  31.765  32.753  1.00  0.00     0.029 A 
ATOM     39  C   UNL A   1      38.872  31.102  32.966  1.00  0.00     0.049 A 
ATOM     40  H   UNL A   1      39.861  29.805  31.667  1.00  0.00     0.167 HD
ATOM     41  C   UNL A   1      41.918  27.234  28.830  1.00  0.00     0.034 A 
ATOM     42  C   UNL A   1      39.614  31.209  34.085  1.00  0.00     0.034 A 
ATOM     43  C   UNL A   1      42.697  27.154  30.044  1.00  0.00     0.049 A 
ATOM     44  C   UNL A   1      40.867  30.395  34.210  1.00  0.00     0.074 A 
ATOM     45  C   UNL A   1      43.856  26.433  30.282  1.00  0.00     0.029 A 
ATOM     46  N   UNL A   1      42.412  27.834  31.220  1.00  0.00    -0.354 N 
ATOM     47  N   UNL A   1      41.416  29.590  33.332  1.00  0.00    -0.248 NA
ATOM     48  C   UNL A   1      41.578  30.475  35.492  1.00  0.00     0.031 C 
ATOM     49  C   UNL A   1      44.247  26.643  31.610  1.00  0.00     0.029 A 
ATOM     50  C   UNL A   1      43.361  27.536  32.188  1.00  0.00     0.049 A 
ATOM     51  H   UNL A   1      41.647  28.440  31.349  1.00  0.00     0.167 HD
ATOM     52  C   UNL A   1      42.517  29.034  33.972  1.00  0.00     0.074 A 
ATOM     53  C   UNL A   1      42.584  29.636  35.289  1.00  0.00     0.031 C 
ATOM     54  C   UNL A   1      43.382  28.095  33.518  1.00  0.00     0.034 A 
BRANCH  41  55
ATOM     55  C   UNL A   1      42.359  26.398  27.653  1.00  0.00     0.023 A 
ATOM     56  C   UNL A   1      41.961  25.061  27.487  1.00  0.00     0.031 A 
ATOM     57  C   UNL A   1      43.183  26.972  26.666  1.00  0.00     0.131 A 
ATOM     58  C   UNL A   1      42.415  24.333  26.375  1.00  0.00     0.055 A 
ATOM     59  C   UNL A   1      43.587  26.259  25.538  1.00  0.00     0.041 A 
ATOM     60  F   UNL A   1      43.603  28.242  26.785  1.00  0.00    -0.206 F 
ATOM     61  C   UNL A   1      43.210  24.929  25.390  1.00  0.00     0.022 A 
BRANCH  58  62
ATOM     62  S   UNL A   1      42.027  22.564  26.268  1.00  0.00     0.124 S 
ATOM     63  O   UNL A   1      42.653  22.198  25.001  1.00  0.00    -0.237 OA
ATOM     64  O   UNL A   1      42.656  22.030  27.470  1.00  0.00    -0.237 OA
ATOM     65  O   UNL A   1      40.566  22.533  26.263  1.00  0.00    -0.744 OA
ENDBRANCH  58  62
ENDBRANCH  41  55
BRANCH  42  66
ATOM     66  C   UNL A   1      39.131  32.048  35.215  1.00  0.00     0.023 A 
ATOM     67  C   UNL A   1      38.498  31.477  36.328  1.00  0.00     0.031 A 
ATOM     68  C   UNL A   1      39.309  33.444  35.190  1.00  0.00     0.131 A 
ATOM     69  C   UNL A   1      38.052  32.305  37.371  1.00  0.00     0.055 A 
ATOM     70  C   UNL A   1      38.904  34.255  36.248  1.00  0.00     0.041 A 
ATOM     71  F   UNL A   1      39.912  34.033  34.145  1.00  0.00    -0.206 F 
ATOM     72  C   UNL A   1      38.266  33.686  37.345  1.00  0.00     0.022 A 
BRANCH  69  73
ATOM     73  S   UNL A   1      37.158  31.554  38.758  1.00  0.00     0.124 S 
ATOM     74  O   UNL A   1      35.928  32.339  38.780  1.00  0.00    -0.237 OA
ATOM     75  O   UNL A   1      37.026  30.167  38.323  1.00  0.00    -0.237 OA
ATOM     76  O   UNL A   1      38.053  31.764  39.894  1.00  0.00    -0.744 OA
ENDBRANCH  69  73
ENDBRANCH  42  66
BRANCH  54  77
ATOM     77  C   UNL A   1      44.448  27.650  34.483  1.00  0.00     0.023 A 
ATOM     78  C   UNL A   1      44.201  26.612  35.400  1.00  0.00     0.031 A 
ATOM     79  C   UNL A   1      45.691  28.300  34.528  1.00  0.00     0.131 A 
ATOM     80  C   UNL A   1      45.168  26.289  36.363  1.00  0.00     0.055 A 
ATOM     81  C   UNL A   1      46.666  27.947  35.463  1.00  0.00     0.041 A 
ATOM     82  F   UNL A   1      45.971  29.300  33.678  1.00  0.00    -0.206 F 
ATOM     83  C   UNL A   1      46.402  26.945  36.395  1.00  0.00     0.022 A 
BRANCH  80  84
ATOM     84  S   UNL A   1      44.755  25.063  37.634  1.00  0.00     0.124 S 
ATOM     85  O   UNL A   1      43.306  25.204  37.737  1.00  0.00    -0.237 OA
ATOM     86  O   UNL A   1      45.234  23.821  37.037  1.00  0.00    -0.237 OA
ATOM     87  O   UNL A   1      45.504  25.517  38.804  1.00  0.00    -0.744 OA
ENDBRANCH  80  84
ENDBRANCH  54  77
ENDBRANCH  28  29
ENDBRANCH  21  23
ENDBRANCH  20  21
ENDBRANCH   1  20
TORSDOF 17
ENDMDL
MODEL 3
REMARK VINA RESULT:     -11.1      1.296      7.857
REMARK SMILES CC1(C)CC[N@@H+]([C@H](CC(=O)OCCOC(=O)c2ccc(-c3c4nc(c(-c5cc(S(=O)(=O)[O-])ccc5F)c5ccc([nH]5)c(-c5cc(S(=O)(=O)[O-])ccc5F)c5nc(c(-c6cc(S(=O)(=O)[O-])ccc6F)c6ccc3[nH]6)C=C5)C=C4)cc2)C(F)(F)F)C1
REMARK SMILES IDX 13 1 12 2 11 3 9 4 10 5 8 6 7 7 6 8 1 9 2 10 3 11 4 12 84 13
REMARK SMILES IDX 5 14 80 16 81 17 82 18 83 19 14 20 15 21 16 22 17 23 18 24
REMARK SMILES IDX 79 25 19 26 78 27 20 28 21 29 22 30 72 31 23 32 77 33 71 34
REMARK SMILES IDX 73 35 24 36 76 37 70 38 69 39 25 41 57 42 37 43 56 44 38 45
REMARK SMILES IDX 41 46 55 47 74 48 39 49 40 50 54 52 75 53 42 54 26 55 27 56
REMARK SMILES IDX 35 57 28 58 34 59 36 60 33 61 29 62 30 63 31 64 32 65 58 66
REMARK SMILES IDX 59 67 67 68 60 69 66 70 68 71 65 72 61 73 62 74 63 75 64 76
REMARK SMILES IDX 43 77 44 78 52 79 45 80 51 81 53 82 50 83 46 84 47 85 48 86
REMARK SMILES IDX 49 87
REMARK H PARENT 6 15 73 40 41 51
REMARK Flexibility Score: inf
ROOT
ATOM      1  C   UNL A   1      36.910  20.306  25.006  1.00  0.00     0.275 C 
ENDROOT
BRANCH   1   2
ATOM      2  C   UNL A   1      35.510  20.949  25.109  1.00  0.00     0.274 C 
BRANCH   2   3
ATOM      3  O   UNL A   1      35.254  21.540  26.413  1.00  0.00    -0.462 OA
BRANCH   3   4
ATOM      4  C   UNL A   1      34.142  22.303  26.534  1.00  0.00     0.312 C 
ATOM      5  O   UNL A   1      33.736  22.745  27.606  1.00  0.00    -0.252 OA
BRANCH   4   6
ATOM      6  C   UNL A   1      33.307  22.452  25.276  1.00  0.00     0.197 C 
BRANCH   6   7
ATOM      7  C   UNL A   1      32.986  23.791  24.575  1.00  0.00     0.302 C 
BRANCH   7   8
ATOM      8  N   UNL A   1      32.262  24.830  25.336  1.00  0.00    -0.324 N 
ATOM      9  C   UNL A   1      33.707  27.647  24.767  1.00  0.00     0.017 C 
ATOM     10  C   UNL A   1      32.644  27.153  25.753  1.00  0.00     0.019 C 
ATOM     11  C   UNL A   1      32.578  28.168  26.901  1.00  0.00     0.017 C 
ATOM     12  C   UNL A   1      31.265  26.989  25.099  1.00  0.00     0.073 C 
ATOM     13  C   UNL A   1      32.974  25.734  26.228  1.00  0.00     0.269 C 
ATOM     14  C   UNL A   1      31.147  25.516  24.708  1.00  0.00     0.263 C 
ATOM     15  H   UNL A   1      31.871  24.114  25.948  1.00  0.00     0.348 HD
ENDBRANCH   7   8
BRANCH   7  16
ATOM     16  C   UNL A   1      34.160  24.287  23.688  1.00  0.00     0.441 C 
ATOM     17  F   UNL A   1      33.752  25.302  22.883  1.00  0.00    -0.165 F 
ATOM     18  F   UNL A   1      35.162  24.789  24.454  1.00  0.00    -0.165 F 
ATOM     19  F   UNL A   1      34.708  23.339  22.902  1.00  0.00    -0.165 F 
ENDBRANCH   7  16
ENDBRANCH   6   7
ENDBRANCH   4   6
ENDBRANCH   3   4
ENDBRANCH   2   3
ENDBRANCH   1   2
BRANCH   1  20
ATOM     20  O   UNL A   1      37.992  21.261  24.851  1.00  0.00    -0.458 OA
BRANCH  20  21
ATOM     21  C   UNL A   1      38.996  21.046  25.718  1.00  0.00     0.338 C 
ATOM     22  O   UNL A   1      39.637  20.010  25.802  1.00  0.00    -0.246 OA
BRANCH  21  23
ATOM     23  C   UNL A   1      39.362  22.147  26.607  1.00  0.00     0.060 A 
ATOM     24  C   UNL A   1      38.772  23.370  26.299  1.00  0.00     0.016 A 
ATOM     25  C   UNL A   1      40.526  22.095  27.382  1.00  0.00     0.016 A 
ATOM     26  C   UNL A   1      39.412  24.550  26.660  1.00  0.00     0.010 A 
ATOM     27  C   UNL A   1      41.124  23.294  27.809  1.00  0.00     0.010 A 
ATOM     28  C   UNL A   1      40.602  24.536  27.410  1.00  0.00    -0.014 A 
BRANCH  28  29
ATOM     29  C   UNL A   1      41.274  25.840  27.703  1.00  0.00     0.031 A 
ATOM     30  C   UNL A   1      42.593  26.218  27.068  1.00  0.00     0.074 A 
ATOM     31  C   UNL A   1      40.627  26.752  28.457  1.00  0.00     0.049 A 
ATOM     32  N   UNL A   1      43.319  27.292  27.262  1.00  0.00    -0.248 NA
ATOM     33  C   UNL A   1      43.172  25.276  26.099  1.00  0.00     0.031 C 
ATOM     34  C   UNL A   1      39.322  26.543  29.090  1.00  0.00     0.029 A 
ATOM     35  N   UNL A   1      40.941  28.050  28.774  1.00  0.00    -0.354 N 
ATOM     36  C   UNL A   1      44.463  27.134  26.485  1.00  0.00     0.074 A 
ATOM     37  C   UNL A   1      44.327  25.861  25.805  1.00  0.00     0.031 C 
ATOM     38  C   UNL A   1      38.905  27.696  29.629  1.00  0.00     0.029 A 
ATOM     39  C   UNL A   1      39.954  28.697  29.479  1.00  0.00     0.049 A 
ATOM     40  H   UNL A   1      41.791  28.476  28.518  1.00  0.00     0.167 HD
ATOM     41  C   UNL A   1      45.530  27.965  26.362  1.00  0.00     0.034 A 
ATOM     42  C   UNL A   1      39.901  29.944  29.985  1.00  0.00     0.034 A 
ATOM     43  C   UNL A   1      45.637  29.257  27.001  1.00  0.00     0.049 A 
ATOM     44  C   UNL A   1      41.094  30.842  29.838  1.00  0.00     0.074 A 
ATOM     45  C   UNL A   1      46.685  30.163  26.949  1.00  0.00     0.029 A 
ATOM     46  N   UNL A   1      44.655  29.839  27.790  1.00  0.00    -0.354 N 
ATOM     47  N   UNL A   1      42.224  30.612  29.215  1.00  0.00    -0.248 NA
ATOM     48  C   UNL A   1      41.016  32.151  30.497  1.00  0.00     0.031 C 
ATOM     49  C   UNL A   1      46.354  31.271  27.740  1.00  0.00     0.029 A 
ATOM     50  C   UNL A   1      45.079  31.081  28.244  1.00  0.00     0.049 A 
ATOM     51  H   UNL A   1      43.784  29.431  27.999  1.00  0.00     0.167 HD
ATOM     52  C   UNL A   1      43.011  31.734  29.442  1.00  0.00     0.074 A 
ATOM     53  C   UNL A   1      42.206  32.660  30.213  1.00  0.00     0.031 C 
ATOM     54  C   UNL A   1      44.292  31.969  29.064  1.00  0.00     0.034 A 
BRANCH  41  55
ATOM     55  C   UNL A   1      46.713  27.474  25.564  1.00  0.00     0.023 A 
ATOM     56  C   UNL A   1      46.935  27.860  24.231  1.00  0.00     0.031 A 
ATOM     57  C   UNL A   1      47.648  26.613  26.169  1.00  0.00     0.131 A 
ATOM     58  C   UNL A   1      48.050  27.359  23.538  1.00  0.00     0.055 A 
ATOM     59  C   UNL A   1      48.780  26.161  25.491  1.00  0.00     0.041 A 
ATOM     60  F   UNL A   1      47.474  26.201  27.435  1.00  0.00    -0.206 F 
ATOM     61  C   UNL A   1      48.983  26.528  24.165  1.00  0.00     0.022 A 
BRANCH  58  62
ATOM     62  S   UNL A   1      48.225  27.737  21.772  1.00  0.00     0.124 S 
ATOM     63  O   UNL A   1      49.354  28.663  21.777  1.00  0.00    -0.237 OA
ATOM     64  O   UNL A   1      48.477  26.424  21.192  1.00  0.00    -0.237 OA
ATOM     65  O   UNL A   1      46.940  28.337  21.420  1.00  0.00    -0.744 OA
ENDBRANCH  58  62
ENDBRANCH  41  55
BRANCH  42  66
ATOM     66  C   UNL A   1      38.710  30.376  30.764  1.00  0.00     0.023 A 
ATOM     67  C   UNL A   1      37.665  31.090  30.160  1.00  0.00     0.031 A 
ATOM     68  C   UNL A   1      38.604  30.067  32.133  1.00  0.00     0.131 A 
ATOM     69  C   UNL A   1      36.559  31.484  30.931  1.00  0.00     0.055 A 
ATOM     70  C   UNL A   1      37.485  30.423  32.882  1.00  0.00     0.041 A 
ATOM     71  F   UNL A   1      39.580  29.384  32.751  1.00  0.00    -0.206 F 
ATOM     72  C   UNL A   1      36.456  31.141  32.282  1.00  0.00     0.022 A 
BRANCH  69  73
ATOM     73  S   UNL A   1      35.262  32.482  30.150  1.00  0.00     0.124 S 
ATOM     74  O   UNL A   1      34.326  32.670  31.254  1.00  0.00    -0.237 OA
ATOM     75  O   UNL A   1      36.001  33.667  29.727  1.00  0.00    -0.237 OA
ATOM     76  O   UNL A   1      34.784  31.629  29.064  1.00  0.00    -0.744 OA
ENDBRANCH  69  73
ENDBRANCH  42  66
BRANCH  54  77
ATOM     77  C   UNL A   1      44.893  33.270  29.521  1.00  0.00     0.023 A 
ATOM     78  C   UNL A   1      44.763  34.435  28.743  1.00  0.00     0.031 A 
ATOM     79  C   UNL A   1      45.645  33.337  30.704  1.00  0.00     0.131 A 
ATOM     80  C   UNL A   1      45.423  35.610  29.132  1.00  0.00     0.055 A 
ATOM     81  C   UNL A   1      46.268  34.520  31.106  1.00  0.00     0.041 A 
ATOM     82  F   UNL A   1      45.803  32.251  31.475  1.00  0.00    -0.206 F 
ATOM     83  C   UNL A   1      46.169  35.661  30.313  1.00  0.00     0.022 A 
BRANCH  80  84
ATOM     84  S   UNL A   1      45.373  37.045  28.024  1.00  0.00     0.124 S 
ATOM     85  O   UNL A   1      46.786  37.244  27.716  1.00  0.00    -0.237 OA
ATOM     86  O   UNL A   1      44.543  36.562  26.925  1.00  0.00    -0.237 OA
ATOM     87  O   UNL A   1      44.767  38.091  28.844  1.00  0.00    -0.744 OA
ENDBRANCH  80  84
ENDBRANCH  54  77
ENDBRANCH  28  29
ENDBRANCH  21  23
ENDBRANCH  20  21
ENDBRANCH   1  20
TORSDOF 17
ENDMDL
