MODEL 1
REMARK VINA RESULT:     -11.8      0.000      0.000
REMARK SMILES CCC(CC)COc1cc2c(cc1Cl)C=C(C(=O)OCCOC(=O)c1ccc(-c3c4nc(c(-c5cc(S(=O)(=O)[O-])ccc5F)c5ccc([nH]5)c(-c5cc(S(=O)(=O)[O-])ccc5F)c5nc(c(-c6cc(S(=O)(=O)[O-])ccc6F)c6ccc3[nH]6)C=C5)C=C4)cc1)[C@@H](C(F)(F)F)O2
REMARK SMILES IDX 20 1 19 2 17 3 18 4 16 5 8 6 9 7 13 8 10 9 12 10 14 11 11 12
REMARK SMILES IDX 93 13 15 14 88 15 7 16 6 17 3 18 2 19 1 20 4 21 5 22 89 23
REMARK SMILES IDX 90 24 91 25 92 26 21 27 22 28 23 29 24 30 25 31 26 32 87 33
REMARK SMILES IDX 27 34 86 35 28 36 29 37 30 38 80 39 31 40 85 41 79 42 81 43
REMARK SMILES IDX 32 44 84 45 78 46 77 47 33 49 65 50 45 51 64 52 46 53 49 54
REMARK SMILES IDX 63 55 82 56 47 57 48 58 62 60 83 61 50 62 34 63 35 64 43 65
REMARK SMILES IDX 36 66 42 67 44 68 41 69 37 70 38 71 39 72 40 73 66 74 67 75
REMARK SMILES IDX 75 76 68 77 74 78 76 79 73 80 69 81 70 82 71 83 72 84 51 85
REMARK SMILES IDX 52 86 60 87 53 88 59 89 61 90 58 91 54 92 55 93 56 94 57 95
REMARK H PARENT 81 48 49 59
REMARK Flexibility Score: inf
ROOT
ATOM      1  C   UNL A   1      31.351  29.084  25.148  1.00  0.00     0.275 C 
ENDROOT
BRANCH   1   2
ATOM      2  O   UNL A   1      32.227  28.011  25.559  1.00  0.00    -0.459 OA
BRANCH   2   3
ATOM      3  C   UNL A   1      31.660  27.127  26.418  1.00  0.00     0.338 C 
ATOM      4  O   UNL A   1      31.033  27.418  27.419  1.00  0.00    -0.246 OA
BRANCH   3   5
ATOM      5  C   UNL A   1      31.856  25.725  25.987  1.00  0.00     0.087 C 
ATOM      6  C   UNL A   1      33.959  21.331  24.800  1.00  0.00     0.141 A 
ATOM      7  C   UNL A   1      32.625  21.728  24.985  1.00  0.00     0.095 A 
ATOM      8  C   UNL A   1      34.976  22.293  24.790  1.00  0.00     0.083 A 
ATOM      9  C   UNL A   1      32.337  23.064  25.282  1.00  0.00     0.131 A 
ATOM     10  C   UNL A   1      34.702  23.586  25.211  1.00  0.00     0.036 A 
ATOM     11  Cl  UNL A   1      36.580  21.951  24.260  1.00  0.00    -0.080 Cl
ATOM     12  C   UNL A   1      33.388  23.962  25.477  1.00  0.00     0.019 A 
ATOM     13  O   UNL A   1      31.024  23.448  25.408  1.00  0.00    -0.475 OA
ATOM     14  C   UNL A   1      33.122  25.295  25.972  1.00  0.00     0.027 C 
ATOM     15  C   UNL A   1      30.751  24.891  25.404  1.00  0.00     0.316 C 
BRANCH   6  16
ATOM     16  O   UNL A   1      34.256  20.011  24.576  1.00  0.00    -0.492 OA
BRANCH  16  17
ATOM     17  C   UNL A   1      33.200  19.113  25.002  1.00  0.00     0.233 C 
BRANCH  17  18
ATOM     18  C   UNL A   1      33.493  17.619  24.690  1.00  0.00     0.026 C 
BRANCH  18  19
ATOM     19  C   UNL A   1      32.489  16.690  25.413  1.00  0.00     0.003 C 
ATOM     20  C   UNL A   1      32.897  15.222  25.384  1.00  0.00     0.004 C 
ENDBRANCH  18  19
BRANCH  18  21
ATOM     21  C   UNL A   1      33.555  17.335  23.173  1.00  0.00     0.003 C 
ATOM     22  C   UNL A   1      32.535  18.075  22.321  1.00  0.00     0.004 C 
ENDBRANCH  18  21
ENDBRANCH  17  18
ENDBRANCH  16  17
ENDBRANCH   6  16
BRANCH  15  23
ATOM     23  C   UNL A   1      30.448  25.394  23.978  1.00  0.00     0.430 C 
ATOM     24  F   UNL A   1      31.550  25.893  23.372  1.00  0.00    -0.167 F 
ATOM     25  F   UNL A   1      29.997  24.384  23.191  1.00  0.00    -0.167 F 
ATOM     26  F   UNL A   1      29.503  26.362  23.958  1.00  0.00    -0.167 F 
ENDBRANCH  15  23
ENDBRANCH   3   5
ENDBRANCH   2   3
ENDBRANCH   1   2
BRANCH   1  27
ATOM     27  C   UNL A   1      31.517  30.350  25.997  1.00  0.00     0.275 C 
BRANCH  27  28
ATOM     28  O   UNL A   1      32.888  30.787  26.063  1.00  0.00    -0.458 OA
BRANCH  28  29
ATOM     29  C   UNL A   1      33.165  31.652  27.065  1.00  0.00     0.338 C 
ATOM     30  O   UNL A   1      32.408  32.483  27.546  1.00  0.00    -0.246 OA
BRANCH  29  31
ATOM     31  C   UNL A   1      34.492  31.365  27.627  1.00  0.00     0.060 A 
ATOM     32  C   UNL A   1      35.373  32.369  28.015  1.00  0.00     0.016 A 
ATOM     33  C   UNL A   1      34.791  30.034  27.899  1.00  0.00     0.016 A 
ATOM     34  C   UNL A   1      36.574  32.013  28.649  1.00  0.00     0.010 A 
ATOM     35  C   UNL A   1      35.944  29.685  28.597  1.00  0.00     0.010 A 
ATOM     36  C   UNL A   1      36.869  30.667  28.963  1.00  0.00    -0.014 A 
BRANCH  36  37
ATOM     37  C   UNL A   1      38.113  30.292  29.698  1.00  0.00     0.031 A 
ATOM     38  C   UNL A   1      38.362  30.761  31.113  1.00  0.00     0.074 A 
ATOM     39  C   UNL A   1      39.055  29.555  29.072  1.00  0.00     0.049 A 
ATOM     40  N   UNL A   1      39.352  30.463  31.916  1.00  0.00    -0.248 NA
ATOM     41  C   UNL A   1      37.403  31.717  31.691  1.00  0.00     0.031 C 
ATOM     42  C   UNL A   1      38.997  29.148  27.667  1.00  0.00     0.029 A 
ATOM     43  N   UNL A   1      40.227  29.000  29.528  1.00  0.00    -0.354 N 
ATOM     44  C   UNL A   1      39.138  31.194  33.081  1.00  0.00     0.074 A 
ATOM     45  C   UNL A   1      37.975  32.018  32.847  1.00  0.00     0.031 C 
ATOM     46  C   UNL A   1      40.036  28.344  27.399  1.00  0.00     0.029 A 
ATOM     47  C   UNL A   1      40.860  28.205  28.598  1.00  0.00     0.049 A 
ATOM     48  H   UNL A   1      40.579  29.157  30.433  1.00  0.00     0.167 HD
ATOM     49  C   UNL A   1      39.815  31.148  34.254  1.00  0.00     0.034 A 
ATOM     50  C   UNL A   1      41.959  27.427  28.701  1.00  0.00     0.034 A 
ATOM     51  C   UNL A   1      40.945  30.284  34.486  1.00  0.00     0.049 A 
ATOM     52  C   UNL A   1      42.656  27.328  30.036  1.00  0.00     0.074 A 
ATOM     53  C   UNL A   1      41.648  30.094  35.661  1.00  0.00     0.029 A 
ATOM     54  N   UNL A   1      41.525  29.457  33.534  1.00  0.00    -0.354 N 
ATOM     55  N   UNL A   1      42.357  27.925  31.166  1.00  0.00    -0.248 NA
ATOM     56  C   UNL A   1      43.824  26.439  30.121  1.00  0.00     0.031 C 
ATOM     57  C   UNL A   1      42.686  29.198  35.408  1.00  0.00     0.029 A 
ATOM     58  C   UNL A   1      42.588  28.769  34.093  1.00  0.00     0.049 A 
ATOM     59  H   UNL A   1      41.226  29.374  32.600  1.00  0.00     0.167 HD
ATOM     60  C   UNL A   1      43.281  27.466  32.101  1.00  0.00     0.074 A 
ATOM     61  C   UNL A   1      44.132  26.520  31.410  1.00  0.00     0.031 C 
ATOM     62  C   UNL A   1      43.416  27.805  33.407  1.00  0.00     0.034 A 
BRANCH  49  63
ATOM     63  C   UNL A   1      39.332  31.994  35.411  1.00  0.00     0.023 A 
ATOM     64  C   UNL A   1      39.840  33.294  35.606  1.00  0.00     0.031 A 
ATOM     65  C   UNL A   1      38.480  31.463  36.398  1.00  0.00     0.131 A 
ATOM     66  C   UNL A   1      39.516  34.001  36.771  1.00  0.00     0.055 A 
ATOM     67  C   UNL A   1      38.120  32.193  37.532  1.00  0.00     0.041 A 
ATOM     68  F   UNL A   1      37.978  30.224  36.271  1.00  0.00    -0.206 F 
ATOM     69  C   UNL A   1      38.649  33.464  37.728  1.00  0.00     0.022 A 
BRANCH  66  70
ATOM     70  S   UNL A   1      40.261  35.617  37.132  1.00  0.00     0.124 S 
ATOM     71  O   UNL A   1      41.685  35.335  36.963  1.00  0.00    -0.237 OA
ATOM     72  O   UNL A   1      39.666  36.462  36.101  1.00  0.00    -0.237 OA
ATOM     73  O   UNL A   1      39.841  35.899  38.500  1.00  0.00    -0.744 OA
ENDBRANCH  66  70
ENDBRANCH  49  63
BRANCH  50  74
ATOM     74  C   UNL A   1      42.377  26.601  27.528  1.00  0.00     0.023 A 
ATOM     75  C   UNL A   1      41.941  25.272  27.381  1.00  0.00     0.031 A 
ATOM     76  C   UNL A   1      43.320  27.091  26.607  1.00  0.00     0.131 A 
ATOM     77  C   UNL A   1      42.503  24.460  26.384  1.00  0.00     0.055 A 
ATOM     78  C   UNL A   1      43.819  26.302  25.569  1.00  0.00     0.041 A 
ATOM     79  F   UNL A   1      43.782  28.346  26.715  1.00  0.00    -0.206 F 
ATOM     80  C   UNL A   1      43.425  24.971  25.466  1.00  0.00     0.022 A 
BRANCH  77  81
ATOM     81  S   UNL A   1      42.168  22.677  26.341  1.00  0.00     0.124 S 
ATOM     82  O   UNL A   1      42.732  22.292  25.051  1.00  0.00    -0.237 OA
ATOM     83  O   UNL A   1      42.902  22.207  27.515  1.00  0.00    -0.237 OA
ATOM     84  O   UNL A   1      40.716  22.595  26.446  1.00  0.00    -0.744 OA
ENDBRANCH  77  81
ENDBRANCH  50  74
BRANCH  62  85
ATOM     85  C   UNL A   1      44.512  27.160  34.222  1.00  0.00     0.023 A 
ATOM     86  C   UNL A   1      45.808  27.712  34.209  1.00  0.00     0.031 A 
ATOM     87  C   UNL A   1      44.324  25.918  34.849  1.00  0.00     0.131 A 
ATOM     88  C   UNL A   1      46.876  26.994  34.764  1.00  0.00     0.055 A 
ATOM     89  C   UNL A   1      45.381  25.232  35.447  1.00  0.00     0.041 A 
ATOM     90  F   UNL A   1      43.109  25.345  34.874  1.00  0.00    -0.206 F 
ATOM     91  C   UNL A   1      46.667  25.761  35.391  1.00  0.00     0.022 A 
BRANCH  88  92
ATOM     92  S   UNL A   1      48.584  27.582  34.600  1.00  0.00     0.124 S 
ATOM     93  O   UNL A   1      48.803  27.474  33.159  1.00  0.00    -0.237 OA
ATOM     94  O   UNL A   1      48.489  28.946  35.115  1.00  0.00    -0.237 OA
ATOM     95  O   UNL A   1      49.358  26.655  35.417  1.00  0.00    -0.744 OA
ENDBRANCH  88  92
ENDBRANCH  62  85
ENDBRANCH  36  37
ENDBRANCH  29  31
ENDBRANCH  28  29
ENDBRANCH  27  28
ENDBRANCH   1  27
TORSDOF 20
ENDMDL
MODEL 2
REMARK VINA RESULT:     -11.5      4.413     10.002
REMARK SMILES CCC(CC)COc1cc2c(cc1Cl)C=C(C(=O)OCCOC(=O)c1ccc(-c3c4nc(c(-c5cc(S(=O)(=O)[O-])ccc5F)c5ccc([nH]5)c(-c5cc(S(=O)(=O)[O-])ccc5F)c5nc(c(-c6cc(S(=O)(=O)[O-])ccc6F)c6ccc3[nH]6)C=C5)C=C4)cc1)[C@@H](C(F)(F)F)O2
REMARK SMILES IDX 20 1 19 2 17 3 18 4 16 5 8 6 9 7 13 8 10 9 12 10 14 11 11 12
REMARK SMILES IDX 93 13 15 14 88 15 7 16 6 17 3 18 2 19 1 20 4 21 5 22 89 23
REMARK SMILES IDX 90 24 91 25 92 26 21 27 22 28 23 29 24 30 25 31 26 32 87 33
REMARK SMILES IDX 27 34 86 35 28 36 29 37 30 38 80 39 31 40 85 41 79 42 81 43
REMARK SMILES IDX 32 44 84 45 78 46 77 47 33 49 65 50 45 51 64 52 46 53 49 54
REMARK SMILES IDX 63 55 82 56 47 57 48 58 62 60 83 61 50 62 34 63 35 64 43 65
REMARK SMILES IDX 36 66 42 67 44 68 41 69 37 70 38 71 39 72 40 73 66 74 67 75
REMARK SMILES IDX 75 76 68 77 74 78 76 79 73 80 69 81 70 82 71 83 72 84 51 85
REMARK SMILES IDX 52 86 60 87 53 88 59 89 61 90 58 91 54 92 55 93 56 94 57 95
REMARK H PARENT 81 48 49 59
REMARK Flexibility Score: inf
ROOT
ATOM      1  C   UNL A   1      36.302  20.477  24.980  1.00  0.00     0.275 C 
ENDROOT
BRANCH   1   2
ATOM      2  O   UNL A   1      35.701  21.719  24.551  1.00  0.00    -0.459 OA
BRANCH   2   3
ATOM      3  C   UNL A   1      34.781  22.220  25.413  1.00  0.00     0.338 C 
ATOM      4  O   UNL A   1      34.530  21.773  26.516  1.00  0.00    -0.246 OA
BRANCH   3   5
ATOM      5  C   UNL A   1      34.112  23.425  24.875  1.00  0.00     0.087 C 
ATOM      6  C   UNL A   1      32.311  28.077  24.369  1.00  0.00     0.141 A 
ATOM      7  C   UNL A   1      32.446  27.006  23.470  1.00  0.00     0.095 A 
ATOM      8  C   UNL A   1      32.576  27.882  25.729  1.00  0.00     0.083 A 
ATOM      9  C   UNL A   1      32.962  25.787  23.922  1.00  0.00     0.131 A 
ATOM     10  C   UNL A   1      33.208  26.719  26.145  1.00  0.00     0.036 A 
ATOM     11  Cl  UNL A   1      32.140  29.028  26.940  1.00  0.00    -0.080 Cl
ATOM     12  C   UNL A   1      33.419  25.684  25.237  1.00  0.00     0.019 A 
ATOM     13  O   UNL A   1      33.039  24.733  23.045  1.00  0.00    -0.475 OA
ATOM     14  C   UNL A   1      34.132  24.502  25.668  1.00  0.00     0.027 C 
ATOM     15  C   UNL A   1      33.283  23.405  23.623  1.00  0.00     0.316 C 
BRANCH   6  16
ATOM     16  O   UNL A   1      31.869  29.295  23.920  1.00  0.00    -0.492 OA
BRANCH  16  17
ATOM     17  C   UNL A   1      30.443  29.485  24.111  1.00  0.00     0.233 C 
BRANCH  17  18
ATOM     18  C   UNL A   1      29.606  29.220  22.829  1.00  0.00     0.026 C 
BRANCH  18  19
ATOM     19  C   UNL A   1      28.413  28.280  23.125  1.00  0.00     0.003 C 
ATOM     20  C   UNL A   1      28.822  26.985  23.815  1.00  0.00     0.004 C 
ENDBRANCH  18  19
BRANCH  18  21
ATOM     21  C   UNL A   1      29.155  30.526  22.138  1.00  0.00     0.003 C 
ATOM     22  C   UNL A   1      27.777  31.037  22.528  1.00  0.00     0.004 C 
ENDBRANCH  18  21
ENDBRANCH  17  18
ENDBRANCH  16  17
ENDBRANCH   6  16
BRANCH  15  23
ATOM     23  C   UNL A   1      31.957  22.676  23.916  1.00  0.00     0.430 C 
ATOM     24  F   UNL A   1      31.565  22.834  25.202  1.00  0.00    -0.167 F 
ATOM     25  F   UNL A   1      30.952  23.160  23.142  1.00  0.00    -0.167 F 
ATOM     26  F   UNL A   1      32.031  21.346  23.678  1.00  0.00    -0.167 F 
ENDBRANCH  15  23
ENDBRANCH   3   5
ENDBRANCH   2   3
ENDBRANCH   1   2
BRANCH   1  27
ATOM     27  C   UNL A   1      37.834  20.529  25.001  1.00  0.00     0.275 C 
BRANCH  27  28
ATOM     28  O   UNL A   1      38.331  21.693  25.688  1.00  0.00    -0.458 OA
BRANCH  28  29
ATOM     29  C   UNL A   1      39.429  21.481  26.449  1.00  0.00     0.338 C 
ATOM     30  O   UNL A   1      40.046  20.432  26.571  1.00  0.00    -0.246 OA
BRANCH  29  31
ATOM     31  C   UNL A   1      39.895  22.750  27.026  1.00  0.00     0.060 A 
ATOM     32  C   UNL A   1      40.934  22.815  27.949  1.00  0.00     0.016 A 
ATOM     33  C   UNL A   1      39.354  23.920  26.504  1.00  0.00     0.016 A 
ATOM     34  C   UNL A   1      41.397  24.073  28.365  1.00  0.00     0.010 A 
ATOM     35  C   UNL A   1      39.864  25.166  26.857  1.00  0.00     0.010 A 
ATOM     36  C   UNL A   1      40.879  25.267  27.813  1.00  0.00    -0.014 A 
BRANCH  36  37
ATOM     37  C   UNL A   1      41.416  26.604  28.203  1.00  0.00     0.031 A 
ATOM     38  C   UNL A   1      42.822  27.023  27.841  1.00  0.00     0.074 A 
ATOM     39  C   UNL A   1      40.645  27.440  28.931  1.00  0.00     0.049 A 
ATOM     40  N   UNL A   1      43.414  28.174  28.038  1.00  0.00    -0.248 NA
ATOM     41  C   UNL A   1      43.692  26.013  27.216  1.00  0.00     0.031 C 
ATOM     42  C   UNL A   1      39.320  27.107  29.456  1.00  0.00     0.029 A 
ATOM     43  N   UNL A   1      40.845  28.737  29.339  1.00  0.00    -0.354 N 
ATOM     44  C   UNL A   1      44.716  28.024  27.569  1.00  0.00     0.074 A 
ATOM     45  C   UNL A   1      44.855  26.645  27.161  1.00  0.00     0.031 C 
ATOM     46  C   UNL A   1      38.794  28.193  30.041  1.00  0.00     0.029 A 
ATOM     47  C   UNL A   1      39.754  29.292  29.972  1.00  0.00     0.049 A 
ATOM     48  H   UNL A   1      41.689  29.223  29.193  1.00  0.00     0.167 HD
ATOM     49  C   UNL A   1      45.690  28.957  27.442  1.00  0.00     0.034 A 
ATOM     50  C   UNL A   1      39.535  30.547  30.418  1.00  0.00     0.034 A 
ATOM     51  C   UNL A   1      45.518  30.340  27.808  1.00  0.00     0.049 A 
ATOM     52  C   UNL A   1      40.601  31.593  30.199  1.00  0.00     0.074 A 
ATOM     53  C   UNL A   1      46.407  31.385  27.640  1.00  0.00     0.029 A 
ATOM     54  N   UNL A   1      44.381  30.873  28.400  1.00  0.00    -0.354 N 
ATOM     55  N   UNL A   1      41.776  31.462  29.630  1.00  0.00    -0.248 NA
ATOM     56  C   UNL A   1      40.309  32.958  30.661  1.00  0.00     0.031 C 
ATOM     57  C   UNL A   1      45.834  32.536  28.180  1.00  0.00     0.029 A 
ATOM     58  C   UNL A   1      44.555  32.228  28.618  1.00  0.00     0.049 A 
ATOM     59  H   UNL A   1      43.572  30.362  28.632  1.00  0.00     0.167 HD
ATOM     60  C   UNL A   1      42.353  32.729  29.642  1.00  0.00     0.074 A 
ATOM     61  C   UNL A   1      41.385  33.618  30.250  1.00  0.00     0.031 C 
ATOM     62  C   UNL A   1      43.575  33.116  29.199  1.00  0.00     0.034 A 
BRANCH  49  63
ATOM     63  C   UNL A   1      47.011  28.556  26.824  1.00  0.00     0.023 A 
ATOM     64  C   UNL A   1      47.122  28.372  25.431  1.00  0.00     0.031 A 
ATOM     65  C   UNL A   1      48.119  28.221  27.625  1.00  0.00     0.131 A 
ATOM     66  C   UNL A   1      48.299  27.837  24.891  1.00  0.00     0.055 A 
ATOM     67  C   UNL A   1      49.307  27.737  27.075  1.00  0.00     0.041 A 
ATOM     68  F   UNL A   1      48.064  28.364  28.960  1.00  0.00    -0.206 F 
ATOM     69  C   UNL A   1      49.396  27.531  25.703  1.00  0.00     0.022 A 
BRANCH  66  70
ATOM     70  S   UNL A   1      48.433  27.446  23.123  1.00  0.00     0.124 S 
ATOM     71  O   UNL A   1      49.777  27.931  22.811  1.00  0.00    -0.237 OA
ATOM     72  O   UNL A   1      48.279  25.995  23.121  1.00  0.00    -0.237 OA
ATOM     73  O   UNL A   1      47.344  28.200  22.514  1.00  0.00    -0.744 OA
ENDBRANCH  66  70
ENDBRANCH  49  63
BRANCH  50  74
ATOM     74  C   UNL A   1      38.203  30.887  31.005  1.00  0.00     0.023 A 
ATOM     75  C   UNL A   1      37.203  31.505  30.232  1.00  0.00     0.031 A 
ATOM     76  C   UNL A   1      37.960  30.713  32.379  1.00  0.00     0.131 A 
ATOM     77  C   UNL A   1      36.043  31.990  30.852  1.00  0.00     0.055 A 
ATOM     78  C   UNL A   1      36.770  31.129  32.978  1.00  0.00     0.041 A 
ATOM     79  F   UNL A   1      38.889  30.145  33.163  1.00  0.00    -0.206 F 
ATOM     80  C   UNL A   1      35.811  31.790  32.216  1.00  0.00     0.022 A 
BRANCH  77  81
ATOM     81  S   UNL A   1      34.867  33.030  29.940  1.00  0.00     0.124 S 
ATOM     82  O   UNL A   1      34.222  32.059  29.059  1.00  0.00    -0.237 OA
ATOM     83  O   UNL A   1      34.033  33.555  31.018  1.00  0.00    -0.237 OA
ATOM     84  O   UNL A   1      35.717  34.015  29.280  1.00  0.00    -0.744 OA
ENDBRANCH  77  81
ENDBRANCH  50  74
BRANCH  62  85
ATOM     85  C   UNL A   1      43.974  34.567  29.325  1.00  0.00     0.023 A 
ATOM     86  C   UNL A   1      44.432  35.060  30.564  1.00  0.00     0.031 A 
ATOM     87  C   UNL A   1      43.730  35.487  28.292  1.00  0.00     0.131 A 
ATOM     88  C   UNL A   1      44.577  36.441  30.753  1.00  0.00     0.055 A 
ATOM     89  C   UNL A   1      43.928  36.856  28.469  1.00  0.00     0.041 A 
ATOM     90  F   UNL A   1      43.280  35.066  27.099  1.00  0.00    -0.206 F 
ATOM     91  C   UNL A   1      44.335  37.340  29.709  1.00  0.00     0.022 A 
BRANCH  88  92
ATOM     92  S   UNL A   1      44.979  37.124  32.385  1.00  0.00     0.124 S 
ATOM     93  O   UNL A   1      46.284  37.734  32.143  1.00  0.00    -0.237 OA
ATOM     94  O   UNL A   1      43.882  38.064  32.602  1.00  0.00    -0.237 OA
ATOM     95  O   UNL A   1      44.990  35.960  33.263  1.00  0.00    -0.744 OA
ENDBRANCH  88  92
ENDBRANCH  62  85
ENDBRANCH  36  37
ENDBRANCH  29  31
ENDBRANCH  28  29
ENDBRANCH  27  28
ENDBRANCH   1  27
TORSDOF 20
ENDMDL
MODEL 3
REMARK VINA RESULT:     -11.5      1.675      7.594
REMARK SMILES CCC(CC)COc1cc2c(cc1Cl)C=C(C(=O)OCCOC(=O)c1ccc(-c3c4nc(c(-c5cc(S(=O)(=O)[O-])ccc5F)c5ccc([nH]5)c(-c5cc(S(=O)(=O)[O-])ccc5F)c5nc(c(-c6cc(S(=O)(=O)[O-])ccc6F)c6ccc3[nH]6)C=C5)C=C4)cc1)[C@@H](C(F)(F)F)O2
REMARK SMILES IDX 20 1 19 2 17 3 18 4 16 5 8 6 9 7 13 8 10 9 12 10 14 11 11 12
REMARK SMILES IDX 93 13 15 14 88 15 7 16 6 17 3 18 2 19 1 20 4 21 5 22 89 23
REMARK SMILES IDX 90 24 91 25 92 26 21 27 22 28 23 29 24 30 25 31 26 32 87 33
REMARK SMILES IDX 27 34 86 35 28 36 29 37 30 38 80 39 31 40 85 41 79 42 81 43
REMARK SMILES IDX 32 44 84 45 78 46 77 47 33 49 65 50 45 51 64 52 46 53 49 54
REMARK SMILES IDX 63 55 82 56 47 57 48 58 62 60 83 61 50 62 34 63 35 64 43 65
REMARK SMILES IDX 36 66 42 67 44 68 41 69 37 70 38 71 39 72 40 73 66 74 67 75
REMARK SMILES IDX 75 76 68 77 74 78 76 79 73 80 69 81 70 82 71 83 72 84 51 85
REMARK SMILES IDX 52 86 60 87 53 88 59 89 61 90 58 91 54 92 55 93 56 94 57 95
REMARK H PARENT 81 48 49 59
REMARK Flexibility Score: inf
ROOT
ATOM      1  C   UNL A   1      31.539  29.051  25.338  1.00  0.00     0.275 C 
ENDROOT
BRANCH   1   2
ATOM      2  O   UNL A   1      32.285  27.838  25.584  1.00  0.00    -0.459 OA
BRANCH   2   3
ATOM      3  C   UNL A   1      31.668  26.962  26.417  1.00  0.00     0.338 C 
ATOM      4  O   UNL A   1      30.990  27.263  27.380  1.00  0.00    -0.246 OA
BRANCH   3   5
ATOM      5  C   UNL A   1      31.881  25.557  26.006  1.00  0.00     0.087 C 
ATOM      6  C   UNL A   1      34.032  21.162  24.910  1.00  0.00     0.141 A 
ATOM      7  C   UNL A   1      32.692  21.553  25.066  1.00  0.00     0.095 A 
ATOM      8  C   UNL A   1      35.042  22.130  24.906  1.00  0.00     0.083 A 
ATOM      9  C   UNL A   1      32.391  22.891  25.341  1.00  0.00     0.131 A 
ATOM     10  C   UNL A   1      34.753  23.427  25.307  1.00  0.00     0.036 A 
ATOM     11  Cl  UNL A   1      36.658  21.793  24.410  1.00  0.00    -0.080 Cl
ATOM     12  C   UNL A   1      33.432  23.798  25.545  1.00  0.00     0.019 A 
ATOM     13  O   UNL A   1      31.073  23.268  25.440  1.00  0.00    -0.475 OA
ATOM     14  C   UNL A   1      33.150  25.134  26.019  1.00  0.00     0.027 C 
ATOM     15  C   UNL A   1      30.792  24.709  25.413  1.00  0.00     0.316 C 
BRANCH   6  16
ATOM     16  O   UNL A   1      34.340  19.842  24.706  1.00  0.00    -0.492 OA
BRANCH  16  17
ATOM     17  C   UNL A   1      33.255  18.947  25.057  1.00  0.00     0.233 C 
BRANCH  17  18
ATOM     18  C   UNL A   1      33.510  17.470  24.643  1.00  0.00     0.026 C 
BRANCH  18  19
ATOM     19  C   UNL A   1      32.548  16.509  25.379  1.00  0.00     0.003 C 
ATOM     20  C   UNL A   1      33.047  15.070  25.421  1.00  0.00     0.004 C 
ENDBRANCH  18  19
BRANCH  18  21
ATOM     21  C   UNL A   1      33.468  17.271  23.111  1.00  0.00     0.003 C 
ATOM     22  C   UNL A   1      32.423  18.090  22.369  1.00  0.00     0.004 C 
ENDBRANCH  18  21
ENDBRANCH  17  18
ENDBRANCH  16  17
ENDBRANCH   6  16
BRANCH  15  23
ATOM     23  C   UNL A   1      30.512  25.193  23.976  1.00  0.00     0.430 C 
ATOM     24  F   UNL A   1      31.638  25.610  23.354  1.00  0.00    -0.167 F 
ATOM     25  F   UNL A   1      29.997  24.193  23.216  1.00  0.00    -0.167 F 
ATOM     26  F   UNL A   1      29.626  26.215  23.935  1.00  0.00    -0.167 F 
ENDBRANCH  15  23
ENDBRANCH   3   5
ENDBRANCH   2   3
ENDBRANCH   1   2
BRANCH   1  27
ATOM     27  C   UNL A   1      31.846  30.158  26.353  1.00  0.00     0.275 C 
BRANCH  27  28
ATOM     28  O   UNL A   1      33.155  30.728  26.159  1.00  0.00    -0.458 OA
BRANCH  28  29
ATOM     29  C   UNL A   1      33.550  31.594  27.120  1.00  0.00     0.338 C 
ATOM     30  O   UNL A   1      32.911  32.539  27.562  1.00  0.00    -0.246 OA
BRANCH  29  31
ATOM     31  C   UNL A   1      34.831  31.161  27.693  1.00  0.00     0.060 A 
ATOM     32  C   UNL A   1      35.837  32.058  28.038  1.00  0.00     0.016 A 
ATOM     33  C   UNL A   1      34.958  29.815  28.021  1.00  0.00     0.016 A 
ATOM     34  C   UNL A   1      36.985  31.577  28.687  1.00  0.00     0.010 A 
ATOM     35  C   UNL A   1      36.060  29.350  28.732  1.00  0.00     0.010 A 
ATOM     36  C   UNL A   1      37.106  30.218  29.056  1.00  0.00    -0.014 A 
BRANCH  36  37
ATOM     37  C   UNL A   1      38.295  29.717  29.807  1.00  0.00     0.031 A 
ATOM     38  C   UNL A   1      39.243  28.709  29.198  1.00  0.00     0.074 A 
ATOM     39  C   UNL A   1      38.505  30.140  31.072  1.00  0.00     0.049 A 
ATOM     40  N   UNL A   1      40.360  28.232  29.686  1.00  0.00    -0.248 NA
ATOM     41  C   UNL A   1      38.874  28.132  27.895  1.00  0.00     0.031 C 
ATOM     42  C   UNL A   1      37.598  31.009  31.822  1.00  0.00     0.029 A 
ATOM     43  N   UNL A   1      39.546  29.920  31.943  1.00  0.00    -0.354 N 
ATOM     44  C   UNL A   1      40.819  27.300  28.759  1.00  0.00     0.074 A 
ATOM     45  C   UNL A   1      39.815  27.215  27.723  1.00  0.00     0.031 C 
ATOM     46  C   UNL A   1      38.156  31.315  33.002  1.00  0.00     0.029 A 
ATOM     47  C   UNL A   1      39.444  30.636  33.116  1.00  0.00     0.049 A 
ATOM     48  H   UNL A   1      40.292  29.309  31.746  1.00  0.00     0.167 HD
ATOM     49  C   UNL A   1      41.989  26.618  28.743  1.00  0.00     0.034 A 
ATOM     50  C   UNL A   1      40.300  30.759  34.153  1.00  0.00     0.034 A 
ATOM     51  C   UNL A   1      43.001  26.752  29.760  1.00  0.00     0.049 A 
ATOM     52  C   UNL A   1      41.632  30.052  34.084  1.00  0.00     0.074 A 
ATOM     53  C   UNL A   1      44.257  26.175  29.796  1.00  0.00     0.029 A 
ATOM     54  N   UNL A   1      42.882  27.524  30.907  1.00  0.00    -0.354 N 
ATOM     55  N   UNL A   1      42.105  29.282  33.133  1.00  0.00    -0.248 NA
ATOM     56  C   UNL A   1      42.555  30.244  35.212  1.00  0.00     0.031 C 
ATOM     57  C   UNL A   1      44.875  26.551  30.988  1.00  0.00     0.029 A 
ATOM     58  C   UNL A   1      44.036  27.424  31.664  1.00  0.00     0.049 A 
ATOM     59  H   UNL A   1      42.093  28.062  31.146  1.00  0.00     0.167 HD
ATOM     60  C   UNL A   1      43.388  28.917  33.535  1.00  0.00     0.074 A 
ATOM     61  C   UNL A   1      43.626  29.575  34.802  1.00  0.00     0.031 C 
ATOM     62  C   UNL A   1      44.279  28.106  32.914  1.00  0.00     0.034 A 
BRANCH  49  63
ATOM     63  C   UNL A   1      42.292  25.712  27.570  1.00  0.00     0.023 A 
ATOM     64  C   UNL A   1      41.825  24.383  27.554  1.00  0.00     0.031 A 
ATOM     65  C   UNL A   1      43.159  26.119  26.538  1.00  0.00     0.131 A 
ATOM     66  C   UNL A   1      42.252  23.505  26.550  1.00  0.00     0.055 A 
ATOM     67  C   UNL A   1      43.540  25.255  25.511  1.00  0.00     0.041 A 
ATOM     68  F   UNL A   1      43.645  27.371  26.510  1.00  0.00    -0.206 F 
ATOM     69  C   UNL A   1      43.096  23.937  25.521  1.00  0.00     0.022 A 
BRANCH  66  70
ATOM     70  S   UNL A   1      41.793  21.749  26.571  1.00  0.00     0.124 S 
ATOM     71  O   UNL A   1      42.285  21.327  27.881  1.00  0.00    -0.237 OA
ATOM     72  O   UNL A   1      40.341  21.814  26.443  1.00  0.00    -0.237 OA
ATOM     73  O   UNL A   1      42.505  21.186  25.429  1.00  0.00    -0.744 OA
ENDBRANCH  66  70
ENDBRANCH  49  63
BRANCH  50  74
ATOM     74  C   UNL A   1      39.953  31.682  35.276  1.00  0.00     0.023 A 
ATOM     75  C   UNL A   1      39.129  31.260  36.336  1.00  0.00     0.031 A 
ATOM     76  C   UNL A   1      40.336  33.034  35.237  1.00  0.00     0.131 A 
ATOM     77  C   UNL A   1      38.659  32.197  37.268  1.00  0.00     0.055 A 
ATOM     78  C   UNL A   1      39.927  33.947  36.210  1.00  0.00     0.041 A 
ATOM     79  F   UNL A   1      41.105  33.490  34.236  1.00  0.00    -0.206 F 
ATOM     80  C   UNL A   1      39.067  33.534  37.223  1.00  0.00     0.022 A 
BRANCH  77  81
ATOM     81  S   UNL A   1      37.384  31.744  38.478  1.00  0.00     0.124 S 
ATOM     82  O   UNL A   1      36.333  32.716  38.191  1.00  0.00    -0.237 OA
ATOM     83  O   UNL A   1      37.088  30.364  38.097  1.00  0.00    -0.237 OA
ATOM     84  O   UNL A   1      38.056  31.901  39.763  1.00  0.00    -0.744 OA
ENDBRANCH  77  81
ENDBRANCH  50  74
BRANCH  62  85
ATOM     85  C   UNL A   1      45.623  27.863  33.561  1.00  0.00     0.023 A 
ATOM     86  C   UNL A   1      45.760  26.844  34.524  1.00  0.00     0.031 A 
ATOM     87  C   UNL A   1      46.699  28.743  33.365  1.00  0.00     0.131 A 
ATOM     88  C   UNL A   1      46.927  26.767  35.295  1.00  0.00     0.055 A 
ATOM     89  C   UNL A   1      47.881  28.629  34.097  1.00  0.00     0.041 A 
ATOM     90  F   UNL A   1      46.610  29.739  32.468  1.00  0.00    -0.206 F 
ATOM     91  C   UNL A   1      47.992  27.649  35.080  1.00  0.00     0.022 A 
BRANCH  88  92
ATOM     92  S   UNL A   1      47.064  25.592  36.671  1.00  0.00     0.124 S 
ATOM     93  O   UNL A   1      48.363  24.974  36.412  1.00  0.00    -0.237 OA
ATOM     94  O   UNL A   1      47.015  26.475  37.833  1.00  0.00    -0.237 OA
ATOM     95  O   UNL A   1      45.913  24.713  36.501  1.00  0.00    -0.744 OA
ENDBRANCH  88  92
ENDBRANCH  62  85
ENDBRANCH  36  37
ENDBRANCH  29  31
ENDBRANCH  28  29
ENDBRANCH  27  28
ENDBRANCH   1  27
TORSDOF 20
ENDMDL
