MODEL 1
REMARK VINA RESULT:     -13.9      0.000      0.000
REMARK SMILES Cc1ccccc1C(=O)Nc1cc(NC(=O)c2ccccc2C)cc(C(=O)OCCOC(=O)c2ccc(-c3c4nc(c(-c5cc(S(=O)(=O)[O-])ccc5F)c5ccc([nH]5)c(-c5cc(S(=O)(=O)[O-])ccc5F)c5nc(c(-c6cc(S(=O)(=O)[O-])ccc6F)c6ccc3[nH]6)C=C5)C=C4)cc2)c1
REMARK SMILES IDX 30 1 29 2 28 3 26 4 27 5 25 6 11 7 12 8 97 9 13 10 24 11
REMARK SMILES IDX 10 12 8 13 9 14 7 16 1 17 2 18 3 19 4 20 6 21 5 22 14 23
REMARK SMILES IDX 15 24 16 26 17 27 18 28 22 29 19 30 21 31 23 32 20 33 31 34
REMARK SMILES IDX 32 35 33 36 34 37 35 38 96 39 36 40 95 41 37 42 38 43 39 44
REMARK SMILES IDX 89 45 40 46 94 47 88 48 90 49 41 50 93 51 87 52 86 53 42 55
REMARK SMILES IDX 74 56 54 57 73 58 55 59 58 60 72 61 91 62 56 63 57 64 71 66
REMARK SMILES IDX 92 67 59 68 43 69 44 70 52 71 45 72 51 73 53 74 50 75 46 76
REMARK SMILES IDX 47 77 48 78 49 79 75 80 76 81 84 82 77 83 83 84 85 85 82 86
REMARK SMILES IDX 78 87 79 88 80 89 81 90 60 91 61 92 69 93 62 94 68 95 70 96
REMARK SMILES IDX 67 97 63 98 64 99 65 100 66 101
REMARK H PARENT 10 15 14 25 90 54 58 65
REMARK Flexibility Score: inf
ROOT
ATOM      1  C   UNL A   1      37.346  23.954  25.891  1.00  0.00     0.275 C 
ENDROOT
BRANCH   1   2
ATOM      2  C   UNL A   1      36.485  23.529  24.694  1.00  0.00     0.275 C 
BRANCH   2   3
ATOM      3  O   UNL A   1      35.201  24.180  24.613  1.00  0.00    -0.458 OA
BRANCH   3   4
ATOM      4  C   UNL A   1      34.593  23.918  23.428  1.00  0.00     0.338 C 
ATOM      5  O   UNL A   1      35.149  23.445  22.453  1.00  0.00    -0.246 OA
BRANCH   4   6
ATOM      6  C   UNL A   1      33.206  24.416  23.289  1.00  0.00     0.064 A 
ATOM      7  C   UNL A   1      31.471  25.968  22.616  1.00  0.00     0.044 A 
ATOM      8  C   UNL A   1      30.603  25.373  23.530  1.00  0.00     0.052 A 
ATOM      9  C   UNL A   1      32.731  25.382  22.390  1.00  0.00     0.042 A 
ATOM     10  C   UNL A   1      31.042  24.328  24.337  1.00  0.00     0.044 A 
ATOM     11  C   UNL A   1      32.366  23.934  24.290  1.00  0.00     0.042 A 
BRANCH   7  12
ATOM     12  N   UNL A   1      31.133  27.167  21.956  1.00  0.00    -0.322 N 
ATOM     13  C   UNL A   1      31.164  28.485  22.404  1.00  0.00     0.255 C 
ATOM     14  O   UNL A   1      30.577  29.347  21.747  1.00  0.00    -0.269 OA
ATOM     15  H   UNL A   1      30.827  27.055  21.027  1.00  0.00     0.170 HD
BRANCH  13  16
ATOM     16  C   UNL A   1      31.895  28.916  23.644  1.00  0.00     0.043 A 
ATOM     17  C   UNL A   1      34.282  28.641  22.711  1.00  0.00     0.045 C 
ATOM     18  C   UNL A   1      33.294  28.888  23.817  1.00  0.00    -0.038 A 
ATOM     19  C   UNL A   1      33.829  29.155  25.094  1.00  0.00     0.004 A 
ATOM     20  C   UNL A   1      33.018  29.588  26.140  1.00  0.00     0.000 A 
ATOM     21  C   UNL A   1      31.098  29.426  24.690  1.00  0.00     0.014 A 
ATOM     22  C   UNL A   1      31.659  29.774  25.923  1.00  0.00     0.001 A 
ENDBRANCH  13  16
ENDBRANCH   7  12
BRANCH  10  23
ATOM     23  N   UNL A   1      30.214  23.585  25.178  1.00  0.00    -0.322 N 
ATOM     24  C   UNL A   1      30.550  22.587  26.059  1.00  0.00     0.255 C 
ATOM     25  H   UNL A   1      29.256  23.806  25.133  1.00  0.00     0.170 HD
ATOM     26  O   UNL A   1      29.663  21.996  26.674  1.00  0.00    -0.269 OA
BRANCH  24  27
ATOM     27  C   UNL A   1      31.968  22.223  26.318  1.00  0.00     0.043 A 
ATOM     28  C   UNL A   1      32.572  22.950  27.355  1.00  0.00     0.014 A 
ATOM     29  C   UNL A   1      32.708  21.245  25.616  1.00  0.00    -0.038 A 
ATOM     30  C   UNL A   1      33.878  22.673  27.747  1.00  0.00     0.001 A 
ATOM     31  C   UNL A   1      34.009  20.951  26.061  1.00  0.00     0.004 A 
ATOM     32  C   UNL A   1      32.208  20.459  24.434  1.00  0.00     0.045 C 
ATOM     33  C   UNL A   1      34.588  21.659  27.115  1.00  0.00     0.000 A 
ENDBRANCH  24  27
ENDBRANCH  10  23
ENDBRANCH   4   6
ENDBRANCH   3   4
ENDBRANCH   2   3
ENDBRANCH   1   2
BRANCH   1  34
ATOM     34  O   UNL A   1      38.412  23.076  26.336  1.00  0.00    -0.458 OA
BRANCH  34  35
ATOM     35  C   UNL A   1      39.694  23.456  26.584  1.00  0.00     0.338 C 
ATOM     36  O   UNL A   1      40.643  22.875  26.064  1.00  0.00    -0.246 OA
BRANCH  35  37
ATOM     37  C   UNL A   1      39.885  24.731  27.314  1.00  0.00     0.060 A 
ATOM     38  C   UNL A   1      40.323  25.854  26.592  1.00  0.00     0.016 A 
ATOM     39  C   UNL A   1      39.445  24.868  28.622  1.00  0.00     0.016 A 
ATOM     40  C   UNL A   1      40.174  27.129  27.113  1.00  0.00     0.010 A 
ATOM     41  C   UNL A   1      39.128  26.121  29.078  1.00  0.00     0.010 A 
ATOM     42  C   UNL A   1      39.544  27.243  28.346  1.00  0.00    -0.014 A 
BRANCH  42  43
ATOM     43  C   UNL A   1      39.638  28.442  29.155  1.00  0.00     0.031 A 
ATOM     44  C   UNL A   1      38.695  29.550  28.977  1.00  0.00     0.074 A 
ATOM     45  C   UNL A   1      40.622  28.312  30.075  1.00  0.00     0.049 A 
ATOM     46  N   UNL A   1      38.947  30.778  29.253  1.00  0.00    -0.248 NA
ATOM     47  C   UNL A   1      37.370  29.387  28.379  1.00  0.00     0.031 C 
ATOM     48  C   UNL A   1      40.992  29.074  31.245  1.00  0.00     0.029 A 
ATOM     49  N   UNL A   1      41.678  27.403  29.938  1.00  0.00    -0.354 N 
ATOM     50  C   UNL A   1      37.734  31.442  29.284  1.00  0.00     0.074 A 
ATOM     51  C   UNL A   1      36.836  30.603  28.540  1.00  0.00     0.031 C 
ATOM     52  C   UNL A   1      42.294  28.828  31.516  1.00  0.00     0.029 A 
ATOM     53  C   UNL A   1      42.825  27.990  30.440  1.00  0.00     0.049 A 
ATOM     54  H   UNL A   1      41.614  26.500  29.552  1.00  0.00     0.167 HD
ATOM     55  C   UNL A   1      37.594  32.488  30.150  1.00  0.00     0.034 A 
ATOM     56  C   UNL A   1      43.763  28.353  29.513  1.00  0.00     0.034 A 
ATOM     57  C   UNL A   1      38.874  32.714  30.822  1.00  0.00     0.049 A 
ATOM     58  C   UNL A   1      43.810  29.862  29.421  1.00  0.00     0.074 A 
ATOM     59  C   UNL A   1      39.358  32.277  32.044  1.00  0.00     0.029 A 
ATOM     60  N   UNL A   1      39.975  33.091  30.067  1.00  0.00    -0.354 N 
ATOM     61  N   UNL A   1      42.778  30.649  29.590  1.00  0.00    -0.248 NA
ATOM     62  C   UNL A   1      45.066  30.585  29.288  1.00  0.00     0.031 C 
ATOM     63  C   UNL A   1      40.778  32.274  31.962  1.00  0.00     0.029 A 
ATOM     64  C   UNL A   1      41.144  32.713  30.699  1.00  0.00     0.049 A 
ATOM     65  H   UNL A   1      39.931  33.559  29.203  1.00  0.00     0.167 HD
ATOM     66  C   UNL A   1      43.221  31.939  29.727  1.00  0.00     0.074 A 
ATOM     67  C   UNL A   1      44.658  31.845  29.499  1.00  0.00     0.031 C 
ATOM     68  C   UNL A   1      42.421  32.996  30.071  1.00  0.00     0.034 A 
BRANCH  55  69
ATOM     69  C   UNL A   1      36.299  33.081  30.671  1.00  0.00     0.023 A 
ATOM     70  C   UNL A   1      35.476  33.781  29.758  1.00  0.00     0.031 A 
ATOM     71  C   UNL A   1      35.825  33.052  31.997  1.00  0.00     0.131 A 
ATOM     72  C   UNL A   1      34.314  34.460  30.165  1.00  0.00     0.055 A 
ATOM     73  C   UNL A   1      34.671  33.742  32.409  1.00  0.00     0.041 A 
ATOM     74  F   UNL A   1      36.424  32.334  32.952  1.00  0.00    -0.206 F 
ATOM     75  C   UNL A   1      33.912  34.458  31.495  1.00  0.00     0.022 A 
BRANCH  72  76
ATOM     76  S   UNL A   1      33.345  35.359  28.924  1.00  0.00     0.124 S 
ATOM     77  O   UNL A   1      32.493  36.206  29.753  1.00  0.00    -0.237 OA
ATOM     78  O   UNL A   1      34.381  36.040  28.155  1.00  0.00    -0.237 OA
ATOM     79  O   UNL A   1      32.645  34.296  28.205  1.00  0.00    -0.744 OA
ENDBRANCH  72  76
ENDBRANCH  55  69
BRANCH  56  80
ATOM     80  C   UNL A   1      43.933  27.373  28.374  1.00  0.00     0.023 A 
ATOM     81  C   UNL A   1      44.128  26.007  28.710  1.00  0.00     0.031 A 
ATOM     82  C   UNL A   1      43.655  27.649  27.029  1.00  0.00     0.131 A 
ATOM     83  C   UNL A   1      43.886  24.980  27.783  1.00  0.00     0.055 A 
ATOM     84  C   UNL A   1      43.502  26.620  26.077  1.00  0.00     0.041 A 
ATOM     85  F   UNL A   1      43.437  28.906  26.618  1.00  0.00    -0.206 F 
ATOM     86  C   UNL A   1      43.580  25.276  26.459  1.00  0.00     0.022 A 
BRANCH  83  87
ATOM     87  S   UNL A   1      43.701  23.284  28.424  1.00  0.00     0.124 S 
ATOM     88  O   UNL A   1      43.683  22.492  27.199  1.00  0.00    -0.237 OA
ATOM     89  O   UNL A   1      44.888  23.136  29.266  1.00  0.00    -0.237 OA
ATOM     90  O   UNL A   1      42.444  23.327  29.162  1.00  0.00    -0.744 OA
ENDBRANCH  83  87
ENDBRANCH  56  80
BRANCH  68  91
ATOM     91  C   UNL A   1      42.807  34.444  29.911  1.00  0.00     0.023 A 
ATOM     92  C   UNL A   1      42.571  35.144  28.727  1.00  0.00     0.031 A 
ATOM     93  C   UNL A   1      43.315  35.206  30.992  1.00  0.00     0.131 A 
ATOM     94  C   UNL A   1      42.950  36.483  28.597  1.00  0.00     0.055 A 
ATOM     95  C   UNL A   1      43.559  36.576  30.902  1.00  0.00     0.041 A 
ATOM     96  F   UNL A   1      43.587  34.660  32.186  1.00  0.00    -0.206 F 
ATOM     97  C   UNL A   1      43.403  37.221  29.686  1.00  0.00     0.022 A 
BRANCH  94  98
ATOM     98  S   UNL A   1      42.961  37.178  26.931  1.00  0.00     0.124 S 
ATOM     99  O   UNL A   1      41.871  38.150  27.012  1.00  0.00    -0.237 OA
ATOM    100  O   UNL A   1      44.302  37.743  26.833  1.00  0.00    -0.237 OA
ATOM    101  O   UNL A   1      42.701  36.023  26.077  1.00  0.00    -0.744 OA
ENDBRANCH  94  98
ENDBRANCH  68  91
ENDBRANCH  42  43
ENDBRANCH  35  37
ENDBRANCH  34  35
ENDBRANCH   1  34
TORSDOF 18
ENDMDL
MODEL 2
REMARK VINA RESULT:     -13.7      3.151      9.770
REMARK SMILES Cc1ccccc1C(=O)Nc1cc(NC(=O)c2ccccc2C)cc(C(=O)OCCOC(=O)c2ccc(-c3c4nc(c(-c5cc(S(=O)(=O)[O-])ccc5F)c5ccc([nH]5)c(-c5cc(S(=O)(=O)[O-])ccc5F)c5nc(c(-c6cc(S(=O)(=O)[O-])ccc6F)c6ccc3[nH]6)C=C5)C=C4)cc2)c1
REMARK SMILES IDX 30 1 29 2 28 3 26 4 27 5 25 6 11 7 12 8 97 9 13 10 24 11
REMARK SMILES IDX 10 12 8 13 9 14 7 16 1 17 2 18 3 19 4 20 6 21 5 22 14 23
REMARK SMILES IDX 15 24 16 26 17 27 18 28 22 29 19 30 21 31 23 32 20 33 31 34
REMARK SMILES IDX 32 35 33 36 34 37 35 38 96 39 36 40 95 41 37 42 38 43 39 44
REMARK SMILES IDX 89 45 40 46 94 47 88 48 90 49 41 50 93 51 87 52 86 53 42 55
REMARK SMILES IDX 74 56 54 57 73 58 55 59 58 60 72 61 91 62 56 63 57 64 71 66
REMARK SMILES IDX 92 67 59 68 43 69 44 70 52 71 45 72 51 73 53 74 50 75 46 76
REMARK SMILES IDX 47 77 48 78 49 79 75 80 76 81 84 82 77 83 83 84 85 85 82 86
REMARK SMILES IDX 78 87 79 88 80 89 81 90 60 91 61 92 69 93 62 94 68 95 70 96
REMARK SMILES IDX 67 97 63 98 64 99 65 100 66 101
REMARK H PARENT 10 15 14 25 90 54 58 65
REMARK Flexibility Score: inf
ROOT
ATOM      1  C   UNL A   1      34.289  28.728  26.888  1.00  0.00     0.275 C 
ENDROOT
BRANCH   1   2
ATOM      2  C   UNL A   1      32.925  28.092  26.584  1.00  0.00     0.275 C 
BRANCH   2   3
ATOM      3  O   UNL A   1      32.859  26.670  26.813  1.00  0.00    -0.458 OA
BRANCH   3   4
ATOM      4  C   UNL A   1      31.669  26.163  26.403  1.00  0.00     0.338 C 
ATOM      5  O   UNL A   1      30.583  26.507  26.836  1.00  0.00    -0.246 OA
BRANCH   4   6
ATOM      6  C   UNL A   1      31.741  24.993  25.499  1.00  0.00     0.064 A 
ATOM      7  C   UNL A   1      31.789  22.638  24.930  1.00  0.00     0.044 A 
ATOM      8  C   UNL A   1      32.338  22.962  23.691  1.00  0.00     0.052 A 
ATOM      9  C   UNL A   1      31.348  23.674  25.774  1.00  0.00     0.042 A 
ATOM     10  C   UNL A   1      32.614  24.287  23.371  1.00  0.00     0.044 A 
ATOM     11  C   UNL A   1      32.419  25.277  24.316  1.00  0.00     0.042 A 
BRANCH   7  12
ATOM     12  N   UNL A   1      31.714  21.301  25.374  1.00  0.00    -0.322 N 
ATOM     13  C   UNL A   1      32.721  20.364  25.591  1.00  0.00     0.255 C 
ATOM     14  O   UNL A   1      32.406  19.180  25.725  1.00  0.00    -0.269 OA
ATOM     15  H   UNL A   1      30.803  20.978  25.560  1.00  0.00     0.170 HD
BRANCH  13  16
ATOM     16  C   UNL A   1      34.176  20.726  25.689  1.00  0.00     0.043 A 
ATOM     17  C   UNL A   1      33.962  22.339  27.689  1.00  0.00     0.045 C 
ATOM     18  C   UNL A   1      34.719  21.690  26.562  1.00  0.00    -0.038 A 
ATOM     19  C   UNL A   1      36.074  22.051  26.423  1.00  0.00     0.004 A 
ATOM     20  C   UNL A   1      36.915  21.371  25.545  1.00  0.00     0.000 A 
ATOM     21  C   UNL A   1      35.054  19.998  24.861  1.00  0.00     0.014 A 
ATOM     22  C   UNL A   1      36.417  20.309  24.801  1.00  0.00     0.001 A 
ENDBRANCH  13  16
ENDBRANCH   7  12
BRANCH  10  23
ATOM     23  N   UNL A   1      33.033  24.720  22.113  1.00  0.00    -0.322 N 
ATOM     24  C   UNL A   1      32.780  25.912  21.481  1.00  0.00     0.255 C 
ATOM     25  H   UNL A   1      33.588  24.082  21.609  1.00  0.00     0.170 HD
ATOM     26  O   UNL A   1      33.187  26.089  20.333  1.00  0.00    -0.269 OA
BRANCH  24  27
ATOM     27  C   UNL A   1      32.055  27.016  22.164  1.00  0.00     0.043 A 
ATOM     28  C   UNL A   1      30.663  26.846  22.219  1.00  0.00     0.014 A 
ATOM     29  C   UNL A   1      32.650  28.168  22.726  1.00  0.00    -0.038 A 
ATOM     30  C   UNL A   1      29.862  27.772  22.881  1.00  0.00     0.001 A 
ATOM     31  C   UNL A   1      31.826  29.064  23.430  1.00  0.00     0.004 A 
ATOM     32  C   UNL A   1      34.114  28.510  22.660  1.00  0.00     0.045 C 
ATOM     33  C   UNL A   1      30.447  28.868  23.506  1.00  0.00     0.000 A 
ENDBRANCH  24  27
ENDBRANCH  10  23
ENDBRANCH   4   6
ENDBRANCH   3   4
ENDBRANCH   2   3
ENDBRANCH   1   2
BRANCH   1  34
ATOM     34  O   UNL A   1      34.385  29.703  27.957  1.00  0.00    -0.458 OA
BRANCH  34  35
ATOM     35  C   UNL A   1      35.398  30.595  28.121  1.00  0.00     0.338 C 
ATOM     36  O   UNL A   1      35.175  31.793  28.276  1.00  0.00    -0.246 OA
BRANCH  35  37
ATOM     37  C   UNL A   1      36.754  30.038  28.335  1.00  0.00     0.060 A 
ATOM     38  C   UNL A   1      36.968  29.215  29.454  1.00  0.00     0.016 A 
ATOM     39  C   UNL A   1      37.726  30.148  27.352  1.00  0.00     0.016 A 
ATOM     40  C   UNL A   1      38.074  28.383  29.516  1.00  0.00     0.010 A 
ATOM     41  C   UNL A   1      38.726  29.212  27.312  1.00  0.00     0.010 A 
ATOM     42  C   UNL A   1      38.925  28.374  28.419  1.00  0.00    -0.014 A 
BRANCH  42  43
ATOM     43  C   UNL A   1      40.273  27.842  28.489  1.00  0.00     0.031 A 
ATOM     44  C   UNL A   1      40.535  26.417  28.269  1.00  0.00     0.074 A 
ATOM     45  C   UNL A   1      41.161  28.842  28.695  1.00  0.00     0.049 A 
ATOM     46  N   UNL A   1      41.532  25.772  28.758  1.00  0.00    -0.248 NA
ATOM     47  C   UNL A   1      39.631  25.541  27.525  1.00  0.00     0.031 C 
ATOM     48  C   UNL A   1      42.603  28.917  28.622  1.00  0.00     0.029 A 
ATOM     49  N   UNL A   1      40.804  30.079  29.242  1.00  0.00    -0.354 N 
ATOM     50  C   UNL A   1      41.624  24.582  28.058  1.00  0.00     0.074 A 
ATOM     51  C   UNL A   1      40.325  24.398  27.472  1.00  0.00     0.031 C 
ATOM     52  C   UNL A   1      43.010  29.962  29.377  1.00  0.00     0.029 A 
ATOM     53  C   UNL A   1      41.835  30.509  30.057  1.00  0.00     0.049 A 
ATOM     54  H   UNL A   1      39.962  30.562  29.074  1.00  0.00     0.167 HD
ATOM     55  C   UNL A   1      42.863  24.043  27.864  1.00  0.00     0.034 A 
ATOM     56  C   UNL A   1      41.585  30.478  31.401  1.00  0.00     0.034 A 
ATOM     57  C   UNL A   1      43.848  24.872  28.558  1.00  0.00     0.049 A 
ATOM     58  C   UNL A   1      42.410  29.380  32.034  1.00  0.00     0.074 A 
ATOM     59  C   UNL A   1      44.657  25.903  28.109  1.00  0.00     0.029 A 
ATOM     60  N   UNL A   1      43.781  24.988  29.939  1.00  0.00    -0.354 N 
ATOM     61  N   UNL A   1      42.727  28.256  31.442  1.00  0.00    -0.248 NA
ATOM     62  C   UNL A   1      43.062  29.553  33.323  1.00  0.00     0.031 C 
ATOM     63  C   UNL A   1      44.968  26.719  29.233  1.00  0.00     0.029 A 
ATOM     64  C   UNL A   1      44.353  26.177  30.350  1.00  0.00     0.049 A 
ATOM     65  H   UNL A   1      43.381  24.320  30.540  1.00  0.00     0.167 HD
ATOM     66  C   UNL A   1      43.704  27.630  32.173  1.00  0.00     0.074 A 
ATOM     67  C   UNL A   1      43.854  28.471  33.355  1.00  0.00     0.031 C 
ATOM     68  C   UNL A   1      44.375  26.509  31.762  1.00  0.00     0.034 A 
BRANCH  55  69
ATOM     69  C   UNL A   1      43.267  23.027  26.813  1.00  0.00     0.023 A 
ATOM     70  C   UNL A   1      42.716  21.727  26.902  1.00  0.00     0.031 A 
ATOM     71  C   UNL A   1      44.179  23.215  25.757  1.00  0.00     0.131 A 
ATOM     72  C   UNL A   1      43.112  20.685  26.044  1.00  0.00     0.055 A 
ATOM     73  C   UNL A   1      44.587  22.172  24.906  1.00  0.00     0.041 A 
ATOM     74  F   UNL A   1      44.695  24.413  25.466  1.00  0.00    -0.206 F 
ATOM     75  C   UNL A   1      44.061  20.896  25.052  1.00  0.00     0.022 A 
BRANCH  72  76
ATOM     76  S   UNL A   1      42.373  19.043  26.261  1.00  0.00     0.124 S 
ATOM     77  O   UNL A   1      43.231  18.207  25.429  1.00  0.00    -0.237 OA
ATOM     78  O   UNL A   1      42.478  18.844  27.703  1.00  0.00    -0.237 OA
ATOM     79  O   UNL A   1      41.010  19.217  25.763  1.00  0.00    -0.744 OA
ENDBRANCH  72  76
ENDBRANCH  55  69
BRANCH  56  80
ATOM     80  C   UNL A   1      40.182  30.892  31.789  1.00  0.00     0.023 A 
ATOM     81  C   UNL A   1      39.709  32.137  31.299  1.00  0.00     0.031 A 
ATOM     82  C   UNL A   1      39.226  30.046  32.365  1.00  0.00     0.131 A 
ATOM     83  C   UNL A   1      38.337  32.430  31.238  1.00  0.00     0.055 A 
ATOM     84  C   UNL A   1      37.856  30.381  32.386  1.00  0.00     0.041 A 
ATOM     85  F   UNL A   1      39.573  28.841  32.839  1.00  0.00    -0.206 F 
ATOM     86  C   UNL A   1      37.400  31.561  31.787  1.00  0.00     0.022 A 
BRANCH  83  87
ATOM     87  S   UNL A   1      37.810  33.816  30.178  1.00  0.00     0.124 S 
ATOM     88  O   UNL A   1      38.696  34.891  30.611  1.00  0.00    -0.237 OA
ATOM     89  O   UNL A   1      38.050  33.291  28.834  1.00  0.00    -0.237 OA
ATOM     90  O   UNL A   1      36.401  33.991  30.510  1.00  0.00    -0.744 OA
ENDBRANCH  83  87
ENDBRANCH  56  80
BRANCH  68  91
ATOM     91  C   UNL A   1      45.202  25.632  32.666  1.00  0.00     0.023 A 
ATOM     92  C   UNL A   1      44.638  24.580  33.391  1.00  0.00     0.031 A 
ATOM     93  C   UNL A   1      46.612  25.747  32.735  1.00  0.00     0.131 A 
ATOM     94  C   UNL A   1      45.422  23.788  34.235  1.00  0.00     0.055 A 
ATOM     95  C   UNL A   1      47.408  24.865  33.465  1.00  0.00     0.041 A 
ATOM     96  F   UNL A   1      47.283  26.711  32.088  1.00  0.00    -0.206 F 
ATOM     97  C   UNL A   1      46.810  23.891  34.248  1.00  0.00     0.022 A 
BRANCH  94  98
ATOM     98  S   UNL A   1      44.555  22.724  35.407  1.00  0.00     0.124 S 
ATOM     99  O   UNL A   1      44.831  21.397  34.857  1.00  0.00    -0.237 OA
ATOM    100  O   UNL A   1      45.221  23.035  36.667  1.00  0.00    -0.237 OA
ATOM    101  O   UNL A   1      43.167  23.162  35.304  1.00  0.00    -0.744 OA
ENDBRANCH  94  98
ENDBRANCH  68  91
ENDBRANCH  42  43
ENDBRANCH  35  37
ENDBRANCH  34  35
ENDBRANCH   1  34
TORSDOF 18
ENDMDL
MODEL 3
REMARK VINA RESULT:     -13.5      1.322      1.686
REMARK SMILES Cc1ccccc1C(=O)Nc1cc(NC(=O)c2ccccc2C)cc(C(=O)OCCOC(=O)c2ccc(-c3c4nc(c(-c5cc(S(=O)(=O)[O-])ccc5F)c5ccc([nH]5)c(-c5cc(S(=O)(=O)[O-])ccc5F)c5nc(c(-c6cc(S(=O)(=O)[O-])ccc6F)c6ccc3[nH]6)C=C5)C=C4)cc2)c1
REMARK SMILES IDX 30 1 29 2 28 3 26 4 27 5 25 6 11 7 12 8 97 9 13 10 24 11
REMARK SMILES IDX 10 12 8 13 9 14 7 16 1 17 2 18 3 19 4 20 6 21 5 22 14 23
REMARK SMILES IDX 15 24 16 26 17 27 18 28 22 29 19 30 21 31 23 32 20 33 31 34
REMARK SMILES IDX 32 35 33 36 34 37 35 38 96 39 36 40 95 41 37 42 38 43 39 44
REMARK SMILES IDX 89 45 40 46 94 47 88 48 90 49 41 50 93 51 87 52 86 53 42 55
REMARK SMILES IDX 74 56 54 57 73 58 55 59 58 60 72 61 91 62 56 63 57 64 71 66
REMARK SMILES IDX 92 67 59 68 43 69 44 70 52 71 45 72 51 73 53 74 50 75 46 76
REMARK SMILES IDX 47 77 48 78 49 79 75 80 76 81 84 82 77 83 83 84 85 85 82 86
REMARK SMILES IDX 78 87 79 88 80 89 81 90 60 91 61 92 69 93 62 94 68 95 70 96
REMARK SMILES IDX 67 97 63 98 64 99 65 100 66 101
REMARK H PARENT 10 15 14 25 90 54 58 65
REMARK Flexibility Score: inf
ROOT
ATOM      1  C   UNL A   1      37.752  23.941  25.246  1.00  0.00     0.275 C 
ENDROOT
BRANCH   1   2
ATOM      2  C   UNL A   1      36.315  23.447  25.031  1.00  0.00     0.275 C 
BRANCH   2   3
ATOM      3  O   UNL A   1      35.400  24.450  24.545  1.00  0.00    -0.458 OA
BRANCH   3   4
ATOM      4  C   UNL A   1      34.695  23.994  23.479  1.00  0.00     0.338 C 
ATOM      5  O   UNL A   1      35.168  23.350  22.559  1.00  0.00    -0.246 OA
BRANCH   4   6
ATOM      6  C   UNL A   1      33.301  24.480  23.368  1.00  0.00     0.064 A 
ATOM      7  C   UNL A   1      31.536  25.998  22.698  1.00  0.00     0.044 A 
ATOM      8  C   UNL A   1      30.702  25.434  23.663  1.00  0.00     0.052 A 
ATOM      9  C   UNL A   1      32.790  25.410  22.450  1.00  0.00     0.042 A 
ATOM     10  C   UNL A   1      31.174  24.422  24.492  1.00  0.00     0.044 A 
ATOM     11  C   UNL A   1      32.499  24.033  24.415  1.00  0.00     0.042 A 
BRANCH   7  12
ATOM     12  N   UNL A   1      31.168  27.171  22.005  1.00  0.00    -0.322 N 
ATOM     13  C   UNL A   1      31.159  28.500  22.420  1.00  0.00     0.255 C 
ATOM     14  O   UNL A   1      30.552  29.328  21.738  1.00  0.00    -0.269 OA
ATOM     15  H   UNL A   1      30.872  27.027  21.078  1.00  0.00     0.170 HD
BRANCH  13  16
ATOM     16  C   UNL A   1      31.869  28.982  23.653  1.00  0.00     0.043 A 
ATOM     17  C   UNL A   1      34.271  28.688  22.766  1.00  0.00     0.045 C 
ATOM     18  C   UNL A   1      33.265  28.970  23.848  1.00  0.00    -0.038 A 
ATOM     19  C   UNL A   1      33.780  29.289  25.121  1.00  0.00     0.004 A 
ATOM     20  C   UNL A   1      32.950  29.756  26.138  1.00  0.00     0.000 A 
ATOM     21  C   UNL A   1      31.053  29.527  24.667  1.00  0.00     0.014 A 
ATOM     22  C   UNL A   1      31.594  29.924  25.894  1.00  0.00     0.001 A 
ENDBRANCH  13  16
ENDBRANCH   7  12
BRANCH  10  23
ATOM     23  N   UNL A   1      30.380  23.707  25.388  1.00  0.00    -0.322 N 
ATOM     24  C   UNL A   1      30.599  22.469  25.939  1.00  0.00     0.255 C 
ATOM     25  H   UNL A   1      29.547  24.153  25.664  1.00  0.00     0.170 HD
ATOM     26  O   UNL A   1      29.743  21.969  26.668  1.00  0.00    -0.269 OA
BRANCH  24  27
ATOM     27  C   UNL A   1      31.866  21.728  25.706  1.00  0.00     0.043 A 
ATOM     28  C   UNL A   1      31.876  20.953  24.535  1.00  0.00     0.014 A 
ATOM     29  C   UNL A   1      33.000  21.749  26.549  1.00  0.00    -0.038 A 
ATOM     30  C   UNL A   1      33.019  20.253  24.159  1.00  0.00     0.001 A 
ATOM     31  C   UNL A   1      34.157  21.072  26.124  1.00  0.00     0.004 A 
ATOM     32  C   UNL A   1      33.087  22.466  27.869  1.00  0.00     0.045 C 
ATOM     33  C   UNL A   1      34.165  20.332  24.942  1.00  0.00     0.000 A 
ENDBRANCH  24  27
ENDBRANCH  10  23
ENDBRANCH   4   6
ENDBRANCH   3   4
ENDBRANCH   2   3
ENDBRANCH   1   2
BRANCH   1  34
ATOM     34  O   UNL A   1      38.457  23.546  26.450  1.00  0.00    -0.458 OA
BRANCH  34  35
ATOM     35  C   UNL A   1      39.731  23.898  26.769  1.00  0.00     0.338 C 
ATOM     36  O   UNL A   1      40.693  23.262  26.347  1.00  0.00    -0.246 OA
BRANCH  35  37
ATOM     37  C   UNL A   1      39.916  25.202  27.449  1.00  0.00     0.060 A 
ATOM     38  C   UNL A   1      40.306  26.308  26.675  1.00  0.00     0.016 A 
ATOM     39  C   UNL A   1      39.513  25.375  28.764  1.00  0.00     0.016 A 
ATOM     40  C   UNL A   1      40.143  27.596  27.156  1.00  0.00     0.010 A 
ATOM     41  C   UNL A   1      39.182  26.636  29.187  1.00  0.00     0.010 A 
ATOM     42  C   UNL A   1      39.550  27.740  28.403  1.00  0.00    -0.014 A 
BRANCH  42  43
ATOM     43  C   UNL A   1      39.641  28.969  29.167  1.00  0.00     0.031 A 
ATOM     44  C   UNL A   1      38.642  30.031  29.013  1.00  0.00     0.074 A 
ATOM     45  C   UNL A   1      40.684  28.910  30.028  1.00  0.00     0.049 A 
ATOM     46  N   UNL A   1      38.858  31.277  29.234  1.00  0.00    -0.248 NA
ATOM     47  C   UNL A   1      37.292  29.794  28.504  1.00  0.00     0.031 C 
ATOM     48  C   UNL A   1      41.091  29.727  31.149  1.00  0.00     0.029 A 
ATOM     49  N   UNL A   1      41.767  28.041  29.855  1.00  0.00    -0.354 N 
ATOM     50  C   UNL A   1      37.621  31.891  29.320  1.00  0.00     0.074 A 
ATOM     51  C   UNL A   1      36.717  30.992  28.659  1.00  0.00     0.031 C 
ATOM     52  C   UNL A   1      42.416  29.543  31.346  1.00  0.00     0.029 A 
ATOM     53  C   UNL A   1      42.916  28.692  30.265  1.00  0.00     0.049 A 
ATOM     54  H   UNL A   1      41.718  27.124  29.501  1.00  0.00     0.167 HD
ATOM     55  C   UNL A   1      37.490  32.960  30.159  1.00  0.00     0.034 A 
ATOM     56  C   UNL A   1      43.780  29.061  29.272  1.00  0.00     0.034 A 
ATOM     57  C   UNL A   1      38.797  33.261  30.743  1.00  0.00     0.049 A 
ATOM     58  C   UNL A   1      43.757  30.566  29.129  1.00  0.00     0.074 A 
ATOM     59  C   UNL A   1      39.373  32.885  31.946  1.00  0.00     0.029 A 
ATOM     60  N   UNL A   1      39.833  33.656  29.910  1.00  0.00    -0.354 N 
ATOM     61  N   UNL A   1      42.704  31.316  29.337  1.00  0.00    -0.248 NA
ATOM     62  C   UNL A   1      44.971  31.335  28.895  1.00  0.00     0.031 C 
ATOM     63  C   UNL A   1      40.784  32.938  31.776  1.00  0.00     0.029 A 
ATOM     64  C   UNL A   1      41.054  33.348  30.480  1.00  0.00     0.049 A 
ATOM     65  H   UNL A   1      39.717  34.093  29.036  1.00  0.00     0.167 HD
ATOM     66  C   UNL A   1      43.099  32.627  29.405  1.00  0.00     0.074 A 
ATOM     67  C   UNL A   1      44.522  32.584  29.092  1.00  0.00     0.031 C 
ATOM     68  C   UNL A   1      42.277  33.662  29.766  1.00  0.00     0.034 A 
BRANCH  55  69
ATOM     69  C   UNL A   1      36.204  33.516  30.741  1.00  0.00     0.023 A 
ATOM     70  C   UNL A   1      35.319  34.189  29.867  1.00  0.00     0.031 A 
ATOM     71  C   UNL A   1      35.796  33.479  32.088  1.00  0.00     0.131 A 
ATOM     72  C   UNL A   1      34.158  34.836  30.329  1.00  0.00     0.055 A 
ATOM     73  C   UNL A   1      34.643  34.136  32.554  1.00  0.00     0.041 A 
ATOM     74  F   UNL A   1      36.461  32.782  33.016  1.00  0.00    -0.206 F 
ATOM     75  C   UNL A   1      33.821  34.827  31.676  1.00  0.00     0.022 A 
BRANCH  72  76
ATOM     76  S   UNL A   1      33.104  35.702  29.133  1.00  0.00     0.124 S 
ATOM     77  O   UNL A   1      34.071  36.519  28.408  1.00  0.00    -0.237 OA
ATOM     78  O   UNL A   1      32.504  34.597  28.392  1.00  0.00    -0.237 OA
ATOM     79  O   UNL A   1      32.175  36.450  29.979  1.00  0.00    -0.744 OA
ENDBRANCH  72  76
ENDBRANCH  55  69
BRANCH  56  80
ATOM     80  C   UNL A   1      43.922  28.050  28.155  1.00  0.00     0.023 A 
ATOM     81  C   UNL A   1      44.214  26.709  28.520  1.00  0.00     0.031 A 
ATOM     82  C   UNL A   1      43.536  28.263  26.825  1.00  0.00     0.131 A 
ATOM     83  C   UNL A   1      43.964  25.639  27.647  1.00  0.00     0.055 A 
ATOM     84  C   UNL A   1      43.373  27.194  25.921  1.00  0.00     0.041 A 
ATOM     85  F   UNL A   1      43.222  29.492  26.391  1.00  0.00    -0.206 F 
ATOM     86  C   UNL A   1      43.550  25.870  26.339  1.00  0.00     0.022 A 
BRANCH  83  87
ATOM     87  S   UNL A   1      43.916  23.959  28.354  1.00  0.00     0.124 S 
ATOM     88  O   UNL A   1      43.969  23.121  27.161  1.00  0.00    -0.237 OA
ATOM     89  O   UNL A   1      45.108  23.943  29.202  1.00  0.00    -0.237 OA
ATOM     90  O   UNL A   1      42.657  23.927  29.088  1.00  0.00    -0.744 OA
ENDBRANCH  83  87
ENDBRANCH  56  80
BRANCH  68  91
ATOM     91  C   UNL A   1      42.590  35.117  29.537  1.00  0.00     0.023 A 
ATOM     92  C   UNL A   1      43.378  35.851  30.425  1.00  0.00     0.031 A 
ATOM     93  C   UNL A   1      42.206  35.788  28.349  1.00  0.00     0.131 A 
ATOM     94  C   UNL A   1      43.644  37.205  30.199  1.00  0.00     0.055 A 
ATOM     95  C   UNL A   1      42.594  37.095  28.059  1.00  0.00     0.041 A 
ATOM     96  F   UNL A   1      41.450  35.200  27.410  1.00  0.00    -0.206 F 
ATOM     97  C   UNL A   1      43.297  37.826  29.003  1.00  0.00     0.022 A 
BRANCH  94  98
ATOM     98  S   UNL A   1      44.331  38.150  31.574  1.00  0.00     0.124 S 
ATOM     99  O   UNL A   1      43.960  37.317  32.717  1.00  0.00    -0.237 OA
ATOM    100  O   UNL A   1      45.754  38.183  31.255  1.00  0.00    -0.237 OA
ATOM    101  O   UNL A   1      43.638  39.432  31.489  1.00  0.00    -0.744 OA
ENDBRANCH  94  98
ENDBRANCH  68  91
ENDBRANCH  42  43
ENDBRANCH  35  37
ENDBRANCH  34  35
ENDBRANCH   1  34
TORSDOF 18
ENDMDL
