MODEL 1
REMARK VINA RESULT:     -12.1      0.000      0.000
REMARK SMILES CCc1ccc2c(CC(=O)OCCOC(=O)c3ccc(-c4c5nc(c(-c6cc(S(=O)(=O)[O-])ccc6F)c6ccc([nH]6)c(-c6cc(S(=O)(=O)[O-])ccc6F)c6nc(c(-c7cc(S(=O)(=O)[O-])ccc7F)c7ccc4[nH]7)C=C6)C=C5)cc3)c(C(=O)c3cc(C)ccn3)[nH]c2c1
REMARK SMILES IDX 12 1 11 2 9 3 10 4 8 5 7 6 3 7 4 8 92 9 5 10 91 11 6 12
REMARK SMILES IDX 90 13 80 14 2 16 1 17 81 18 82 19 83 20 84 21 89 22 85 23
REMARK SMILES IDX 88 24 86 25 87 26 13 27 14 28 15 29 16 30 17 31 18 32 79 33
REMARK SMILES IDX 19 34 78 35 20 36 21 37 22 38 72 39 23 40 77 41 71 42 73 43
REMARK SMILES IDX 24 44 76 45 70 46 69 47 25 49 57 50 37 51 56 52 38 53 41 54
REMARK SMILES IDX 55 55 74 56 39 57 40 58 54 60 75 61 42 62 26 63 27 64 35 65
REMARK SMILES IDX 28 66 34 67 36 68 33 69 29 70 30 71 31 72 32 73 58 74 59 75
REMARK SMILES IDX 67 76 60 77 66 78 68 79 65 80 61 81 62 82 63 83 64 84 43 85
REMARK SMILES IDX 44 86 52 87 45 88 51 89 53 90 50 91 46 92 47 93 48 94 49 95
REMARK H PARENT 90 15 73 48 41 59
REMARK Flexibility Score: inf
ROOT
ATOM      1  C   UNL A   1      36.343  22.662  23.730  1.00  0.00     0.274 C 
ENDROOT
BRANCH   1   2
ATOM      2  O   UNL A   1      35.700  23.406  24.784  1.00  0.00    -0.462 OA
BRANCH   2   3
ATOM      3  C   UNL A   1      34.856  24.391  24.373  1.00  0.00     0.310 C 
ATOM      4  O   UNL A   1      34.471  24.525  23.213  1.00  0.00    -0.252 OA
BRANCH   3   5
ATOM      5  C   UNL A   1      34.377  25.317  25.469  1.00  0.00     0.161 C 
BRANCH   5   6
ATOM      6  C   UNL A   1      32.953  25.781  25.391  1.00  0.00     0.000 A 
ATOM      7  C   UNL A   1      30.988  28.680  23.042  1.00  0.00    -0.046 A 
ATOM      8  C   UNL A   1      32.389  28.689  22.989  1.00  0.00     0.004 A 
ATOM      9  C   UNL A   1      30.336  27.813  23.934  1.00  0.00     0.030 A 
ATOM     10  C   UNL A   1      33.157  27.828  23.782  1.00  0.00     0.011 A 
ATOM     11  C   UNL A   1      31.121  26.938  24.696  1.00  0.00     0.046 A 
ATOM     12  C   UNL A   1      32.507  26.902  24.619  1.00  0.00     0.004 A 
ATOM     13  N   UNL A   1      30.745  25.959  25.585  1.00  0.00    -0.352 N 
ATOM     14  C   UNL A   1      31.810  25.127  25.856  1.00  0.00     0.093 A 
ATOM     15  H   UNL A   1      29.844  25.865  25.972  1.00  0.00     0.167 HD
BRANCH   7  16
ATOM     16  C   UNL A   1      30.228  29.527  22.046  1.00  0.00     0.032 C 
ATOM     17  C   UNL A   1      28.715  29.552  22.215  1.00  0.00     0.009 C 
ENDBRANCH   7  16
BRANCH  14  18
ATOM     18  C   UNL A   1      31.673  23.789  26.413  1.00  0.00     0.227 C 
ATOM     19  O   UNL A   1      31.231  23.576  27.537  1.00  0.00    -0.285 OA
BRANCH  18  20
ATOM     20  C   UNL A   1      32.200  22.633  25.645  1.00  0.00     0.113 A 
ATOM     21  C   UNL A   1      31.839  22.476  24.312  1.00  0.00     0.036 A 
ATOM     22  N   UNL A   1      33.014  21.787  26.320  1.00  0.00    -0.253 NA
ATOM     23  C   UNL A   1      32.363  21.386  23.613  1.00  0.00    -0.047 A 
ATOM     24  C   UNL A   1      33.574  20.797  25.597  1.00  0.00     0.112 A 
ATOM     25  C   UNL A   1      31.991  21.126  22.182  1.00  0.00     0.044 C 
ATOM     26  C   UNL A   1      33.277  20.552  24.264  1.00  0.00     0.023 A 
ENDBRANCH  18  20
ENDBRANCH  14  18
ENDBRANCH   5   6
ENDBRANCH   3   5
ENDBRANCH   2   3
ENDBRANCH   1   2
BRANCH   1  27
ATOM     27  C   UNL A   1      37.045  21.431  24.295  1.00  0.00     0.275 C 
BRANCH  27  28
ATOM     28  O   UNL A   1      37.396  21.667  25.667  1.00  0.00    -0.458 OA
BRANCH  28  29
ATOM     29  C   UNL A   1      38.699  21.464  25.971  1.00  0.00     0.338 C 
ATOM     30  O   UNL A   1      39.314  20.409  25.866  1.00  0.00    -0.246 OA
BRANCH  29  31
ATOM     31  C   UNL A   1      39.293  22.690  26.536  1.00  0.00     0.060 A 
ATOM     32  C   UNL A   1      38.872  23.960  26.137  1.00  0.00     0.016 A 
ATOM     33  C   UNL A   1      40.359  22.558  27.427  1.00  0.00     0.016 A 
ATOM     34  C   UNL A   1      39.576  25.090  26.558  1.00  0.00     0.010 A 
ATOM     35  C   UNL A   1      40.989  23.697  27.932  1.00  0.00     0.010 A 
ATOM     36  C   UNL A   1      40.625  24.977  27.481  1.00  0.00    -0.014 A 
BRANCH  36  37
ATOM     37  C   UNL A   1      41.338  26.181  27.995  1.00  0.00     0.031 A 
ATOM     38  C   UNL A   1      40.596  27.236  28.772  1.00  0.00     0.074 A 
ATOM     39  C   UNL A   1      42.645  26.353  27.714  1.00  0.00     0.049 A 
ATOM     40  N   UNL A   1      40.975  28.446  29.102  1.00  0.00    -0.248 NA
ATOM     41  C   UNL A   1      39.237  26.891  29.215  1.00  0.00     0.031 C 
ATOM     42  C   UNL A   1      43.488  25.400  26.989  1.00  0.00     0.029 A 
ATOM     43  N   UNL A   1      43.491  27.399  27.990  1.00  0.00    -0.354 N 
ATOM     44  C   UNL A   1      39.888  29.025  29.749  1.00  0.00     0.074 A 
ATOM     45  C   UNL A   1      38.828  28.036  29.745  1.00  0.00     0.031 C 
ATOM     46  C   UNL A   1      44.729  25.897  26.887  1.00  0.00     0.029 A 
ATOM     47  C   UNL A   1      44.749  27.238  27.459  1.00  0.00     0.049 A 
ATOM     48  H   UNL A   1      43.224  28.187  28.516  1.00  0.00     0.167 HD
ATOM     49  C   UNL A   1      39.786  30.266  30.291  1.00  0.00     0.034 A 
ATOM     50  C   UNL A   1      45.791  28.089  27.381  1.00  0.00     0.034 A 
ATOM     51  C   UNL A   1      40.868  31.227  30.311  1.00  0.00     0.049 A 
ATOM     52  C   UNL A   1      45.648  29.470  27.954  1.00  0.00     0.074 A 
ATOM     53  C   UNL A   1      40.888  32.494  30.869  1.00  0.00     0.029 A 
ATOM     54  N   UNL A   1      42.123  31.028  29.746  1.00  0.00    -0.354 N 
ATOM     55  N   UNL A   1      44.603  30.021  28.527  1.00  0.00    -0.248 NA
ATOM     56  C   UNL A   1      46.821  30.346  27.861  1.00  0.00     0.031 C 
ATOM     57  C   UNL A   1      42.130  33.081  30.591  1.00  0.00     0.029 A 
ATOM     58  C   UNL A   1      42.912  32.157  29.918  1.00  0.00     0.049 A 
ATOM     59  H   UNL A   1      42.411  30.204  29.290  1.00  0.00     0.167 HD
ATOM     60  C   UNL A   1      44.997  31.310  28.869  1.00  0.00     0.074 A 
ATOM     61  C   UNL A   1      46.381  31.445  28.456  1.00  0.00     0.031 C 
ATOM     62  C   UNL A   1      44.279  32.292  29.471  1.00  0.00     0.034 A 
BRANCH  49  63
ATOM     63  C   UNL A   1      38.441  30.676  30.850  1.00  0.00     0.023 A 
ATOM     64  C   UNL A   1      37.467  31.322  30.067  1.00  0.00     0.031 A 
ATOM     65  C   UNL A   1      38.143  30.443  32.205  1.00  0.00     0.131 A 
ATOM     66  C   UNL A   1      36.278  31.777  30.659  1.00  0.00     0.055 A 
ATOM     67  C   UNL A   1      36.925  30.826  32.770  1.00  0.00     0.041 A 
ATOM     68  F   UNL A   1      39.039  29.849  33.009  1.00  0.00    -0.206 F 
ATOM     69  C   UNL A   1      35.990  31.510  32.001  1.00  0.00     0.022 A 
BRANCH  66  70
ATOM     70  S   UNL A   1      35.173  32.845  29.693  1.00  0.00     0.124 S 
ATOM     71  O   UNL A   1      34.224  33.297  30.708  1.00  0.00    -0.237 OA
ATOM     72  O   UNL A   1      36.084  33.858  29.175  1.00  0.00    -0.237 OA
ATOM     73  O   UNL A   1      34.609  31.941  28.691  1.00  0.00    -0.744 OA
ENDBRANCH  66  70
ENDBRANCH  49  63
BRANCH  50  74
ATOM     74  C   UNL A   1      47.028  27.677  26.662  1.00  0.00     0.023 A 
ATOM     75  C   UNL A   1      47.152  27.841  25.275  1.00  0.00     0.031 A 
ATOM     76  C   UNL A   1      48.110  27.117  27.365  1.00  0.00     0.131 A 
ATOM     77  C   UNL A   1      48.327  27.427  24.629  1.00  0.00     0.055 A 
ATOM     78  C   UNL A   1      49.294  26.751  26.725  1.00  0.00     0.041 A 
ATOM     79  F   UNL A   1      48.040  26.946  28.695  1.00  0.00    -0.206 F 
ATOM     80  C   UNL A   1      49.404  26.898  25.346  1.00  0.00     0.022 A 
BRANCH  77  81
ATOM     81  S   UNL A   1      48.413  27.543  22.821  1.00  0.00     0.124 S 
ATOM     82  O   UNL A   1      48.437  26.137  22.432  1.00  0.00    -0.237 OA
ATOM     83  O   UNL A   1      47.191  28.275  22.504  1.00  0.00    -0.237 OA
ATOM     84  O   UNL A   1      49.655  28.277  22.585  1.00  0.00    -0.744 OA
ENDBRANCH  77  81
ENDBRANCH  50  74
BRANCH  62  85
ATOM     85  C   UNL A   1      45.005  33.587  29.737  1.00  0.00     0.023 A 
ATOM     86  C   UNL A   1      45.704  33.806  30.936  1.00  0.00     0.031 A 
ATOM     87  C   UNL A   1      44.959  34.628  28.795  1.00  0.00     0.131 A 
ATOM     88  C   UNL A   1      46.286  35.058  31.186  1.00  0.00     0.055 A 
ATOM     89  C   UNL A   1      45.583  35.855  29.026  1.00  0.00     0.041 A 
ATOM     90  F   UNL A   1      44.300  34.472  27.635  1.00  0.00    -0.206 F 
ATOM     91  C   UNL A   1      46.241  36.080  30.233  1.00  0.00     0.022 A 
BRANCH  88  92
ATOM     92  S   UNL A   1      47.033  35.368  32.810  1.00  0.00     0.124 S 
ATOM     93  O   UNL A   1      47.507  34.039  33.184  1.00  0.00    -0.237 OA
ATOM     94  O   UNL A   1      48.066  36.350  32.498  1.00  0.00    -0.237 OA
ATOM     95  O   UNL A   1      45.918  35.874  33.609  1.00  0.00    -0.744 OA
ENDBRANCH  88  92
ENDBRANCH  62  85
ENDBRANCH  36  37
ENDBRANCH  29  31
ENDBRANCH  28  29
ENDBRANCH  27  28
ENDBRANCH   1  27
TORSDOF 18
ENDMDL
MODEL 2
REMARK VINA RESULT:     -12.0      1.449      1.772
REMARK SMILES CCc1ccc2c(CC(=O)OCCOC(=O)c3ccc(-c4c5nc(c(-c6cc(S(=O)(=O)[O-])ccc6F)c6ccc([nH]6)c(-c6cc(S(=O)(=O)[O-])ccc6F)c6nc(c(-c7cc(S(=O)(=O)[O-])ccc7F)c7ccc4[nH]7)C=C6)C=C5)cc3)c(C(=O)c3cc(C)ccn3)[nH]c2c1
REMARK SMILES IDX 12 1 11 2 9 3 10 4 8 5 7 6 3 7 4 8 92 9 5 10 91 11 6 12
REMARK SMILES IDX 90 13 80 14 2 16 1 17 81 18 82 19 83 20 84 21 89 22 85 23
REMARK SMILES IDX 88 24 86 25 87 26 13 27 14 28 15 29 16 30 17 31 18 32 79 33
REMARK SMILES IDX 19 34 78 35 20 36 21 37 22 38 72 39 23 40 77 41 71 42 73 43
REMARK SMILES IDX 24 44 76 45 70 46 69 47 25 49 57 50 37 51 56 52 38 53 41 54
REMARK SMILES IDX 55 55 74 56 39 57 40 58 54 60 75 61 42 62 26 63 27 64 35 65
REMARK SMILES IDX 28 66 34 67 36 68 33 69 29 70 30 71 31 72 32 73 58 74 59 75
REMARK SMILES IDX 67 76 60 77 66 78 68 79 65 80 61 81 62 82 63 83 64 84 43 85
REMARK SMILES IDX 44 86 52 87 45 88 51 89 53 90 50 91 46 92 47 93 48 94 49 95
REMARK H PARENT 90 15 73 48 41 59
REMARK Flexibility Score: inf
ROOT
ATOM      1  C   UNL A   1      36.153  21.572  24.035  1.00  0.00     0.274 C 
ENDROOT
BRANCH   1   2
ATOM      2  O   UNL A   1      36.493  22.973  24.029  1.00  0.00    -0.462 OA
BRANCH   2   3
ATOM      3  C   UNL A   1      35.439  23.831  24.097  1.00  0.00     0.310 C 
ATOM      4  O   UNL A   1      34.701  24.085  23.147  1.00  0.00    -0.252 OA
BRANCH   3   5
ATOM      5  C   UNL A   1      35.202  24.443  25.459  1.00  0.00     0.161 C 
BRANCH   5   6
ATOM      6  C   UNL A   1      33.811  24.918  25.757  1.00  0.00     0.000 A 
ATOM      7  C   UNL A   1      31.438  28.044  24.215  1.00  0.00    -0.046 A 
ATOM      8  C   UNL A   1      32.790  28.053  23.841  1.00  0.00     0.004 A 
ATOM      9  C   UNL A   1      30.985  27.095  25.145  1.00  0.00     0.030 A 
ATOM     10  C   UNL A   1      33.696  27.115  24.348  1.00  0.00     0.011 A 
ATOM     11  C   UNL A   1      31.900  26.145  25.618  1.00  0.00     0.046 A 
ATOM     12  C   UNL A   1      33.230  26.112  25.220  1.00  0.00     0.004 A 
ATOM     13  N   UNL A   1      31.712  25.084  26.471  1.00  0.00    -0.352 N 
ATOM     14  C   UNL A   1      32.788  24.225  26.407  1.00  0.00     0.093 A 
ATOM     15  H   UNL A   1      30.922  24.956  27.045  1.00  0.00     0.167 HD
BRANCH   7  16
ATOM     16  C   UNL A   1      30.493  28.989  23.508  1.00  0.00     0.032 C 
ATOM     17  C   UNL A   1      29.144  28.406  23.113  1.00  0.00     0.009 C 
ENDBRANCH   7  16
BRANCH  14  18
ATOM     18  C   UNL A   1      32.747  22.838  26.849  1.00  0.00     0.227 C 
ATOM     19  O   UNL A   1      32.795  22.513  28.031  1.00  0.00    -0.285 OA
BRANCH  18  20
ATOM     20  C   UNL A   1      32.770  21.758  25.833  1.00  0.00     0.113 A 
ATOM     21  C   UNL A   1      32.328  22.025  24.542  1.00  0.00     0.036 A 
ATOM     22  N   UNL A   1      33.229  20.554  26.248  1.00  0.00    -0.253 NA
ATOM     23  C   UNL A   1      32.375  20.991  23.604  1.00  0.00    -0.047 A 
ATOM     24  C   UNL A   1      33.347  19.603  25.299  1.00  0.00     0.112 A 
ATOM     25  C   UNL A   1      31.880  21.189  22.200  1.00  0.00     0.044 C 
ATOM     26  C   UNL A   1      32.931  19.767  23.987  1.00  0.00     0.023 A 
ENDBRANCH  18  20
ENDBRANCH  14  18
ENDBRANCH   5   6
ENDBRANCH   3   5
ENDBRANCH   2   3
ENDBRANCH   1   2
BRANCH   1  27
ATOM     27  C   UNL A   1      37.047  20.807  25.006  1.00  0.00     0.275 C 
BRANCH  27  28
ATOM     28  O   UNL A   1      37.607  21.721  25.963  1.00  0.00    -0.458 OA
BRANCH  28  29
ATOM     29  C   UNL A   1      38.938  21.595  26.167  1.00  0.00     0.338 C 
ATOM     30  O   UNL A   1      39.609  20.584  25.990  1.00  0.00    -0.246 OA
BRANCH  29  31
ATOM     31  C   UNL A   1      39.494  22.844  26.721  1.00  0.00     0.060 A 
ATOM     32  C   UNL A   1      38.994  24.095  26.354  1.00  0.00     0.016 A 
ATOM     33  C   UNL A   1      40.602  22.757  27.565  1.00  0.00     0.016 A 
ATOM     34  C   UNL A   1      39.658  25.255  26.759  1.00  0.00     0.010 A 
ATOM     35  C   UNL A   1      41.195  23.921  28.057  1.00  0.00     0.010 A 
ATOM     36  C   UNL A   1      40.749  25.186  27.636  1.00  0.00    -0.014 A 
BRANCH  36  37
ATOM     37  C   UNL A   1      41.423  26.419  28.134  1.00  0.00     0.031 A 
ATOM     38  C   UNL A   1      40.641  27.472  28.875  1.00  0.00     0.074 A 
ATOM     39  C   UNL A   1      42.729  26.619  27.870  1.00  0.00     0.049 A 
ATOM     40  N   UNL A   1      40.984  28.697  29.183  1.00  0.00    -0.248 NA
ATOM     41  C   UNL A   1      39.285  27.101  29.304  1.00  0.00     0.031 C 
ATOM     42  C   UNL A   1      43.609  25.672  27.179  1.00  0.00     0.029 A 
ATOM     43  N   UNL A   1      43.544  27.692  28.134  1.00  0.00    -0.354 N 
ATOM     44  C   UNL A   1      39.871  29.262  29.800  1.00  0.00     0.074 A 
ATOM     45  C   UNL A   1      38.838  28.246  29.801  1.00  0.00     0.031 C 
ATOM     46  C   UNL A   1      44.837  26.199  27.085  1.00  0.00     0.029 A 
ATOM     47  C   UNL A   1      44.814  27.553  27.627  1.00  0.00     0.049 A 
ATOM     48  H   UNL A   1      43.247  28.485  28.639  1.00  0.00     0.167 HD
ATOM     49  C   UNL A   1      39.729  30.512  30.312  1.00  0.00     0.034 A 
ATOM     50  C   UNL A   1      45.834  28.429  27.546  1.00  0.00     0.034 A 
ATOM     51  C   UNL A   1      40.785  31.501  30.327  1.00  0.00     0.049 A 
ATOM     52  C   UNL A   1      45.647  29.818  28.085  1.00  0.00     0.074 A 
ATOM     53  C   UNL A   1      40.764  32.781  30.856  1.00  0.00     0.029 A 
ATOM     54  N   UNL A   1      42.054  31.323  29.786  1.00  0.00    -0.354 N 
ATOM     55  N   UNL A   1      44.579  30.354  28.629  1.00  0.00    -0.248 NA
ATOM     56  C   UNL A   1      46.799  30.722  27.991  1.00  0.00     0.031 C 
ATOM     57  C   UNL A   1      41.995  33.394  30.584  1.00  0.00     0.029 A 
ATOM     58  C   UNL A   1      42.811  32.476  29.945  1.00  0.00     0.049 A 
ATOM     59  H   UNL A   1      42.370  30.496  29.354  1.00  0.00     0.167 HD
ATOM     60  C   UNL A   1      44.934  31.660  28.948  1.00  0.00     0.074 A 
ATOM     61  C   UNL A   1      46.320  31.822  28.554  1.00  0.00     0.031 C 
ATOM     62  C   UNL A   1      44.181  32.636  29.517  1.00  0.00     0.034 A 
BRANCH  49  63
ATOM     63  C   UNL A   1      38.365  30.899  30.840  1.00  0.00     0.023 A 
ATOM     64  C   UNL A   1      37.376  31.473  30.020  1.00  0.00     0.031 A 
ATOM     65  C   UNL A   1      38.062  30.718  32.202  1.00  0.00     0.131 A 
ATOM     66  C   UNL A   1      36.166  31.912  30.581  1.00  0.00     0.055 A 
ATOM     67  C   UNL A   1      36.826  31.083  32.739  1.00  0.00     0.041 A 
ATOM     68  F   UNL A   1      38.971  30.195  33.041  1.00  0.00    -0.206 F 
ATOM     69  C   UNL A   1      35.875  31.698  31.931  1.00  0.00     0.022 A 
BRANCH  66  70
ATOM     70  S   UNL A   1      35.034  32.894  29.557  1.00  0.00     0.124 S 
ATOM     71  O   UNL A   1      35.938  33.873  28.958  1.00  0.00    -0.237 OA
ATOM     72  O   UNL A   1      34.482  31.897  28.649  1.00  0.00    -0.237 OA
ATOM     73  O   UNL A   1      34.088  33.449  30.524  1.00  0.00    -0.744 OA
ENDBRANCH  66  70
ENDBRANCH  49  63
BRANCH  50  74
ATOM     74  C   UNL A   1      47.093  28.034  26.856  1.00  0.00     0.023 A 
ATOM     75  C   UNL A   1      47.182  28.019  25.457  1.00  0.00     0.031 A 
ATOM     76  C   UNL A   1      48.231  27.670  27.599  1.00  0.00     0.131 A 
ATOM     77  C   UNL A   1      48.381  27.625  24.842  1.00  0.00     0.055 A 
ATOM     78  C   UNL A   1      49.434  27.326  26.983  1.00  0.00     0.041 A 
ATOM     79  F   UNL A   1      48.196  27.674  28.941  1.00  0.00    -0.206 F 
ATOM     80  C   UNL A   1      49.511  27.295  25.594  1.00  0.00     0.022 A 
BRANCH  77  81
ATOM     81  S   UNL A   1      48.430  27.504  23.032  1.00  0.00     0.124 S 
ATOM     82  O   UNL A   1      49.711  28.131  22.726  1.00  0.00    -0.237 OA
ATOM     83  O   UNL A   1      48.356  26.062  22.821  1.00  0.00    -0.237 OA
ATOM     84  O   UNL A   1      47.251  28.256  22.608  1.00  0.00    -0.744 OA
ENDBRANCH  77  81
ENDBRANCH  50  74
BRANCH  62  85
ATOM     85  C   UNL A   1      44.869  33.955  29.764  1.00  0.00     0.023 A 
ATOM     86  C   UNL A   1      44.902  34.964  28.786  1.00  0.00     0.031 A 
ATOM     87  C   UNL A   1      45.535  34.187  30.980  1.00  0.00     0.131 A 
ATOM     88  C   UNL A   1      45.633  36.139  29.019  1.00  0.00     0.055 A 
ATOM     89  C   UNL A   1      46.218  35.378  31.227  1.00  0.00     0.041 A 
ATOM     90  F   UNL A   1      45.538  33.254  31.946  1.00  0.00    -0.206 F 
ATOM     91  C   UNL A   1      46.280  36.358  30.238  1.00  0.00     0.022 A 
BRANCH  88  92
ATOM     92  S   UNL A   1      45.800  37.346  27.675  1.00  0.00     0.124 S 
ATOM     93  O   UNL A   1      44.480  37.968  27.660  1.00  0.00    -0.237 OA
ATOM     94  O   UNL A   1      46.897  38.187  28.144  1.00  0.00    -0.237 OA
ATOM     95  O   UNL A   1      46.109  36.520  26.508  1.00  0.00    -0.744 OA
ENDBRANCH  88  92
ENDBRANCH  62  85
ENDBRANCH  36  37
ENDBRANCH  29  31
ENDBRANCH  28  29
ENDBRANCH  27  28
ENDBRANCH   1  27
TORSDOF 18
ENDMDL
MODEL 3
REMARK VINA RESULT:     -12.0      4.800      9.801
REMARK SMILES CCc1ccc2c(CC(=O)OCCOC(=O)c3ccc(-c4c5nc(c(-c6cc(S(=O)(=O)[O-])ccc6F)c6ccc([nH]6)c(-c6cc(S(=O)(=O)[O-])ccc6F)c6nc(c(-c7cc(S(=O)(=O)[O-])ccc7F)c7ccc4[nH]7)C=C6)C=C5)cc3)c(C(=O)c3cc(C)ccn3)[nH]c2c1
REMARK SMILES IDX 12 1 11 2 9 3 10 4 8 5 7 6 3 7 4 8 92 9 5 10 91 11 6 12
REMARK SMILES IDX 90 13 80 14 2 16 1 17 81 18 82 19 83 20 84 21 89 22 85 23
REMARK SMILES IDX 88 24 86 25 87 26 13 27 14 28 15 29 16 30 17 31 18 32 79 33
REMARK SMILES IDX 19 34 78 35 20 36 21 37 22 38 72 39 23 40 77 41 71 42 73 43
REMARK SMILES IDX 24 44 76 45 70 46 69 47 25 49 57 50 37 51 56 52 38 53 41 54
REMARK SMILES IDX 55 55 74 56 39 57 40 58 54 60 75 61 42 62 26 63 27 64 35 65
REMARK SMILES IDX 28 66 34 67 36 68 33 69 29 70 30 71 31 72 32 73 58 74 59 75
REMARK SMILES IDX 67 76 60 77 66 78 68 79 65 80 61 81 62 82 63 83 64 84 43 85
REMARK SMILES IDX 44 86 52 87 45 88 51 89 53 90 50 91 46 92 47 93 48 94 49 95
REMARK H PARENT 90 15 73 48 41 59
REMARK Flexibility Score: inf
ROOT
ATOM      1  C   UNL A   1      31.529  29.551  25.944  1.00  0.00     0.274 C 
ENDROOT
BRANCH   1   2
ATOM      2  O   UNL A   1      31.856  28.522  26.900  1.00  0.00    -0.462 OA
BRANCH   2   3
ATOM      3  C   UNL A   1      32.847  27.669  26.524  1.00  0.00     0.310 C 
ATOM      4  O   UNL A   1      34.025  27.999  26.401  1.00  0.00    -0.252 OA
BRANCH   3   5
ATOM      5  C   UNL A   1      32.406  26.240  26.295  1.00  0.00     0.161 C 
BRANCH   5   6
ATOM      6  C   UNL A   1      32.873  25.580  25.033  1.00  0.00     0.000 A 
ATOM      7  C   UNL A   1      36.055  22.954  24.159  1.00  0.00    -0.046 A 
ATOM      8  C   UNL A   1      36.073  23.543  25.430  1.00  0.00     0.004 A 
ATOM      9  C   UNL A   1      35.076  23.344  23.230  1.00  0.00     0.030 A 
ATOM     10  C   UNL A   1      35.116  24.491  25.812  1.00  0.00     0.011 A 
ATOM     11  C   UNL A   1      34.109  24.270  23.641  1.00  0.00     0.046 A 
ATOM     12  C   UNL A   1      34.086  24.827  24.913  1.00  0.00     0.004 A 
ATOM     13  N   UNL A   1      33.020  24.770  22.967  1.00  0.00    -0.352 N 
ATOM     14  C   UNL A   1      32.161  25.395  23.846  1.00  0.00     0.093 A 
ATOM     15  H   UNL A   1      32.874  24.693  21.996  1.00  0.00     0.167 HD
BRANCH   7  16
ATOM     16  C   UNL A   1      37.025  21.828  23.876  1.00  0.00     0.032 C 
ATOM     17  C   UNL A   1      37.182  20.794  24.982  1.00  0.00     0.009 C 
ENDBRANCH   7  16
BRANCH  14  18
ATOM     18  C   UNL A   1      30.761  25.668  23.556  1.00  0.00     0.227 C 
ATOM     19  O   UNL A   1      29.904  24.791  23.522  1.00  0.00    -0.285 OA
BRANCH  18  20
ATOM     20  C   UNL A   1      30.362  27.043  23.164  1.00  0.00     0.113 A 
ATOM     21  C   UNL A   1      29.048  27.454  23.354  1.00  0.00     0.036 A 
ATOM     22  N   UNL A   1      31.335  27.819  22.629  1.00  0.00    -0.253 NA
ATOM     23  C   UNL A   1      28.707  28.758  22.987  1.00  0.00    -0.047 A 
ATOM     24  C   UNL A   1      30.999  29.099  22.369  1.00  0.00     0.112 A 
ATOM     25  C   UNL A   1      27.301  29.264  23.126  1.00  0.00     0.044 C 
ATOM     26  C   UNL A   1      29.716  29.605  22.519  1.00  0.00     0.023 A 
ENDBRANCH  18  20
ENDBRANCH  14  18
ENDBRANCH   5   6
ENDBRANCH   3   5
ENDBRANCH   2   3
ENDBRANCH   1   2
BRANCH   1  27
ATOM     27  C   UNL A   1      31.739  30.934  26.553  1.00  0.00     0.275 C 
BRANCH  27  28
ATOM     28  O   UNL A   1      33.125  31.296  26.450  1.00  0.00    -0.458 OA
BRANCH  28  29
ATOM     29  C   UNL A   1      33.567  32.154  27.398  1.00  0.00     0.338 C 
ATOM     30  O   UNL A   1      33.045  33.217  27.716  1.00  0.00    -0.246 OA
BRANCH  29  31
ATOM     31  C   UNL A   1      34.839  31.677  27.972  1.00  0.00     0.060 A 
ATOM     32  C   UNL A   1      34.997  30.362  28.414  1.00  0.00     0.016 A 
ATOM     33  C   UNL A   1      35.872  32.599  28.147  1.00  0.00     0.016 A 
ATOM     34  C   UNL A   1      36.150  29.997  29.112  1.00  0.00     0.010 A 
ATOM     35  C   UNL A   1      37.067  32.200  28.747  1.00  0.00     0.010 A 
ATOM     36  C   UNL A   1      37.211  30.901  29.264  1.00  0.00    -0.014 A 
BRANCH  36  37
ATOM     37  C   UNL A   1      38.476  30.503  29.943  1.00  0.00     0.031 A 
ATOM     38  C   UNL A   1      39.409  29.509  29.302  1.00  0.00     0.074 A 
ATOM     39  C   UNL A   1      38.762  30.994  31.165  1.00  0.00     0.049 A 
ATOM     40  N   UNL A   1      40.426  28.868  29.822  1.00  0.00    -0.248 NA
ATOM     41  C   UNL A   1      39.144  29.173  27.895  1.00  0.00     0.031 C 
ATOM     42  C   UNL A   1      37.957  31.979  31.891  1.00  0.00     0.029 A 
ATOM     43  N   UNL A   1      39.799  30.720  32.023  1.00  0.00    -0.354 N 
ATOM     44  C   UNL A   1      40.895  28.019  28.824  1.00  0.00     0.074 A 
ATOM     45  C   UNL A   1      40.034  28.215  27.674  1.00  0.00     0.031 C 
ATOM     46  C   UNL A   1      38.533  32.234  33.074  1.00  0.00     0.029 A 
ATOM     47  C   UNL A   1      39.696  31.369  33.230  1.00  0.00     0.049 A 
ATOM     48  H   UNL A   1      40.544  30.117  31.795  1.00  0.00     0.167 HD
ATOM     49  C   UNL A   1      41.944  27.157  28.868  1.00  0.00     0.034 A 
ATOM     50  C   UNL A   1      40.414  31.246  34.363  1.00  0.00     0.034 A 
ATOM     51  C   UNL A   1      42.809  27.000  30.016  1.00  0.00     0.049 A 
ATOM     52  C   UNL A   1      41.547  30.262  34.405  1.00  0.00     0.074 A 
ATOM     53  C   UNL A   1      43.923  26.189  30.155  1.00  0.00     0.029 A 
ATOM     54  N   UNL A   1      42.658  27.667  31.227  1.00  0.00    -0.354 N 
ATOM     55  N   UNL A   1      41.956  29.436  33.470  1.00  0.00    -0.248 NA
ATOM     56  C   UNL A   1      42.309  30.187  35.657  1.00  0.00     0.031 C 
ATOM     57  C   UNL A   1      44.408  26.321  31.463  1.00  0.00     0.029 A 
ATOM     58  C   UNL A   1      43.640  27.265  32.123  1.00  0.00     0.049 A 
ATOM     59  H   UNL A   1      41.957  28.331  31.420  1.00  0.00     0.167 HD
ATOM     60  C   UNL A   1      43.030  28.745  34.022  1.00  0.00     0.074 A 
ATOM     61  C   UNL A   1      43.216  29.268  35.361  1.00  0.00     0.031 C 
ATOM     62  C   UNL A   1      43.793  27.768  33.468  1.00  0.00     0.034 A 
BRANCH  49  63
ATOM     63  C   UNL A   1      42.172  26.274  27.660  1.00  0.00     0.023 A 
ATOM     64  C   UNL A   1      41.695  24.952  27.596  1.00  0.00     0.031 A 
ATOM     65  C   UNL A   1      42.911  26.758  26.565  1.00  0.00     0.131 A 
ATOM     66  C   UNL A   1      42.026  24.139  26.499  1.00  0.00     0.055 A 
ATOM     67  C   UNL A   1      43.168  25.971  25.441  1.00  0.00     0.041 A 
ATOM     68  F   UNL A   1      43.411  28.004  26.576  1.00  0.00    -0.206 F 
ATOM     69  C   UNL A   1      42.738  24.649  25.410  1.00  0.00     0.022 A 
BRANCH  66  70
ATOM     70  S   UNL A   1      41.635  22.368  26.575  1.00  0.00     0.124 S 
ATOM     71  O   UNL A   1      42.306  21.962  27.809  1.00  0.00    -0.237 OA
ATOM     72  O   UNL A   1      40.178  22.365  26.610  1.00  0.00    -0.237 OA
ATOM     73  O   UNL A   1      42.232  21.831  25.353  1.00  0.00    -0.744 OA
ENDBRANCH  66  70
ENDBRANCH  49  63
BRANCH  50  74
ATOM     74  C   UNL A   1      40.024  32.024  35.571  1.00  0.00     0.023 A 
ATOM     75  C   UNL A   1      39.012  31.574  36.432  1.00  0.00     0.031 A 
ATOM     76  C   UNL A   1      40.672  33.234  35.882  1.00  0.00     0.131 A 
ATOM     77  C   UNL A   1      38.661  32.341  37.553  1.00  0.00     0.055 A 
ATOM     78  C   UNL A   1      40.352  33.968  37.024  1.00  0.00     0.041 A 
ATOM     79  F   UNL A   1      41.650  33.703  35.093  1.00  0.00    -0.206 F 
ATOM     80  C   UNL A   1      39.334  33.527  37.863  1.00  0.00     0.022 A 
BRANCH  77  81
ATOM     81  S   UNL A   1      37.271  31.793  38.581  1.00  0.00     0.124 S 
ATOM     82  O   UNL A   1      37.824  31.925  39.925  1.00  0.00    -0.237 OA
ATOM     83  O   UNL A   1      36.229  32.750  38.221  1.00  0.00    -0.237 OA
ATOM     84  O   UNL A   1      37.036  30.421  38.134  1.00  0.00    -0.744 OA
ENDBRANCH  77  81
ENDBRANCH  50  74
BRANCH  62  85
ATOM     85  C   UNL A   1      44.916  27.231  34.320  1.00  0.00     0.023 A 
ATOM     86  C   UNL A   1      44.743  26.101  35.139  1.00  0.00     0.031 A 
ATOM     87  C   UNL A   1      46.160  27.883  34.343  1.00  0.00     0.131 A 
ATOM     88  C   UNL A   1      45.781  25.689  35.988  1.00  0.00     0.055 A 
ATOM     89  C   UNL A   1      47.207  27.439  35.152  1.00  0.00     0.041 A 
ATOM     90  F   UNL A   1      46.376  28.970  33.584  1.00  0.00    -0.206 F 
ATOM     91  C   UNL A   1      47.016  26.343  35.990  1.00  0.00     0.022 A 
BRANCH  88  92
ATOM     92  S   UNL A   1      45.470  24.336  37.157  1.00  0.00     0.124 S 
ATOM     93  O   UNL A   1      44.528  24.950  38.088  1.00  0.00    -0.237 OA
ATOM     94  O   UNL A   1      44.925  23.295  36.292  1.00  0.00    -0.237 OA
ATOM     95  O   UNL A   1      46.792  24.052  37.711  1.00  0.00    -0.744 OA
ENDBRANCH  88  92
ENDBRANCH  62  85
ENDBRANCH  36  37
ENDBRANCH  29  31
ENDBRANCH  28  29
ENDBRANCH  27  28
ENDBRANCH   1  27
TORSDOF 18
ENDMDL
