MODEL 1
REMARK VINA RESULT:     -14.3      0.000      0.000
REMARK SMILES O=C(OCCOC(=O)c1ccc(-c2c3nc(c(-c4cc(S(=O)(=O)[O-])ccc4F)c4ccc([nH]4)c(-c4cc(S(=O)(=O)[O-])ccc4F)c4nc(c(-c5cc(S(=O)(=O)[O-])ccc5F)c5ccc2[nH]5)C=C4)C=C3)cc1)C1=Cc2cc(Cl)cc(Cl)c2O[C@@H]1C(F)(F)F
REMARK SMILES IDX 5 1 4 2 3 3 2 4 1 5 72 6 73 7 83 8 74 9 82 10 75 11 81 12
REMARK SMILES IDX 76 13 79 14 77 15 78 16 80 17 84 18 85 19 86 20 87 21 6 22
REMARK SMILES IDX 7 23 8 24 9 25 10 26 71 27 11 28 70 29 12 30 13 31 14 32
REMARK SMILES IDX 64 33 15 34 69 35 63 36 65 37 16 38 68 39 62 40 61 41 17 43
REMARK SMILES IDX 49 44 29 45 48 46 30 47 33 48 47 49 66 50 31 51 32 52 46 54
REMARK SMILES IDX 67 55 34 56 18 57 19 58 27 59 20 60 26 61 28 62 25 63 21 64
REMARK SMILES IDX 22 65 23 66 24 67 50 68 51 69 59 70 52 71 58 72 60 73 57 74
REMARK SMILES IDX 53 75 54 76 55 77 56 78 35 79 36 80 44 81 37 82 43 83 45 84
REMARK SMILES IDX 42 85 38 86 39 87 40 88 41 89
REMARK H PARENT 65 42 33 53
REMARK Flexibility Score: inf
ROOT
ATOM      1  C   UNL A   1      31.172  32.109  26.655  1.00  0.00     0.275 C 
ENDROOT
BRANCH   1   2
ATOM      2  C   UNL A   1      31.815  30.265  25.715  1.00  0.00     0.275 C 
BRANCH   2   3
ATOM      3  O   UNL A   1      32.490  29.059  26.419  1.00  0.00    -0.459 OA
BRANCH   3   4
ATOM      4  C   UNL A   1      31.714  27.969  26.457  1.00  0.00     0.338 C 
ATOM      5  O   UNL A   1      31.125  27.468  27.378  1.00  0.00    -0.246 OA
BRANCH   4   6
ATOM      6  C   UNL A   1      32.135  27.464  25.172  1.00  0.00     0.087 C 
ATOM      7  C   UNL A   1      33.503  26.939  25.199  1.00  0.00     0.027 C 
ATOM      8  C   UNL A   1      30.541  26.429  24.837  1.00  0.00     0.316 C 
ATOM      9  C   UNL A   1      33.884  25.184  25.123  1.00  0.00     0.020 A 
ATOM     10  O   UNL A   1      30.926  24.535  24.818  1.00  0.00    -0.474 OA
ATOM     11  C   UNL A   1      35.173  24.808  25.382  1.00  0.00     0.032 A 
ATOM     12  C   UNL A   1      32.650  23.965  25.029  1.00  0.00     0.146 A 
ATOM     13  C   UNL A   1      35.358  23.430  25.567  1.00  0.00     0.043 A 
ATOM     14  C   UNL A   1      32.938  22.641  25.226  1.00  0.00     0.085 A 
ATOM     15  Cl  UNL A   1      36.970  22.919  25.963  1.00  0.00    -0.084 Cl
ATOM     16  C   UNL A   1      34.314  22.412  25.499  1.00  0.00     0.045 A 
ATOM     17  Cl  UNL A   1      31.810  21.374  25.245  1.00  0.00    -0.080 Cl
BRANCH   8  18
ATOM     18  C   UNL A   1      29.925  27.454  23.790  1.00  0.00     0.430 C 
ATOM     19  F   UNL A   1      30.632  27.484  22.655  1.00  0.00    -0.167 F 
ATOM     20  F   UNL A   1      28.700  26.985  23.396  1.00  0.00    -0.167 F 
ATOM     21  F   UNL A   1      29.627  28.689  24.223  1.00  0.00    -0.167 F 
ENDBRANCH   8  18
ENDBRANCH   4   6
ENDBRANCH   3   4
ENDBRANCH   2   3
ENDBRANCH   1   2
BRANCH   1  22
ATOM     22  O   UNL A   1      32.206  33.451  27.036  1.00  0.00    -0.458 OA
BRANCH  22  23
ATOM     23  C   UNL A   1      32.995  33.999  28.024  1.00  0.00     0.338 C 
ATOM     24  O   UNL A   1      32.687  34.740  28.939  1.00  0.00    -0.246 OA
BRANCH  23  25
ATOM     25  C   UNL A   1      34.256  33.186  28.039  1.00  0.00     0.060 A 
ATOM     26  C   UNL A   1      35.482  33.849  28.235  1.00  0.00     0.016 A 
ATOM     27  C   UNL A   1      34.177  31.811  28.256  1.00  0.00     0.016 A 
ATOM     28  C   UNL A   1      36.544  33.181  28.878  1.00  0.00     0.010 A 
ATOM     29  C   UNL A   1      35.239  31.150  28.885  1.00  0.00     0.010 A 
ATOM     30  C   UNL A   1      36.400  31.844  29.277  1.00  0.00    -0.014 A 
BRANCH  30  31
ATOM     31  C   UNL A   1      37.534  31.078  29.869  1.00  0.00     0.031 A 
ATOM     32  C   UNL A   1      37.878  31.435  31.284  1.00  0.00     0.074 A 
ATOM     33  C   UNL A   1      38.280  30.172  29.196  1.00  0.00     0.049 A 
ATOM     34  N   UNL A   1      38.866  31.034  32.036  1.00  0.00    -0.248 NA
ATOM     35  C   UNL A   1      36.989  32.423  31.919  1.00  0.00     0.031 C 
ATOM     36  C   UNL A   1      38.064  29.730  27.818  1.00  0.00     0.029 A 
ATOM     37  N   UNL A   1      39.400  29.465  29.586  1.00  0.00    -0.354 N 
ATOM     38  C   UNL A   1      38.709  31.716  33.235  1.00  0.00     0.074 A 
ATOM     39  C   UNL A   1      37.590  32.614  33.077  1.00  0.00     0.031 C 
ATOM     40  C   UNL A   1      39.019  28.839  27.480  1.00  0.00     0.029 A 
ATOM     41  C   UNL A   1      39.936  28.653  28.605  1.00  0.00     0.049 A 
ATOM     42  H   UNL A   1      39.786  29.534  30.490  1.00  0.00     0.167 HD
ATOM     43  C   UNL A   1      39.413  31.587  34.383  1.00  0.00     0.034 A 
ATOM     44  C   UNL A   1      41.038  27.865  28.620  1.00  0.00     0.034 A 
ATOM     45  C   UNL A   1      40.554  30.728  34.521  1.00  0.00     0.049 A 
ATOM     46  C   UNL A   1      41.874  27.810  29.890  1.00  0.00     0.074 A 
ATOM     47  C   UNL A   1      41.359  30.535  35.627  1.00  0.00     0.029 A 
ATOM     48  N   UNL A   1      41.064  29.928  33.506  1.00  0.00    -0.354 N 
ATOM     49  N   UNL A   1      41.681  28.422  31.039  1.00  0.00    -0.248 NA
ATOM     50  C   UNL A   1      43.070  26.953  29.871  1.00  0.00     0.031 C 
ATOM     51  C   UNL A   1      42.394  29.669  35.262  1.00  0.00     0.029 A 
ATOM     52  C   UNL A   1      42.188  29.257  33.954  1.00  0.00     0.049 A 
ATOM     53  H   UNL A   1      40.683  29.851  32.602  1.00  0.00     0.167 HD
ATOM     54  C   UNL A   1      42.701  27.982  31.884  1.00  0.00     0.074 A 
ATOM     55  C   UNL A   1      43.497  27.046  31.120  1.00  0.00     0.031 C 
ATOM     56  C   UNL A   1      42.957  28.315  33.177  1.00  0.00     0.034 A 
BRANCH  43  57
ATOM     57  C   UNL A   1      38.963  32.443  35.537  1.00  0.00     0.023 A 
ATOM     58  C   UNL A   1      39.394  33.779  35.657  1.00  0.00     0.031 A 
ATOM     59  C   UNL A   1      38.207  31.893  36.583  1.00  0.00     0.131 A 
ATOM     60  C   UNL A   1      39.158  34.480  36.845  1.00  0.00     0.055 A 
ATOM     61  C   UNL A   1      37.891  32.634  37.723  1.00  0.00     0.041 A 
ATOM     62  F   UNL A   1      37.801  30.615  36.536  1.00  0.00    -0.206 F 
ATOM     63  C   UNL A   1      38.385  33.928  37.869  1.00  0.00     0.022 A 
BRANCH  60  64
ATOM     64  S   UNL A   1      40.034  36.047  37.108  1.00  0.00     0.124 S 
ATOM     65  O   UNL A   1      39.269  36.629  38.209  1.00  0.00    -0.237 OA
ATOM     66  O   UNL A   1      41.385  35.604  37.435  1.00  0.00    -0.237 OA
ATOM     67  O   UNL A   1      39.896  36.736  35.827  1.00  0.00    -0.744 OA
ENDBRANCH  60  64
ENDBRANCH  43  57
BRANCH  44  68
ATOM     68  C   UNL A   1      41.478  27.069  27.420  1.00  0.00     0.023 A 
ATOM     69  C   UNL A   1      41.333  25.668  27.376  1.00  0.00     0.031 A 
ATOM     70  C   UNL A   1      42.177  27.676  26.361  1.00  0.00     0.131 A 
ATOM     71  C   UNL A   1      41.934  24.921  26.345  1.00  0.00     0.055 A 
ATOM     72  C   UNL A   1      42.722  26.935  25.306  1.00  0.00     0.041 A 
ATOM     73  F   UNL A   1      42.368  29.005  26.347  1.00  0.00    -0.206 F 
ATOM     74  C   UNL A   1      42.618  25.548  25.303  1.00  0.00     0.022 A 
BRANCH  71  75
ATOM     75  S   UNL A   1      41.928  23.106  26.452  1.00  0.00     0.124 S 
ATOM     76  O   UNL A   1      42.911  22.746  25.435  1.00  0.00    -0.237 OA
ATOM     77  O   UNL A   1      42.325  22.880  27.838  1.00  0.00    -0.237 OA
ATOM     78  O   UNL A   1      40.546  22.748  26.136  1.00  0.00    -0.744 OA
ENDBRANCH  71  75
ENDBRANCH  44  68
BRANCH  56  79
ATOM     79  C   UNL A   1      44.101  27.611  33.867  1.00  0.00     0.023 A 
ATOM     80  C   UNL A   1      43.927  26.396  34.551  1.00  0.00     0.031 A 
ATOM     81  C   UNL A   1      45.396  28.159  33.812  1.00  0.00     0.131 A 
ATOM     82  C   UNL A   1      45.021  25.794  35.193  1.00  0.00     0.055 A 
ATOM     83  C   UNL A   1      46.492  27.521  34.394  1.00  0.00     0.041 A 
ATOM     84  F   UNL A   1      45.621  29.318  33.172  1.00  0.00    -0.206 F 
ATOM     85  C   UNL A   1      46.305  26.337  35.101  1.00  0.00     0.022 A 
BRANCH  82  86
ATOM     86  S   UNL A   1      44.727  24.334  36.229  1.00  0.00     0.124 S 
ATOM     87  O   UNL A   1      44.466  24.934  37.534  1.00  0.00    -0.237 OA
ATOM     88  O   UNL A   1      43.581  23.712  35.573  1.00  0.00    -0.237 OA
ATOM     89  O   UNL A   1      45.978  23.586  36.130  1.00  0.00    -0.744 OA
ENDBRANCH  82  86
ENDBRANCH  56  79
ENDBRANCH  30  31
ENDBRANCH  23  25
ENDBRANCH  22  23
ENDBRANCH   1  22
TORSDOF 15
ENDMDL
MODEL 2
REMARK VINA RESULT:     -13.9      4.975     10.492
REMARK SMILES O=C(OCCOC(=O)c1ccc(-c2c3nc(c(-c4cc(S(=O)(=O)[O-])ccc4F)c4ccc([nH]4)c(-c4cc(S(=O)(=O)[O-])ccc4F)c4nc(c(-c5cc(S(=O)(=O)[O-])ccc5F)c5ccc2[nH]5)C=C4)C=C3)cc1)C1=Cc2cc(Cl)cc(Cl)c2O[C@@H]1C(F)(F)F
REMARK SMILES IDX 5 1 4 2 3 3 2 4 1 5 72 6 73 7 83 8 74 9 82 10 75 11 81 12
REMARK SMILES IDX 76 13 79 14 77 15 78 16 80 17 84 18 85 19 86 20 87 21 6 22
REMARK SMILES IDX 7 23 8 24 9 25 10 26 71 27 11 28 70 29 12 30 13 31 14 32
REMARK SMILES IDX 64 33 15 34 69 35 63 36 65 37 16 38 68 39 62 40 61 41 17 43
REMARK SMILES IDX 49 44 29 45 48 46 30 47 33 48 47 49 66 50 31 51 32 52 46 54
REMARK SMILES IDX 67 55 34 56 18 57 19 58 27 59 20 60 26 61 28 62 25 63 21 64
REMARK SMILES IDX 22 65 23 66 24 67 50 68 51 69 59 70 52 71 58 72 60 73 57 74
REMARK SMILES IDX 53 75 54 76 55 77 56 78 35 79 36 80 44 81 37 82 43 83 45 84
REMARK SMILES IDX 42 85 38 86 39 87 40 88 41 89
REMARK H PARENT 65 42 33 53
REMARK Flexibility Score: inf
ROOT
ATOM      1  C   UNL A   1      37.790  19.714  24.876  1.00  0.00     0.275 C 
ENDROOT
BRANCH   1   2
ATOM      2  C   UNL A   1      37.216  21.605  23.989  1.00  0.00     0.275 C 
BRANCH   2   3
ATOM      3  O   UNL A   1      36.506  22.783  24.707  1.00  0.00    -0.459 OA
BRANCH   3   4
ATOM      4  C   UNL A   1      35.378  23.167  24.100  1.00  0.00     0.338 C 
ATOM      5  O   UNL A   1      35.188  23.514  22.963  1.00  0.00    -0.246 OA
BRANCH   4   6
ATOM      6  C   UNL A   1      34.630  23.356  25.320  1.00  0.00     0.087 C 
ATOM      7  C   UNL A   1      34.709  24.732  25.816  1.00  0.00     0.027 C 
ATOM      8  C   UNL A   1      33.028  22.473  24.705  1.00  0.00     0.316 C 
ATOM      9  C   UNL A   1      33.334  25.888  25.733  1.00  0.00     0.020 A 
ATOM     10  O   UNL A   1      31.558  23.719  24.549  1.00  0.00    -0.474 OA
ATOM     11  C   UNL A   1      33.596  27.200  26.018  1.00  0.00     0.032 A 
ATOM     12  C   UNL A   1      31.801  25.464  25.036  1.00  0.00     0.146 A 
ATOM     13  C   UNL A   1      32.565  28.090  25.688  1.00  0.00     0.043 A 
ATOM     14  C   UNL A   1      30.858  26.416  24.752  1.00  0.00     0.085 A 
ATOM     15  Cl  UNL A   1      32.885  29.773  25.974  1.00  0.00    -0.084 Cl
ATOM     16  C   UNL A   1      31.283  27.729  25.090  1.00  0.00     0.045 A 
ATOM     17  Cl  UNL A   1      29.366  26.137  23.996  1.00  0.00    -0.080 Cl
BRANCH   8  18
ATOM     18  C   UNL A   1      33.276  21.138  25.530  1.00  0.00     0.430 C 
ATOM     19  F   UNL A   1      33.109  21.331  26.843  1.00  0.00    -0.167 F 
ATOM     20  F   UNL A   1      32.294  20.241  25.207  1.00  0.00    -0.167 F 
ATOM     21  F   UNL A   1      34.392  20.439  25.269  1.00  0.00    -0.167 F 
ENDBRANCH   8  18
ENDBRANCH   4   6
ENDBRANCH   3   4
ENDBRANCH   2   3
ENDBRANCH   1   2
BRANCH   1  22
ATOM     22  O   UNL A   1      39.109  19.487  25.983  1.00  0.00    -0.458 OA
BRANCH  22  23
ATOM     23  C   UNL A   1      40.418  19.836  26.236  1.00  0.00     0.338 C 
ATOM     24  O   UNL A   1      41.444  19.395  25.751  1.00  0.00    -0.246 OA
BRANCH  23  25
ATOM     25  C   UNL A   1      40.362  21.169  26.921  1.00  0.00     0.060 A 
ATOM     26  C   UNL A   1      41.283  21.436  27.951  1.00  0.00     0.016 A 
ATOM     27  C   UNL A   1      39.705  22.229  26.297  1.00  0.00     0.016 A 
ATOM     28  C   UNL A   1      41.720  22.758  28.175  1.00  0.00     0.010 A 
ATOM     29  C   UNL A   1      40.134  23.540  26.531  1.00  0.00     0.010 A 
ATOM     30  C   UNL A   1      41.200  23.813  27.410  1.00  0.00    -0.014 A 
BRANCH  30  31
ATOM     31  C   UNL A   1      41.564  25.232  27.686  1.00  0.00     0.031 A 
ATOM     32  C   UNL A   1      42.946  25.632  27.263  1.00  0.00     0.074 A 
ATOM     33  C   UNL A   1      40.770  26.113  28.337  1.00  0.00     0.049 A 
ATOM     34  N   UNL A   1      43.594  26.748  27.457  1.00  0.00    -0.248 NA
ATOM     35  C   UNL A   1      43.713  24.596  26.552  1.00  0.00     0.031 C 
ATOM     36  C   UNL A   1      39.408  25.862  28.808  1.00  0.00     0.029 A 
ATOM     37  N   UNL A   1      41.011  27.413  28.736  1.00  0.00    -0.354 N 
ATOM     38  C   UNL A   1      44.842  26.547  26.882  1.00  0.00     0.074 A 
ATOM     39  C   UNL A   1      44.886  25.182  26.415  1.00  0.00     0.031 C 
ATOM     40  C   UNL A   1      38.941  26.963  29.433  1.00  0.00     0.029 A 
ATOM     41  C   UNL A   1      39.972  28.001  29.432  1.00  0.00     0.049 A 
ATOM     42  H   UNL A   1      41.855  27.883  28.540  1.00  0.00     0.167 HD
ATOM     43  C   UNL A   1      45.856  27.428  26.726  1.00  0.00     0.034 A 
ATOM     44  C   UNL A   1      39.878  29.226  30.003  1.00  0.00     0.034 A 
ATOM     45  C   UNL A   1      45.826  28.770  27.233  1.00  0.00     0.049 A 
ATOM     46  C   UNL A   1      41.069  30.168  29.901  1.00  0.00     0.074 A 
ATOM     47  C   UNL A   1      46.803  29.744  27.155  1.00  0.00     0.029 A 
ATOM     48  N   UNL A   1      44.760  29.323  27.933  1.00  0.00    -0.354 N 
ATOM     49  N   UNL A   1      42.227  29.982  29.305  1.00  0.00    -0.248 NA
ATOM     50  C   UNL A   1      40.938  31.488  30.540  1.00  0.00     0.031 C 
ATOM     51  C   UNL A   1      46.356  30.863  27.865  1.00  0.00     0.029 A 
ATOM     52  C   UNL A   1      45.067  30.617  28.313  1.00  0.00     0.049 A 
ATOM     53  H   UNL A   1      43.914  28.861  28.130  1.00  0.00     0.167 HD
ATOM     54  C   UNL A   1      42.933  31.176  29.457  1.00  0.00     0.074 A 
ATOM     55  C   UNL A   1      42.070  32.078  30.188  1.00  0.00     0.031 C 
ATOM     56  C   UNL A   1      44.181  31.504  29.030  1.00  0.00     0.034 A 
BRANCH  43  57
ATOM     57  C   UNL A   1      47.078  26.914  26.011  1.00  0.00     0.023 A 
ATOM     58  C   UNL A   1      48.075  26.202  26.705  1.00  0.00     0.031 A 
ATOM     59  C   UNL A   1      47.309  27.241  24.666  1.00  0.00     0.131 A 
ATOM     60  C   UNL A   1      49.300  25.937  26.083  1.00  0.00     0.055 A 
ATOM     61  C   UNL A   1      48.496  26.885  24.024  1.00  0.00     0.041 A 
ATOM     62  F   UNL A   1      46.408  27.948  23.968  1.00  0.00    -0.206 F 
ATOM     63  C   UNL A   1      49.509  26.248  24.737  1.00  0.00     0.022 A 
BRANCH  60  64
ATOM     64  S   UNL A   1      50.679  25.356  27.108  1.00  0.00     0.124 S 
ATOM     65  O   UNL A   1      50.058  24.251  27.836  1.00  0.00    -0.237 OA
ATOM     66  O   UNL A   1      51.679  24.983  26.114  1.00  0.00    -0.237 OA
ATOM     67  O   UNL A   1      51.014  26.522  27.924  1.00  0.00    -0.744 OA
ENDBRANCH  60  64
ENDBRANCH  43  57
BRANCH  44  68
ATOM     68  C   UNL A   1      38.653  29.674  30.755  1.00  0.00     0.023 A 
ATOM     69  C   UNL A   1      37.657  30.454  30.136  1.00  0.00     0.031 A 
ATOM     70  C   UNL A   1      38.527  29.451  32.138  1.00  0.00     0.131 A 
ATOM     71  C   UNL A   1      36.629  31.038  30.901  1.00  0.00     0.055 A 
ATOM     72  C   UNL A   1      37.470  29.982  32.886  1.00  0.00     0.041 A 
ATOM     73  F   UNL A   1      39.449  28.730  32.797  1.00  0.00    -0.206 F 
ATOM     74  C   UNL A   1      36.523  30.796  32.271  1.00  0.00     0.022 A 
BRANCH  71  75
ATOM     75  S   UNL A   1      35.505  32.227  30.110  1.00  0.00     0.124 S 
ATOM     76  O   UNL A   1      35.148  31.525  28.882  1.00  0.00    -0.237 OA
ATOM     77  O   UNL A   1      34.447  32.356  31.107  1.00  0.00    -0.237 OA
ATOM     78  O   UNL A   1      36.335  33.416  29.929  1.00  0.00    -0.744 OA
ENDBRANCH  71  75
ENDBRANCH  44  68
BRANCH  56  79
ATOM     79  C   UNL A   1      44.658  32.915  29.278  1.00  0.00     0.023 A 
ATOM     80  C   UNL A   1      44.313  33.980  28.429  1.00  0.00     0.031 A 
ATOM     81  C   UNL A   1      45.451  33.198  30.405  1.00  0.00     0.131 A 
ATOM     82  C   UNL A   1      44.800  35.270  28.695  1.00  0.00     0.055 A 
ATOM     83  C   UNL A   1      45.876  34.494  30.701  1.00  0.00     0.041 A 
ATOM     84  F   UNL A   1      45.811  32.219  31.251  1.00  0.00    -0.206 F 
ATOM     85  C   UNL A   1      45.560  35.537  29.836  1.00  0.00     0.022 A 
BRANCH  82  86
ATOM     86  S   UNL A   1      44.501  36.582  27.478  1.00  0.00     0.124 S 
ATOM     87  O   UNL A   1      43.670  35.899  26.492  1.00  0.00    -0.237 OA
ATOM     88  O   UNL A   1      43.830  37.602  28.278  1.00  0.00    -0.237 OA
ATOM     89  O   UNL A   1      45.843  36.937  27.020  1.00  0.00    -0.744 OA
ENDBRANCH  82  86
ENDBRANCH  56  79
ENDBRANCH  30  31
ENDBRANCH  23  25
ENDBRANCH  22  23
ENDBRANCH   1  22
TORSDOF 15
ENDMDL
MODEL 3
REMARK VINA RESULT:     -13.8      1.331      1.638
REMARK SMILES O=C(OCCOC(=O)c1ccc(-c2c3nc(c(-c4cc(S(=O)(=O)[O-])ccc4F)c4ccc([nH]4)c(-c4cc(S(=O)(=O)[O-])ccc4F)c4nc(c(-c5cc(S(=O)(=O)[O-])ccc5F)c5ccc2[nH]5)C=C4)C=C3)cc1)C1=Cc2cc(Cl)cc(Cl)c2O[C@@H]1C(F)(F)F
REMARK SMILES IDX 5 1 4 2 3 3 2 4 1 5 72 6 73 7 83 8 74 9 82 10 75 11 81 12
REMARK SMILES IDX 76 13 79 14 77 15 78 16 80 17 84 18 85 19 86 20 87 21 6 22
REMARK SMILES IDX 7 23 8 24 9 25 10 26 71 27 11 28 70 29 12 30 13 31 14 32
REMARK SMILES IDX 64 33 15 34 69 35 63 36 65 37 16 38 68 39 62 40 61 41 17 43
REMARK SMILES IDX 49 44 29 45 48 46 30 47 33 48 47 49 66 50 31 51 32 52 46 54
REMARK SMILES IDX 67 55 34 56 18 57 19 58 27 59 20 60 26 61 28 62 25 63 21 64
REMARK SMILES IDX 22 65 23 66 24 67 50 68 51 69 59 70 52 71 58 72 60 73 57 74
REMARK SMILES IDX 53 75 54 76 55 77 56 78 35 79 36 80 44 81 37 82 43 83 45 84
REMARK SMILES IDX 42 85 38 86 39 87 40 88 41 89
REMARK H PARENT 65 42 33 53
REMARK Flexibility Score: inf
ROOT
ATOM      1  C   UNL A   1      31.335  32.376  26.501  1.00  0.00     0.275 C 
ENDROOT
BRANCH   1   2
ATOM      2  C   UNL A   1      31.771  30.297  26.931  1.00  0.00     0.275 C 
BRANCH   2   3
ATOM      3  O   UNL A   1      32.236  29.223  25.913  1.00  0.00    -0.459 OA
BRANCH   3   4
ATOM      4  C   UNL A   1      31.821  27.989  26.223  1.00  0.00     0.338 C 
ATOM      5  O   UNL A   1      31.544  27.509  27.291  1.00  0.00    -0.246 OA
BRANCH   4   6
ATOM      6  C   UNL A   1      32.174  27.408  24.950  1.00  0.00     0.087 C 
ATOM      7  C   UNL A   1      33.535  26.865  24.942  1.00  0.00     0.027 C 
ATOM      8  C   UNL A   1      30.553  26.381  24.747  1.00  0.00     0.316 C 
ATOM      9  C   UNL A   1      33.890  25.102  24.945  1.00  0.00     0.020 A 
ATOM     10  O   UNL A   1      30.913  24.483  24.815  1.00  0.00    -0.474 OA
ATOM     11  C   UNL A   1      35.185  24.721  25.165  1.00  0.00     0.032 A 
ATOM     12  C   UNL A   1      32.638  23.899  24.977  1.00  0.00     0.146 A 
ATOM     13  C   UNL A   1      35.360  23.353  25.416  1.00  0.00     0.043 A 
ATOM     14  C   UNL A   1      32.918  22.584  25.233  1.00  0.00     0.085 A 
ATOM     15  Cl  UNL A   1      36.983  22.840  25.765  1.00  0.00    -0.084 Cl
ATOM     16  C   UNL A   1      34.302  22.349  25.454  1.00  0.00     0.045 A 
ATOM     17  Cl  UNL A   1      31.776  21.337  25.373  1.00  0.00    -0.080 Cl
BRANCH   8  18
ATOM     18  C   UNL A   1      29.901  27.356  23.675  1.00  0.00     0.430 C 
ATOM     19  F   UNL A   1      30.268  27.036  22.429  1.00  0.00    -0.167 F 
ATOM     20  F   UNL A   1      28.546  27.155  23.675  1.00  0.00    -0.167 F 
ATOM     21  F   UNL A   1      29.989  28.677  23.895  1.00  0.00    -0.167 F 
ENDBRANCH   8  18
ENDBRANCH   4   6
ENDBRANCH   3   4
ENDBRANCH   2   3
ENDBRANCH   1   2
BRANCH   1  22
ATOM     22  O   UNL A   1      32.225  33.733  27.118  1.00  0.00    -0.458 OA
BRANCH  22  23
ATOM     23  C   UNL A   1      32.994  34.168  28.176  1.00  0.00     0.338 C 
ATOM     24  O   UNL A   1      32.680  34.855  29.131  1.00  0.00    -0.246 OA
BRANCH  23  25
ATOM     25  C   UNL A   1      34.214  33.294  28.182  1.00  0.00     0.060 A 
ATOM     26  C   UNL A   1      35.480  33.906  28.246  1.00  0.00     0.016 A 
ATOM     27  C   UNL A   1      34.085  31.947  28.517  1.00  0.00     0.016 A 
ATOM     28  C   UNL A   1      36.549  33.239  28.877  1.00  0.00     0.010 A 
ATOM     29  C   UNL A   1      35.154  31.285  29.133  1.00  0.00     0.010 A 
ATOM     30  C   UNL A   1      36.369  31.947  29.394  1.00  0.00    -0.014 A 
BRANCH  30  31
ATOM     31  C   UNL A   1      37.502  31.173  29.977  1.00  0.00     0.031 A 
ATOM     32  C   UNL A   1      37.863  31.532  31.388  1.00  0.00     0.074 A 
ATOM     33  C   UNL A   1      38.234  30.259  29.300  1.00  0.00     0.049 A 
ATOM     34  N   UNL A   1      38.854  31.125  32.131  1.00  0.00    -0.248 NA
ATOM     35  C   UNL A   1      36.989  32.530  32.028  1.00  0.00     0.031 C 
ATOM     36  C   UNL A   1      38.001  29.815  27.925  1.00  0.00     0.029 A 
ATOM     37  N   UNL A   1      39.352  29.544  29.682  1.00  0.00    -0.354 N 
ATOM     38  C   UNL A   1      38.715  31.812  33.330  1.00  0.00     0.074 A 
ATOM     39  C   UNL A   1      37.602  32.719  33.180  1.00  0.00     0.031 C 
ATOM     40  C   UNL A   1      38.945  28.914  27.581  1.00  0.00     0.029 A 
ATOM     41  C   UNL A   1      39.871  28.724  28.698  1.00  0.00     0.049 A 
ATOM     42  H   UNL A   1      39.747  29.612  30.582  1.00  0.00     0.167 HD
ATOM     43  C   UNL A   1      39.430  31.682  34.471  1.00  0.00     0.034 A 
ATOM     44  C   UNL A   1      40.967  27.926  28.705  1.00  0.00     0.034 A 
ATOM     45  C   UNL A   1      40.564  30.813  34.601  1.00  0.00     0.049 A 
ATOM     46  C   UNL A   1      41.814  27.869  29.967  1.00  0.00     0.074 A 
ATOM     47  C   UNL A   1      41.378  30.616  35.700  1.00  0.00     0.029 A 
ATOM     48  N   UNL A   1      41.058  30.005  33.583  1.00  0.00    -0.354 N 
ATOM     49  N   UNL A   1      41.638  28.486  31.116  1.00  0.00    -0.248 NA
ATOM     50  C   UNL A   1      43.003  27.001  29.939  1.00  0.00     0.031 C 
ATOM     51  C   UNL A   1      42.403  29.740  35.328  1.00  0.00     0.029 A 
ATOM     52  C   UNL A   1      42.180  29.326  34.023  1.00  0.00     0.049 A 
ATOM     53  H   UNL A   1      40.668  29.929  32.684  1.00  0.00     0.167 HD
ATOM     54  C   UNL A   1      42.662  28.040  31.953  1.00  0.00     0.074 A 
ATOM     55  C   UNL A   1      43.443  27.095  31.184  1.00  0.00     0.031 C 
ATOM     56  C   UNL A   1      42.934  28.375  33.241  1.00  0.00     0.034 A 
BRANCH  43  57
ATOM     57  C   UNL A   1      38.998  32.545  35.627  1.00  0.00     0.023 A 
ATOM     58  C   UNL A   1      39.447  33.874  35.742  1.00  0.00     0.031 A 
ATOM     59  C   UNL A   1      38.241  32.006  36.678  1.00  0.00     0.131 A 
ATOM     60  C   UNL A   1      39.228  34.581  36.931  1.00  0.00     0.055 A 
ATOM     61  C   UNL A   1      37.942  32.753  37.819  1.00  0.00     0.041 A 
ATOM     62  F   UNL A   1      37.818  30.734  36.635  1.00  0.00    -0.206 F 
ATOM     63  C   UNL A   1      38.454  34.041  37.960  1.00  0.00     0.022 A 
BRANCH  60  64
ATOM     64  S   UNL A   1      40.127  36.136  37.186  1.00  0.00     0.124 S 
ATOM     65  O   UNL A   1      41.452  35.649  37.568  1.00  0.00    -0.237 OA
ATOM     66  O   UNL A   1      40.035  36.775  35.879  1.00  0.00    -0.237 OA
ATOM     67  O   UNL A   1      39.379  36.792  38.256  1.00  0.00    -0.744 OA
ENDBRANCH  60  64
ENDBRANCH  43  57
BRANCH  44  68
ATOM     68  C   UNL A   1      41.388  27.123  27.503  1.00  0.00     0.023 A 
ATOM     69  C   UNL A   1      41.210  25.726  27.456  1.00  0.00     0.031 A 
ATOM     70  C   UNL A   1      42.101  27.716  26.446  1.00  0.00     0.131 A 
ATOM     71  C   UNL A   1      41.794  24.967  26.425  1.00  0.00     0.055 A 
ATOM     72  C   UNL A   1      42.629  26.965  25.389  1.00  0.00     0.041 A 
ATOM     73  F   UNL A   1      42.323  29.040  26.434  1.00  0.00    -0.206 F 
ATOM     74  C   UNL A   1      42.492  25.580  25.384  1.00  0.00     0.022 A 
BRANCH  71  75
ATOM     75  S   UNL A   1      41.746  23.152  26.527  1.00  0.00     0.124 S 
ATOM     76  O   UNL A   1      40.310  22.894  26.527  1.00  0.00    -0.237 OA
ATOM     77  O   UNL A   1      42.469  22.759  25.322  1.00  0.00    -0.237 OA
ATOM     78  O   UNL A   1      42.431  22.861  27.785  1.00  0.00    -0.744 OA
ENDBRANCH  71  75
ENDBRANCH  44  68
BRANCH  56  79
ATOM     79  C   UNL A   1      44.079  27.664  33.923  1.00  0.00     0.023 A 
ATOM     80  C   UNL A   1      45.383  28.185  33.929  1.00  0.00     0.031 A 
ATOM     81  C   UNL A   1      43.846  26.455  34.604  1.00  0.00     0.131 A 
ATOM     82  C   UNL A   1      46.416  27.475  34.562  1.00  0.00     0.055 A 
ATOM     83  C   UNL A   1      44.863  25.788  35.288  1.00  0.00     0.041 A 
ATOM     84  F   UNL A   1      42.619  25.910  34.631  1.00  0.00    -0.206 F 
ATOM     85  C   UNL A   1      46.160  26.291  35.259  1.00  0.00     0.022 A 
BRANCH  82  86
ATOM     86  S   UNL A   1      48.119  28.072  34.385  1.00  0.00     0.124 S 
ATOM     87  O   UNL A   1      48.671  27.815  35.712  1.00  0.00    -0.237 OA
ATOM     88  O   UNL A   1      48.635  27.232  33.309  1.00  0.00    -0.237 OA
ATOM     89  O   UNL A   1      47.955  29.483  34.044  1.00  0.00    -0.744 OA
ENDBRANCH  82  86
ENDBRANCH  56  79
ENDBRANCH  30  31
ENDBRANCH  23  25
ENDBRANCH  22  23
ENDBRANCH   1  22
TORSDOF 15
ENDMDL
