MODEL 1
REMARK VINA RESULT:     -12.0      0.000      0.000
REMARK SMILES CC(C)c1cc(C(=O)N[C@@H](Cc2c[nH]c3ccccc23)C(=O)OCCOC(=O)c2ccc(-c3c4nc(c(-c5cc(S(=O)(=O)[O-])ccc5F)c5ccc([nH]5)c(-c5cc(S(=O)(=O)[O-])ccc5F)c5nc(c(-c6cc(S(=O)(=O)[O-])ccc6F)c6ccc3[nH]6)C=C5)C=C4)cc2)n(C)n1
REMARK SMILES IDX 24 1 23 2 21 3 22 4 10 5 9 6 7 7 8 8 6 10 4 11 5 12 94 13
REMARK SMILES IDX 92 14 93 15 2 16 1 17 3 18 11 19 12 20 13 21 20 22 14 23
REMARK SMILES IDX 15 24 19 25 16 27 18 28 17 29 25 30 26 31 27 32 28 33 29 34
REMARK SMILES IDX 30 35 91 36 31 37 90 38 32 39 33 40 34 41 84 42 35 43 89 44
REMARK SMILES IDX 83 45 85 46 36 47 88 48 82 49 81 50 37 52 69 53 49 54 68 55
REMARK SMILES IDX 50 56 53 57 67 58 86 59 51 60 52 61 66 63 87 64 54 65 38 66
REMARK SMILES IDX 39 67 47 68 40 69 46 70 48 71 45 72 41 73 42 74 43 75 44 76
REMARK SMILES IDX 70 77 71 78 79 79 72 80 78 81 80 82 77 83 73 84 74 85 75 86
REMARK SMILES IDX 76 87 55 88 56 89 64 90 57 91 63 92 65 93 62 94 58 95 59 96
REMARK SMILES IDX 60 97 61 98
REMARK H PARENT 9 9 14 26 85 51 53 62
REMARK Flexibility Score: inf
ROOT
ATOM      1  C   UNL A   1      31.664  28.957  27.409  1.00  0.00     0.274 C 
ENDROOT
BRANCH   1   2
ATOM      2  O   UNL A   1      31.799  28.002  26.339  1.00  0.00    -0.461 OA
BRANCH   2   3
ATOM      3  C   UNL A   1      32.939  27.259  26.349  1.00  0.00     0.329 C 
ATOM      4  O   UNL A   1      34.060  27.692  26.596  1.00  0.00    -0.250 OA
BRANCH   3   5
ATOM      5  C   UNL A   1      32.702  25.796  25.945  1.00  0.00     0.197 C 
BRANCH   5   6
ATOM      6  N   UNL A   1      31.569  25.129  26.575  1.00  0.00    -0.337 N 
ATOM      7  C   UNL A   1      31.168  23.827  26.707  1.00  0.00     0.270 C 
ATOM      8  O   UNL A   1      30.029  23.710  27.172  1.00  0.00    -0.268 OA
ATOM      9  H   UNL A   1      30.950  25.761  27.005  1.00  0.00     0.164 HD
BRANCH   7  10
ATOM     10  C   UNL A   1      31.978  22.653  26.428  1.00  0.00     0.126 A 
ATOM     11  C   UNL A   1      32.705  20.807  25.341  1.00  0.00     0.066 A 
ATOM     12  C   UNL A   1      31.721  21.813  25.340  1.00  0.00     0.059 A 
ATOM     13  N   UNL A   1      33.511  20.958  26.391  1.00  0.00    -0.177 NA
ATOM     14  N   UNL A   1      33.126  22.113  26.965  1.00  0.00    -0.263 N 
ATOM     15  C   UNL A   1      34.053  22.619  27.945  1.00  0.00     0.174 C 
BRANCH  11  16
ATOM     16  C   UNL A   1      32.936  19.678  24.375  1.00  0.00     0.034 C 
ATOM     17  C   UNL A   1      32.520  18.339  24.970  1.00  0.00     0.014 C 
ATOM     18  C   UNL A   1      32.244  19.907  23.032  1.00  0.00     0.014 C 
ENDBRANCH  11  16
ENDBRANCH   7  10
ENDBRANCH   5   6
BRANCH   5  19
ATOM     19  C   UNL A   1      32.573  25.708  24.413  1.00  0.00     0.074 C 
BRANCH  19  20
ATOM     20  C   UNL A   1      33.370  24.606  23.780  1.00  0.00    -0.020 A 
ATOM     21  C   UNL A   1      33.019  23.851  22.677  1.00  0.00     0.087 A 
ATOM     22  C   UNL A   1      34.646  24.133  24.219  1.00  0.00     0.003 A 
ATOM     23  N   UNL A   1      34.029  22.960  22.430  1.00  0.00    -0.361 N 
ATOM     24  C   UNL A   1      35.033  23.108  23.358  1.00  0.00     0.046 A 
ATOM     25  C   UNL A   1      35.510  24.494  25.273  1.00  0.00     0.010 A 
ATOM     26  H   UNL A   1      34.034  22.306  21.694  1.00  0.00     0.166 HD
ATOM     27  C   UNL A   1      36.243  22.418  23.504  1.00  0.00     0.026 A 
ATOM     28  C   UNL A   1      36.721  23.815  25.434  1.00  0.00     0.001 A 
ATOM     29  C   UNL A   1      37.080  22.792  24.561  1.00  0.00     0.002 A 
ENDBRANCH  19  20
ENDBRANCH   5  19
ENDBRANCH   3   5
ENDBRANCH   2   3
ENDBRANCH   1   2
BRANCH   1  30
ATOM     30  C   UNL A   1      31.760  30.391  26.882  1.00  0.00     0.275 C 
BRANCH  30  31
ATOM     31  O   UNL A   1      33.113  30.738  26.531  1.00  0.00    -0.458 OA
BRANCH  31  32
ATOM     32  C   UNL A   1      33.665  31.691  27.317  1.00  0.00     0.338 C 
ATOM     33  O   UNL A   1      33.154  32.751  27.658  1.00  0.00    -0.246 OA
BRANCH  32  34
ATOM     34  C   UNL A   1      34.959  31.230  27.832  1.00  0.00     0.060 A 
ATOM     35  C   UNL A   1      35.029  29.946  28.369  1.00  0.00     0.016 A 
ATOM     36  C   UNL A   1      36.057  32.088  27.903  1.00  0.00     0.016 A 
ATOM     37  C   UNL A   1      36.187  29.516  29.011  1.00  0.00     0.010 A 
ATOM     38  C   UNL A   1      37.231  31.644  28.524  1.00  0.00     0.010 A 
ATOM     39  C   UNL A   1      37.298  30.363  29.104  1.00  0.00    -0.014 A 
BRANCH  39  40
ATOM     40  C   UNL A   1      38.487  29.923  29.881  1.00  0.00     0.031 A 
ATOM     41  C   UNL A   1      39.425  28.899  29.301  1.00  0.00     0.074 A 
ATOM     42  C   UNL A   1      38.772  30.498  31.066  1.00  0.00     0.049 A 
ATOM     43  N   UNL A   1      40.524  28.401  29.810  1.00  0.00    -0.248 NA
ATOM     44  C   UNL A   1      39.097  28.387  27.961  1.00  0.00     0.031 C 
ATOM     45  C   UNL A   1      37.981  31.552  31.705  1.00  0.00     0.029 A 
ATOM     46  N   UNL A   1      39.809  30.286  31.940  1.00  0.00    -0.354 N 
ATOM     47  C   UNL A   1      41.042  27.555  28.837  1.00  0.00     0.074 A 
ATOM     48  C   UNL A   1      40.101  27.553  27.736  1.00  0.00     0.031 C 
ATOM     49  C   UNL A   1      38.567  31.899  32.862  1.00  0.00     0.029 A 
ATOM     50  C   UNL A   1      39.738  31.054  33.079  1.00  0.00     0.049 A 
ATOM     51  H   UNL A   1      40.536  29.645  31.768  1.00  0.00     0.167 HD
ATOM     52  C   UNL A   1      42.211  26.867  28.844  1.00  0.00     0.034 A 
ATOM     53  C   UNL A   1      40.505  31.052  34.187  1.00  0.00     0.034 A 
ATOM     54  C   UNL A   1      43.120  26.828  29.962  1.00  0.00     0.049 A 
ATOM     55  C   UNL A   1      41.671  30.099  34.267  1.00  0.00     0.074 A 
ATOM     56  C   UNL A   1      44.307  26.127  30.088  1.00  0.00     0.029 A 
ATOM     57  N   UNL A   1      42.931  27.503  31.161  1.00  0.00    -0.354 N 
ATOM     58  N   UNL A   1      42.134  29.281  33.350  1.00  0.00    -0.248 NA
ATOM     59  C   UNL A   1      42.406  30.059  35.537  1.00  0.00     0.031 C 
ATOM     60  C   UNL A   1      44.794  26.319  31.387  1.00  0.00     0.029 A 
ATOM     61  C   UNL A   1      43.950  27.196  32.049  1.00  0.00     0.049 A 
ATOM     62  H   UNL A   1      42.182  28.113  31.352  1.00  0.00     0.167 HD
ATOM     63  C   UNL A   1      43.231  28.648  33.927  1.00  0.00     0.074 A 
ATOM     64  C   UNL A   1      43.364  29.185  35.266  1.00  0.00     0.031 C 
ATOM     65  C   UNL A   1      44.058  27.712  33.394  1.00  0.00     0.034 A 
BRANCH  52  66
ATOM     66  C   UNL A   1      42.533  26.062  27.610  1.00  0.00     0.023 A 
ATOM     67  C   UNL A   1      42.092  24.734  27.468  1.00  0.00     0.031 A 
ATOM     68  C   UNL A   1      43.323  26.611  26.587  1.00  0.00     0.131 A 
ATOM     69  C   UNL A   1      42.495  23.980  26.357  1.00  0.00     0.055 A 
ATOM     70  C   UNL A   1      43.669  25.874  25.453  1.00  0.00     0.041 A 
ATOM     71  F   UNL A   1      43.788  27.867  26.682  1.00  0.00    -0.206 F 
ATOM     72  C   UNL A   1      43.266  24.547  25.339  1.00  0.00     0.022 A 
BRANCH  69  73
ATOM     73  S   UNL A   1      42.110  22.207  26.324  1.00  0.00     0.124 S 
ATOM     74  O   UNL A   1      42.588  21.772  27.634  1.00  0.00    -0.237 OA
ATOM     75  O   UNL A   1      40.663  22.203  26.138  1.00  0.00    -0.237 OA
ATOM     76  O   UNL A   1      42.887  21.710  25.190  1.00  0.00    -0.744 OA
ENDBRANCH  69  73
ENDBRANCH  52  66
BRANCH  53  77
ATOM     77  C   UNL A   1      40.153  31.918  35.351  1.00  0.00     0.023 A 
ATOM     78  C   UNL A   1      39.207  31.515  36.305  1.00  0.00     0.031 A 
ATOM     79  C   UNL A   1      40.725  33.197  35.487  1.00  0.00     0.131 A 
ATOM     80  C   UNL A   1      38.836  32.395  37.336  1.00  0.00     0.055 A 
ATOM     81  C   UNL A   1      40.392  34.047  36.542  1.00  0.00     0.041 A 
ATOM     82  F   UNL A   1      41.627  33.638  34.596  1.00  0.00    -0.206 F 
ATOM     83  C   UNL A   1      39.434  33.651  37.469  1.00  0.00     0.022 A 
BRANCH  80  84
ATOM     84  S   UNL A   1      37.501  31.908  38.463  1.00  0.00     0.124 S 
ATOM     85  O   UNL A   1      38.152  32.019  39.763  1.00  0.00    -0.237 OA
ATOM     86  O   UNL A   1      36.477  32.904  38.170  1.00  0.00    -0.237 OA
ATOM     87  O   UNL A   1      37.180  30.546  38.041  1.00  0.00    -0.744 OA
ENDBRANCH  80  84
ENDBRANCH  53  77
BRANCH  65  88
ATOM     88  C   UNL A   1      45.195  27.235  34.262  1.00  0.00     0.023 A 
ATOM     89  C   UNL A   1      45.052  26.134  35.125  1.00  0.00     0.031 A 
ATOM     90  C   UNL A   1      46.431  27.905  34.244  1.00  0.00     0.131 A 
ATOM     91  C   UNL A   1      46.108  25.768  35.972  1.00  0.00     0.055 A 
ATOM     92  C   UNL A   1      47.497  27.503  35.049  1.00  0.00     0.041 A 
ATOM     93  F   UNL A   1      46.622  28.965  33.441  1.00  0.00    -0.206 F 
ATOM     94  C   UNL A   1      47.335  26.437  35.929  1.00  0.00     0.022 A 
BRANCH  91  95
ATOM     95  S   UNL A   1      45.833  24.457  37.195  1.00  0.00     0.124 S 
ATOM     96  O   UNL A   1      45.028  25.143  38.200  1.00  0.00    -0.237 OA
ATOM     97  O   UNL A   1      45.141  23.438  36.412  1.00  0.00    -0.237 OA
ATOM     98  O   UNL A   1      47.182  24.096  37.624  1.00  0.00    -0.744 OA
ENDBRANCH  91  95
ENDBRANCH  65  88
ENDBRANCH  39  40
ENDBRANCH  32  34
ENDBRANCH  31  32
ENDBRANCH  30  31
ENDBRANCH   1  30
TORSDOF 19
ENDMDL
MODEL 2
REMARK VINA RESULT:     -11.7      4.900      9.706
REMARK SMILES CC(C)c1cc(C(=O)N[C@@H](Cc2c[nH]c3ccccc23)C(=O)OCCOC(=O)c2ccc(-c3c4nc(c(-c5cc(S(=O)(=O)[O-])ccc5F)c5ccc([nH]5)c(-c5cc(S(=O)(=O)[O-])ccc5F)c5nc(c(-c6cc(S(=O)(=O)[O-])ccc6F)c6ccc3[nH]6)C=C5)C=C4)cc2)n(C)n1
REMARK SMILES IDX 24 1 23 2 21 3 22 4 10 5 9 6 7 7 8 8 6 10 4 11 5 12 94 13
REMARK SMILES IDX 92 14 93 15 2 16 1 17 3 18 11 19 12 20 13 21 20 22 14 23
REMARK SMILES IDX 15 24 19 25 16 27 18 28 17 29 25 30 26 31 27 32 28 33 29 34
REMARK SMILES IDX 30 35 91 36 31 37 90 38 32 39 33 40 34 41 84 42 35 43 89 44
REMARK SMILES IDX 83 45 85 46 36 47 88 48 82 49 81 50 37 52 69 53 49 54 68 55
REMARK SMILES IDX 50 56 53 57 67 58 86 59 51 60 52 61 66 63 87 64 54 65 38 66
REMARK SMILES IDX 39 67 47 68 40 69 46 70 48 71 45 72 41 73 42 74 43 75 44 76
REMARK SMILES IDX 70 77 71 78 79 79 72 80 78 81 80 82 77 83 73 84 74 85 75 86
REMARK SMILES IDX 76 87 55 88 56 89 64 90 57 91 63 92 65 93 62 94 58 95 59 96
REMARK SMILES IDX 60 97 61 98
REMARK H PARENT 9 9 14 26 85 51 53 62
REMARK Flexibility Score: inf
ROOT
ATOM      1  C   UNL A   1      36.844  22.397  23.533  1.00  0.00     0.274 C 
ENDROOT
BRANCH   1   2
ATOM      2  O   UNL A   1      35.451  22.679  23.299  1.00  0.00    -0.461 OA
BRANCH   2   3
ATOM      3  C   UNL A   1      34.962  23.795  23.905  1.00  0.00     0.329 C 
ATOM      4  O   UNL A   1      35.489  24.371  24.851  1.00  0.00    -0.250 OA
BRANCH   3   5
ATOM      5  C   UNL A   1      33.612  24.245  23.327  1.00  0.00     0.197 C 
BRANCH   5   6
ATOM      6  N   UNL A   1      32.478  24.219  24.243  1.00  0.00    -0.337 N 
ATOM      7  C   UNL A   1      31.836  23.244  24.957  1.00  0.00     0.270 C 
ATOM      8  O   UNL A   1      30.786  23.630  25.482  1.00  0.00    -0.268 OA
ATOM      9  H   UNL A   1      32.082  25.110  24.380  1.00  0.00     0.164 HD
BRANCH   7  10
ATOM     10  C   UNL A   1      32.324  21.893  25.185  1.00  0.00     0.126 A 
ATOM     11  C   UNL A   1      32.770  19.717  24.762  1.00  0.00     0.066 A 
ATOM     12  C   UNL A   1      32.153  20.871  24.246  1.00  0.00     0.059 A 
ATOM     13  N   UNL A   1      33.260  19.964  25.976  1.00  0.00    -0.177 NA
ATOM     14  N   UNL A   1      33.074  21.283  26.166  1.00  0.00    -0.263 N 
ATOM     15  C   UNL A   1      33.795  21.821  27.291  1.00  0.00     0.174 C 
BRANCH  11  16
ATOM     16  C   UNL A   1      32.931  18.351  24.152  1.00  0.00     0.034 C 
ATOM     17  C   UNL A   1      32.383  18.304  22.732  1.00  0.00     0.014 C 
ATOM     18  C   UNL A   1      34.379  17.863  24.186  1.00  0.00     0.014 C 
ENDBRANCH  11  16
ENDBRANCH   7  10
ENDBRANCH   5   6
BRANCH   5  19
ATOM     19  C   UNL A   1      33.762  25.654  22.725  1.00  0.00     0.074 C 
BRANCH  19  20
ATOM     20  C   UNL A   1      33.254  26.765  23.594  1.00  0.00    -0.020 A 
ATOM     21  C   UNL A   1      33.822  27.237  24.762  1.00  0.00     0.087 A 
ATOM     22  C   UNL A   1      32.071  27.535  23.366  1.00  0.00     0.003 A 
ATOM     23  N   UNL A   1      33.042  28.259  25.234  1.00  0.00    -0.361 N 
ATOM     24  C   UNL A   1      31.965  28.459  24.404  1.00  0.00     0.046 A 
ATOM     25  C   UNL A   1      31.082  27.530  22.361  1.00  0.00     0.010 A 
ATOM     26  H   UNL A   1      33.226  28.774  26.053  1.00  0.00     0.166 HD
ATOM     27  C   UNL A   1      30.911  29.378  24.489  1.00  0.00     0.026 A 
ATOM     28  C   UNL A   1      30.024  28.439  22.432  1.00  0.00     0.001 A 
ATOM     29  C   UNL A   1      29.941  29.349  23.482  1.00  0.00     0.002 A 
ENDBRANCH  19  20
ENDBRANCH   5  19
ENDBRANCH   3   5
ENDBRANCH   2   3
ENDBRANCH   1   2
BRANCH   1  30
ATOM     30  C   UNL A   1      37.014  21.160  24.418  1.00  0.00     0.275 C 
BRANCH  30  31
ATOM     31  O   UNL A   1      37.403  21.515  25.758  1.00  0.00    -0.458 OA
BRANCH  31  32
ATOM     32  C   UNL A   1      38.715  21.319  26.026  1.00  0.00     0.338 C 
ATOM     33  O   UNL A   1      39.378  20.321  25.770  1.00  0.00    -0.246 OA
BRANCH  32  34
ATOM     34  C   UNL A   1      39.303  22.544  26.580  1.00  0.00     0.060 A 
ATOM     35  C   UNL A   1      38.786  23.767  26.155  1.00  0.00     0.016 A 
ATOM     36  C   UNL A   1      40.426  22.499  27.406  1.00  0.00     0.016 A 
ATOM     37  C   UNL A   1      39.405  24.957  26.525  1.00  0.00     0.010 A 
ATOM     38  C   UNL A   1      41.032  23.698  27.801  1.00  0.00     0.010 A 
ATOM     39  C   UNL A   1      40.541  24.936  27.345  1.00  0.00    -0.014 A 
BRANCH  39  40
ATOM     40  C   UNL A   1      41.247  26.210  27.645  1.00  0.00     0.031 A 
ATOM     41  C   UNL A   1      40.535  27.302  28.398  1.00  0.00     0.074 A 
ATOM     42  C   UNL A   1      42.545  26.358  27.319  1.00  0.00     0.049 A 
ATOM     43  N   UNL A   1      40.981  28.474  28.774  1.00  0.00    -0.248 NA
ATOM     44  C   UNL A   1      39.147  27.028  28.804  1.00  0.00     0.031 C 
ATOM     45  C   UNL A   1      43.368  25.348  26.649  1.00  0.00     0.029 A 
ATOM     46  N   UNL A   1      43.405  27.411  27.513  1.00  0.00    -0.354 N 
ATOM     47  C   UNL A   1      39.948  29.058  29.498  1.00  0.00     0.074 A 
ATOM     48  C   UNL A   1      38.829  28.140  29.449  1.00  0.00     0.031 C 
ATOM     49  C   UNL A   1      44.613  25.827  26.499  1.00  0.00     0.029 A 
ATOM     50  C   UNL A   1      44.665  27.196  27.003  1.00  0.00     0.049 A 
ATOM     51  H   UNL A   1      43.145  28.240  27.975  1.00  0.00     0.167 HD
ATOM     52  C   UNL A   1      39.941  30.236  30.171  1.00  0.00     0.034 A 
ATOM     53  C   UNL A   1      45.728  28.021  26.916  1.00  0.00     0.034 A 
ATOM     54  C   UNL A   1      41.037  31.172  30.174  1.00  0.00     0.049 A 
ATOM     55  C   UNL A   1      45.613  29.420  27.466  1.00  0.00     0.074 A 
ATOM     56  C   UNL A   1      41.116  32.411  30.786  1.00  0.00     0.029 A 
ATOM     57  N   UNL A   1      42.244  30.981  29.513  1.00  0.00    -0.354 N 
ATOM     58  N   UNL A   1      44.619  29.971  28.123  1.00  0.00    -0.248 NA
ATOM     59  C   UNL A   1      46.758  30.312  27.248  1.00  0.00     0.031 C 
ATOM     60  C   UNL A   1      42.336  32.999  30.431  1.00  0.00     0.029 A 
ATOM     61  C   UNL A   1      43.051  32.099  29.658  1.00  0.00     0.049 A 
ATOM     62  H   UNL A   1      42.491  30.169  29.013  1.00  0.00     0.167 HD
ATOM     63  C   UNL A   1      45.032  31.267  28.419  1.00  0.00     0.074 A 
ATOM     64  C   UNL A   1      46.367  31.412  27.875  1.00  0.00     0.031 C 
ATOM     65  C   UNL A   1      44.369  32.246  29.086  1.00  0.00     0.034 A 
BRANCH  52  66
ATOM     66  C   UNL A   1      38.678  30.586  30.916  1.00  0.00     0.023 A 
ATOM     67  C   UNL A   1      37.610  31.239  30.276  1.00  0.00     0.031 A 
ATOM     68  C   UNL A   1      38.557  30.304  32.286  1.00  0.00     0.131 A 
ATOM     69  C   UNL A   1      36.491  31.643  31.019  1.00  0.00     0.055 A 
ATOM     70  C   UNL A   1      37.414  30.654  33.008  1.00  0.00     0.041 A 
ATOM     71  F   UNL A   1      39.555  29.702  32.951  1.00  0.00    -0.206 F 
ATOM     72  C   UNL A   1      36.378  31.338  32.378  1.00  0.00     0.022 A 
BRANCH  69  73
ATOM     73  S   UNL A   1      35.246  32.690  30.217  1.00  0.00     0.124 S 
ATOM     74  O   UNL A   1      34.308  32.931  31.310  1.00  0.00    -0.237 OA
ATOM     75  O   UNL A   1      36.033  33.839  29.784  1.00  0.00    -0.237 OA
ATOM     76  O   UNL A   1      34.731  31.844  29.141  1.00  0.00    -0.744 OA
ENDBRANCH  69  73
ENDBRANCH  52  66
BRANCH  53  77
ATOM     77  C   UNL A   1      46.967  27.584  26.208  1.00  0.00     0.023 A 
ATOM     78  C   UNL A   1      47.175  27.867  24.850  1.00  0.00     0.031 A 
ATOM     79  C   UNL A   1      47.939  26.818  26.879  1.00  0.00     0.131 A 
ATOM     80  C   UNL A   1      48.312  27.362  24.197  1.00  0.00     0.055 A 
ATOM     81  C   UNL A   1      49.092  26.362  26.239  1.00  0.00     0.041 A 
ATOM     82  F   UNL A   1      47.785  26.508  28.176  1.00  0.00    -0.206 F 
ATOM     83  C   UNL A   1      49.278  26.625  24.886  1.00  0.00     0.022 A 
BRANCH  80  84
ATOM     84  S   UNL A   1      48.476  27.614  22.408  1.00  0.00     0.124 S 
ATOM     85  O   UNL A   1      47.234  28.307  22.089  1.00  0.00    -0.237 OA
ATOM     86  O   UNL A   1      49.696  28.409  22.324  1.00  0.00    -0.237 OA
ATOM     87  O   UNL A   1      48.584  26.255  21.882  1.00  0.00    -0.744 OA
ENDBRANCH  80  84
ENDBRANCH  53  77
BRANCH  65  88
ATOM     88  C   UNL A   1      45.100  33.551  29.283  1.00  0.00     0.023 A 
ATOM     89  C   UNL A   1      44.932  34.630  28.397  1.00  0.00     0.031 A 
ATOM     90  C   UNL A   1      45.995  33.708  30.356  1.00  0.00     0.131 A 
ATOM     91  C   UNL A   1      45.688  35.800  28.570  1.00  0.00     0.055 A 
ATOM     92  C   UNL A   1      46.703  34.894  30.555  1.00  0.00     0.041 A 
ATOM     93  F   UNL A   1      46.197  32.708  31.230  1.00  0.00    -0.206 F 
ATOM     94  C   UNL A   1      46.561  35.944  29.652  1.00  0.00     0.022 A 
BRANCH  91  95
ATOM     95  S   UNL A   1      45.578  37.104  27.314  1.00  0.00     0.124 S 
ATOM     96  O   UNL A   1      46.340  36.528  26.211  1.00  0.00    -0.237 OA
ATOM     97  O   UNL A   1      44.139  37.216  27.104  1.00  0.00    -0.237 OA
ATOM     98  O   UNL A   1      46.199  38.258  27.960  1.00  0.00    -0.744 OA
ENDBRANCH  91  95
ENDBRANCH  65  88
ENDBRANCH  39  40
ENDBRANCH  32  34
ENDBRANCH  31  32
ENDBRANCH  30  31
ENDBRANCH   1  30
TORSDOF 19
ENDMDL
MODEL 3
REMARK VINA RESULT:     -11.7      1.634      2.907
REMARK SMILES CC(C)c1cc(C(=O)N[C@@H](Cc2c[nH]c3ccccc23)C(=O)OCCOC(=O)c2ccc(-c3c4nc(c(-c5cc(S(=O)(=O)[O-])ccc5F)c5ccc([nH]5)c(-c5cc(S(=O)(=O)[O-])ccc5F)c5nc(c(-c6cc(S(=O)(=O)[O-])ccc6F)c6ccc3[nH]6)C=C5)C=C4)cc2)n(C)n1
REMARK SMILES IDX 24 1 23 2 21 3 22 4 10 5 9 6 7 7 8 8 6 10 4 11 5 12 94 13
REMARK SMILES IDX 92 14 93 15 2 16 1 17 3 18 11 19 12 20 13 21 20 22 14 23
REMARK SMILES IDX 15 24 19 25 16 27 18 28 17 29 25 30 26 31 27 32 28 33 29 34
REMARK SMILES IDX 30 35 91 36 31 37 90 38 32 39 33 40 34 41 84 42 35 43 89 44
REMARK SMILES IDX 83 45 85 46 36 47 88 48 82 49 81 50 37 52 69 53 49 54 68 55
REMARK SMILES IDX 50 56 53 57 67 58 86 59 51 60 52 61 66 63 87 64 54 65 38 66
REMARK SMILES IDX 39 67 47 68 40 69 46 70 48 71 45 72 41 73 42 74 43 75 44 76
REMARK SMILES IDX 70 77 71 78 79 79 72 80 78 81 80 82 77 83 73 84 74 85 75 86
REMARK SMILES IDX 76 87 55 88 56 89 64 90 57 91 63 92 65 93 62 94 58 95 59 96
REMARK SMILES IDX 60 97 61 98
REMARK H PARENT 9 9 14 26 85 51 53 62
REMARK Flexibility Score: inf
ROOT
ATOM      1  C   UNL A   1      31.597  29.253  27.450  1.00  0.00     0.274 C 
ENDROOT
BRANCH   1   2
ATOM      2  O   UNL A   1      31.187  27.972  26.937  1.00  0.00    -0.461 OA
BRANCH   2   3
ATOM      3  C   UNL A   1      32.178  27.194  26.422  1.00  0.00     0.329 C 
ATOM      4  O   UNL A   1      33.374  27.469  26.446  1.00  0.00    -0.250 OA
BRANCH   3   5
ATOM      5  C   UNL A   1      31.647  25.934  25.723  1.00  0.00     0.197 C 
BRANCH   5   6
ATOM      6  N   UNL A   1      31.330  24.803  26.587  1.00  0.00    -0.337 N 
ATOM      7  C   UNL A   1      31.717  23.492  26.641  1.00  0.00     0.270 C 
ATOM      8  O   UNL A   1      31.058  22.818  27.441  1.00  0.00    -0.268 OA
ATOM      9  H   UNL A   1      30.689  25.038  27.296  1.00  0.00     0.164 HD
BRANCH   7  10
ATOM     10  C   UNL A   1      32.834  22.902  25.921  1.00  0.00     0.126 A 
ATOM     11  C   UNL A   1      34.955  22.634  25.182  1.00  0.00     0.066 A 
ATOM     12  C   UNL A   1      34.113  23.467  25.940  1.00  0.00     0.059 A 
ATOM     13  N   UNL A   1      34.253  21.627  24.663  1.00  0.00    -0.177 NA
ATOM     14  N   UNL A   1      33.023  21.748  25.194  1.00  0.00    -0.263 N 
ATOM     15  C   UNL A   1      32.183  20.593  25.000  1.00  0.00     0.174 C 
BRANCH  11  16
ATOM     16  C   UNL A   1      36.431  22.736  24.911  1.00  0.00     0.034 C 
ATOM     17  C   UNL A   1      36.714  22.957  23.431  1.00  0.00     0.014 C 
ATOM     18  C   UNL A   1      37.106  23.818  25.754  1.00  0.00     0.014 C 
ENDBRANCH  11  16
ENDBRANCH   7  10
ENDBRANCH   5   6
BRANCH   5  19
ATOM     19  C   UNL A   1      30.415  26.304  24.877  1.00  0.00     0.074 C 
BRANCH  19  20
ATOM     20  C   UNL A   1      30.662  27.357  23.837  1.00  0.00    -0.020 A 
ATOM     21  C   UNL A   1      31.870  27.686  23.254  1.00  0.00     0.087 A 
ATOM     22  C   UNL A   1      29.676  28.222  23.268  1.00  0.00     0.003 A 
ATOM     23  N   UNL A   1      31.650  28.697  22.356  1.00  0.00    -0.361 N 
ATOM     24  C   UNL A   1      30.320  29.045  22.347  1.00  0.00     0.046 A 
ATOM     25  C   UNL A   1      28.286  28.371  23.452  1.00  0.00     0.010 A 
ATOM     26  H   UNL A   1      32.346  29.114  21.798  1.00  0.00     0.166 HD
ATOM     27  C   UNL A   1      29.642  30.018  21.602  1.00  0.00     0.026 A 
ATOM     28  C   UNL A   1      27.594  29.338  22.719  1.00  0.00     0.001 A 
ATOM     29  C   UNL A   1      28.264  30.150  21.808  1.00  0.00     0.002 A 
ENDBRANCH  19  20
ENDBRANCH   5  19
ENDBRANCH   3   5
ENDBRANCH   2   3
ENDBRANCH   1   2
BRANCH   1  30
ATOM     30  C   UNL A   1      31.789  30.265  26.317  1.00  0.00     0.275 C 
BRANCH  30  31
ATOM     31  O   UNL A   1      33.161  30.688  26.210  1.00  0.00    -0.458 OA
BRANCH  31  32
ATOM     32  C   UNL A   1      33.536  31.599  27.138  1.00  0.00     0.338 C 
ATOM     33  O   UNL A   1      32.878  32.548  27.546  1.00  0.00    -0.246 OA
BRANCH  32  34
ATOM     34  C   UNL A   1      34.835  31.229  27.708  1.00  0.00     0.060 A 
ATOM     35  C   UNL A   1      35.051  29.889  28.030  1.00  0.00     0.016 A 
ATOM     36  C   UNL A   1      35.783  32.197  28.040  1.00  0.00     0.016 A 
ATOM     37  C   UNL A   1      36.200  29.509  28.716  1.00  0.00     0.010 A 
ATOM     38  C   UNL A   1      36.954  31.809  28.704  1.00  0.00     0.010 A 
ATOM     39  C   UNL A   1      37.161  30.465  29.069  1.00  0.00    -0.014 A 
BRANCH  39  40
ATOM     40  C   UNL A   1      38.332  30.054  29.888  1.00  0.00     0.031 A 
ATOM     41  C   UNL A   1      39.324  29.067  29.336  1.00  0.00     0.074 A 
ATOM     42  C   UNL A   1      38.552  30.624  31.089  1.00  0.00     0.049 A 
ATOM     43  N   UNL A   1      40.417  28.598  29.883  1.00  0.00    -0.248 NA
ATOM     44  C   UNL A   1      39.067  28.560  27.979  1.00  0.00     0.031 C 
ATOM     45  C   UNL A   1      37.702  31.645  31.706  1.00  0.00     0.029 A 
ATOM     46  N   UNL A   1      39.560  30.435  32.001  1.00  0.00    -0.354 N 
ATOM     47  C   UNL A   1      41.001  27.780  28.922  1.00  0.00     0.074 A 
ATOM     48  C   UNL A   1      40.105  27.761  27.785  1.00  0.00     0.031 C 
ATOM     49  C   UNL A   1      38.231  31.997  32.889  1.00  0.00     0.029 A 
ATOM     50  C   UNL A   1      39.419  31.188  33.144  1.00  0.00     0.049 A 
ATOM     51  H   UNL A   1      40.312  29.819  31.852  1.00  0.00     0.167 HD
ATOM     52  C   UNL A   1      42.190  27.129  28.969  1.00  0.00     0.034 A 
ATOM     53  C   UNL A   1      40.141  31.198  34.282  1.00  0.00     0.034 A 
ATOM     54  C   UNL A   1      43.055  27.106  30.122  1.00  0.00     0.049 A 
ATOM     55  C   UNL A   1      41.332  30.281  34.399  1.00  0.00     0.074 A 
ATOM     56  C   UNL A   1      44.258  26.442  30.289  1.00  0.00     0.029 A 
ATOM     57  N   UNL A   1      42.797  27.762  31.319  1.00  0.00    -0.354 N 
ATOM     58  N   UNL A   1      41.857  29.489  33.493  1.00  0.00    -0.248 NA
ATOM     59  C   UNL A   1      42.018  30.250  35.696  1.00  0.00     0.031 C 
ATOM     60  C   UNL A   1      44.687  26.634  31.608  1.00  0.00     0.029 A 
ATOM     61  C   UNL A   1      43.790  27.477  32.244  1.00  0.00     0.049 A 
ATOM     62  H   UNL A   1      42.022  28.345  31.487  1.00  0.00     0.167 HD
ATOM     63  C   UNL A   1      42.951  28.884  34.107  1.00  0.00     0.074 A 
ATOM     64  C   UNL A   1      43.014  29.409  35.455  1.00  0.00     0.031 C 
ATOM     65  C   UNL A   1      43.828  27.981  33.597  1.00  0.00     0.034 A 
BRANCH  52  66
ATOM     66  C   UNL A   1      42.587  26.349  27.741  1.00  0.00     0.023 A 
ATOM     67  C   UNL A   1      42.152  25.027  27.544  1.00  0.00     0.031 A 
ATOM     68  C   UNL A   1      43.441  26.916  26.781  1.00  0.00     0.131 A 
ATOM     69  C   UNL A   1      42.621  24.293  26.444  1.00  0.00     0.055 A 
ATOM     70  C   UNL A   1      43.855  26.201  25.656  1.00  0.00     0.041 A 
ATOM     71  F   UNL A   1      43.903  28.167  26.932  1.00  0.00    -0.206 F 
ATOM     72  C   UNL A   1      43.455  24.878  25.489  1.00  0.00     0.022 A 
BRANCH  69  73
ATOM     73  S   UNL A   1      42.233  22.523  26.350  1.00  0.00     0.124 S 
ATOM     74  O   UNL A   1      40.807  22.512  26.664  1.00  0.00    -0.237 OA
ATOM     75  O   UNL A   1      42.587  22.197  24.973  1.00  0.00    -0.237 OA
ATOM     76  O   UNL A   1      43.093  21.931  27.373  1.00  0.00    -0.744 OA
ENDBRANCH  69  73
ENDBRANCH  52  66
BRANCH  53  77
ATOM     77  C   UNL A   1      39.716  32.039  35.439  1.00  0.00     0.023 A 
ATOM     78  C   UNL A   1      38.884  31.531  36.449  1.00  0.00     0.031 A 
ATOM     79  C   UNL A   1      40.094  33.393  35.515  1.00  0.00     0.131 A 
ATOM     80  C   UNL A   1      38.433  32.378  37.475  1.00  0.00     0.055 A 
ATOM     81  C   UNL A   1      39.685  34.217  36.563  1.00  0.00     0.041 A 
ATOM     82  F   UNL A   1      40.879  33.934  34.570  1.00  0.00    -0.206 F 
ATOM     83  C   UNL A   1      38.840  33.713  37.546  1.00  0.00     0.022 A 
BRANCH  80  84
ATOM     84  S   UNL A   1      37.238  31.735  38.678  1.00  0.00     0.124 S 
ATOM     85  O   UNL A   1      37.991  31.822  39.923  1.00  0.00    -0.237 OA
ATOM     86  O   UNL A   1      36.127  32.668  38.532  1.00  0.00    -0.237 OA
ATOM     87  O   UNL A   1      36.974  30.378  38.203  1.00  0.00    -0.744 OA
ENDBRANCH  80  84
ENDBRANCH  53  77
BRANCH  65  88
ATOM     88  C   UNL A   1      44.945  27.531  34.505  1.00  0.00     0.023 A 
ATOM     89  C   UNL A   1      44.822  26.385  35.312  1.00  0.00     0.031 A 
ATOM     90  C   UNL A   1      46.138  28.269  34.582  1.00  0.00     0.131 A 
ATOM     91  C   UNL A   1      45.852  26.042  36.200  1.00  0.00     0.055 A 
ATOM     92  C   UNL A   1      47.183  27.892  35.426  1.00  0.00     0.041 A 
ATOM     93  F   UNL A   1      46.308  29.373  33.836  1.00  0.00    -0.206 F 
ATOM     94  C   UNL A   1      47.038  26.780  36.251  1.00  0.00     0.022 A 
BRANCH  91  95
ATOM     95  S   UNL A   1      45.591  24.664  37.350  1.00  0.00     0.124 S 
ATOM     96  O   UNL A   1      44.517  25.174  38.196  1.00  0.00    -0.237 OA
ATOM     97  O   UNL A   1      45.232  23.571  36.454  1.00  0.00    -0.237 OA
ATOM     98  O   UNL A   1      46.885  24.519  38.013  1.00  0.00    -0.744 OA
ENDBRANCH  91  95
ENDBRANCH  65  88
ENDBRANCH  39  40
ENDBRANCH  32  34
ENDBRANCH  31  32
ENDBRANCH  30  31
ENDBRANCH   1  30
TORSDOF 19
ENDMDL
