MODEL 1
REMARK VINA RESULT:     -11.3      0.000      0.000
REMARK SMILES NC(=O)CC[N@@H+]1[C@@H](C(=O)OCCOC(=O)c2ccc(-c3c4nc(c(-c5cc(S(=O)(=O)[O-])ccc5F)c5ccc([nH]5)c(-c5cc(S(=O)(=O)[O-])ccc5F)c5nc(c(-c6cc(S(=O)(=O)[O-])ccc6F)c6ccc3[nH]6)C=C5)C=C4)cc2)CC[C@@H]2CCCC[C@H]21
REMARK SMILES IDX 11 1 10 2 8 3 9 4 7 5 6 6 86 7 79 9 81 10 85 11 80 12 82 13
REMARK SMILES IDX 84 14 83 15 5 16 4 17 2 18 1 19 3 22 12 23 13 24 14 25 15 26
REMARK SMILES IDX 16 27 17 28 78 29 18 30 77 31 19 32 20 33 21 34 71 35 22 36
REMARK SMILES IDX 76 37 70 38 72 39 23 40 75 41 69 42 68 43 24 45 56 46 36 47
REMARK SMILES IDX 55 48 37 49 40 50 54 51 73 52 38 53 39 54 53 56 74 57 41 58
REMARK SMILES IDX 25 59 26 60 34 61 27 62 33 63 35 64 32 65 28 66 29 67 30 68
REMARK SMILES IDX 31 69 57 70 58 71 66 72 59 73 65 74 67 75 64 76 60 77 61 78
REMARK SMILES IDX 62 79 63 80 42 81 43 82 51 83 44 84 50 85 52 86 49 87 45 88
REMARK SMILES IDX 46 89 47 90 48 91
REMARK H PARENT 6 8 1 20 1 21 72 44 40 55
REMARK Flexibility Score: inf
ROOT
ATOM      1  C   UNL A   1      35.240  21.198  24.778  1.00  0.00     0.274 C 
ENDROOT
BRANCH   1   2
ATOM      2  O   UNL A   1      35.196  22.623  25.009  1.00  0.00    -0.458 OA
BRANCH   2   3
ATOM      3  C   UNL A   1      34.517  23.013  26.122  1.00  0.00     0.365 C 
ATOM      4  O   UNL A   1      34.736  22.536  27.231  1.00  0.00    -0.245 OA
BRANCH   3   5
ATOM      5  C   UNL A   1      33.516  24.162  25.902  1.00  0.00     0.295 C 
ATOM      6  N   UNL A   1      32.490  23.980  24.817  1.00  0.00    -0.320 N 
ATOM      7  C   UNL A   1      31.566  25.184  24.811  1.00  0.00     0.187 C 
ATOM      8  H   UNL A   1      33.063  23.863  23.981  1.00  0.00     0.349 HD
ATOM      9  C   UNL A   1      34.304  25.470  25.691  1.00  0.00     0.078 C 
ATOM     10  C   UNL A   1      32.294  26.551  24.728  1.00  0.00     0.048 C 
ATOM     11  C   UNL A   1      30.506  25.158  23.674  1.00  0.00     0.065 C 
ATOM     12  C   UNL A   1      33.388  26.673  25.779  1.00  0.00     0.016 C 
ATOM     13  C   UNL A   1      31.292  27.708  24.896  1.00  0.00     0.010 C 
ATOM     14  C   UNL A   1      29.506  26.306  23.809  1.00  0.00     0.006 C 
ATOM     15  C   UNL A   1      30.191  27.664  23.845  1.00  0.00     0.001 C 
BRANCH   6  16
ATOM     16  C   UNL A   1      31.614  22.768  24.867  1.00  0.00     0.273 C 
BRANCH  16  17
ATOM     17  C   UNL A   1      31.780  21.489  24.048  1.00  0.00     0.161 C 
BRANCH  17  18
ATOM     18  C   UNL A   1      32.175  21.671  22.589  1.00  0.00     0.223 C 
ATOM     19  N   UNL A   1      31.669  20.816  21.661  1.00  0.00    -0.369 N 
ATOM     20  H   UNL A   1      31.913  20.918  20.712  1.00  0.00     0.159 HD
ATOM     21  H   UNL A   1      31.058  20.095  21.937  1.00  0.00     0.159 HD
ATOM     22  O   UNL A   1      32.931  22.575  22.237  1.00  0.00    -0.275 OA
ENDBRANCH  17  18
ENDBRANCH  16  17
ENDBRANCH   6  16
ENDBRANCH   3   5
ENDBRANCH   2   3
ENDBRANCH   1   2
BRANCH   1  23
ATOM     23  C   UNL A   1      36.619  20.560  25.031  1.00  0.00     0.275 C 
BRANCH  23  24
ATOM     24  O   UNL A   1      37.709  21.504  25.021  1.00  0.00    -0.458 OA
BRANCH  24  25
ATOM     25  C   UNL A   1      38.750  21.179  25.824  1.00  0.00     0.338 C 
ATOM     26  O   UNL A   1      39.225  20.063  25.970  1.00  0.00    -0.246 OA
BRANCH  25  27
ATOM     27  C   UNL A   1      39.373  22.377  26.421  1.00  0.00     0.060 A 
ATOM     28  C   UNL A   1      38.885  23.620  26.006  1.00  0.00     0.016 A 
ATOM     29  C   UNL A   1      40.486  22.308  27.261  1.00  0.00     0.016 A 
ATOM     30  C   UNL A   1      39.510  24.796  26.408  1.00  0.00     0.010 A 
ATOM     31  C   UNL A   1      41.120  23.495  27.662  1.00  0.00     0.010 A 
ATOM     32  C   UNL A   1      40.646  24.746  27.225  1.00  0.00    -0.014 A 
BRANCH  32  33
ATOM     33  C   UNL A   1      41.371  26.010  27.519  1.00  0.00     0.031 A 
ATOM     34  C   UNL A   1      40.731  27.046  28.402  1.00  0.00     0.074 A 
ATOM     35  C   UNL A   1      42.635  26.184  27.092  1.00  0.00     0.049 A 
ATOM     36  N   UNL A   1      41.178  28.221  28.765  1.00  0.00    -0.248 NA
ATOM     37  C   UNL A   1      39.415  26.703  28.958  1.00  0.00     0.031 C 
ATOM     38  C   UNL A   1      43.400  25.211  26.311  1.00  0.00     0.029 A 
ATOM     39  N   UNL A   1      43.508  27.228  27.273  1.00  0.00    -0.354 N 
ATOM     40  C   UNL A   1      40.197  28.766  29.585  1.00  0.00     0.074 A 
ATOM     41  C   UNL A   1      39.120  27.797  29.644  1.00  0.00     0.031 C 
ATOM     42  C   UNL A   1      44.636  25.695  26.100  1.00  0.00     0.029 A 
ATOM     43  C   UNL A   1      44.732  27.035  26.675  1.00  0.00     0.049 A 
ATOM     44  H   UNL A   1      43.279  28.039  27.782  1.00  0.00     0.167 HD
ATOM     45  C   UNL A   1      40.193  29.961  30.231  1.00  0.00     0.034 A 
ATOM     46  C   UNL A   1      45.795  27.859  26.574  1.00  0.00     0.034 A 
ATOM     47  C   UNL A   1      41.264  30.925  30.149  1.00  0.00     0.049 A 
ATOM     48  C   UNL A   1      45.717  29.234  27.190  1.00  0.00     0.074 A 
ATOM     49  C   UNL A   1      41.340  32.186  30.716  1.00  0.00     0.029 A 
ATOM     50  N   UNL A   1      42.449  30.739  29.447  1.00  0.00    -0.354 N 
ATOM     51  N   UNL A   1      44.752  29.768  27.903  1.00  0.00    -0.248 NA
ATOM     52  C   UNL A   1      46.866  30.123  26.972  1.00  0.00     0.031 C 
ATOM     53  C   UNL A   1      42.541  32.782  30.310  1.00  0.00     0.029 A 
ATOM     54  C   UNL A   1      43.246  31.870  29.542  1.00  0.00     0.049 A 
ATOM     55  H   UNL A   1      42.687  29.922  28.952  1.00  0.00     0.167 HD
ATOM     56  C   UNL A   1      45.186  31.049  28.231  1.00  0.00     0.074 A 
ATOM     57  C   UNL A   1      46.507  31.201  27.654  1.00  0.00     0.031 C 
ATOM     58  C   UNL A   1      44.553  32.015  28.945  1.00  0.00     0.034 A 
BRANCH  45  59
ATOM     59  C   UNL A   1      38.950  30.306  31.015  1.00  0.00     0.023 A 
ATOM     60  C   UNL A   1      37.888  31.028  30.440  1.00  0.00     0.031 A 
ATOM     61  C   UNL A   1      38.858  29.972  32.378  1.00  0.00     0.131 A 
ATOM     62  C   UNL A   1      36.822  31.460  31.244  1.00  0.00     0.055 A 
ATOM     63  C   UNL A   1      37.757  30.339  33.154  1.00  0.00     0.041 A 
ATOM     64  F   UNL A   1      39.852  29.305  32.986  1.00  0.00    -0.206 F 
ATOM     65  C   UNL A   1      36.738  31.104  32.591  1.00  0.00     0.022 A 
BRANCH  62  66
ATOM     66  S   UNL A   1      35.631  32.638  30.544  1.00  0.00     0.124 S 
ATOM     67  O   UNL A   1      34.441  32.370  31.349  1.00  0.00    -0.237 OA
ATOM     68  O   UNL A   1      36.284  33.921  30.777  1.00  0.00    -0.237 OA
ATOM     69  O   UNL A   1      35.529  32.232  29.144  1.00  0.00    -0.744 OA
ENDBRANCH  62  66
ENDBRANCH  45  59
BRANCH  46  70
ATOM     70  C   UNL A   1      47.005  27.444  25.806  1.00  0.00     0.023 A 
ATOM     71  C   UNL A   1      47.170  27.803  24.459  1.00  0.00     0.031 A 
ATOM     72  C   UNL A   1      47.988  26.628  26.396  1.00  0.00     0.131 A 
ATOM     73  C   UNL A   1      48.274  27.320  23.737  1.00  0.00     0.055 A 
ATOM     74  C   UNL A   1      49.110  26.196  25.690  1.00  0.00     0.041 A 
ATOM     75  F   UNL A   1      47.871  26.245  27.678  1.00  0.00    -0.206 F 
ATOM     76  C   UNL A   1      49.253  26.532  24.348  1.00  0.00     0.022 A 
BRANCH  73  77
ATOM     77  S   UNL A   1      48.372  27.669  21.960  1.00  0.00     0.124 S 
ATOM     78  O   UNL A   1      47.071  28.276  21.703  1.00  0.00    -0.237 OA
ATOM     79  O   UNL A   1      49.522  28.563  21.888  1.00  0.00    -0.237 OA
ATOM     80  O   UNL A   1      48.574  26.349  21.364  1.00  0.00    -0.744 OA
ENDBRANCH  73  77
ENDBRANCH  46  70
BRANCH  58  81
ATOM     81  C   UNL A   1      45.304  33.305  29.162  1.00  0.00     0.023 A 
ATOM     82  C   UNL A   1      45.272  34.346  28.217  1.00  0.00     0.031 A 
ATOM     83  C   UNL A   1      46.081  33.484  30.320  1.00  0.00     0.131 A 
ATOM     84  C   UNL A   1      46.044  35.500  28.424  1.00  0.00     0.055 A 
ATOM     85  C   UNL A   1      46.807  34.655  30.544  1.00  0.00     0.041 A 
ATOM     86  F   UNL A   1      46.147  32.521  31.254  1.00  0.00    -0.206 F 
ATOM     87  C   UNL A   1      46.801  35.666  29.587  1.00  0.00     0.022 A 
BRANCH  84  88
ATOM     88  S   UNL A   1      46.107  36.756  27.115  1.00  0.00     0.124 S 
ATOM     89  O   UNL A   1      44.852  37.472  27.319  1.00  0.00    -0.237 OA
ATOM     90  O   UNL A   1      47.323  37.492  27.448  1.00  0.00    -0.237 OA
ATOM     91  O   UNL A   1      46.179  35.968  25.886  1.00  0.00    -0.744 OA
ENDBRANCH  84  88
ENDBRANCH  58  81
ENDBRANCH  32  33
ENDBRANCH  25  27
ENDBRANCH  24  25
ENDBRANCH  23  24
ENDBRANCH   1  23
TORSDOF 17
ENDMDL
MODEL 2
REMARK VINA RESULT:     -11.2      1.588      2.020
REMARK SMILES NC(=O)CC[N@@H+]1[C@@H](C(=O)OCCOC(=O)c2ccc(-c3c4nc(c(-c5cc(S(=O)(=O)[O-])ccc5F)c5ccc([nH]5)c(-c5cc(S(=O)(=O)[O-])ccc5F)c5nc(c(-c6cc(S(=O)(=O)[O-])ccc6F)c6ccc3[nH]6)C=C5)C=C4)cc2)CC[C@@H]2CCCC[C@H]21
REMARK SMILES IDX 11 1 10 2 8 3 9 4 7 5 6 6 86 7 79 9 81 10 85 11 80 12 82 13
REMARK SMILES IDX 84 14 83 15 5 16 4 17 2 18 1 19 3 22 12 23 13 24 14 25 15 26
REMARK SMILES IDX 16 27 17 28 78 29 18 30 77 31 19 32 20 33 21 34 71 35 22 36
REMARK SMILES IDX 76 37 70 38 72 39 23 40 75 41 69 42 68 43 24 45 56 46 36 47
REMARK SMILES IDX 55 48 37 49 40 50 54 51 73 52 38 53 39 54 53 56 74 57 41 58
REMARK SMILES IDX 25 59 26 60 34 61 27 62 33 63 35 64 32 65 28 66 29 67 30 68
REMARK SMILES IDX 31 69 57 70 58 71 66 72 59 73 65 74 67 75 64 76 60 77 61 78
REMARK SMILES IDX 62 79 63 80 42 81 43 82 51 83 44 84 50 85 52 86 49 87 45 88
REMARK SMILES IDX 46 89 47 90 48 91
REMARK H PARENT 6 8 1 20 1 21 72 44 40 55
REMARK Flexibility Score: inf
ROOT
ATOM      1  C   UNL A   1      34.970  21.429  24.795  1.00  0.00     0.274 C 
ENDROOT
BRANCH   1   2
ATOM      2  O   UNL A   1      35.083  22.855  24.990  1.00  0.00    -0.458 OA
BRANCH   2   3
ATOM      3  C   UNL A   1      34.454  23.345  26.093  1.00  0.00     0.365 C 
ATOM      4  O   UNL A   1      34.685  22.929  27.224  1.00  0.00    -0.245 OA
BRANCH   3   5
ATOM      5  C   UNL A   1      33.498  24.523  25.827  1.00  0.00     0.295 C 
ATOM      6  N   UNL A   1      32.395  24.298  24.830  1.00  0.00    -0.320 N 
ATOM      7  C   UNL A   1      31.532  25.545  24.766  1.00  0.00     0.187 C 
ATOM      8  H   UNL A   1      32.903  24.072  23.976  1.00  0.00     0.349 HD
ATOM      9  C   UNL A   1      34.334  25.760  25.442  1.00  0.00     0.078 C 
ATOM     10  C   UNL A   1      32.319  26.856  24.507  1.00  0.00     0.048 C 
ATOM     11  C   UNL A   1      30.398  25.472  23.705  1.00  0.00     0.065 C 
ATOM     12  C   UNL A   1      33.486  27.014  25.471  1.00  0.00     0.016 C 
ATOM     13  C   UNL A   1      31.390  28.078  24.625  1.00  0.00     0.010 C 
ATOM     14  C   UNL A   1      29.468  26.682  23.791  1.00  0.00     0.006 C 
ATOM     15  C   UNL A   1      30.219  27.997  23.654  1.00  0.00     0.001 C 
BRANCH   6  16
ATOM     16  C   UNL A   1      31.465  23.146  25.051  1.00  0.00     0.273 C 
BRANCH  16  17
ATOM     17  C   UNL A   1      31.064  22.542  26.396  1.00  0.00     0.161 C 
BRANCH  17  18
ATOM     18  C   UNL A   1      29.718  22.981  26.955  1.00  0.00     0.223 C 
ATOM     19  N   UNL A   1      28.772  22.037  27.204  1.00  0.00    -0.369 N 
ATOM     20  H   UNL A   1      27.895  22.302  27.566  1.00  0.00     0.159 HD
ATOM     21  H   UNL A   1      28.963  21.088  27.022  1.00  0.00     0.159 HD
ATOM     22  O   UNL A   1      29.476  24.164  27.191  1.00  0.00    -0.275 OA
ENDBRANCH  17  18
ENDBRANCH  16  17
ENDBRANCH   6  16
ENDBRANCH   3   5
ENDBRANCH   2   3
ENDBRANCH   1   2
BRANCH   1  23
ATOM     23  C   UNL A   1      36.287  20.657  24.997  1.00  0.00     0.275 C 
BRANCH  23  24
ATOM     24  O   UNL A   1      37.468  21.475  24.861  1.00  0.00    -0.458 OA
BRANCH  24  25
ATOM     25  C   UNL A   1      38.506  21.110  25.651  1.00  0.00     0.338 C 
ATOM     26  O   UNL A   1      38.950  19.980  25.780  1.00  0.00    -0.246 OA
BRANCH  25  27
ATOM     27  C   UNL A   1      39.170  22.283  26.255  1.00  0.00     0.060 A 
ATOM     28  C   UNL A   1      38.600  23.535  26.003  1.00  0.00     0.016 A 
ATOM     29  C   UNL A   1      40.384  22.193  26.938  1.00  0.00     0.016 A 
ATOM     30  C   UNL A   1      39.240  24.700  26.413  1.00  0.00     0.010 A 
ATOM     31  C   UNL A   1      41.033  23.369  27.346  1.00  0.00     0.010 A 
ATOM     32  C   UNL A   1      40.474  24.631  27.072  1.00  0.00    -0.014 A 
BRANCH  32  33
ATOM     33  C   UNL A   1      41.197  25.896  27.369  1.00  0.00     0.031 A 
ATOM     34  C   UNL A   1      40.569  26.915  28.278  1.00  0.00     0.074 A 
ATOM     35  C   UNL A   1      42.451  26.082  26.918  1.00  0.00     0.049 A 
ATOM     36  N   UNL A   1      41.016  28.088  28.648  1.00  0.00    -0.248 NA
ATOM     37  C   UNL A   1      39.266  26.557  28.855  1.00  0.00     0.031 C 
ATOM     38  C   UNL A   1      43.206  25.124  26.109  1.00  0.00     0.029 A 
ATOM     39  N   UNL A   1      43.321  27.129  27.096  1.00  0.00    -0.354 N 
ATOM     40  C   UNL A   1      40.048  28.616  29.495  1.00  0.00     0.074 A 
ATOM     41  C   UNL A   1      38.978  27.640  29.562  1.00  0.00     0.031 C 
ATOM     42  C   UNL A   1      44.434  25.619  25.880  1.00  0.00     0.029 A 
ATOM     43  C   UNL A   1      44.534  26.952  26.471  1.00  0.00     0.049 A 
ATOM     44  H   UNL A   1      43.098  27.932  27.621  1.00  0.00     0.167 HD
ATOM     45  C   UNL A   1      40.050  29.802  30.157  1.00  0.00     0.034 A 
ATOM     46  C   UNL A   1      45.590  27.783  26.361  1.00  0.00     0.034 A 
ATOM     47  C   UNL A   1      41.114  30.774  30.067  1.00  0.00     0.049 A 
ATOM     48  C   UNL A   1      45.516  29.150  26.997  1.00  0.00     0.074 A 
ATOM     49  C   UNL A   1      41.195  32.027  30.649  1.00  0.00     0.029 A 
ATOM     50  N   UNL A   1      42.286  30.604  29.338  1.00  0.00    -0.354 N 
ATOM     51  N   UNL A   1      44.563  29.668  27.736  1.00  0.00    -0.248 NA
ATOM     52  C   UNL A   1      46.656  30.049  26.768  1.00  0.00     0.031 C 
ATOM     53  C   UNL A   1      42.384  32.636  30.228  1.00  0.00     0.029 A 
ATOM     54  C   UNL A   1      43.078  31.739  29.433  1.00  0.00     0.049 A 
ATOM     55  H   UNL A   1      42.518  29.795  28.828  1.00  0.00     0.167 HD
ATOM     56  C   UNL A   1      44.996  30.947  28.073  1.00  0.00     0.074 A 
ATOM     57  C   UNL A   1      46.304  31.115  27.472  1.00  0.00     0.031 C 
ATOM     58  C   UNL A   1      44.372  31.899  28.812  1.00  0.00     0.034 A 
BRANCH  45  59
ATOM     59  C   UNL A   1      38.822  30.129  30.970  1.00  0.00     0.023 A 
ATOM     60  C   UNL A   1      37.756  30.877  30.436  1.00  0.00     0.031 A 
ATOM     61  C   UNL A   1      38.747  29.750  32.322  1.00  0.00     0.131 A 
ATOM     62  C   UNL A   1      36.705  31.289  31.269  1.00  0.00     0.055 A 
ATOM     63  C   UNL A   1      37.660  30.098  33.126  1.00  0.00     0.041 A 
ATOM     64  F   UNL A   1      39.745  29.056  32.893  1.00  0.00    -0.206 F 
ATOM     65  C   UNL A   1      36.639  30.888  32.605  1.00  0.00     0.022 A 
BRANCH  62  66
ATOM     66  S   UNL A   1      35.513  32.498  30.627  1.00  0.00     0.124 S 
ATOM     67  O   UNL A   1      36.237  33.755  30.811  1.00  0.00    -0.237 OA
ATOM     68  O   UNL A   1      35.333  32.061  29.248  1.00  0.00    -0.237 OA
ATOM     69  O   UNL A   1      34.350  32.327  31.496  1.00  0.00    -0.744 OA
ENDBRANCH  62  66
ENDBRANCH  45  59
BRANCH  46  70
ATOM     70  C   UNL A   1      46.787  27.386  25.562  1.00  0.00     0.023 A 
ATOM     71  C   UNL A   1      46.959  27.827  24.240  1.00  0.00     0.031 A 
ATOM     72  C   UNL A   1      47.748  26.508  26.096  1.00  0.00     0.131 A 
ATOM     73  C   UNL A   1      48.048  27.361  23.485  1.00  0.00     0.055 A 
ATOM     74  C   UNL A   1      48.857  26.092  25.359  1.00  0.00     0.041 A 
ATOM     75  F   UNL A   1      47.624  26.047  27.350  1.00  0.00    -0.206 F 
ATOM     76  C   UNL A   1      49.006  26.509  24.041  1.00  0.00     0.022 A 
BRANCH  73  77
ATOM     77  S   UNL A   1      48.152  27.820  21.734  1.00  0.00     0.124 S 
ATOM     78  O   UNL A   1      49.305  28.713  21.727  1.00  0.00    -0.237 OA
ATOM     79  O   UNL A   1      48.340  26.525  21.090  1.00  0.00    -0.237 OA
ATOM     80  O   UNL A   1      46.864  28.462  21.472  1.00  0.00    -0.744 OA
ENDBRANCH  73  77
ENDBRANCH  46  70
BRANCH  58  81
ATOM     81  C   UNL A   1      45.120  33.191  29.031  1.00  0.00     0.023 A 
ATOM     82  C   UNL A   1      45.946  33.385  30.153  1.00  0.00     0.031 A 
ATOM     83  C   UNL A   1      44.986  34.249  28.116  1.00  0.00     0.131 A 
ATOM     84  C   UNL A   1      46.566  34.628  30.356  1.00  0.00     0.055 A 
ATOM     85  C   UNL A   1      45.644  35.466  28.298  1.00  0.00     0.041 A 
ATOM     86  F   UNL A   1      44.208  34.117  27.028  1.00  0.00    -0.206 F 
ATOM     87  C   UNL A   1      46.430  35.664  29.429  1.00  0.00     0.022 A 
BRANCH  84  88
ATOM     88  S   UNL A   1      47.496  34.900  31.891  1.00  0.00     0.124 S 
ATOM     89  O   UNL A   1      47.631  33.543  32.410  1.00  0.00    -0.237 OA
ATOM     90  O   UNL A   1      48.724  35.523  31.406  1.00  0.00    -0.237 OA
ATOM     91  O   UNL A   1      46.624  35.778  32.669  1.00  0.00    -0.744 OA
ENDBRANCH  84  88
ENDBRANCH  58  81
ENDBRANCH  32  33
ENDBRANCH  25  27
ENDBRANCH  24  25
ENDBRANCH  23  24
ENDBRANCH   1  23
TORSDOF 17
ENDMDL
MODEL 3
REMARK VINA RESULT:     -11.1      4.814      7.310
REMARK SMILES NC(=O)CC[N@@H+]1[C@@H](C(=O)OCCOC(=O)c2ccc(-c3c4nc(c(-c5cc(S(=O)(=O)[O-])ccc5F)c5ccc([nH]5)c(-c5cc(S(=O)(=O)[O-])ccc5F)c5nc(c(-c6cc(S(=O)(=O)[O-])ccc6F)c6ccc3[nH]6)C=C5)C=C4)cc2)CC[C@@H]2CCCC[C@H]21
REMARK SMILES IDX 11 1 10 2 8 3 9 4 7 5 6 6 86 7 79 9 81 10 85 11 80 12 82 13
REMARK SMILES IDX 84 14 83 15 5 16 4 17 2 18 1 19 3 22 12 23 13 24 14 25 15 26
REMARK SMILES IDX 16 27 17 28 78 29 18 30 77 31 19 32 20 33 21 34 71 35 22 36
REMARK SMILES IDX 76 37 70 38 72 39 23 40 75 41 69 42 68 43 24 45 56 46 36 47
REMARK SMILES IDX 55 48 37 49 40 50 54 51 73 52 38 53 39 54 53 56 74 57 41 58
REMARK SMILES IDX 25 59 26 60 34 61 27 62 33 63 35 64 32 65 28 66 29 67 30 68
REMARK SMILES IDX 31 69 57 70 58 71 66 72 59 73 65 74 67 75 64 76 60 77 61 78
REMARK SMILES IDX 62 79 63 80 42 81 43 82 51 83 44 84 50 85 52 86 49 87 45 88
REMARK SMILES IDX 46 89 47 90 48 91
REMARK H PARENT 6 8 1 20 1 21 72 44 40 55
REMARK Flexibility Score: inf
ROOT
ATOM      1  C   UNL A   1      41.707  20.281  26.044  1.00  0.00     0.274 C 
ENDROOT
BRANCH   1   2
ATOM      2  O   UNL A   1      42.782  21.041  26.637  1.00  0.00    -0.458 OA
BRANCH   2   3
ATOM      3  C   UNL A   1      43.003  22.266  26.088  1.00  0.00     0.365 C 
ATOM      4  O   UNL A   1      42.596  22.573  24.972  1.00  0.00    -0.245 OA
BRANCH   3   5
ATOM      5  C   UNL A   1      43.722  23.270  27.008  1.00  0.00     0.295 C 
ATOM      6  N   UNL A   1      45.206  23.428  26.823  1.00  0.00    -0.320 N 
ATOM      7  C   UNL A   1      45.706  24.504  27.769  1.00  0.00     0.187 C 
ATOM      8  H   UNL A   1      45.558  22.487  27.003  1.00  0.00     0.349 HD
ATOM      9  C   UNL A   1      43.391  22.923  28.473  1.00  0.00     0.078 C 
ATOM     10  C   UNL A   1      45.304  24.291  29.252  1.00  0.00     0.048 C 
ATOM     11  C   UNL A   1      47.247  24.706  27.736  1.00  0.00     0.065 C 
ATOM     12  C   UNL A   1      43.810  24.043  29.402  1.00  0.00     0.016 C 
ATOM     13  C   UNL A   1      45.708  25.509  30.102  1.00  0.00     0.010 C 
ATOM     14  C   UNL A   1      47.677  25.902  28.584  1.00  0.00     0.006 C 
ATOM     15  C   UNL A   1      47.203  25.786  30.025  1.00  0.00     0.001 C 
BRANCH   6  16
ATOM     16  C   UNL A   1      45.717  23.784  25.462  1.00  0.00     0.273 C 
BRANCH  16  17
ATOM     17  C   UNL A   1      46.342  22.831  24.444  1.00  0.00     0.161 C 
BRANCH  17  18
ATOM     18  C   UNL A   1      45.910  21.374  24.534  1.00  0.00     0.223 C 
ATOM     19  N   UNL A   1      44.990  20.907  23.648  1.00  0.00    -0.369 N 
ATOM     20  H   UNL A   1      44.698  19.968  23.690  1.00  0.00     0.159 HD
ATOM     21  H   UNL A   1      44.615  21.509  22.964  1.00  0.00     0.159 HD
ATOM     22  O   UNL A   1      46.380  20.616  25.380  1.00  0.00    -0.275 OA
ENDBRANCH  17  18
ENDBRANCH  16  17
ENDBRANCH   6  16
ENDBRANCH   3   5
ENDBRANCH   2   3
ENDBRANCH   1   2
BRANCH   1  23
ATOM     23  C   UNL A   1      40.351  20.444  26.756  1.00  0.00     0.275 C 
BRANCH  23  24
ATOM     24  O   UNL A   1      40.155  21.745  27.346  1.00  0.00    -0.458 OA
BRANCH  24  25
ATOM     25  C   UNL A   1      39.405  22.598  26.605  1.00  0.00     0.338 C 
ATOM     26  O   UNL A   1      38.588  22.284  25.754  1.00  0.00    -0.246 OA
BRANCH  25  27
ATOM     27  C   UNL A   1      39.574  23.996  27.048  1.00  0.00     0.060 A 
ATOM     28  C   UNL A   1      40.128  24.891  26.127  1.00  0.00     0.016 A 
ATOM     29  C   UNL A   1      39.328  24.407  28.359  1.00  0.00     0.016 A 
ATOM     30  C   UNL A   1      40.454  26.189  26.508  1.00  0.00     0.010 A 
ATOM     31  C   UNL A   1      39.662  25.715  28.746  1.00  0.00     0.010 A 
ATOM     32  C   UNL A   1      40.242  26.609  27.827  1.00  0.00    -0.014 A 
BRANCH  32  33
ATOM     33  C   UNL A   1      40.731  27.952  28.236  1.00  0.00     0.031 A 
ATOM     34  C   UNL A   1      39.756  28.970  28.761  1.00  0.00     0.074 A 
ATOM     35  C   UNL A   1      42.050  28.222  28.244  1.00  0.00     0.049 A 
ATOM     36  N   UNL A   1      39.967  30.202  29.149  1.00  0.00    -0.248 NA
ATOM     37  C   UNL A   1      38.358  28.534  28.871  1.00  0.00     0.031 C 
ATOM     38  C   UNL A   1      43.102  27.284  27.851  1.00  0.00     0.029 A 
ATOM     39  N   UNL A   1      42.731  29.354  28.615  1.00  0.00    -0.354 N 
ATOM     40  C   UNL A   1      38.728  30.696  29.542  1.00  0.00     0.074 A 
ATOM     41  C   UNL A   1      37.768  29.632  29.321  1.00  0.00     0.031 C 
ATOM     42  C   UNL A   1      44.298  27.873  28.025  1.00  0.00     0.029 A 
ATOM     43  C   UNL A   1      44.096  29.247  28.481  1.00  0.00     0.049 A 
ATOM     44  H   UNL A   1      42.284  30.167  28.946  1.00  0.00     0.167 HD
ATOM     45  C   UNL A   1      38.419  31.920  30.043  1.00  0.00     0.034 A 
ATOM     46  C   UNL A   1      45.068  30.162  28.671  1.00  0.00     0.034 A 
ATOM     47  C   UNL A   1      39.382  32.977  30.241  1.00  0.00     0.049 A 
ATOM     48  C   UNL A   1      44.686  31.557  29.103  1.00  0.00     0.074 A 
ATOM     49  C   UNL A   1      39.170  34.270  30.689  1.00  0.00     0.029 A 
ATOM     50  N   UNL A   1      40.746  32.866  29.995  1.00  0.00    -0.354 N 
ATOM     51  N   UNL A   1      43.501  32.035  29.402  1.00  0.00    -0.248 NA
ATOM     52  C   UNL A   1      45.774  32.539  29.206  1.00  0.00     0.031 C 
ATOM     53  C   UNL A   1      40.392  34.955  30.659  1.00  0.00     0.029 A 
ATOM     54  C   UNL A   1      41.380  34.072  30.254  1.00  0.00     0.049 A 
ATOM     55  H   UNL A   1      41.196  32.049  29.681  1.00  0.00     0.167 HD
ATOM     56  C   UNL A   1      43.704  33.369  29.745  1.00  0.00     0.074 A 
ATOM     57  C   UNL A   1      45.128  33.614  29.632  1.00  0.00     0.031 C 
ATOM     58  C   UNL A   1      42.798  34.308  30.118  1.00  0.00     0.034 A 
BRANCH  45  59
ATOM     59  C   UNL A   1      36.963  32.188  30.332  1.00  0.00     0.023 A 
ATOM     60  C   UNL A   1      36.085  32.665  29.341  1.00  0.00     0.031 A 
ATOM     61  C   UNL A   1      36.461  32.033  31.637  1.00  0.00     0.131 A 
ATOM     62  C   UNL A   1      34.780  33.046  29.688  1.00  0.00     0.055 A 
ATOM     63  C   UNL A   1      35.138  32.342  31.959  1.00  0.00     0.041 A 
ATOM     64  F   UNL A   1      37.258  31.605  32.629  1.00  0.00    -0.206 F 
ATOM     65  C   UNL A   1      34.294  32.869  30.985  1.00  0.00     0.022 A 
BRANCH  62  66
ATOM     66  S   UNL A   1      33.782  33.936  28.461  1.00  0.00     0.124 S 
ATOM     67  O   UNL A   1      34.780  34.802  27.837  1.00  0.00    -0.237 OA
ATOM     68  O   UNL A   1      33.266  32.854  27.631  1.00  0.00    -0.237 OA
ATOM     69  O   UNL A   1      32.784  34.633  29.271  1.00  0.00    -0.744 OA
ENDBRANCH  62  66
ENDBRANCH  45  59
BRANCH  46  70
ATOM     70  C   UNL A   1      46.494  29.823  28.391  1.00  0.00     0.023 A 
ATOM     71  C   UNL A   1      47.366  29.436  29.421  1.00  0.00     0.031 A 
ATOM     72  C   UNL A   1      47.019  29.939  27.091  1.00  0.00     0.131 A 
ATOM     73  C   UNL A   1      48.724  29.212  29.139  1.00  0.00     0.055 A 
ATOM     74  C   UNL A   1      48.356  29.663  26.807  1.00  0.00     0.041 A 
ATOM     75  F   UNL A   1      46.231  30.318  26.071  1.00  0.00    -0.206 F 
ATOM     76  C   UNL A   1      49.221  29.308  27.837  1.00  0.00     0.022 A 
BRANCH  73  77
ATOM     77  S   UNL A   1      49.854  28.873  30.517  1.00  0.00     0.124 S 
ATOM     78  O   UNL A   1      50.565  30.141  30.638  1.00  0.00    -0.237 OA
ATOM     79  O   UNL A   1      48.928  28.551  31.598  1.00  0.00    -0.237 OA
ATOM     80  O   UNL A   1      50.656  27.751  30.032  1.00  0.00    -0.744 OA
ENDBRANCH  73  77
ENDBRANCH  46  70
BRANCH  58  81
ATOM     81  C   UNL A   1      43.336  35.675  30.461  1.00  0.00     0.023 A 
ATOM     82  C   UNL A   1      43.593  36.056  31.791  1.00  0.00     0.031 A 
ATOM     83  C   UNL A   1      43.574  36.616  29.444  1.00  0.00     0.131 A 
ATOM     84  C   UNL A   1      44.025  37.362  32.072  1.00  0.00     0.055 A 
ATOM     85  C   UNL A   1      44.050  37.898  29.726  1.00  0.00     0.041 A 
ATOM     86  F   UNL A   1      43.344  36.305  28.158  1.00  0.00    -0.206 F 
ATOM     87  C   UNL A   1      44.266  38.280  31.047  1.00  0.00     0.022 A 
BRANCH  84  88
ATOM     88  S   UNL A   1      44.194  37.872  33.805  1.00  0.00     0.124 S 
ATOM     89  O   UNL A   1      45.372  37.122  34.230  1.00  0.00    -0.237 OA
ATOM     90  O   UNL A   1      44.366  39.317  33.689  1.00  0.00    -0.237 OA
ATOM     91  O   UNL A   1      42.936  37.447  34.414  1.00  0.00    -0.744 OA
ENDBRANCH  84  88
ENDBRANCH  58  81
ENDBRANCH  32  33
ENDBRANCH  25  27
ENDBRANCH  24  25
ENDBRANCH  23  24
ENDBRANCH   1  23
TORSDOF 17
ENDMDL
