MODEL 1
REMARK VINA RESULT:     -11.6      0.000      0.000
REMARK SMILES O=C(OCCOC(=O)[C@@H]1CN(c2nccc(N3CCC(O)CC3)n2)CC[NH2+]1)c1ccc(-c2c3nc(c(-c4cc(S(=O)(=O)[O-])ccc4F)c4ccc([nH]4)c(-c4cc(S(=O)(=O)[O-])ccc4F)c4nc(c(-c5cc(S(=O)(=O)[O-])ccc5F)c5ccc2[nH]5)C=C4)C=C3)cc1
REMARK SMILES IDX 4 1 3 2 2 3 1 4 28 5 29 6 90 7 30 8 89 9 31 10 32 11 33 12
REMARK SMILES IDX 83 13 34 14 88 15 82 16 84 17 35 18 87 19 81 20 80 21 36 23
REMARK SMILES IDX 68 24 48 25 67 26 49 27 52 28 66 29 85 30 50 31 51 32 65 34
REMARK SMILES IDX 86 35 53 36 37 37 38 38 46 39 39 40 45 41 47 42 44 43 40 44
REMARK SMILES IDX 41 45 42 46 43 47 69 48 70 49 78 50 71 51 77 52 79 53 76 54
REMARK SMILES IDX 72 55 73 56 74 57 75 58 54 59 55 60 63 61 56 62 62 63 64 64
REMARK SMILES IDX 61 65 57 66 58 67 59 68 60 69 5 70 6 71 7 72 8 73 9 74 10 75
REMARK SMILES IDX 27 76 11 77 26 78 25 81 12 82 13 83 24 84 14 85 16 86 15 87
REMARK SMILES IDX 17 88 18 89 23 90 19 91 22 92 20 93 21 94
REMARK H PARENT 84 22 52 33 27 79 27 80 21 95
REMARK Flexibility Score: inf
ROOT
ATOM      1  C   UNL A   1      37.227  22.576  25.614  1.00  0.00     0.275 C 
ENDROOT
BRANCH   1   2
ATOM      2  O   UNL A   1      38.544  22.051  25.819  1.00  0.00    -0.458 OA
BRANCH   2   3
ATOM      3  C   UNL A   1      39.503  22.477  26.676  1.00  0.00     0.338 C 
ATOM      4  O   UNL A   1      40.012  21.642  27.424  1.00  0.00    -0.246 OA
BRANCH   3   5
ATOM      5  C   UNL A   1      39.881  23.922  26.873  1.00  0.00     0.060 A 
ATOM      6  C   UNL A   1      40.365  24.821  25.911  1.00  0.00     0.016 A 
ATOM      7  C   UNL A   1      39.657  24.428  28.163  1.00  0.00     0.016 A 
ATOM      8  C   UNL A   1      40.546  26.186  26.191  1.00  0.00     0.010 A 
ATOM      9  C   UNL A   1      39.800  25.792  28.437  1.00  0.00     0.010 A 
ATOM     10  C   UNL A   1      40.253  26.690  27.453  1.00  0.00    -0.014 A 
BRANCH  10  11
ATOM     11  C   UNL A   1      40.597  28.080  27.859  1.00  0.00     0.031 A 
ATOM     12  C   UNL A   1      42.054  28.373  28.056  1.00  0.00     0.074 A 
ATOM     13  C   UNL A   1      39.682  29.030  28.133  1.00  0.00     0.049 A 
ATOM     14  N   UNL A   1      42.633  29.365  28.671  1.00  0.00    -0.248 NA
ATOM     15  C   UNL A   1      42.981  27.366  27.511  1.00  0.00     0.031 C 
ATOM     16  C   UNL A   1      38.243  28.931  27.905  1.00  0.00     0.029 A 
ATOM     17  N   UNL A   1      39.825  30.253  28.751  1.00  0.00    -0.354 N 
ATOM     18  C   UNL A   1      43.993  29.102  28.574  1.00  0.00     0.074 A 
ATOM     19  C   UNL A   1      44.132  27.781  28.003  1.00  0.00     0.031 C 
ATOM     20  C   UNL A   1      37.628  29.973  28.491  1.00  0.00     0.029 A 
ATOM     21  C   UNL A   1      38.624  30.812  29.133  1.00  0.00     0.049 A 
ATOM     22  H   UNL A   1      40.698  30.684  28.903  1.00  0.00     0.167 HD
ATOM     23  C   UNL A   1      45.034  29.924  28.849  1.00  0.00     0.034 A 
ATOM     24  C   UNL A   1      38.361  31.853  29.947  1.00  0.00     0.034 A 
ATOM     25  C   UNL A   1      44.865  31.233  29.415  1.00  0.00     0.049 A 
ATOM     26  C   UNL A   1      39.519  32.674  30.443  1.00  0.00     0.074 A 
ATOM     27  C   UNL A   1      45.821  32.186  29.706  1.00  0.00     0.029 A 
ATOM     28  N   UNL A   1      43.636  31.767  29.794  1.00  0.00    -0.354 N 
ATOM     29  N   UNL A   1      40.804  32.451  30.309  1.00  0.00    -0.248 NA
ATOM     30  C   UNL A   1      39.188  33.926  31.136  1.00  0.00     0.031 C 
ATOM     31  C   UNL A   1      45.180  33.268  30.321  1.00  0.00     0.029 A 
ATOM     32  C   UNL A   1      43.814  33.025  30.340  1.00  0.00     0.049 A 
ATOM     33  H   UNL A   1      42.769  31.316  29.687  1.00  0.00     0.167 HD
ATOM     34  C   UNL A   1      41.436  33.579  30.817  1.00  0.00     0.074 A 
ATOM     35  C   UNL A   1      40.391  34.454  31.314  1.00  0.00     0.031 C 
ATOM     36  C   UNL A   1      42.757  33.885  30.818  1.00  0.00     0.034 A 
BRANCH  23  37
ATOM     37  C   UNL A   1      46.406  29.385  28.530  1.00  0.00     0.023 A 
ATOM     38  C   UNL A   1      46.817  29.212  27.193  1.00  0.00     0.031 A 
ATOM     39  C   UNL A   1      47.239  28.889  29.543  1.00  0.00     0.131 A 
ATOM     40  C   UNL A   1      47.931  28.414  26.904  1.00  0.00     0.055 A 
ATOM     41  C   UNL A   1      48.417  28.199  29.248  1.00  0.00     0.041 A 
ATOM     42  F   UNL A   1      46.894  29.011  30.835  1.00  0.00    -0.206 F 
ATOM     43  C   UNL A   1      48.751  27.927  27.922  1.00  0.00     0.022 A 
BRANCH  40  44
ATOM     44  S   UNL A   1      48.132  27.812  25.201  1.00  0.00     0.124 S 
ATOM     45  O   UNL A   1      47.175  28.649  24.479  1.00  0.00    -0.237 OA
ATOM     46  O   UNL A   1      49.540  28.081  24.934  1.00  0.00    -0.237 OA
ATOM     47  O   UNL A   1      47.769  26.400  25.292  1.00  0.00    -0.744 OA
ENDBRANCH  40  44
ENDBRANCH  23  37
BRANCH  24  48
ATOM     48  C   UNL A   1      36.977  32.186  30.386  1.00  0.00     0.023 A 
ATOM     49  C   UNL A   1      36.114  32.959  29.594  1.00  0.00     0.031 A 
ATOM     50  C   UNL A   1      36.546  31.819  31.674  1.00  0.00     0.131 A 
ATOM     51  C   UNL A   1      34.876  33.376  30.115  1.00  0.00     0.055 A 
ATOM     52  C   UNL A   1      35.305  32.219  32.177  1.00  0.00     0.041 A 
ATOM     53  F   UNL A   1      37.340  31.091  32.473  1.00  0.00    -0.206 F 
ATOM     54  C   UNL A   1      34.463  33.005  31.398  1.00  0.00     0.022 A 
BRANCH  51  55
ATOM     55  S   UNL A   1      33.816  34.456  29.111  1.00  0.00     0.124 S 
ATOM     56  O   UNL A   1      33.249  33.512  28.156  1.00  0.00    -0.237 OA
ATOM     57  O   UNL A   1      32.896  34.997  30.105  1.00  0.00    -0.237 OA
ATOM     58  O   UNL A   1      34.757  35.426  28.552  1.00  0.00    -0.744 OA
ENDBRANCH  51  55
ENDBRANCH  24  48
BRANCH  36  59
ATOM     59  C   UNL A   1      43.142  35.269  31.260  1.00  0.00     0.023 A 
ATOM     60  C   UNL A   1      43.252  35.622  32.614  1.00  0.00     0.031 A 
ATOM     61  C   UNL A   1      43.440  36.241  30.287  1.00  0.00     0.131 A 
ATOM     62  C   UNL A   1      43.627  36.929  32.956  1.00  0.00     0.055 A 
ATOM     63  C   UNL A   1      43.873  37.518  30.635  1.00  0.00     0.041 A 
ATOM     64  F   UNL A   1      43.335  35.953  28.979  1.00  0.00    -0.206 F 
ATOM     65  C   UNL A   1      43.964  37.870  31.978  1.00  0.00     0.022 A 
BRANCH  62  66
ATOM     66  S   UNL A   1      43.616  37.404  34.705  1.00  0.00     0.124 S 
ATOM     67  O   UNL A   1      44.748  36.647  35.229  1.00  0.00    -0.237 OA
ATOM     68  O   UNL A   1      43.792  38.851  34.639  1.00  0.00    -0.237 OA
ATOM     69  O   UNL A   1      42.304  36.961  35.171  1.00  0.00    -0.744 OA
ENDBRANCH  62  66
ENDBRANCH  36  59
ENDBRANCH  10  11
ENDBRANCH   3   5
ENDBRANCH   2   3
ENDBRANCH   1   2
BRANCH   1  70
ATOM     70  C   UNL A   1      36.514  21.971  24.403  1.00  0.00     0.274 C 
BRANCH  70  71
ATOM     71  O   UNL A   1      35.160  22.434  24.251  1.00  0.00    -0.458 OA
BRANCH  71  72
ATOM     72  C   UNL A   1      34.165  21.587  24.655  1.00  0.00     0.366 C 
ATOM     73  O   UNL A   1      34.302  20.371  24.771  1.00  0.00    -0.245 OA
BRANCH  72  74
ATOM     74  C   UNL A   1      32.853  22.327  24.957  1.00  0.00     0.313 C 
ATOM     75  C   UNL A   1      33.141  23.598  25.780  1.00  0.00     0.197 C 
ATOM     76  N   UNL A   1      31.891  21.408  25.632  1.00  0.00    -0.332 N 
ATOM     77  N   UNL A   1      31.912  24.227  26.233  1.00  0.00    -0.328 N 
ATOM     78  C   UNL A   1      30.631  22.134  25.917  1.00  0.00     0.283 C 
ATOM     79  H   UNL A   1      32.297  21.075  26.507  1.00  0.00     0.347 HD
ATOM     80  H   UNL A   1      31.697  20.612  25.025  1.00  0.00     0.347 HD
ATOM     81  C   UNL A   1      30.822  23.416  26.749  1.00  0.00     0.181 C 
BRANCH  77  82
ATOM     82  C   UNL A   1      31.571  25.413  25.643  1.00  0.00     0.227 A 
ATOM     83  N   UNL A   1      30.340  25.494  25.130  1.00  0.00    -0.221 NA
ATOM     84  N   UNL A   1      32.454  26.418  25.650  1.00  0.00    -0.196 NA
ATOM     85  C   UNL A   1      30.023  26.616  24.482  1.00  0.00     0.119 A 
ATOM     86  C   UNL A   1      32.078  27.569  25.072  1.00  0.00     0.134 A 
ATOM     87  C   UNL A   1      30.865  27.690  24.418  1.00  0.00     0.067 A 
BRANCH  86  88
ATOM     88  N   UNL A   1      32.908  28.685  25.176  1.00  0.00    -0.356 N 
ATOM     89  C   UNL A   1      32.223  29.951  25.427  1.00  0.00     0.121 C 
ATOM     90  C   UNL A   1      34.235  28.494  25.759  1.00  0.00     0.121 C 
ATOM     91  C   UNL A   1      32.188  30.247  26.925  1.00  0.00     0.053 C 
ATOM     92  C   UNL A   1      34.262  28.848  27.246  1.00  0.00     0.053 C 
ATOM     93  C   UNL A   1      33.588  30.188  27.531  1.00  0.00     0.118 C 
BRANCH  93  94
ATOM     94  O   UNL A   1      34.382  31.276  27.053  1.00  0.00    -0.393 OA
ATOM     95  H   UNL A   1      35.317  31.104  27.245  1.00  0.00     0.210 HD
ENDBRANCH  93  94
ENDBRANCH  86  88
ENDBRANCH  77  82
ENDBRANCH  72  74
ENDBRANCH  71  72
ENDBRANCH  70  71
ENDBRANCH   1  70
TORSDOF 17
ENDMDL
MODEL 2
REMARK VINA RESULT:     -11.5      4.559      8.254
REMARK SMILES O=C(OCCOC(=O)[C@@H]1CN(c2nccc(N3CCC(O)CC3)n2)CC[NH2+]1)c1ccc(-c2c3nc(c(-c4cc(S(=O)(=O)[O-])ccc4F)c4ccc([nH]4)c(-c4cc(S(=O)(=O)[O-])ccc4F)c4nc(c(-c5cc(S(=O)(=O)[O-])ccc5F)c5ccc2[nH]5)C=C4)C=C3)cc1
REMARK SMILES IDX 4 1 3 2 2 3 1 4 28 5 29 6 90 7 30 8 89 9 31 10 32 11 33 12
REMARK SMILES IDX 83 13 34 14 88 15 82 16 84 17 35 18 87 19 81 20 80 21 36 23
REMARK SMILES IDX 68 24 48 25 67 26 49 27 52 28 66 29 85 30 50 31 51 32 65 34
REMARK SMILES IDX 86 35 53 36 37 37 38 38 46 39 39 40 45 41 47 42 44 43 40 44
REMARK SMILES IDX 41 45 42 46 43 47 69 48 70 49 78 50 71 51 77 52 79 53 76 54
REMARK SMILES IDX 72 55 73 56 74 57 75 58 54 59 55 60 63 61 56 62 62 63 64 64
REMARK SMILES IDX 61 65 57 66 58 67 59 68 60 69 5 70 6 71 7 72 8 73 9 74 10 75
REMARK SMILES IDX 27 76 11 77 26 78 25 81 12 82 13 83 24 84 14 85 16 86 15 87
REMARK SMILES IDX 17 88 18 89 23 90 19 91 22 92 20 93 21 94
REMARK H PARENT 84 22 52 33 27 79 27 80 21 95
REMARK Flexibility Score: inf
ROOT
ATOM      1  C   UNL A   1      31.522  32.322  26.903  1.00  0.00     0.275 C 
ENDROOT
BRANCH   1   2
ATOM      2  O   UNL A   1      32.550  33.313  27.012  1.00  0.00    -0.458 OA
BRANCH   2   3
ATOM      3  C   UNL A   1      33.060  33.886  28.129  1.00  0.00     0.338 C 
ATOM      4  O   UNL A   1      32.440  34.828  28.623  1.00  0.00    -0.246 OA
BRANCH   3   5
ATOM      5  C   UNL A   1      34.403  33.544  28.718  1.00  0.00     0.060 A 
ATOM      6  C   UNL A   1      35.616  34.229  28.548  1.00  0.00     0.016 A 
ATOM      7  C   UNL A   1      34.412  32.440  29.587  1.00  0.00     0.016 A 
ATOM      8  C   UNL A   1      36.773  33.888  29.268  1.00  0.00     0.010 A 
ATOM      9  C   UNL A   1      35.550  32.120  30.334  1.00  0.00     0.010 A 
ATOM     10  C   UNL A   1      36.750  32.839  30.180  1.00  0.00    -0.014 A 
BRANCH  10  11
ATOM     11  C   UNL A   1      37.983  32.318  30.831  1.00  0.00     0.031 A 
ATOM     12  C   UNL A   1      38.662  31.170  30.144  1.00  0.00     0.074 A 
ATOM     13  C   UNL A   1      38.450  32.759  32.015  1.00  0.00     0.049 A 
ATOM     14  N   UNL A   1      39.552  30.333  30.596  1.00  0.00    -0.248 NA
ATOM     15  C   UNL A   1      38.230  30.916  28.760  1.00  0.00     0.031 C 
ATOM     16  C   UNL A   1      37.959  33.917  32.756  1.00  0.00     0.029 A 
ATOM     17  N   UNL A   1      39.403  32.222  32.852  1.00  0.00    -0.354 N 
ATOM     18  C   UNL A   1      39.792  29.461  29.542  1.00  0.00     0.074 A 
ATOM     19  C   UNL A   1      38.829  29.769  28.508  1.00  0.00     0.031 C 
ATOM     20  C   UNL A   1      38.512  33.926  33.982  1.00  0.00     0.029 A 
ATOM     21  C   UNL A   1      39.394  32.780  34.114  1.00  0.00     0.049 A 
ATOM     22  H   UNL A   1      40.029  31.512  32.577  1.00  0.00     0.167 HD
ATOM     23  C   UNL A   1      40.784  28.549  29.409  1.00  0.00     0.034 A 
ATOM     24  C   UNL A   1      39.992  32.380  35.253  1.00  0.00     0.034 A 
ATOM     25  C   UNL A   1      41.728  28.267  30.454  1.00  0.00     0.049 A 
ATOM     26  C   UNL A   1      40.955  31.228  35.181  1.00  0.00     0.074 A 
ATOM     27  C   UNL A   1      42.805  27.402  30.444  1.00  0.00     0.029 A 
ATOM     28  N   UNL A   1      41.688  28.846  31.720  1.00  0.00    -0.354 N 
ATOM     29  N   UNL A   1      41.216  30.435  34.171  1.00  0.00    -0.248 NA
ATOM     30  C   UNL A   1      41.755  30.965  36.384  1.00  0.00     0.031 C 
ATOM     31  C   UNL A   1      43.376  27.409  31.722  1.00  0.00     0.029 A 
ATOM     32  C   UNL A   1      42.706  28.337  32.506  1.00  0.00     0.049 A 
ATOM     33  H   UNL A   1      41.033  29.519  32.011  1.00  0.00     0.167 HD
ATOM     34  C   UNL A   1      42.278  29.640  34.582  1.00  0.00     0.074 A 
ATOM     35  C   UNL A   1      42.567  30.009  35.955  1.00  0.00     0.031 C 
ATOM     36  C   UNL A   1      42.984  28.728  33.868  1.00  0.00     0.034 A 
BRANCH  23  37
ATOM     37  C   UNL A   1      40.848  27.828  28.086  1.00  0.00     0.023 A 
ATOM     38  C   UNL A   1      40.414  26.491  27.974  1.00  0.00     0.031 A 
ATOM     39  C   UNL A   1      41.489  28.406  26.981  1.00  0.00     0.131 A 
ATOM     40  C   UNL A   1      40.780  25.731  26.856  1.00  0.00     0.055 A 
ATOM     41  C   UNL A   1      41.740  27.675  25.818  1.00  0.00     0.041 A 
ATOM     42  F   UNL A   1      41.935  29.671  27.032  1.00  0.00    -0.206 F 
ATOM     43  C   UNL A   1      41.418  26.320  25.763  1.00  0.00     0.022 A 
BRANCH  40  44
ATOM     44  S   UNL A   1      40.644  23.923  26.970  1.00  0.00     0.124 S 
ATOM     45  O   UNL A   1      41.675  23.491  26.029  1.00  0.00    -0.237 OA
ATOM     46  O   UNL A   1      40.924  23.672  28.379  1.00  0.00    -0.237 OA
ATOM     47  O   UNL A   1      39.272  23.656  26.546  1.00  0.00    -0.744 OA
ENDBRANCH  40  44
ENDBRANCH  23  37
BRANCH  24  48
ATOM     48  C   UNL A   1      39.703  33.022  36.566  1.00  0.00     0.023 A 
ATOM     49  C   UNL A   1      38.787  32.469  37.476  1.00  0.00     0.031 A 
ATOM     50  C   UNL A   1      40.267  34.274  36.871  1.00  0.00     0.131 A 
ATOM     51  C   UNL A   1      38.432  33.187  38.631  1.00  0.00     0.055 A 
ATOM     52  C   UNL A   1      39.926  34.973  38.032  1.00  0.00     0.041 A 
ATOM     53  F   UNL A   1      41.137  34.849  36.027  1.00  0.00    -0.206 F 
ATOM     54  C   UNL A   1      39.000  34.432  38.919  1.00  0.00     0.022 A 
BRANCH  51  55
ATOM     55  S   UNL A   1      37.175  32.499  39.746  1.00  0.00     0.124 S 
ATOM     56  O   UNL A   1      37.003  33.583  40.705  1.00  0.00    -0.237 OA
ATOM     57  O   UNL A   1      36.057  32.258  38.839  1.00  0.00    -0.237 OA
ATOM     58  O   UNL A   1      37.813  31.292  40.269  1.00  0.00    -0.744 OA
ENDBRANCH  51  55
ENDBRANCH  24  48
BRANCH  36  59
ATOM     59  C   UNL A   1      44.214  28.153  34.512  1.00  0.00     0.023 A 
ATOM     60  C   UNL A   1      44.195  26.940  35.217  1.00  0.00     0.031 A 
ATOM     61  C   UNL A   1      45.439  28.831  34.376  1.00  0.00     0.131 A 
ATOM     62  C   UNL A   1      45.382  26.454  35.784  1.00  0.00     0.055 A 
ATOM     63  C   UNL A   1      46.626  28.310  34.887  1.00  0.00     0.041 A 
ATOM     64  F   UNL A   1      45.503  30.002  33.721  1.00  0.00    -0.206 F 
ATOM     65  C   UNL A   1      46.600  27.117  35.602  1.00  0.00     0.022 A 
BRANCH  62  66
ATOM     66  S   UNL A   1      45.305  24.967  36.817  1.00  0.00     0.124 S 
ATOM     67  O   UNL A   1      46.133  24.033  36.061  1.00  0.00    -0.237 OA
ATOM     68  O   UNL A   1      45.861  25.434  38.082  1.00  0.00    -0.237 OA
ATOM     69  O   UNL A   1      43.879  24.647  36.849  1.00  0.00    -0.744 OA
ENDBRANCH  62  66
ENDBRANCH  36  59
ENDBRANCH  10  11
ENDBRANCH   3   5
ENDBRANCH   2   3
ENDBRANCH   1   2
BRANCH   1  70
ATOM     70  C   UNL A   1      32.061  30.891  26.870  1.00  0.00     0.274 C 
BRANCH  70  71
ATOM     71  O   UNL A   1      33.489  30.825  26.706  1.00  0.00    -0.458 OA
BRANCH  71  72
ATOM     72  C   UNL A   1      34.070  29.591  26.810  1.00  0.00     0.366 C 
ATOM     73  O   UNL A   1      34.968  29.318  27.604  1.00  0.00    -0.245 OA
BRANCH  72  74
ATOM     74  C   UNL A   1      33.466  28.575  25.827  1.00  0.00     0.313 C 
ATOM     75  C   UNL A   1      34.005  27.163  26.130  1.00  0.00     0.197 C 
ATOM     76  N   UNL A   1      33.731  29.004  24.423  1.00  0.00    -0.332 N 
ATOM     77  N   UNL A   1      33.594  26.209  25.114  1.00  0.00    -0.328 N 
ATOM     78  C   UNL A   1      33.143  28.016  23.487  1.00  0.00     0.283 C 
ATOM     79  H   UNL A   1      34.737  29.061  24.269  1.00  0.00     0.347 HD
ATOM     80  H   UNL A   1      33.310  29.919  24.261  1.00  0.00     0.347 HD
ATOM     81  C   UNL A   1      33.635  26.574  23.709  1.00  0.00     0.181 C 
BRANCH  77  82
ATOM     82  C   UNL A   1      32.661  25.278  25.481  1.00  0.00     0.227 A 
ATOM     83  N   UNL A   1      31.392  25.691  25.533  1.00  0.00    -0.221 NA
ATOM     84  N   UNL A   1      33.057  24.023  25.722  1.00  0.00    -0.196 NA
ATOM     85  C   UNL A   1      30.483  24.815  25.966  1.00  0.00     0.119 A 
ATOM     86  C   UNL A   1      32.111  23.136  26.067  1.00  0.00     0.134 A 
ATOM     87  C   UNL A   1      30.795  23.517  26.255  1.00  0.00     0.067 A 
BRANCH  86  88
ATOM     88  N   UNL A   1      32.454  21.790  26.193  1.00  0.00    -0.356 N 
ATOM     89  C   UNL A   1      32.095  20.947  25.054  1.00  0.00     0.121 C 
ATOM     90  C   UNL A   1      33.672  21.464  26.933  1.00  0.00     0.121 C 
ATOM     91  C   UNL A   1      33.279  20.820  24.096  1.00  0.00     0.053 C 
ATOM     92  C   UNL A   1      34.868  21.258  26.004  1.00  0.00     0.053 C 
ATOM     93  C   UNL A   1      34.532  20.346  24.826  1.00  0.00     0.118 C 
BRANCH  93  94
ATOM     94  O   UNL A   1      34.375  18.991  25.254  1.00  0.00    -0.393 OA
ATOM     95  H   UNL A   1      35.156  18.477  24.994  1.00  0.00     0.210 HD
ENDBRANCH  93  94
ENDBRANCH  86  88
ENDBRANCH  77  82
ENDBRANCH  72  74
ENDBRANCH  71  72
ENDBRANCH  70  71
ENDBRANCH   1  70
TORSDOF 17
ENDMDL
MODEL 3
REMARK VINA RESULT:     -11.4      4.213      9.714
REMARK SMILES O=C(OCCOC(=O)[C@@H]1CN(c2nccc(N3CCC(O)CC3)n2)CC[NH2+]1)c1ccc(-c2c3nc(c(-c4cc(S(=O)(=O)[O-])ccc4F)c4ccc([nH]4)c(-c4cc(S(=O)(=O)[O-])ccc4F)c4nc(c(-c5cc(S(=O)(=O)[O-])ccc5F)c5ccc2[nH]5)C=C4)C=C3)cc1
REMARK SMILES IDX 4 1 3 2 2 3 1 4 28 5 29 6 90 7 30 8 89 9 31 10 32 11 33 12
REMARK SMILES IDX 83 13 34 14 88 15 82 16 84 17 35 18 87 19 81 20 80 21 36 23
REMARK SMILES IDX 68 24 48 25 67 26 49 27 52 28 66 29 85 30 50 31 51 32 65 34
REMARK SMILES IDX 86 35 53 36 37 37 38 38 46 39 39 40 45 41 47 42 44 43 40 44
REMARK SMILES IDX 41 45 42 46 43 47 69 48 70 49 78 50 71 51 77 52 79 53 76 54
REMARK SMILES IDX 72 55 73 56 74 57 75 58 54 59 55 60 63 61 56 62 62 63 64 64
REMARK SMILES IDX 61 65 57 66 58 67 59 68 60 69 5 70 6 71 7 72 8 73 9 74 10 75
REMARK SMILES IDX 27 76 11 77 26 78 25 81 12 82 13 83 24 84 14 85 16 86 15 87
REMARK SMILES IDX 17 88 18 89 23 90 19 91 22 92 20 93 21 94
REMARK H PARENT 84 22 52 33 27 79 27 80 21 95
REMARK Flexibility Score: inf
ROOT
ATOM      1  C   UNL A   1      32.583  30.290  27.167  1.00  0.00     0.275 C 
ENDROOT
BRANCH   1   2
ATOM      2  O   UNL A   1      33.692  31.120  26.802  1.00  0.00    -0.458 OA
BRANCH   2   3
ATOM      3  C   UNL A   1      34.646  31.658  27.600  1.00  0.00     0.338 C 
ATOM      4  O   UNL A   1      34.716  32.886  27.659  1.00  0.00    -0.246 OA
BRANCH   3   5
ATOM      5  C   UNL A   1      35.713  30.859  28.300  1.00  0.00     0.060 A 
ATOM      6  C   UNL A   1      35.568  30.031  29.424  1.00  0.00     0.016 A 
ATOM      7  C   UNL A   1      36.986  30.913  27.709  1.00  0.00     0.016 A 
ATOM      8  C   UNL A   1      36.617  29.225  29.897  1.00  0.00     0.010 A 
ATOM      9  C   UNL A   1      38.022  30.085  28.153  1.00  0.00     0.010 A 
ATOM     10  C   UNL A   1      37.852  29.232  29.259  1.00  0.00    -0.014 A 
BRANCH  10  11
ATOM     11  C   UNL A   1      39.046  28.544  29.822  1.00  0.00     0.031 A 
ATOM     12  C   UNL A   1      39.742  29.241  30.952  1.00  0.00     0.074 A 
ATOM     13  C   UNL A   1      39.564  27.407  29.318  1.00  0.00     0.049 A 
ATOM     14  N   UNL A   1      40.935  29.056  31.442  1.00  0.00    -0.248 NA
ATOM     15  C   UNL A   1      38.984  30.335  31.584  1.00  0.00     0.031 C 
ATOM     16  C   UNL A   1      38.958  26.568  28.289  1.00  0.00     0.029 A 
ATOM     17  N   UNL A   1      40.777  26.799  29.555  1.00  0.00    -0.354 N 
ATOM     18  C   UNL A   1      41.061  30.005  32.448  1.00  0.00     0.074 A 
ATOM     19  C   UNL A   1      39.901  30.864  32.370  1.00  0.00     0.031 C 
ATOM     20  C   UNL A   1      39.848  25.643  27.889  1.00  0.00     0.029 A 
ATOM     21  C   UNL A   1      41.083  25.821  28.632  1.00  0.00     0.049 A 
ATOM     22  H   UNL A   1      41.366  27.039  30.308  1.00  0.00     0.167 HD
ATOM     23  C   UNL A   1      42.011  30.096  33.409  1.00  0.00     0.034 A 
ATOM     24  C   UNL A   1      42.243  25.181  28.386  1.00  0.00     0.034 A 
ATOM     25  C   UNL A   1      43.152  29.226  33.463  1.00  0.00     0.049 A 
ATOM     26  C   UNL A   1      43.395  25.416  29.323  1.00  0.00     0.074 A 
ATOM     27  C   UNL A   1      44.167  29.177  34.398  1.00  0.00     0.029 A 
ATOM     28  N   UNL A   1      43.434  28.249  32.511  1.00  0.00    -0.354 N 
ATOM     29  N   UNL A   1      43.495  26.280  30.304  1.00  0.00    -0.248 NA
ATOM     30  C   UNL A   1      44.561  24.538  29.163  1.00  0.00     0.031 C 
ATOM     31  C   UNL A   1      45.095  28.217  33.978  1.00  0.00     0.029 A 
ATOM     32  C   UNL A   1      44.621  27.612  32.824  1.00  0.00     0.049 A 
ATOM     33  H   UNL A   1      42.872  28.043  31.732  1.00  0.00     0.167 HD
ATOM     34  C   UNL A   1      44.695  25.987  30.940  1.00  0.00     0.074 A 
ATOM     35  C   UNL A   1      45.310  24.906  30.193  1.00  0.00     0.031 C 
ATOM     36  C   UNL A   1      45.210  26.528  32.073  1.00  0.00     0.034 A 
BRANCH  23  37
ATOM     37  C   UNL A   1      41.809  31.180  34.439  1.00  0.00     0.023 A 
ATOM     38  C   UNL A   1      40.804  31.061  35.420  1.00  0.00     0.031 A 
ATOM     39  C   UNL A   1      42.498  32.398  34.347  1.00  0.00     0.131 A 
ATOM     40  C   UNL A   1      40.402  32.190  36.146  1.00  0.00     0.055 A 
ATOM     41  C   UNL A   1      42.173  33.484  35.163  1.00  0.00     0.041 A 
ATOM     42  F   UNL A   1      43.456  32.575  33.424  1.00  0.00    -0.206 F 
ATOM     43  C   UNL A   1      41.096  33.396  36.044  1.00  0.00     0.022 A 
BRANCH  40  44
ATOM     44  S   UNL A   1      38.808  32.123  37.015  1.00  0.00     0.124 S 
ATOM     45  O   UNL A   1      38.089  33.236  36.396  1.00  0.00    -0.237 OA
ATOM     46  O   UNL A   1      38.321  30.790  36.683  1.00  0.00    -0.237 OA
ATOM     47  O   UNL A   1      39.172  32.328  38.415  1.00  0.00    -0.744 OA
ENDBRANCH  40  44
ENDBRANCH  23  37
BRANCH  24  48
ATOM     48  C   UNL A   1      42.418  24.283  27.209  1.00  0.00     0.023 A 
ATOM     49  C   UNL A   1      42.019  22.938  27.237  1.00  0.00     0.031 A 
ATOM     50  C   UNL A   1      43.101  24.749  26.072  1.00  0.00     0.131 A 
ATOM     51  C   UNL A   1      42.343  22.092  26.162  1.00  0.00     0.055 A 
ATOM     52  C   UNL A   1      43.401  23.908  24.997  1.00  0.00     0.041 A 
ATOM     53  F   UNL A   1      43.514  26.024  26.003  1.00  0.00    -0.206 F 
ATOM     54  C   UNL A   1      43.025  22.570  25.039  1.00  0.00     0.022 A 
BRANCH  51  55
ATOM     55  S   UNL A   1      41.904  20.333  26.261  1.00  0.00     0.124 S 
ATOM     56  O   UNL A   1      42.278  20.010  27.632  1.00  0.00    -0.237 OA
ATOM     57  O   UNL A   1      40.474  20.354  25.971  1.00  0.00    -0.237 OA
ATOM     58  O   UNL A   1      42.732  19.720  25.223  1.00  0.00    -0.744 OA
ENDBRANCH  51  55
ENDBRANCH  24  48
BRANCH  36  59
ATOM     59  C   UNL A   1      46.439  25.881  32.645  1.00  0.00     0.023 A 
ATOM     60  C   UNL A   1      46.373  24.864  33.610  1.00  0.00     0.031 A 
ATOM     61  C   UNL A   1      47.705  26.278  32.175  1.00  0.00     0.131 A 
ATOM     62  C   UNL A   1      47.559  24.295  34.093  1.00  0.00     0.055 A 
ATOM     63  C   UNL A   1      48.875  25.664  32.614  1.00  0.00     0.041 A 
ATOM     64  F   UNL A   1      47.818  27.257  31.263  1.00  0.00    -0.206 F 
ATOM     65  C   UNL A   1      48.807  24.669  33.584  1.00  0.00     0.022 A 
BRANCH  62  66
ATOM     66  S   UNL A   1      47.456  23.092  35.445  1.00  0.00     0.124 S 
ATOM     67  O   UNL A   1      47.036  21.885  34.742  1.00  0.00    -0.237 OA
ATOM     68  O   UNL A   1      48.820  23.086  35.965  1.00  0.00    -0.237 OA
ATOM     69  O   UNL A   1      46.456  23.669  36.341  1.00  0.00    -0.744 OA
ENDBRANCH  62  66
ENDBRANCH  36  59
ENDBRANCH  10  11
ENDBRANCH   3   5
ENDBRANCH   2   3
ENDBRANCH   1   2
BRANCH   1  70
ATOM     70  C   UNL A   1      32.167  29.316  26.062  1.00  0.00     0.274 C 
BRANCH  70  71
ATOM     71  O   UNL A   1      32.544  29.755  24.745  1.00  0.00    -0.458 OA
BRANCH  71  72
ATOM     72  C   UNL A   1      32.473  28.831  23.739  1.00  0.00     0.366 C 
ATOM     73  O   UNL A   1      32.989  28.977  22.633  1.00  0.00    -0.245 OA
BRANCH  72  74
ATOM     74  C   UNL A   1      31.681  27.580  24.149  1.00  0.00     0.313 C 
ATOM     75  C   UNL A   1      32.364  26.316  23.590  1.00  0.00     0.197 C 
ATOM     76  N   UNL A   1      30.260  27.709  23.712  1.00  0.00    -0.332 N 
ATOM     77  N   UNL A   1      31.549  25.132  23.808  1.00  0.00    -0.328 N 
ATOM     78  C   UNL A   1      29.508  26.497  24.115  1.00  0.00     0.283 C 
ATOM     79  H   UNL A   1      30.224  27.811  22.698  1.00  0.00     0.347 HD
ATOM     80  H   UNL A   1      29.842  28.530  24.150  1.00  0.00     0.347 HD
ATOM     81  C   UNL A   1      30.114  25.182  23.588  1.00  0.00     0.181 C 
BRANCH  77  82
ATOM     82  C   UNL A   1      31.999  24.234  24.736  1.00  0.00     0.227 A 
ATOM     83  N   UNL A   1      31.079  23.453  25.307  1.00  0.00    -0.221 NA
ATOM     84  N   UNL A   1      33.312  24.162  24.985  1.00  0.00    -0.196 NA
ATOM     85  C   UNL A   1      31.493  22.628  26.271  1.00  0.00     0.119 A 
ATOM     86  C   UNL A   1      33.715  23.261  25.893  1.00  0.00     0.134 A 
ATOM     87  C   UNL A   1      32.810  22.498  26.609  1.00  0.00     0.067 A 
BRANCH  86  88
ATOM     88  N   UNL A   1      35.081  23.054  26.085  1.00  0.00    -0.356 N 
ATOM     89  C   UNL A   1      35.479  21.660  26.278  1.00  0.00     0.121 C 
ATOM     90  C   UNL A   1      36.009  23.943  25.389  1.00  0.00     0.121 C 
ATOM     91  C   UNL A   1      35.906  21.042  24.948  1.00  0.00     0.053 C 
ATOM     92  C   UNL A   1      36.518  23.332  24.084  1.00  0.00     0.053 C 
ATOM     93  C   UNL A   1      36.979  21.887  24.266  1.00  0.00     0.118 C 
BRANCH  93  94
ATOM     94  O   UNL A   1      38.202  21.827  25.005  1.00  0.00    -0.393 OA
ATOM     95  H   UNL A   1      38.404  20.903  25.221  1.00  0.00     0.210 HD
ENDBRANCH  93  94
ENDBRANCH  86  88
ENDBRANCH  77  82
ENDBRANCH  72  74
ENDBRANCH  71  72
ENDBRANCH  70  71
ENDBRANCH   1  70
TORSDOF 17
ENDMDL
