MODEL 1
REMARK VINA RESULT:     -12.3      0.000      0.000
REMARK SMILES CC1(C)C(NC(=O)[C@@H]2CCC[C@@H](C(=O)OCCOC(=O)c3ccc(-c4c5nc(c(-c6cc(S(=O)(=O)[O-])ccc6F)c6ccc([nH]6)c(-c6cc(S(=O)(=O)[O-])ccc6F)c6nc(c(-c7cc(S(=O)(=O)[O-])ccc7F)c7ccc4[nH]7)C=C6)C=C5)cc3)C2)C1(C)C
REMARK SMILES IDX 17 1 16 2 15 3 13 4 14 5 12 6 8 7 9 8 84 9 10 10 11 11 6 12
REMARK SMILES IDX 5 13 7 15 4 16 1 17 2 18 3 19 85 20 86 21 87 22 18 23 19 24
REMARK SMILES IDX 20 25 21 26 22 27 83 28 23 29 82 30 24 31 25 32 26 33 76 34
REMARK SMILES IDX 27 35 81 36 75 37 77 38 28 39 80 40 74 41 73 42 29 44 61 45
REMARK SMILES IDX 41 46 60 47 42 48 45 49 59 50 78 51 43 52 44 53 58 55 79 56
REMARK SMILES IDX 46 57 30 58 31 59 39 60 32 61 38 62 40 63 37 64 33 65 34 66
REMARK SMILES IDX 35 67 36 68 62 69 63 70 71 71 64 72 70 73 72 74 69 75 65 76
REMARK SMILES IDX 66 77 67 78 68 79 47 80 48 81 56 82 49 83 55 84 57 85 54 86
REMARK SMILES IDX 50 87 51 88 52 89 53 90
REMARK H PARENT 5 14 77 43 45 54
REMARK Flexibility Score: inf
ROOT
ATOM      1  C   UNL A   1      37.339  20.954  24.690  1.00  0.00     0.275 C 
ENDROOT
BRANCH   1   2
ATOM      2  C   UNL A   1      35.966  20.414  25.087  1.00  0.00     0.274 C 
BRANCH   2   3
ATOM      3  O   UNL A   1      35.015  21.466  25.355  1.00  0.00    -0.462 OA
BRANCH   3   4
ATOM      4  C   UNL A   1      34.298  21.901  24.279  1.00  0.00     0.309 C 
ATOM      5  O   UNL A   1      34.711  22.718  23.468  1.00  0.00    -0.252 OA
BRANCH   4   6
ATOM      6  C   UNL A   1      32.876  21.334  24.292  1.00  0.00     0.100 C 
ATOM      7  C   UNL A   1      31.859  23.431  25.286  1.00  0.00     0.079 C 
ATOM      8  C   UNL A   1      31.025  23.665  24.021  1.00  0.00     0.013 C 
ATOM      9  C   UNL A   1      32.113  21.923  25.479  1.00  0.00     0.028 C 
ATOM     10  C   UNL A   1      31.693  23.053  22.788  1.00  0.00     0.002 C 
ATOM     11  C   UNL A   1      32.073  21.586  23.006  1.00  0.00     0.015 C 
BRANCH   7  12
ATOM     12  C   UNL A   1      31.224  24.026  26.535  1.00  0.00     0.223 C 
ATOM     13  N   UNL A   1      31.576  25.308  26.884  1.00  0.00    -0.352 N 
ATOM     14  H   UNL A   1      31.128  25.672  27.681  1.00  0.00     0.163 HD
ATOM     15  O   UNL A   1      30.425  23.412  27.241  1.00  0.00    -0.275 OA
BRANCH  13  16
ATOM     16  C   UNL A   1      32.507  26.184  26.239  1.00  0.00     0.094 C 
ATOM     17  C   UNL A   1      33.081  27.331  24.008  1.00  0.00     0.014 C 
ATOM     18  C   UNL A   1      32.121  27.187  25.173  1.00  0.00    -0.007 C 
ATOM     19  C   UNL A   1      30.683  27.263  24.721  1.00  0.00     0.014 C 
ATOM     20  C   UNL A   1      32.543  27.666  26.579  1.00  0.00    -0.007 C 
ATOM     21  C   UNL A   1      33.910  28.277  26.806  1.00  0.00     0.014 C 
ATOM     22  C   UNL A   1      31.515  28.246  27.524  1.00  0.00     0.014 C 
ENDBRANCH  13  16
ENDBRANCH   7  12
ENDBRANCH   4   6
ENDBRANCH   3   4
ENDBRANCH   2   3
ENDBRANCH   1   2
BRANCH   1  23
ATOM     23  O   UNL A   1      37.812  21.896  25.666  1.00  0.00    -0.458 OA
BRANCH  23  24
ATOM     24  C   UNL A   1      39.049  21.644  26.154  1.00  0.00     0.338 C 
ATOM     25  O   UNL A   1      39.702  20.625  26.026  1.00  0.00    -0.246 OA
BRANCH  24  26
ATOM     26  C   UNL A   1      39.565  22.849  26.818  1.00  0.00     0.060 A 
ATOM     27  C   UNL A   1      39.046  24.080  26.431  1.00  0.00     0.016 A 
ATOM     28  C   UNL A   1      40.645  22.786  27.694  1.00  0.00     0.016 A 
ATOM     29  C   UNL A   1      39.646  25.262  26.843  1.00  0.00     0.010 A 
ATOM     30  C   UNL A   1      41.206  23.978  28.171  1.00  0.00     0.010 A 
ATOM     31  C   UNL A   1      40.734  25.227  27.721  1.00  0.00    -0.014 A 
BRANCH  31  32
ATOM     32  C   UNL A   1      41.428  26.491  28.088  1.00  0.00     0.031 A 
ATOM     33  C   UNL A   1      40.689  27.535  28.882  1.00  0.00     0.074 A 
ATOM     34  C   UNL A   1      42.724  26.684  27.771  1.00  0.00     0.049 A 
ATOM     35  N   UNL A   1      41.023  28.772  29.143  1.00  0.00    -0.248 NA
ATOM     36  C   UNL A   1      39.395  27.129  29.453  1.00  0.00     0.031 C 
ATOM     37  C   UNL A   1      43.587  25.710  27.097  1.00  0.00     0.029 A 
ATOM     38  N   UNL A   1      43.549  27.761  27.986  1.00  0.00    -0.354 N 
ATOM     39  C   UNL A   1      39.964  29.307  29.868  1.00  0.00     0.074 A 
ATOM     40  C   UNL A   1      38.972  28.260  29.998  1.00  0.00     0.031 C 
ATOM     41  C   UNL A   1      44.822  26.223  26.981  1.00  0.00     0.029 A 
ATOM     42  C   UNL A   1      44.818  27.592  27.484  1.00  0.00     0.049 A 
ATOM     43  H   UNL A   1      43.258  28.576  28.456  1.00  0.00     0.167 HD
ATOM     44  C   UNL A   1      39.832  30.558  30.375  1.00  0.00     0.034 A 
ATOM     45  C   UNL A   1      45.848  28.459  27.393  1.00  0.00     0.034 A 
ATOM     46  C   UNL A   1      40.846  31.579  30.259  1.00  0.00     0.049 A 
ATOM     47  C   UNL A   1      45.649  29.870  27.891  1.00  0.00     0.074 A 
ATOM     48  C   UNL A   1      40.802  32.896  30.680  1.00  0.00     0.029 A 
ATOM     49  N   UNL A   1      42.100  31.386  29.695  1.00  0.00    -0.354 N 
ATOM     50  N   UNL A   1      44.594  30.403  28.462  1.00  0.00    -0.248 NA
ATOM     51  C   UNL A   1      46.773  30.797  27.714  1.00  0.00     0.031 C 
ATOM     52  C   UNL A   1      42.012  33.510  30.335  1.00  0.00     0.029 A 
ATOM     53  C   UNL A   1      42.833  32.560  29.750  1.00  0.00     0.049 A 
ATOM     54  H   UNL A   1      42.422  30.539  29.311  1.00  0.00     0.167 HD
ATOM     55  C   UNL A   1      44.936  31.725  28.726  1.00  0.00     0.074 A 
ATOM     56  C   UNL A   1      46.300  31.901  28.272  1.00  0.00     0.031 C 
ATOM     57  C   UNL A   1      44.191  32.712  29.288  1.00  0.00     0.034 A 
BRANCH  44  58
ATOM     58  C   UNL A   1      38.521  30.902  31.032  1.00  0.00     0.023 A 
ATOM     59  C   UNL A   1      37.466  31.503  30.324  1.00  0.00     0.031 A 
ATOM     60  C   UNL A   1      38.338  30.658  32.406  1.00  0.00     0.131 A 
ATOM     61  C   UNL A   1      36.302  31.893  31.003  1.00  0.00     0.055 A 
ATOM     62  C   UNL A   1      37.150  30.985  33.061  1.00  0.00     0.041 A 
ATOM     63  F   UNL A   1      39.321  30.110  33.138  1.00  0.00    -0.206 F 
ATOM     64  C   UNL A   1      36.127  31.617  32.361  1.00  0.00     0.022 A 
BRANCH  61  65
ATOM     65  S   UNL A   1      35.063  32.876  30.114  1.00  0.00     0.124 S 
ATOM     66  O   UNL A   1      35.879  33.960  29.575  1.00  0.00    -0.237 OA
ATOM     67  O   UNL A   1      34.541  31.924  29.140  1.00  0.00    -0.237 OA
ATOM     68  O   UNL A   1      34.123  33.273  31.161  1.00  0.00    -0.744 OA
ENDBRANCH  61  65
ENDBRANCH  44  58
BRANCH  45  69
ATOM     69  C   UNL A   1      47.126  28.062  26.734  1.00  0.00     0.023 A 
ATOM     70  C   UNL A   1      47.265  28.102  25.337  1.00  0.00     0.031 A 
ATOM     71  C   UNL A   1      48.205  27.566  27.488  1.00  0.00     0.131 A 
ATOM     72  C   UNL A   1      48.436  27.613  24.736  1.00  0.00     0.055 A 
ATOM     73  C   UNL A   1      49.391  27.137  26.890  1.00  0.00     0.041 A 
ATOM     74  F   UNL A   1      48.124  27.496  28.826  1.00  0.00    -0.206 F 
ATOM     75  C   UNL A   1      49.505  27.145  25.504  1.00  0.00     0.022 A 
BRANCH  72  76
ATOM     76  S   UNL A   1      48.500  27.494  22.927  1.00  0.00     0.124 S 
ATOM     77  O   UNL A   1      47.304  28.233  22.538  1.00  0.00    -0.237 OA
ATOM     78  O   UNL A   1      49.776  28.133  22.627  1.00  0.00    -0.237 OA
ATOM     79  O   UNL A   1      48.452  26.055  22.679  1.00  0.00    -0.744 OA
ENDBRANCH  72  76
ENDBRANCH  45  69
BRANCH  57  80
ATOM     80  C   UNL A   1      44.867  34.043  29.479  1.00  0.00     0.023 A 
ATOM     81  C   UNL A   1      44.813  35.044  28.493  1.00  0.00     0.031 A 
ATOM     82  C   UNL A   1      45.597  34.301  30.652  1.00  0.00     0.131 A 
ATOM     83  C   UNL A   1      45.522  36.240  28.677  1.00  0.00     0.055 A 
ATOM     84  C   UNL A   1      46.260  35.512  30.850  1.00  0.00     0.041 A 
ATOM     85  F   UNL A   1      45.678  33.376  31.622  1.00  0.00    -0.206 F 
ATOM     86  C   UNL A   1      46.235  36.485  29.854  1.00  0.00     0.022 A 
BRANCH  83  87
ATOM     87  S   UNL A   1      45.562  37.446  27.323  1.00  0.00     0.124 S 
ATOM     88  O   UNL A   1      46.224  38.586  27.950  1.00  0.00    -0.237 OA
ATOM     89  O   UNL A   1      46.332  36.745  26.301  1.00  0.00    -0.237 OA
ATOM     90  O   UNL A   1      44.150  37.648  27.002  1.00  0.00    -0.744 OA
ENDBRANCH  83  87
ENDBRANCH  57  80
ENDBRANCH  31  32
ENDBRANCH  24  26
ENDBRANCH  23  24
ENDBRANCH   1  23
TORSDOF 16
ENDMDL
MODEL 2
REMARK VINA RESULT:     -12.1      5.067     10.020
REMARK SMILES CC1(C)C(NC(=O)[C@@H]2CCC[C@@H](C(=O)OCCOC(=O)c3ccc(-c4c5nc(c(-c6cc(S(=O)(=O)[O-])ccc6F)c6ccc([nH]6)c(-c6cc(S(=O)(=O)[O-])ccc6F)c6nc(c(-c7cc(S(=O)(=O)[O-])ccc7F)c7ccc4[nH]7)C=C6)C=C5)cc3)C2)C1(C)C
REMARK SMILES IDX 17 1 16 2 15 3 13 4 14 5 12 6 8 7 9 8 84 9 10 10 11 11 6 12
REMARK SMILES IDX 5 13 7 15 4 16 1 17 2 18 3 19 85 20 86 21 87 22 18 23 19 24
REMARK SMILES IDX 20 25 21 26 22 27 83 28 23 29 82 30 24 31 25 32 26 33 76 34
REMARK SMILES IDX 27 35 81 36 75 37 77 38 28 39 80 40 74 41 73 42 29 44 61 45
REMARK SMILES IDX 41 46 60 47 42 48 45 49 59 50 78 51 43 52 44 53 58 55 79 56
REMARK SMILES IDX 46 57 30 58 31 59 39 60 32 61 38 62 40 63 37 64 33 65 34 66
REMARK SMILES IDX 35 67 36 68 62 69 63 70 71 71 64 72 70 73 72 74 69 75 65 76
REMARK SMILES IDX 66 77 67 78 68 79 47 80 48 81 56 82 49 83 55 84 57 85 54 86
REMARK SMILES IDX 50 87 51 88 52 89 53 90
REMARK H PARENT 5 14 77 43 45 54
REMARK Flexibility Score: inf
ROOT
ATOM      1  C   UNL A   1      31.793  30.004  26.796  1.00  0.00     0.275 C 
ENDROOT
BRANCH   1   2
ATOM      2  C   UNL A   1      31.799  28.625  27.453  1.00  0.00     0.274 C 
BRANCH   2   3
ATOM      3  O   UNL A   1      32.159  27.575  26.531  1.00  0.00    -0.462 OA
BRANCH   3   4
ATOM      4  C   UNL A   1      31.124  26.812  26.073  1.00  0.00     0.309 C 
ATOM      5  O   UNL A   1      30.684  25.835  26.664  1.00  0.00    -0.252 OA
BRANCH   4   6
ATOM      6  C   UNL A   1      30.679  27.257  24.679  1.00  0.00     0.100 C 
ATOM      7  C   UNL A   1      32.292  25.717  23.477  1.00  0.00     0.079 C 
ATOM      8  C   UNL A   1      31.130  24.932  22.855  1.00  0.00     0.013 C 
ATOM      9  C   UNL A   1      31.870  27.178  23.723  1.00  0.00     0.028 C 
ATOM     10  C   UNL A   1      29.874  25.008  23.725  1.00  0.00     0.002 C 
ATOM     11  C   UNL A   1      29.511  26.450  24.090  1.00  0.00     0.015 C 
BRANCH   7  12
ATOM     12  C   UNL A   1      33.560  25.665  22.638  1.00  0.00     0.223 C 
ATOM     13  N   UNL A   1      34.667  25.060  23.185  1.00  0.00    -0.352 N 
ATOM     14  H   UNL A   1      35.463  25.021  22.607  1.00  0.00     0.163 HD
ATOM     15  O   UNL A   1      33.638  26.144  21.507  1.00  0.00    -0.275 OA
BRANCH  13  16
ATOM     16  C   UNL A   1      34.814  24.479  24.485  1.00  0.00     0.094 C 
ATOM     17  C   UNL A   1      33.704  22.914  26.201  1.00  0.00     0.014 C 
ATOM     18  C   UNL A   1      34.353  23.082  24.840  1.00  0.00    -0.007 C 
ATOM     19  C   UNL A   1      33.665  22.244  23.789  1.00  0.00     0.014 C 
ATOM     20  C   UNL A   1      35.860  23.406  24.743  1.00  0.00    -0.007 C 
ATOM     21  C   UNL A   1      36.697  23.561  25.996  1.00  0.00     0.014 C 
ATOM     22  C   UNL A   1      36.681  22.864  23.594  1.00  0.00     0.014 C 
ENDBRANCH  13  16
ENDBRANCH   7  12
ENDBRANCH   4   6
ENDBRANCH   3   4
ENDBRANCH   2   3
ENDBRANCH   1   2
BRANCH   1  23
ATOM     23  O   UNL A   1      33.132  30.422  26.487  1.00  0.00    -0.458 OA
BRANCH  23  24
ATOM     24  C   UNL A   1      33.613  31.424  27.260  1.00  0.00     0.338 C 
ATOM     25  O   UNL A   1      33.024  32.426  27.624  1.00  0.00    -0.246 OA
BRANCH  24  26
ATOM     26  C   UNL A   1      34.976  31.091  27.696  1.00  0.00     0.060 A 
ATOM     27  C   UNL A   1      35.259  29.761  27.992  1.00  0.00     0.016 A 
ATOM     28  C   UNL A   1      35.915  32.084  27.957  1.00  0.00     0.016 A 
ATOM     29  C   UNL A   1      36.444  29.415  28.627  1.00  0.00     0.010 A 
ATOM     30  C   UNL A   1      37.143  31.727  28.529  1.00  0.00     0.010 A 
ATOM     31  C   UNL A   1      37.404  30.393  28.902  1.00  0.00    -0.014 A 
BRANCH  31  32
ATOM     32  C   UNL A   1      38.631  30.032  29.662  1.00  0.00     0.031 A 
ATOM     33  C   UNL A   1      39.625  29.082  29.048  1.00  0.00     0.074 A 
ATOM     34  C   UNL A   1      38.890  30.590  30.861  1.00  0.00     0.049 A 
ATOM     35  N   UNL A   1      40.650  28.483  29.596  1.00  0.00    -0.248 NA
ATOM     36  C   UNL A   1      39.431  28.759  27.626  1.00  0.00     0.031 C 
ATOM     37  C   UNL A   1      38.065  31.604  31.521  1.00  0.00     0.029 A 
ATOM     38  N   UNL A   1      39.932  30.394  31.734  1.00  0.00    -0.354 N 
ATOM     39  C   UNL A   1      41.197  27.679  28.602  1.00  0.00     0.074 A 
ATOM     40  C   UNL A   1      40.382  27.862  27.419  1.00  0.00     0.031 C 
ATOM     41  C   UNL A   1      38.646  31.961  32.678  1.00  0.00     0.029 A 
ATOM     42  C   UNL A   1      39.831  31.136  32.888  1.00  0.00     0.049 A 
ATOM     43  H   UNL A   1      40.680  29.780  31.551  1.00  0.00     0.167 HD
ATOM     44  C   UNL A   1      42.277  26.863  28.674  1.00  0.00     0.034 A 
ATOM     45  C   UNL A   1      40.579  31.119  34.010  1.00  0.00     0.034 A 
ATOM     46  C   UNL A   1      43.093  26.717  29.855  1.00  0.00     0.049 A 
ATOM     47  C   UNL A   1      41.727  30.143  34.097  1.00  0.00     0.074 A 
ATOM     48  C   UNL A   1      44.174  25.879  30.064  1.00  0.00     0.029 A 
ATOM     49  N   UNL A   1      42.927  27.447  31.025  1.00  0.00    -0.354 N 
ATOM     50  N   UNL A   1      42.159  29.294  33.194  1.00  0.00    -0.248 NA
ATOM     51  C   UNL A   1      42.475  30.113  35.360  1.00  0.00     0.031 C 
ATOM     52  C   UNL A   1      44.636  26.073  31.372  1.00  0.00     0.029 A 
ATOM     53  C   UNL A   1      43.879  27.073  31.959  1.00  0.00     0.049 A 
ATOM     54  H   UNL A   1      42.233  28.130  31.170  1.00  0.00     0.167 HD
ATOM     55  C   UNL A   1      43.239  28.640  33.777  1.00  0.00     0.074 A 
ATOM     56  C   UNL A   1      43.406  29.208  35.099  1.00  0.00     0.031 C 
ATOM     57  C   UNL A   1      44.023  27.653  33.273  1.00  0.00     0.034 A 
BRANCH  44  58
ATOM     58  C   UNL A   1      42.586  26.018  27.465  1.00  0.00     0.023 A 
ATOM     59  C   UNL A   1      42.127  24.695  27.341  1.00  0.00     0.031 A 
ATOM     60  C   UNL A   1      43.388  26.537  26.432  1.00  0.00     0.131 A 
ATOM     61  C   UNL A   1      42.523  23.919  26.242  1.00  0.00     0.055 A 
ATOM     62  C   UNL A   1      43.720  25.782  25.306  1.00  0.00     0.041 A 
ATOM     63  F   UNL A   1      43.875  27.786  26.508  1.00  0.00    -0.206 F 
ATOM     64  C   UNL A   1      43.297  24.460  25.212  1.00  0.00     0.022 A 
BRANCH  61  65
ATOM     65  S   UNL A   1      42.114  22.152  26.231  1.00  0.00     0.124 S 
ATOM     66  O   UNL A   1      40.675  22.184  25.985  1.00  0.00    -0.237 OA
ATOM     67  O   UNL A   1      42.937  21.642  25.140  1.00  0.00    -0.237 OA
ATOM     68  O   UNL A   1      42.501  21.701  27.567  1.00  0.00    -0.744 OA
ENDBRANCH  61  65
ENDBRANCH  44  58
BRANCH  45  69
ATOM     69  C   UNL A   1      40.228  31.981  35.177  1.00  0.00     0.023 A 
ATOM     70  C   UNL A   1      39.297  31.556  36.138  1.00  0.00     0.031 A 
ATOM     71  C   UNL A   1      40.766  33.274  35.309  1.00  0.00     0.131 A 
ATOM     72  C   UNL A   1      38.898  32.431  37.161  1.00  0.00     0.055 A 
ATOM     73  C   UNL A   1      40.410  34.119  36.362  1.00  0.00     0.041 A 
ATOM     74  F   UNL A   1      41.652  33.736  34.413  1.00  0.00    -0.206 F 
ATOM     75  C   UNL A   1      39.460  33.704  37.287  1.00  0.00     0.022 A 
BRANCH  72  76
ATOM     76  S   UNL A   1      37.549  31.923  38.263  1.00  0.00     0.124 S 
ATOM     77  O   UNL A   1      38.183  32.020  39.573  1.00  0.00    -0.237 OA
ATOM     78  O   UNL A   1      36.527  32.921  37.970  1.00  0.00    -0.237 OA
ATOM     79  O   UNL A   1      37.240  30.566  37.819  1.00  0.00    -0.744 OA
ENDBRANCH  72  76
ENDBRANCH  45  69
BRANCH  57  80
ATOM     80  C   UNL A   1      45.153  27.175  34.145  1.00  0.00     0.023 A 
ATOM     81  C   UNL A   1      44.999  26.080  35.014  1.00  0.00     0.031 A 
ATOM     82  C   UNL A   1      46.390  27.841  34.124  1.00  0.00     0.131 A 
ATOM     83  C   UNL A   1      46.051  25.716  35.867  1.00  0.00     0.055 A 
ATOM     84  C   UNL A   1      47.449  27.444  34.940  1.00  0.00     0.041 A 
ATOM     85  F   UNL A   1      46.585  28.892  33.311  1.00  0.00    -0.206 F 
ATOM     86  C   UNL A   1      47.279  26.384  35.827  1.00  0.00     0.022 A 
BRANCH  83  87
ATOM     87  S   UNL A   1      45.770  24.403  37.086  1.00  0.00     0.124 S 
ATOM     88  O   UNL A   1      45.239  23.326  36.256  1.00  0.00    -0.237 OA
ATOM     89  O   UNL A   1      47.107  24.189  37.630  1.00  0.00    -0.237 OA
ATOM     90  O   UNL A   1      44.813  24.998  38.017  1.00  0.00    -0.744 OA
ENDBRANCH  83  87
ENDBRANCH  57  80
ENDBRANCH  31  32
ENDBRANCH  24  26
ENDBRANCH  23  24
ENDBRANCH   1  23
TORSDOF 16
ENDMDL
MODEL 3
REMARK VINA RESULT:     -12.1      1.478      1.655
REMARK SMILES CC1(C)C(NC(=O)[C@@H]2CCC[C@@H](C(=O)OCCOC(=O)c3ccc(-c4c5nc(c(-c6cc(S(=O)(=O)[O-])ccc6F)c6ccc([nH]6)c(-c6cc(S(=O)(=O)[O-])ccc6F)c6nc(c(-c7cc(S(=O)(=O)[O-])ccc7F)c7ccc4[nH]7)C=C6)C=C5)cc3)C2)C1(C)C
REMARK SMILES IDX 17 1 16 2 15 3 13 4 14 5 12 6 8 7 9 8 84 9 10 10 11 11 6 12
REMARK SMILES IDX 5 13 7 15 4 16 1 17 2 18 3 19 85 20 86 21 87 22 18 23 19 24
REMARK SMILES IDX 20 25 21 26 22 27 83 28 23 29 82 30 24 31 25 32 26 33 76 34
REMARK SMILES IDX 27 35 81 36 75 37 77 38 28 39 80 40 74 41 73 42 29 44 61 45
REMARK SMILES IDX 41 46 60 47 42 48 45 49 59 50 78 51 43 52 44 53 58 55 79 56
REMARK SMILES IDX 46 57 30 58 31 59 39 60 32 61 38 62 40 63 37 64 33 65 34 66
REMARK SMILES IDX 35 67 36 68 62 69 63 70 71 71 64 72 70 73 72 74 69 75 65 76
REMARK SMILES IDX 66 77 67 78 68 79 47 80 48 81 56 82 49 83 55 84 57 85 54 86
REMARK SMILES IDX 50 87 51 88 52 89 53 90
REMARK H PARENT 5 14 77 43 45 54
REMARK Flexibility Score: inf
ROOT
ATOM      1  C   UNL A   1      36.863  20.539  25.094  1.00  0.00     0.275 C 
ENDROOT
BRANCH   1   2
ATOM      2  C   UNL A   1      35.769  21.322  25.817  1.00  0.00     0.274 C 
BRANCH   2   3
ATOM      3  O   UNL A   1      34.443  20.912  25.421  1.00  0.00    -0.462 OA
BRANCH   3   4
ATOM      4  C   UNL A   1      33.894  21.613  24.387  1.00  0.00     0.309 C 
ATOM      5  O   UNL A   1      34.499  22.450  23.732  1.00  0.00    -0.252 OA
BRANCH   4   6
ATOM      6  C   UNL A   1      32.402  21.308  24.238  1.00  0.00     0.100 C 
ATOM      7  C   UNL A   1      31.669  23.503  25.270  1.00  0.00     0.079 C 
ATOM      8  C   UNL A   1      31.016  23.941  23.954  1.00  0.00     0.013 C 
ATOM      9  C   UNL A   1      31.639  21.967  25.388  1.00  0.00     0.028 C 
ATOM     10  C   UNL A   1      31.686  23.279  22.748  1.00  0.00     0.002 C 
ATOM     11  C   UNL A   1      31.784  21.759  22.905  1.00  0.00     0.015 C 
BRANCH   7  12
ATOM     12  C   UNL A   1      31.027  24.142  26.493  1.00  0.00     0.223 C 
ATOM     13  N   UNL A   1      31.433  25.407  26.843  1.00  0.00    -0.352 N 
ATOM     14  H   UNL A   1      30.981  25.801  27.623  1.00  0.00     0.163 HD
ATOM     15  O   UNL A   1      30.176  23.576  27.179  1.00  0.00    -0.275 OA
BRANCH  13  16
ATOM     16  C   UNL A   1      32.429  26.228  26.222  1.00  0.00     0.094 C 
ATOM     17  C   UNL A   1      33.103  27.365  24.014  1.00  0.00     0.014 C 
ATOM     18  C   UNL A   1      32.122  27.269  25.167  1.00  0.00    -0.007 C 
ATOM     19  C   UNL A   1      30.698  27.448  24.700  1.00  0.00     0.014 C 
ATOM     20  C   UNL A   1      32.559  27.699  26.584  1.00  0.00    -0.007 C 
ATOM     21  C   UNL A   1      33.962  28.214  26.835  1.00  0.00     0.014 C 
ATOM     22  C   UNL A   1      31.561  28.333  27.527  1.00  0.00     0.014 C 
ENDBRANCH  13  16
ENDBRANCH   7  12
ENDBRANCH   4   6
ENDBRANCH   3   4
ENDBRANCH   2   3
ENDBRANCH   1   2
BRANCH   1  23
ATOM     23  O   UNL A   1      38.063  21.322  24.994  1.00  0.00    -0.458 OA
BRANCH  23  24
ATOM     24  C   UNL A   1      39.053  20.968  25.847  1.00  0.00     0.338 C 
ATOM     25  O   UNL A   1      39.514  19.855  26.024  1.00  0.00    -0.246 OA
BRANCH  24  26
ATOM     26  C   UNL A   1      39.585  22.171  26.501  1.00  0.00     0.060 A 
ATOM     27  C   UNL A   1      39.143  23.409  26.049  1.00  0.00     0.016 A 
ATOM     28  C   UNL A   1      40.612  22.090  27.438  1.00  0.00     0.016 A 
ATOM     29  C   UNL A   1      39.772  24.578  26.457  1.00  0.00     0.010 A 
ATOM     30  C   UNL A   1      41.199  23.272  27.908  1.00  0.00     0.010 A 
ATOM     31  C   UNL A   1      40.808  24.525  27.395  1.00  0.00    -0.014 A 
BRANCH  31  32
ATOM     32  C   UNL A   1      41.537  25.769  27.761  1.00  0.00     0.031 A 
ATOM     33  C   UNL A   1      40.838  26.820  28.582  1.00  0.00     0.074 A 
ATOM     34  C   UNL A   1      42.830  25.938  27.418  1.00  0.00     0.049 A 
ATOM     35  N   UNL A   1      41.204  28.046  28.849  1.00  0.00    -0.248 NA
ATOM     36  C   UNL A   1      39.547  26.435  29.175  1.00  0.00     0.031 C 
ATOM     37  C   UNL A   1      43.657  24.954  26.715  1.00  0.00     0.029 A 
ATOM     38  N   UNL A   1      43.682  26.995  27.628  1.00  0.00    -0.354 N 
ATOM     39  C   UNL A   1      40.172  28.596  29.602  1.00  0.00     0.074 A 
ATOM     40  C   UNL A   1      39.161  27.568  29.741  1.00  0.00     0.031 C 
ATOM     41  C   UNL A   1      44.900  25.441  26.579  1.00  0.00     0.029 A 
ATOM     42  C   UNL A   1      44.937  26.805  27.097  1.00  0.00     0.049 A 
ATOM     43  H   UNL A   1      43.419  27.811  28.113  1.00  0.00     0.167 HD
ATOM     44  C   UNL A   1      40.078  29.843  30.125  1.00  0.00     0.034 A 
ATOM     45  C   UNL A   1      45.983  27.650  26.994  1.00  0.00     0.034 A 
ATOM     46  C   UNL A   1      41.111  30.843  30.000  1.00  0.00     0.049 A 
ATOM     47  C   UNL A   1      45.825  29.059  27.512  1.00  0.00     0.074 A 
ATOM     48  C   UNL A   1      41.104  32.156  30.436  1.00  0.00     0.029 A 
ATOM     49  N   UNL A   1      42.349  30.630  29.407  1.00  0.00    -0.354 N 
ATOM     50  N   UNL A   1      44.794  29.608  28.111  1.00  0.00    -0.248 NA
ATOM     51  C   UNL A   1      46.965  29.964  27.321  1.00  0.00     0.031 C 
ATOM     52  C   UNL A   1      42.320  32.748  30.072  1.00  0.00     0.029 A 
ATOM     53  C   UNL A   1      43.108  31.788  29.460  1.00  0.00     0.049 A 
ATOM     54  H   UNL A   1      42.644  29.781  29.007  1.00  0.00     0.167 HD
ATOM     55  C   UNL A   1      45.170  30.920  28.382  1.00  0.00     0.074 A 
ATOM     56  C   UNL A   1      46.528  31.071  27.902  1.00  0.00     0.031 C 
ATOM     57  C   UNL A   1      44.459  31.915  28.970  1.00  0.00     0.034 A 
BRANCH  44  58
ATOM     58  C   UNL A   1      38.789  30.208  30.814  1.00  0.00     0.023 A 
ATOM     59  C   UNL A   1      37.740  30.858  30.140  1.00  0.00     0.031 A 
ATOM     60  C   UNL A   1      38.621  29.932  32.184  1.00  0.00     0.131 A 
ATOM     61  C   UNL A   1      36.600  31.264  30.849  1.00  0.00     0.055 A 
ATOM     62  C   UNL A   1      37.454  30.276  32.867  1.00  0.00     0.041 A 
ATOM     63  F   UNL A   1      39.599  29.336  32.884  1.00  0.00    -0.206 F 
ATOM     64  C   UNL A   1      36.439  30.957  32.203  1.00  0.00     0.022 A 
BRANCH  61  65
ATOM     65  S   UNL A   1      35.376  32.306  30.008  1.00  0.00     0.124 S 
ATOM     66  O   UNL A   1      36.176  33.480  29.665  1.00  0.00    -0.237 OA
ATOM     67  O   UNL A   1      34.959  31.468  28.890  1.00  0.00    -0.237 OA
ATOM     68  O   UNL A   1      34.356  32.533  31.031  1.00  0.00    -0.744 OA
ENDBRANCH  61  65
ENDBRANCH  44  58
BRANCH  45  69
ATOM     69  C   UNL A   1      47.238  27.233  26.304  1.00  0.00     0.023 A 
ATOM     70  C   UNL A   1      48.211  26.470  26.968  1.00  0.00     0.031 A 
ATOM     71  C   UNL A   1      47.515  27.653  24.990  1.00  0.00     0.131 A 
ATOM     72  C   UNL A   1      49.433  26.189  26.334  1.00  0.00     0.055 A 
ATOM     73  C   UNL A   1      48.706  27.321  24.343  1.00  0.00     0.041 A 
ATOM     74  F   UNL A   1      46.625  28.393  24.311  1.00  0.00    -0.206 F 
ATOM     75  C   UNL A   1      49.680  26.597  25.022  1.00  0.00     0.022 A 
BRANCH  72  76
ATOM     76  S   UNL A   1      50.742  25.376  27.292  1.00  0.00     0.124 S 
ATOM     77  O   UNL A   1      50.006  24.302  27.950  1.00  0.00    -0.237 OA
ATOM     78  O   UNL A   1      51.673  24.969  26.246  1.00  0.00    -0.237 OA
ATOM     79  O   UNL A   1      51.224  26.435  28.176  1.00  0.00    -0.744 OA
ENDBRANCH  72  76
ENDBRANCH  45  69
BRANCH  57  80
ATOM     80  C   UNL A   1      45.167  33.230  29.162  1.00  0.00     0.023 A 
ATOM     81  C   UNL A   1      45.083  34.257  28.206  1.00  0.00     0.031 A 
ATOM     82  C   UNL A   1      45.958  33.444  30.304  1.00  0.00     0.131 A 
ATOM     83  C   UNL A   1      45.822  35.436  28.385  1.00  0.00     0.055 A 
ATOM     84  C   UNL A   1      46.652  34.638  30.500  1.00  0.00     0.041 A 
ATOM     85  F   UNL A   1      46.070  32.492  31.244  1.00  0.00    -0.206 F 
ATOM     86  C   UNL A   1      46.596  35.637  29.531  1.00  0.00     0.022 A 
BRANCH  83  87
ATOM     87  S   UNL A   1      45.817  36.677  27.062  1.00  0.00     0.124 S 
ATOM     88  O   UNL A   1      46.638  37.738  27.637  1.00  0.00    -0.237 OA
ATOM     89  O   UNL A   1      46.409  35.946  25.946  1.00  0.00    -0.237 OA
ATOM     90  O   UNL A   1      44.401  37.004  26.904  1.00  0.00    -0.744 OA
ENDBRANCH  83  87
ENDBRANCH  57  80
ENDBRANCH  31  32
ENDBRANCH  24  26
ENDBRANCH  23  24
ENDBRANCH   1  23
TORSDOF 16
ENDMDL
