MODEL 1
REMARK VINA RESULT:     -11.4      0.000      0.000
REMARK SMILES CC[C@]1(C(=O)OCCOC(=O)c2ccc(-c3c4nc(c(-c5cc(S(=O)(=O)[O-])ccc5F)c5ccc([nH]5)c(-c5cc(S(=O)(=O)[O-])ccc5F)c5nc(c(-c6cc(S(=O)(=O)[O-])ccc6F)c6ccc3[nH]6)C=C5)C=C4)cc2)CCN(C(=O)[C@]2(C)CCCO2)C1
REMARK SMILES IDX 8 1 7 2 6 3 4 4 5 5 3 6 75 7 86 8 76 9 77 10 2 11 1 12 78 13
REMARK SMILES IDX 79 14 80 15 82 16 85 17 81 18 83 19 84 20 9 21 10 22 11 23
REMARK SMILES IDX 12 24 13 25 74 26 14 27 73 28 15 29 16 30 17 31 67 32 18 33
REMARK SMILES IDX 72 34 66 35 68 36 19 37 71 38 65 39 64 40 20 42 52 43 32 44
REMARK SMILES IDX 51 45 33 46 36 47 50 48 69 49 34 50 35 51 49 53 70 54 37 55
REMARK SMILES IDX 21 56 22 57 30 58 23 59 29 60 31 61 28 62 24 63 25 64 26 65
REMARK SMILES IDX 27 66 53 67 54 68 62 69 55 70 61 71 63 72 60 73 56 74 57 75
REMARK SMILES IDX 58 76 59 77 38 78 39 79 47 80 40 81 46 82 48 83 45 84 41 85
REMARK SMILES IDX 42 86 43 87 44 88
REMARK H PARENT 68 41 36 52
REMARK Flexibility Score: inf
ROOT
ATOM      1  C   UNL A   1      31.616  29.835  25.770  1.00  0.00     0.275 C 
ENDROOT
BRANCH   1   2
ATOM      2  C   UNL A   1      31.426  28.482  26.448  1.00  0.00     0.274 C 
BRANCH   2   3
ATOM      3  O   UNL A   1      31.104  27.478  25.467  1.00  0.00    -0.462 OA
BRANCH   3   4
ATOM      4  C   UNL A   1      31.179  26.179  25.864  1.00  0.00     0.314 C 
ATOM      5  O   UNL A   1      30.518  25.708  26.782  1.00  0.00    -0.252 OA
BRANCH   4   6
ATOM      6  C   UNL A   1      32.243  25.384  25.100  1.00  0.00     0.087 C 
ATOM      7  C   UNL A   1      33.679  25.916  25.282  1.00  0.00     0.042 C 
ATOM      8  C   UNL A   1      32.283  24.011  25.779  1.00  0.00     0.138 C 
ATOM      9  C   UNL A   1      34.547  24.672  25.334  1.00  0.00     0.121 C 
ATOM     10  N   UNL A   1      33.684  23.629  25.848  1.00  0.00    -0.339 N 
BRANCH   6  11
ATOM     11  C   UNL A   1      31.862  25.337  23.593  1.00  0.00     0.017 C 
ATOM     12  C   UNL A   1      30.736  24.411  23.157  1.00  0.00     0.005 C 
ENDBRANCH   6  11
BRANCH  10  13
ATOM     13  C   UNL A   1      34.039  22.380  26.318  1.00  0.00     0.254 C 
ATOM     14  O   UNL A   1      34.369  22.234  27.500  1.00  0.00    -0.272 OA
BRANCH  13  15
ATOM     15  C   UNL A   1      34.062  21.177  25.328  1.00  0.00     0.144 C 
ATOM     16  C   UNL A   1      33.477  21.537  23.960  1.00  0.00     0.048 C 
ATOM     17  O   UNL A   1      33.309  20.066  25.833  1.00  0.00    -0.365 OA
ATOM     18  C   UNL A   1      35.514  20.698  25.167  1.00  0.00     0.053 C 
ATOM     19  C   UNL A   1      32.422  20.490  23.678  1.00  0.00     0.032 C 
ATOM     20  C   UNL A   1      32.585  19.457  24.767  1.00  0.00     0.162 C 
ENDBRANCH  13  15
ENDBRANCH  10  13
ENDBRANCH   4   6
ENDBRANCH   3   4
ENDBRANCH   2   3
ENDBRANCH   1   2
BRANCH   1  21
ATOM     21  O   UNL A   1      32.979  30.263  25.925  1.00  0.00    -0.458 OA
BRANCH  21  22
ATOM     22  C   UNL A   1      33.204  31.176  26.892  1.00  0.00     0.338 C 
ATOM     23  O   UNL A   1      32.430  32.040  27.297  1.00  0.00    -0.246 OA
BRANCH  22  24
ATOM     24  C   UNL A   1      34.543  30.971  27.453  1.00  0.00     0.060 A 
ATOM     25  C   UNL A   1      34.942  29.684  27.813  1.00  0.00     0.016 A 
ATOM     26  C   UNL A   1      35.364  32.061  27.728  1.00  0.00     0.016 A 
ATOM     27  C   UNL A   1      36.114  29.489  28.539  1.00  0.00     0.010 A 
ATOM     28  C   UNL A   1      36.595  31.848  28.355  1.00  0.00     0.010 A 
ATOM     29  C   UNL A   1      36.973  30.564  28.798  1.00  0.00    -0.014 A 
BRANCH  29  30
ATOM     30  C   UNL A   1      38.247  30.383  29.552  1.00  0.00     0.031 A 
ATOM     31  C   UNL A   1      39.330  29.512  28.971  1.00  0.00     0.074 A 
ATOM     32  C   UNL A   1      38.434  30.952  30.760  1.00  0.00     0.049 A 
ATOM     33  N   UNL A   1      40.337  28.928  29.564  1.00  0.00    -0.248 NA
ATOM     34  C   UNL A   1      39.243  29.245  27.527  1.00  0.00     0.031 C 
ATOM     35  C   UNL A   1      37.520  31.890  31.414  1.00  0.00     0.029 A 
ATOM     36  N   UNL A   1      39.460  30.808  31.665  1.00  0.00    -0.354 N 
ATOM     37  C   UNL A   1      40.961  28.160  28.584  1.00  0.00     0.074 A 
ATOM     38  C   UNL A   1      40.219  28.365  27.357  1.00  0.00     0.031 C 
ATOM     39  C   UNL A   1      38.030  32.247  32.603  1.00  0.00     0.029 A 
ATOM     40  C   UNL A   1      39.242  31.478  32.848  1.00  0.00     0.049 A 
ATOM     41  H   UNL A   1      40.269  30.279  31.485  1.00  0.00     0.167 HD
ATOM     42  C   UNL A   1      42.040  27.348  28.712  1.00  0.00     0.034 A 
ATOM     43  C   UNL A   1      39.894  31.422  34.027  1.00  0.00     0.034 A 
ATOM     44  C   UNL A   1      42.790  27.205  29.937  1.00  0.00     0.049 A 
ATOM     45  C   UNL A   1      41.062  30.482  34.167  1.00  0.00     0.074 A 
ATOM     46  C   UNL A   1      43.891  26.404  30.191  1.00  0.00     0.029 A 
ATOM     47  N   UNL A   1      42.525  27.896  31.112  1.00  0.00    -0.354 N 
ATOM     48  N   UNL A   1      41.570  29.662  33.277  1.00  0.00    -0.248 NA
ATOM     49  C   UNL A   1      41.729  30.441  35.475  1.00  0.00     0.031 C 
ATOM     50  C   UNL A   1      44.263  26.579  31.529  1.00  0.00     0.029 A 
ATOM     51  C   UNL A   1      43.433  27.533  32.094  1.00  0.00     0.049 A 
ATOM     52  H   UNL A   1      41.798  28.547  31.231  1.00  0.00     0.167 HD
ATOM     53  C   UNL A   1      42.629  29.021  33.913  1.00  0.00     0.074 A 
ATOM     54  C   UNL A   1      42.690  29.553  35.259  1.00  0.00     0.031 C 
ATOM     55  C   UNL A   1      43.476  28.080  33.428  1.00  0.00     0.034 A 
BRANCH  42  56
ATOM     56  C   UNL A   1      42.415  26.499  27.521  1.00  0.00     0.023 A 
ATOM     57  C   UNL A   1      41.971  25.175  27.372  1.00  0.00     0.031 A 
ATOM     58  C   UNL A   1      43.272  27.021  26.533  1.00  0.00     0.131 A 
ATOM     59  C   UNL A   1      42.441  24.396  26.302  1.00  0.00     0.055 A 
ATOM     60  C   UNL A   1      43.672  26.266  25.430  1.00  0.00     0.041 A 
ATOM     61  F   UNL A   1      43.747  28.272  26.634  1.00  0.00    -0.206 F 
ATOM     62  C   UNL A   1      43.270  24.940  25.317  1.00  0.00     0.022 A 
BRANCH  59  63
ATOM     63  S   UNL A   1      42.071  22.620  26.292  1.00  0.00     0.124 S 
ATOM     64  O   UNL A   1      40.610  22.623  26.252  1.00  0.00    -0.237 OA
ATOM     65  O   UNL A   1      42.742  22.165  25.081  1.00  0.00    -0.237 OA
ATOM     66  O   UNL A   1      42.651  22.142  27.545  1.00  0.00    -0.744 OA
ENDBRANCH  59  63
ENDBRANCH  42  56
BRANCH  43  67
ATOM     67  C   UNL A   1      39.399  32.204  35.195  1.00  0.00     0.023 A 
ATOM     68  C   UNL A   1      39.842  33.513  35.434  1.00  0.00     0.031 A 
ATOM     69  C   UNL A   1      38.481  31.641  36.102  1.00  0.00     0.131 A 
ATOM     70  C   UNL A   1      39.387  34.208  36.566  1.00  0.00     0.055 A 
ATOM     71  C   UNL A   1      37.991  32.355  37.197  1.00  0.00     0.041 A 
ATOM     72  F   UNL A   1      38.026  30.391  35.920  1.00  0.00    -0.206 F 
ATOM     73  C   UNL A   1      38.452  33.644  37.438  1.00  0.00     0.022 A 
BRANCH  70  74
ATOM     74  S   UNL A   1      40.088  35.842  36.923  1.00  0.00     0.124 S 
ATOM     75  O   UNL A   1      39.432  36.178  38.182  1.00  0.00    -0.237 OA
ATOM     76  O   UNL A   1      41.515  35.550  37.001  1.00  0.00    -0.237 OA
ATOM     77  O   UNL A   1      39.680  36.646  35.773  1.00  0.00    -0.744 OA
ENDBRANCH  70  74
ENDBRANCH  43  67
BRANCH  55  78
ATOM     78  C   UNL A   1      44.579  27.622  34.343  1.00  0.00     0.023 A 
ATOM     79  C   UNL A   1      44.405  26.553  35.237  1.00  0.00     0.031 A 
ATOM     80  C   UNL A   1      45.827  28.270  34.308  1.00  0.00     0.131 A 
ATOM     81  C   UNL A   1      45.456  26.184  36.091  1.00  0.00     0.055 A 
ATOM     82  C   UNL A   1      46.881  27.872  35.130  1.00  0.00     0.041 A 
ATOM     83  F   UNL A   1      46.040  29.297  33.470  1.00  0.00    -0.206 F 
ATOM     84  C   UNL A   1      46.697  26.829  36.033  1.00  0.00     0.022 A 
BRANCH  81  85
ATOM     85  S   UNL A   1      45.173  24.875  37.314  1.00  0.00     0.124 S 
ATOM     86  O   UNL A   1      43.717  24.855  37.404  1.00  0.00    -0.237 OA
ATOM     87  O   UNL A   1      45.787  23.713  36.679  1.00  0.00    -0.237 OA
ATOM     88  O   UNL A   1      45.862  25.364  38.506  1.00  0.00    -0.744 OA
ENDBRANCH  81  85
ENDBRANCH  55  78
ENDBRANCH  29  30
ENDBRANCH  22  24
ENDBRANCH  21  22
ENDBRANCH   1  21
TORSDOF 17
ENDMDL
MODEL 2
REMARK VINA RESULT:     -11.4      4.712     10.014
REMARK SMILES CC[C@]1(C(=O)OCCOC(=O)c2ccc(-c3c4nc(c(-c5cc(S(=O)(=O)[O-])ccc5F)c5ccc([nH]5)c(-c5cc(S(=O)(=O)[O-])ccc5F)c5nc(c(-c6cc(S(=O)(=O)[O-])ccc6F)c6ccc3[nH]6)C=C5)C=C4)cc2)CCN(C(=O)[C@]2(C)CCCO2)C1
REMARK SMILES IDX 8 1 7 2 6 3 4 4 5 5 3 6 75 7 86 8 76 9 77 10 2 11 1 12 78 13
REMARK SMILES IDX 79 14 80 15 82 16 85 17 81 18 83 19 84 20 9 21 10 22 11 23
REMARK SMILES IDX 12 24 13 25 74 26 14 27 73 28 15 29 16 30 17 31 67 32 18 33
REMARK SMILES IDX 72 34 66 35 68 36 19 37 71 38 65 39 64 40 20 42 52 43 32 44
REMARK SMILES IDX 51 45 33 46 36 47 50 48 69 49 34 50 35 51 49 53 70 54 37 55
REMARK SMILES IDX 21 56 22 57 30 58 23 59 29 60 31 61 28 62 24 63 25 64 26 65
REMARK SMILES IDX 27 66 53 67 54 68 62 69 55 70 61 71 63 72 60 73 56 74 57 75
REMARK SMILES IDX 58 76 59 77 38 78 39 79 47 80 40 81 46 82 48 83 45 84 41 85
REMARK SMILES IDX 42 86 43 87 44 88
REMARK H PARENT 68 41 36 52
REMARK Flexibility Score: inf
ROOT
ATOM      1  C   UNL A   1      36.165  20.732  25.017  1.00  0.00     0.275 C 
ENDROOT
BRANCH   1   2
ATOM      2  C   UNL A   1      34.887  21.350  24.461  1.00  0.00     0.274 C 
BRANCH   2   3
ATOM      3  O   UNL A   1      35.017  22.784  24.402  1.00  0.00    -0.462 OA
BRANCH   3   4
ATOM      4  C   UNL A   1      34.182  23.446  23.557  1.00  0.00     0.314 C 
ATOM      5  O   UNL A   1      34.211  23.325  22.338  1.00  0.00    -0.252 OA
BRANCH   4   6
ATOM      6  C   UNL A   1      33.257  24.428  24.282  1.00  0.00     0.087 C 
ATOM      7  C   UNL A   1      33.894  25.101  25.515  1.00  0.00     0.042 C 
ATOM      8  C   UNL A   1      33.059  25.591  23.304  1.00  0.00     0.138 C 
ATOM      9  C   UNL A   1      33.364  26.524  25.494  1.00  0.00     0.121 C 
ATOM     10  N   UNL A   1      33.092  26.807  24.100  1.00  0.00    -0.339 N 
BRANCH   6  11
ATOM     11  C   UNL A   1      31.942  23.697  24.674  1.00  0.00     0.017 C 
ATOM     12  C   UNL A   1      30.889  23.468  23.599  1.00  0.00     0.005 C 
ENDBRANCH   6  11
BRANCH  10  13
ATOM     13  C   UNL A   1      32.833  28.028  23.511  1.00  0.00     0.254 C 
ATOM     14  O   UNL A   1      33.701  28.582  22.827  1.00  0.00    -0.272 OA
BRANCH  13  15
ATOM     15  C   UNL A   1      31.456  28.713  23.760  1.00  0.00     0.144 C 
ATOM     16  C   UNL A   1      30.344  27.698  24.044  1.00  0.00     0.048 C 
ATOM     17  O   UNL A   1      31.042  29.490  22.628  1.00  0.00    -0.365 OA
ATOM     18  C   UNL A   1      31.593  29.683  24.944  1.00  0.00     0.053 C 
ATOM     19  C   UNL A   1      29.233  28.027  23.071  1.00  0.00     0.032 C 
ATOM     20  C   UNL A   1      29.641  29.329  22.426  1.00  0.00     0.162 C 
ENDBRANCH  13  15
ENDBRANCH  10  13
ENDBRANCH   4   6
ENDBRANCH   3   4
ENDBRANCH   2   3
ENDBRANCH   1   2
BRANCH   1  21
ATOM     21  O   UNL A   1      37.008  21.767  25.550  1.00  0.00    -0.458 OA
BRANCH  21  22
ATOM     22  C   UNL A   1      38.293  21.425  25.774  1.00  0.00     0.338 C 
ATOM     23  O   UNL A   1      38.848  20.371  25.472  1.00  0.00    -0.246 OA
BRANCH  22  24
ATOM     24  C   UNL A   1      38.987  22.540  26.425  1.00  0.00     0.060 A 
ATOM     25  C   UNL A   1      38.571  23.846  26.167  1.00  0.00     0.016 A 
ATOM     26  C   UNL A   1      40.119  22.306  27.201  1.00  0.00     0.016 A 
ATOM     27  C   UNL A   1      39.339  24.925  26.598  1.00  0.00     0.010 A 
ATOM     28  C   UNL A   1      40.822  23.393  27.730  1.00  0.00     0.010 A 
ATOM     29  C   UNL A   1      40.462  24.717  27.409  1.00  0.00    -0.014 A 
BRANCH  29  30
ATOM     30  C   UNL A   1      41.289  25.855  27.905  1.00  0.00     0.031 A 
ATOM     31  C   UNL A   1      40.646  26.917  28.757  1.00  0.00     0.074 A 
ATOM     32  C   UNL A   1      42.591  25.971  27.575  1.00  0.00     0.049 A 
ATOM     33  N   UNL A   1      41.039  28.138  29.002  1.00  0.00    -0.248 NA
ATOM     34  C   UNL A   1      39.372  26.553  29.396  1.00  0.00     0.031 C 
ATOM     35  C   UNL A   1      43.377  24.983  26.834  1.00  0.00     0.029 A 
ATOM     36  N   UNL A   1      43.484  26.990  27.811  1.00  0.00    -0.354 N 
ATOM     37  C   UNL A   1      40.024  28.718  29.759  1.00  0.00     0.074 A 
ATOM     38  C   UNL A   1      39.004  27.705  29.938  1.00  0.00     0.031 C 
ATOM     39  C   UNL A   1      44.631  25.435  26.689  1.00  0.00     0.029 A 
ATOM     40  C   UNL A   1      44.711  26.789  27.220  1.00  0.00     0.049 A 
ATOM     41  H   UNL A   1      43.268  27.784  28.350  1.00  0.00     0.167 HD
ATOM     42  C   UNL A   1      39.951  29.985  30.239  1.00  0.00     0.034 A 
ATOM     43  C   UNL A   1      45.756  27.624  27.050  1.00  0.00     0.034 A 
ATOM     44  C   UNL A   1      41.007  30.957  30.089  1.00  0.00     0.049 A 
ATOM     45  C   UNL A   1      45.642  29.041  27.547  1.00  0.00     0.074 A 
ATOM     46  C   UNL A   1      41.043  32.273  30.519  1.00  0.00     0.029 A 
ATOM     47  N   UNL A   1      42.227  30.711  29.473  1.00  0.00    -0.354 N 
ATOM     48  N   UNL A   1      44.631  29.623  28.148  1.00  0.00    -0.248 NA
ATOM     49  C   UNL A   1      46.798  29.918  27.322  1.00  0.00     0.031 C 
ATOM     50  C   UNL A   1      42.264  32.832  30.126  1.00  0.00     0.029 A 
ATOM     51  C   UNL A   1      43.017  31.850  29.503  1.00  0.00     0.049 A 
ATOM     52  H   UNL A   1      42.493  29.852  29.072  1.00  0.00     0.167 HD
ATOM     53  C   UNL A   1      45.038  30.932  28.390  1.00  0.00     0.074 A 
ATOM     54  C   UNL A   1      46.386  31.051  27.875  1.00  0.00     0.031 C 
ATOM     55  C   UNL A   1      44.359  31.943  28.985  1.00  0.00     0.034 A 
BRANCH  42  56
ATOM     56  C   UNL A   1      38.657  30.407  30.895  1.00  0.00     0.023 A 
ATOM     57  C   UNL A   1      37.601  30.983  30.171  1.00  0.00     0.031 A 
ATOM     58  C   UNL A   1      38.500  30.260  32.286  1.00  0.00     0.131 A 
ATOM     59  C   UNL A   1      36.466  31.458  30.849  1.00  0.00     0.055 A 
ATOM     60  C   UNL A   1      37.336  30.662  32.943  1.00  0.00     0.041 A 
ATOM     61  F   UNL A   1      39.483  29.737  33.033  1.00  0.00    -0.206 F 
ATOM     62  C   UNL A   1      36.316  31.280  32.227  1.00  0.00     0.022 A 
BRANCH  59  63
ATOM     63  S   UNL A   1      35.252  32.441  29.927  1.00  0.00     0.124 S 
ATOM     64  O   UNL A   1      34.240  32.695  30.949  1.00  0.00    -0.237 OA
ATOM     65  O   UNL A   1      36.037  33.596  29.505  1.00  0.00    -0.237 OA
ATOM     66  O   UNL A   1      34.830  31.546  28.852  1.00  0.00    -0.744 OA
ENDBRANCH  59  63
ENDBRANCH  42  56
BRANCH  43  67
ATOM     67  C   UNL A   1      46.958  27.174  26.292  1.00  0.00     0.023 A 
ATOM     68  C   UNL A   1      48.025  26.530  26.937  1.00  0.00     0.031 A 
ATOM     69  C   UNL A   1      47.063  27.399  24.906  1.00  0.00     0.131 A 
ATOM     70  C   UNL A   1      49.161  26.155  26.202  1.00  0.00     0.055 A 
ATOM     71  C   UNL A   1      48.171  26.977  24.171  1.00  0.00     0.041 A 
ATOM     72  F   UNL A   1      46.071  28.012  24.241  1.00  0.00    -0.206 F 
ATOM     73  C   UNL A   1      49.233  26.359  24.821  1.00  0.00     0.022 A 
BRANCH  70  74
ATOM     74  S   UNL A   1      50.579  25.455  27.089  1.00  0.00     0.124 S 
ATOM     75  O   UNL A   1      50.960  26.560  27.960  1.00  0.00    -0.237 OA
ATOM     76  O   UNL A   1      49.984  24.296  27.746  1.00  0.00    -0.237 OA
ATOM     77  O   UNL A   1      51.528  25.145  26.022  1.00  0.00    -0.744 OA
ENDBRANCH  70  74
ENDBRANCH  43  67
BRANCH  55  78
ATOM     78  C   UNL A   1      45.097  33.241  29.170  1.00  0.00     0.023 A 
ATOM     79  C   UNL A   1      44.987  34.294  28.247  1.00  0.00     0.031 A 
ATOM     80  C   UNL A   1      45.920  33.422  30.297  1.00  0.00     0.131 A 
ATOM     81  C   UNL A   1      45.719  35.474  28.449  1.00  0.00     0.055 A 
ATOM     82  C   UNL A   1      46.613  34.612  30.513  1.00  0.00     0.041 A 
ATOM     83  F   UNL A   1      46.056  32.443  31.206  1.00  0.00    -0.206 F 
ATOM     84  C   UNL A   1      46.521  35.644  29.583  1.00  0.00     0.022 A 
BRANCH  81  85
ATOM     85  S   UNL A   1      45.648  36.775  27.188  1.00  0.00     0.124 S 
ATOM     86  O   UNL A   1      46.198  37.921  27.905  1.00  0.00    -0.237 OA
ATOM     87  O   UNL A   1      46.485  36.229  26.124  1.00  0.00    -0.237 OA
ATOM     88  O   UNL A   1      44.225  36.868  26.869  1.00  0.00    -0.744 OA
ENDBRANCH  81  85
ENDBRANCH  55  78
ENDBRANCH  29  30
ENDBRANCH  22  24
ENDBRANCH  21  22
ENDBRANCH   1  21
TORSDOF 17
ENDMDL
MODEL 3
REMARK VINA RESULT:     -11.3      5.063      9.958
REMARK SMILES CC[C@]1(C(=O)OCCOC(=O)c2ccc(-c3c4nc(c(-c5cc(S(=O)(=O)[O-])ccc5F)c5ccc([nH]5)c(-c5cc(S(=O)(=O)[O-])ccc5F)c5nc(c(-c6cc(S(=O)(=O)[O-])ccc6F)c6ccc3[nH]6)C=C5)C=C4)cc2)CCN(C(=O)[C@]2(C)CCCO2)C1
REMARK SMILES IDX 8 1 7 2 6 3 4 4 5 5 3 6 75 7 86 8 76 9 77 10 2 11 1 12 78 13
REMARK SMILES IDX 79 14 80 15 82 16 85 17 81 18 83 19 84 20 9 21 10 22 11 23
REMARK SMILES IDX 12 24 13 25 74 26 14 27 73 28 15 29 16 30 17 31 67 32 18 33
REMARK SMILES IDX 72 34 66 35 68 36 19 37 71 38 65 39 64 40 20 42 52 43 32 44
REMARK SMILES IDX 51 45 33 46 36 47 50 48 69 49 34 50 35 51 49 53 70 54 37 55
REMARK SMILES IDX 21 56 22 57 30 58 23 59 29 60 31 61 28 62 24 63 25 64 26 65
REMARK SMILES IDX 27 66 53 67 54 68 62 69 55 70 61 71 63 72 60 73 56 74 57 75
REMARK SMILES IDX 58 76 59 77 38 78 39 79 47 80 40 81 46 82 48 83 45 84 41 85
REMARK SMILES IDX 42 86 43 87 44 88
REMARK H PARENT 68 41 36 52
REMARK Flexibility Score: inf
ROOT
ATOM      1  C   UNL A   1      36.161  20.781  24.934  1.00  0.00     0.275 C 
ENDROOT
BRANCH   1   2
ATOM      2  C   UNL A   1      34.749  20.770  25.510  1.00  0.00     0.274 C 
BRANCH   2   3
ATOM      3  O   UNL A   1      33.780  20.837  24.445  1.00  0.00    -0.462 OA
BRANCH   3   4
ATOM      4  C   UNL A   1      32.590  21.431  24.730  1.00  0.00     0.314 C 
ATOM      5  O   UNL A   1      31.671  20.869  25.314  1.00  0.00    -0.252 OA
BRANCH   4   6
ATOM      6  C   UNL A   1      32.484  22.851  24.165  1.00  0.00     0.087 C 
ATOM      7  C   UNL A   1      31.250  23.083  23.269  1.00  0.00     0.042 C 
ATOM      8  C   UNL A   1      32.217  23.748  25.378  1.00  0.00     0.138 C 
ATOM      9  C   UNL A   1      30.800  24.496  23.592  1.00  0.00     0.121 C 
ATOM     10  N   UNL A   1      31.235  24.731  24.953  1.00  0.00    -0.339 N 
BRANCH   6  11
ATOM     11  C   UNL A   1      33.791  23.194  23.396  1.00  0.00     0.017 C 
ATOM     12  C   UNL A   1      34.341  24.610  23.494  1.00  0.00     0.005 C 
ENDBRANCH   6  11
BRANCH  10  13
ATOM     13  C   UNL A   1      30.866  25.755  25.803  1.00  0.00     0.254 C 
ATOM     14  O   UNL A   1      29.929  25.596  26.594  1.00  0.00    -0.272 OA
BRANCH  13  15
ATOM     15  C   UNL A   1      31.615  27.118  25.717  1.00  0.00     0.144 C 
ATOM     16  C   UNL A   1      30.977  28.071  24.701  1.00  0.00     0.048 C 
ATOM     17  O   UNL A   1      32.985  26.943  25.332  1.00  0.00    -0.365 OA
ATOM     18  C   UNL A   1      31.620  27.767  27.110  1.00  0.00     0.053 C 
ATOM     19  C   UNL A   1      32.101  28.506  23.787  1.00  0.00     0.032 C 
ATOM     20  C   UNL A   1      33.362  27.977  24.427  1.00  0.00     0.162 C 
ENDBRANCH  13  15
ENDBRANCH  10  13
ENDBRANCH   4   6
ENDBRANCH   3   4
ENDBRANCH   2   3
ENDBRANCH   1   2
BRANCH   1  21
ATOM     21  O   UNL A   1      36.954  21.761  25.626  1.00  0.00    -0.458 OA
BRANCH  21  22
ATOM     22  C   UNL A   1      38.266  21.476  25.749  1.00  0.00     0.338 C 
ATOM     23  O   UNL A   1      38.851  20.469  25.359  1.00  0.00    -0.246 OA
BRANCH  22  24
ATOM     24  C   UNL A   1      38.947  22.594  26.410  1.00  0.00     0.060 A 
ATOM     25  C   UNL A   1      38.538  23.898  26.136  1.00  0.00     0.016 A 
ATOM     26  C   UNL A   1      40.060  22.363  27.213  1.00  0.00     0.016 A 
ATOM     27  C   UNL A   1      39.296  24.980  26.579  1.00  0.00     0.010 A 
ATOM     28  C   UNL A   1      40.752  23.453  27.751  1.00  0.00     0.010 A 
ATOM     29  C   UNL A   1      40.400  24.775  27.415  1.00  0.00    -0.014 A 
BRANCH  29  30
ATOM     30  C   UNL A   1      41.217  25.915  27.924  1.00  0.00     0.031 A 
ATOM     31  C   UNL A   1      40.558  26.976  28.765  1.00  0.00     0.074 A 
ATOM     32  C   UNL A   1      42.524  26.034  27.615  1.00  0.00     0.049 A 
ATOM     33  N   UNL A   1      40.944  28.199  29.016  1.00  0.00    -0.248 NA
ATOM     34  C   UNL A   1      39.274  26.610  29.383  1.00  0.00     0.031 C 
ATOM     35  C   UNL A   1      43.324  25.047  26.887  1.00  0.00     0.029 A 
ATOM     36  N   UNL A   1      43.411  27.054  27.865  1.00  0.00    -0.354 N 
ATOM     37  C   UNL A   1      39.916  28.777  29.756  1.00  0.00     0.074 A 
ATOM     38  C   UNL A   1      38.896  27.762  29.919  1.00  0.00     0.031 C 
ATOM     39  C   UNL A   1      44.579  25.501  26.763  1.00  0.00     0.029 A 
ATOM     40  C   UNL A   1      44.648  26.856  27.294  1.00  0.00     0.049 A 
ATOM     41  H   UNL A   1      43.184  27.849  28.399  1.00  0.00     0.167 HD
ATOM     42  C   UNL A   1      39.833  30.044  30.233  1.00  0.00     0.034 A 
ATOM     43  C   UNL A   1      45.693  27.693  27.140  1.00  0.00     0.034 A 
ATOM     44  C   UNL A   1      40.889  31.019  30.100  1.00  0.00     0.049 A 
ATOM     45  C   UNL A   1      45.569  29.110  27.635  1.00  0.00     0.074 A 
ATOM     46  C   UNL A   1      40.915  32.334  30.530  1.00  0.00     0.029 A 
ATOM     47  N   UNL A   1      42.120  30.774  29.504  1.00  0.00    -0.354 N 
ATOM     48  N   UNL A   1      44.547  29.691  28.219  1.00  0.00    -0.248 NA
ATOM     49  C   UNL A   1      46.727  29.989  27.428  1.00  0.00     0.031 C 
ATOM     50  C   UNL A   1      42.141  32.896  30.156  1.00  0.00     0.029 A 
ATOM     51  C   UNL A   1      42.906  31.914  29.546  1.00  0.00     0.049 A 
ATOM     52  H   UNL A   1      42.394  29.916  29.107  1.00  0.00     0.167 HD
ATOM     53  C   UNL A   1      44.947  31.000  28.466  1.00  0.00     0.074 A 
ATOM     54  C   UNL A   1      46.304  31.122  27.973  1.00  0.00     0.031 C 
ATOM     55  C   UNL A   1      44.257  32.011  29.050  1.00  0.00     0.034 A 
BRANCH  42  56
ATOM     56  C   UNL A   1      38.528  30.463  30.867  1.00  0.00     0.023 A 
ATOM     57  C   UNL A   1      37.513  31.109  30.143  1.00  0.00     0.031 A 
ATOM     58  C   UNL A   1      38.317  30.242  32.242  1.00  0.00     0.131 A 
ATOM     59  C   UNL A   1      36.367  31.576  30.808  1.00  0.00     0.055 A 
ATOM     60  C   UNL A   1      37.141  30.638  32.881  1.00  0.00     0.041 A 
ATOM     61  F   UNL A   1      39.260  29.650  32.991  1.00  0.00    -0.206 F 
ATOM     62  C   UNL A   1      36.164  31.324  32.167  1.00  0.00     0.022 A 
BRANCH  59  63
ATOM     63  S   UNL A   1      35.213  32.643  29.903  1.00  0.00     0.124 S 
ATOM     64  O   UNL A   1      34.272  33.020  30.955  1.00  0.00    -0.237 OA
ATOM     65  O   UNL A   1      36.083  33.706  29.414  1.00  0.00    -0.237 OA
ATOM     66  O   UNL A   1      34.664  31.762  28.874  1.00  0.00    -0.744 OA
ENDBRANCH  59  63
ENDBRANCH  42  56
BRANCH  43  67
ATOM     67  C   UNL A   1      46.909  27.245  26.403  1.00  0.00     0.023 A 
ATOM     68  C   UNL A   1      47.122  27.606  25.064  1.00  0.00     0.031 A 
ATOM     69  C   UNL A   1      47.872  26.430  27.028  1.00  0.00     0.131 A 
ATOM     70  C   UNL A   1      48.258  27.134  24.386  1.00  0.00     0.055 A 
ATOM     71  C   UNL A   1      49.025  26.007  26.366  1.00  0.00     0.041 A 
ATOM     72  F   UNL A   1      47.715  26.054  28.308  1.00  0.00    -0.206 F 
ATOM     73  C   UNL A   1      49.218  26.352  25.033  1.00  0.00     0.022 A 
BRANCH  70  74
ATOM     74  S   UNL A   1      48.430  27.502  22.619  1.00  0.00     0.124 S 
ATOM     75  O   UNL A   1      47.207  28.247  22.349  1.00  0.00    -0.237 OA
ATOM     76  O   UNL A   1      49.670  28.271  22.589  1.00  0.00    -0.237 OA
ATOM     77  O   UNL A   1      48.505  26.179  22.002  1.00  0.00    -0.744 OA
ENDBRANCH  70  74
ENDBRANCH  43  67
BRANCH  55  78
ATOM     78  C   UNL A   1      44.989  33.310  29.246  1.00  0.00     0.023 A 
ATOM     79  C   UNL A   1      44.889  34.364  28.322  1.00  0.00     0.031 A 
ATOM     80  C   UNL A   1      45.795  33.492  30.384  1.00  0.00     0.131 A 
ATOM     81  C   UNL A   1      45.615  35.545  28.535  1.00  0.00     0.055 A 
ATOM     82  C   UNL A   1      46.483  34.684  30.610  1.00  0.00     0.041 A 
ATOM     83  F   UNL A   1      45.921  32.513  31.294  1.00  0.00    -0.206 F 
ATOM     84  C   UNL A   1      46.401  35.716  29.680  1.00  0.00     0.022 A 
BRANCH  81  85
ATOM     85  S   UNL A   1      45.558  36.847  27.274  1.00  0.00     0.124 S 
ATOM     86  O   UNL A   1      44.139  36.881  26.938  1.00  0.00    -0.237 OA
ATOM     87  O   UNL A   1      46.069  38.008  27.997  1.00  0.00    -0.237 OA
ATOM     88  O   UNL A   1      46.434  36.343  26.218  1.00  0.00    -0.744 OA
ENDBRANCH  81  85
ENDBRANCH  55  78
ENDBRANCH  29  30
ENDBRANCH  22  24
ENDBRANCH  21  22
ENDBRANCH   1  21
TORSDOF 17
ENDMDL
