MODEL 1
REMARK VINA RESULT:     -11.3      0.000      0.000
REMARK SMILES COCCCN1C(=O)CC[C@@H](C(=O)OCCOC(=O)c2ccc(-c3c4nc(c(-c5cc(S(=O)(=O)[O-])ccc5F)c5ccc([nH]5)c(-c5cc(S(=O)(=O)[O-])ccc5F)c5nc(c(-c6cc(S(=O)(=O)[O-])ccc6F)c6ccc3[nH]6)C=C5)C=C4)cc2)[C@@H]1c1ccc(F)cc1
REMARK SMILES IDX 15 1 14 2 12 3 13 4 11 5 6 6 7 7 83 8 8 9 9 10 10 11 5 12
REMARK SMILES IDX 4 13 3 14 2 15 1 16 84 17 85 18 90 19 86 20 89 21 87 22
REMARK SMILES IDX 88 23 16 24 17 25 18 26 19 27 20 28 21 29 82 30 22 31 81 32
REMARK SMILES IDX 23 33 24 34 25 35 75 36 26 37 80 38 74 39 76 40 27 41 79 42
REMARK SMILES IDX 73 43 72 44 28 46 60 47 40 48 59 49 41 50 44 51 58 52 77 53
REMARK SMILES IDX 42 54 43 55 57 57 78 58 45 59 29 60 30 61 38 62 31 63 37 64
REMARK SMILES IDX 39 65 36 66 32 67 33 68 34 69 35 70 61 71 62 72 70 73 63 74
REMARK SMILES IDX 69 75 71 76 68 77 64 78 65 79 66 80 67 81 46 82 47 83 55 84
REMARK SMILES IDX 48 85 54 86 56 87 53 88 49 89 50 90 51 91 52 92
REMARK H PARENT 76 45 44 56
REMARK Flexibility Score: inf
ROOT
ATOM      1  C   UNL A   1      35.290  21.789  24.018  1.00  0.00     0.274 C 
ENDROOT
BRANCH   1   2
ATOM      2  O   UNL A   1      35.722  23.170  24.113  1.00  0.00    -0.462 OA
BRANCH   2   3
ATOM      3  C   UNL A   1      34.811  24.108  23.717  1.00  0.00     0.311 C 
ATOM      4  O   UNL A   1      34.377  24.199  22.578  1.00  0.00    -0.252 OA
BRANCH   3   5
ATOM      5  C   UNL A   1      34.455  25.058  24.860  1.00  0.00     0.127 C 
ATOM      6  N   UNL A   1      32.012  25.091  24.338  1.00  0.00    -0.335 N 
ATOM      7  C   UNL A   1      31.790  23.962  25.132  1.00  0.00     0.223 C 
ATOM      8  C   UNL A   1      33.237  25.895  24.442  1.00  0.00     0.129 C 
ATOM      9  O   UNL A   1      30.744  23.314  25.063  1.00  0.00    -0.275 OA
ATOM     10  C   UNL A   1      32.886  23.495  26.075  1.00  0.00     0.101 C 
ATOM     11  C   UNL A   1      34.119  24.375  26.179  1.00  0.00     0.028 C 
BRANCH   6  12
ATOM     12  C   UNL A   1      30.964  25.402  23.354  1.00  0.00     0.122 C 
BRANCH  12  13
ATOM     13  C   UNL A   1      31.148  26.559  22.369  1.00  0.00     0.050 C 
BRANCH  13  14
ATOM     14  C   UNL A   1      30.244  27.787  22.489  1.00  0.00     0.161 C 
BRANCH  14  15
ATOM     15  O   UNL A   1      30.109  28.285  23.815  1.00  0.00    -0.385 OA
ATOM     16  C   UNL A   1      30.617  29.597  24.017  1.00  0.00     0.194 C 
ENDBRANCH  14  15
ENDBRANCH  13  14
ENDBRANCH  12  13
ENDBRANCH   6  12
BRANCH   8  17
ATOM     17  C   UNL A   1      33.060  27.106  25.366  1.00  0.00    -0.024 A 
ATOM     18  C   UNL A   1      32.088  27.134  26.387  1.00  0.00     0.009 A 
ATOM     19  C   UNL A   1      33.927  28.207  25.242  1.00  0.00     0.009 A 
ATOM     20  C   UNL A   1      31.986  28.221  27.254  1.00  0.00     0.039 A 
ATOM     21  C   UNL A   1      33.827  29.292  26.116  1.00  0.00     0.039 A 
ATOM     22  C   UNL A   1      32.858  29.289  27.112  1.00  0.00     0.123 A 
ATOM     23  F   UNL A   1      32.766  30.333  27.947  1.00  0.00    -0.207 F 
ENDBRANCH   8  17
ENDBRANCH   3   5
ENDBRANCH   2   3
ENDBRANCH   1   2
BRANCH   1  24
ATOM     24  C   UNL A   1      35.905  20.929  25.123  1.00  0.00     0.275 C 
BRANCH  24  25
ATOM     25  O   UNL A   1      36.828  21.736  25.867  1.00  0.00    -0.458 OA
BRANCH  25  26
ATOM     26  C   UNL A   1      38.134  21.386  25.796  1.00  0.00     0.338 C 
ATOM     27  O   UNL A   1      38.607  20.393  25.276  1.00  0.00    -0.246 OA
BRANCH  26  28
ATOM     28  C   UNL A   1      38.917  22.486  26.388  1.00  0.00     0.060 A 
ATOM     29  C   UNL A   1      38.491  23.789  26.140  1.00  0.00     0.016 A 
ATOM     30  C   UNL A   1      40.083  22.263  27.114  1.00  0.00     0.016 A 
ATOM     31  C   UNL A   1      39.221  24.881  26.590  1.00  0.00     0.010 A 
ATOM     32  C   UNL A   1      40.798  23.363  27.611  1.00  0.00     0.010 A 
ATOM     33  C   UNL A   1      40.379  24.680  27.340  1.00  0.00    -0.014 A 
BRANCH  33  34
ATOM     34  C   UNL A   1      41.203  25.854  27.726  1.00  0.00     0.031 A 
ATOM     35  C   UNL A   1      40.589  26.917  28.589  1.00  0.00     0.074 A 
ATOM     36  C   UNL A   1      42.506  25.932  27.392  1.00  0.00     0.049 A 
ATOM     37  N   UNL A   1      41.049  28.096  28.911  1.00  0.00    -0.248 NA
ATOM     38  C   UNL A   1      39.280  26.595  29.179  1.00  0.00     0.031 C 
ATOM     39  C   UNL A   1      43.266  24.896  26.690  1.00  0.00     0.029 A 
ATOM     40  N   UNL A   1      43.427  26.929  27.609  1.00  0.00    -0.354 N 
ATOM     41  C   UNL A   1      40.074  28.676  29.714  1.00  0.00     0.074 A 
ATOM     42  C   UNL A   1      38.995  27.715  29.824  1.00  0.00     0.031 C 
ATOM     43  C   UNL A   1      44.534  25.313  26.535  1.00  0.00     0.029 A 
ATOM     44  C   UNL A   1      44.657  26.674  27.047  1.00  0.00     0.049 A 
ATOM     45  H   UNL A   1      43.225  27.747  28.118  1.00  0.00     0.167 HD
ATOM     46  C   UNL A   1      40.076  29.902  30.293  1.00  0.00     0.034 A 
ATOM     47  C   UNL A   1      45.737  27.471  26.908  1.00  0.00     0.034 A 
ATOM     48  C   UNL A   1      41.161  30.842  30.167  1.00  0.00     0.049 A 
ATOM     49  C   UNL A   1      45.664  28.885  27.433  1.00  0.00     0.074 A 
ATOM     50  C   UNL A   1      41.248  32.135  30.654  1.00  0.00     0.029 A 
ATOM     51  N   UNL A   1      42.356  30.588  29.505  1.00  0.00    -0.354 N 
ATOM     52  N   UNL A   1      44.689  29.477  28.088  1.00  0.00    -0.248 NA
ATOM     53  C   UNL A   1      46.826  29.747  27.181  1.00  0.00     0.031 C 
ATOM     54  C   UNL A   1      42.467  32.681  30.236  1.00  0.00     0.029 A 
ATOM     55  C   UNL A   1      43.174  31.707  29.547  1.00  0.00     0.049 A 
ATOM     56  H   UNL A   1      42.589  29.737  29.069  1.00  0.00     0.167 HD
ATOM     57  C   UNL A   1      45.132  30.773  28.340  1.00  0.00     0.074 A 
ATOM     58  C   UNL A   1      46.466  30.871  27.783  1.00  0.00     0.031 C 
ATOM     59  C   UNL A   1      44.496  31.790  28.975  1.00  0.00     0.034 A 
BRANCH  46  60
ATOM     60  C   UNL A   1      38.822  30.313  31.020  1.00  0.00     0.023 A 
ATOM     61  C   UNL A   1      37.758  30.962  30.368  1.00  0.00     0.031 A 
ATOM     62  C   UNL A   1      38.722  30.113  32.408  1.00  0.00     0.131 A 
ATOM     63  C   UNL A   1      36.676  31.452  31.116  1.00  0.00     0.055 A 
ATOM     64  C   UNL A   1      37.608  30.535  33.136  1.00  0.00     0.041 A 
ATOM     65  F   UNL A   1      39.721  29.525  33.086  1.00  0.00    -0.206 F 
ATOM     66  C   UNL A   1      36.584  31.223  32.492  1.00  0.00     0.022 A 
BRANCH  63  67
ATOM     67  S   UNL A   1      35.465  32.524  30.295  1.00  0.00     0.124 S 
ATOM     68  O   UNL A   1      36.200  33.783  30.200  1.00  0.00    -0.237 OA
ATOM     69  O   UNL A   1      35.227  31.826  29.037  1.00  0.00    -0.237 OA
ATOM     70  O   UNL A   1      34.336  32.540  31.224  1.00  0.00    -0.744 OA
ENDBRANCH  63  67
ENDBRANCH  46  60
BRANCH  47  71
ATOM     71  C   UNL A   1      46.937  27.006  26.152  1.00  0.00     0.023 A 
ATOM     72  C   UNL A   1      48.017  26.385  26.800  1.00  0.00     0.031 A 
ATOM     73  C   UNL A   1      47.051  27.247  24.769  1.00  0.00     0.131 A 
ATOM     74  C   UNL A   1      49.178  26.067  26.076  1.00  0.00     0.055 A 
ATOM     75  C   UNL A   1      48.183  26.875  24.043  1.00  0.00     0.041 A 
ATOM     76  F   UNL A   1      46.057  27.853  24.100  1.00  0.00    -0.206 F 
ATOM     77  C   UNL A   1      49.262  26.293  24.700  1.00  0.00     0.022 A 
BRANCH  74  78
ATOM     78  S   UNL A   1      50.626  25.444  26.977  1.00  0.00     0.124 S 
ATOM     79  O   UNL A   1      50.066  24.293  27.678  1.00  0.00    -0.237 OA
ATOM     80  O   UNL A   1      51.554  25.145  25.893  1.00  0.00    -0.237 OA
ATOM     81  O   UNL A   1      51.007  26.567  27.830  1.00  0.00    -0.744 OA
ENDBRANCH  74  78
ENDBRANCH  47  71
BRANCH  59  82
ATOM     82  C   UNL A   1      45.261  33.079  29.134  1.00  0.00     0.023 A 
ATOM     83  C   UNL A   1      45.250  34.075  28.141  1.00  0.00     0.031 A 
ATOM     84  C   UNL A   1      46.018  33.311  30.297  1.00  0.00     0.131 A 
ATOM     85  C   UNL A   1      46.019  35.237  28.309  1.00  0.00     0.055 A 
ATOM     86  C   UNL A   1      46.740  34.490  30.481  1.00  0.00     0.041 A 
ATOM     87  F   UNL A   1      46.063  32.393  31.276  1.00  0.00    -0.206 F 
ATOM     88  C   UNL A   1      46.752  35.456  29.478  1.00  0.00     0.022 A 
BRANCH  85  89
ATOM     89  S   UNL A   1      46.109  36.429  26.945  1.00  0.00     0.124 S 
ATOM     90  O   UNL A   1      44.887  37.202  27.134  1.00  0.00    -0.237 OA
ATOM     91  O   UNL A   1      47.359  37.131  27.225  1.00  0.00    -0.237 OA
ATOM     92  O   UNL A   1      46.130  35.584  25.752  1.00  0.00    -0.744 OA
ENDBRANCH  85  89
ENDBRANCH  59  82
ENDBRANCH  33  34
ENDBRANCH  26  28
ENDBRANCH  25  26
ENDBRANCH  24  25
ENDBRANCH   1  24
TORSDOF 19
ENDMDL
MODEL 2
REMARK VINA RESULT:     -11.2      1.387      1.647
REMARK SMILES COCCCN1C(=O)CC[C@@H](C(=O)OCCOC(=O)c2ccc(-c3c4nc(c(-c5cc(S(=O)(=O)[O-])ccc5F)c5ccc([nH]5)c(-c5cc(S(=O)(=O)[O-])ccc5F)c5nc(c(-c6cc(S(=O)(=O)[O-])ccc6F)c6ccc3[nH]6)C=C5)C=C4)cc2)[C@@H]1c1ccc(F)cc1
REMARK SMILES IDX 15 1 14 2 12 3 13 4 11 5 6 6 7 7 83 8 8 9 9 10 10 11 5 12
REMARK SMILES IDX 4 13 3 14 2 15 1 16 84 17 85 18 90 19 86 20 89 21 87 22
REMARK SMILES IDX 88 23 16 24 17 25 18 26 19 27 20 28 21 29 82 30 22 31 81 32
REMARK SMILES IDX 23 33 24 34 25 35 75 36 26 37 80 38 74 39 76 40 27 41 79 42
REMARK SMILES IDX 73 43 72 44 28 46 60 47 40 48 59 49 41 50 44 51 58 52 77 53
REMARK SMILES IDX 42 54 43 55 57 57 78 58 45 59 29 60 30 61 38 62 31 63 37 64
REMARK SMILES IDX 39 65 36 66 32 67 33 68 34 69 35 70 61 71 62 72 70 73 63 74
REMARK SMILES IDX 69 75 71 76 68 77 64 78 65 79 66 80 67 81 46 82 47 83 55 84
REMARK SMILES IDX 48 85 54 86 56 87 53 88 49 89 50 90 51 91 52 92
REMARK H PARENT 76 45 44 56
REMARK Flexibility Score: inf
ROOT
ATOM      1  C   UNL A   1      36.619  22.205  23.447  1.00  0.00     0.274 C 
ENDROOT
BRANCH   1   2
ATOM      2  O   UNL A   1      36.404  23.598  23.791  1.00  0.00    -0.462 OA
BRANCH   2   3
ATOM      3  C   UNL A   1      35.129  24.059  23.636  1.00  0.00     0.311 C 
ATOM      4  O   UNL A   1      34.412  23.778  22.686  1.00  0.00    -0.252 OA
BRANCH   3   5
ATOM      5  C   UNL A   1      34.738  25.013  24.764  1.00  0.00     0.127 C 
ATOM      6  N   UNL A   1      32.288  24.571  24.561  1.00  0.00    -0.335 N 
ATOM      7  C   UNL A   1      32.375  23.483  25.434  1.00  0.00     0.223 C 
ATOM      8  C   UNL A   1      33.346  25.586  24.465  1.00  0.00     0.129 C 
ATOM      9  O   UNL A   1      31.467  22.655  25.533  1.00  0.00    -0.275 OA
ATOM     10  C   UNL A   1      33.641  23.290  26.250  1.00  0.00     0.101 C 
ATOM     11  C   UNL A   1      34.693  24.380  26.150  1.00  0.00     0.028 C 
BRANCH   6  12
ATOM     12  C   UNL A   1      31.092  24.617  23.706  1.00  0.00     0.122 C 
BRANCH  12  13
ATOM     13  C   UNL A   1      30.953  25.696  22.630  1.00  0.00     0.050 C 
BRANCH  13  14
ATOM     14  C   UNL A   1      30.269  27.017  22.987  1.00  0.00     0.161 C 
BRANCH  14  15
ATOM     15  O   UNL A   1      30.386  28.024  21.990  1.00  0.00    -0.385 OA
ATOM     16  C   UNL A   1      30.280  29.358  22.469  1.00  0.00     0.194 C 
ENDBRANCH  14  15
ENDBRANCH  13  14
ENDBRANCH  12  13
ENDBRANCH   6  12
BRANCH   8  17
ATOM     17  C   UNL A   1      33.057  26.811  25.341  1.00  0.00    -0.024 A 
ATOM     18  C   UNL A   1      33.690  28.053  25.126  1.00  0.00     0.009 A 
ATOM     19  C   UNL A   1      32.088  26.726  26.358  1.00  0.00     0.009 A 
ATOM     20  C   UNL A   1      33.366  29.169  25.896  1.00  0.00     0.039 A 
ATOM     21  C   UNL A   1      31.761  27.847  27.124  1.00  0.00     0.039 A 
ATOM     22  C   UNL A   1      32.403  29.057  26.886  1.00  0.00     0.123 A 
ATOM     23  F   UNL A   1      32.086  30.128  27.625  1.00  0.00    -0.207 F 
ENDBRANCH   8  17
ENDBRANCH   3   5
ENDBRANCH   2   3
ENDBRANCH   1   2
BRANCH   1  24
ATOM     24  C   UNL A   1      36.351  21.283  24.637  1.00  0.00     0.275 C 
BRANCH  24  25
ATOM     25  O   UNL A   1      37.088  21.771  25.767  1.00  0.00    -0.458 OA
BRANCH  25  26
ATOM     26  C   UNL A   1      38.394  21.423  25.834  1.00  0.00     0.338 C 
ATOM     27  O   UNL A   1      38.913  20.406  25.416  1.00  0.00    -0.246 OA
BRANCH  26  28
ATOM     28  C   UNL A   1      39.121  22.558  26.435  1.00  0.00     0.060 A 
ATOM     29  C   UNL A   1      38.685  23.843  26.120  1.00  0.00     0.016 A 
ATOM     30  C   UNL A   1      40.245  22.382  27.234  1.00  0.00     0.016 A 
ATOM     31  C   UNL A   1      39.366  24.964  26.575  1.00  0.00     0.010 A 
ATOM     32  C   UNL A   1      40.909  23.512  27.735  1.00  0.00     0.010 A 
ATOM     33  C   UNL A   1      40.482  24.812  27.397  1.00  0.00    -0.014 A 
BRANCH  33  34
ATOM     34  C   UNL A   1      41.260  26.014  27.791  1.00  0.00     0.031 A 
ATOM     35  C   UNL A   1      40.591  27.068  28.624  1.00  0.00     0.074 A 
ATOM     36  C   UNL A   1      42.568  26.127  27.493  1.00  0.00     0.049 A 
ATOM     37  N   UNL A   1      41.006  28.264  28.943  1.00  0.00    -0.248 NA
ATOM     38  C   UNL A   1      39.275  26.714  29.180  1.00  0.00     0.031 C 
ATOM     39  C   UNL A   1      43.379  25.106  26.826  1.00  0.00     0.029 A 
ATOM     40  N   UNL A   1      43.453  27.153  27.723  1.00  0.00    -0.354 N 
ATOM     41  C   UNL A   1      39.991  28.824  29.711  1.00  0.00     0.074 A 
ATOM     42  C   UNL A   1      38.939  27.833  29.803  1.00  0.00     0.031 C 
ATOM     43  C   UNL A   1      44.638  25.559  26.701  1.00  0.00     0.029 A 
ATOM     44  C   UNL A   1      44.706  26.929  27.199  1.00  0.00     0.049 A 
ATOM     45  H   UNL A   1      43.213  27.971  28.216  1.00  0.00     0.167 HD
ATOM     46  C   UNL A   1      39.941  30.056  30.274  1.00  0.00     0.034 A 
ATOM     47  C   UNL A   1      45.765  27.756  27.081  1.00  0.00     0.034 A 
ATOM     48  C   UNL A   1      41.000  31.026  30.167  1.00  0.00     0.049 A 
ATOM     49  C   UNL A   1      45.635  29.174  27.585  1.00  0.00     0.074 A 
ATOM     50  C   UNL A   1      41.035  32.327  30.639  1.00  0.00     0.029 A 
ATOM     51  N   UNL A   1      42.221  30.801  29.542  1.00  0.00    -0.354 N 
ATOM     52  N   UNL A   1      44.625  29.744  28.205  1.00  0.00    -0.248 NA
ATOM     53  C   UNL A   1      46.778  30.067  27.355  1.00  0.00     0.031 C 
ATOM     54  C   UNL A   1      42.249  32.904  30.249  1.00  0.00     0.029 A 
ATOM     55  C   UNL A   1      43.003  31.944  29.593  1.00  0.00     0.049 A 
ATOM     56  H   UNL A   1      42.491  29.952  29.124  1.00  0.00     0.167 HD
ATOM     57  C   UNL A   1      45.023  31.055  28.453  1.00  0.00     0.074 A 
ATOM     58  C   UNL A   1      46.368  31.186  27.933  1.00  0.00     0.031 C 
ATOM     59  C   UNL A   1      44.339  32.060  29.057  1.00  0.00     0.034 A 
BRANCH  46  60
ATOM     60  C   UNL A   1      38.654  30.438  30.961  1.00  0.00     0.023 A 
ATOM     61  C   UNL A   1      37.594  31.054  30.273  1.00  0.00     0.031 A 
ATOM     62  C   UNL A   1      38.518  30.243  32.346  1.00  0.00     0.131 A 
ATOM     63  C   UNL A   1      36.478  31.520  30.985  1.00  0.00     0.055 A 
ATOM     64  C   UNL A   1      37.372  30.640  33.037  1.00  0.00     0.041 A 
ATOM     65  F   UNL A   1      39.511  29.686  33.058  1.00  0.00    -0.206 F 
ATOM     66  C   UNL A   1      36.350  31.297  32.359  1.00  0.00     0.022 A 
BRANCH  63  67
ATOM     67  S   UNL A   1      35.265  32.555  30.121  1.00  0.00     0.124 S 
ATOM     68  O   UNL A   1      36.064  33.730  29.783  1.00  0.00    -0.237 OA
ATOM     69  O   UNL A   1      34.868  31.708  29.001  1.00  0.00    -0.237 OA
ATOM     70  O   UNL A   1      34.230  32.784  31.128  1.00  0.00    -0.744 OA
ENDBRANCH  63  67
ENDBRANCH  46  60
BRANCH  47  71
ATOM     71  C   UNL A   1      46.999  27.318  26.364  1.00  0.00     0.023 A 
ATOM     72  C   UNL A   1      47.233  27.667  25.024  1.00  0.00     0.031 A 
ATOM     73  C   UNL A   1      47.933  26.474  26.995  1.00  0.00     0.131 A 
ATOM     74  C   UNL A   1      48.345  27.140  24.347  1.00  0.00     0.055 A 
ATOM     75  C   UNL A   1      49.069  26.002  26.336  1.00  0.00     0.041 A 
ATOM     76  F   UNL A   1      47.753  26.093  28.270  1.00  0.00    -0.206 F 
ATOM     77  C   UNL A   1      49.273  26.323  24.999  1.00  0.00     0.022 A 
BRANCH  74  78
ATOM     78  S   UNL A   1      48.513  27.453  22.567  1.00  0.00     0.124 S 
ATOM     79  O   UNL A   1      48.577  26.097  22.033  1.00  0.00    -0.237 OA
ATOM     80  O   UNL A   1      47.296  28.202  22.272  1.00  0.00    -0.237 OA
ATOM     81  O   UNL A   1      49.753  28.220  22.471  1.00  0.00    -0.744 OA
ENDBRANCH  74  78
ENDBRANCH  47  71
BRANCH  59  82
ATOM     82  C   UNL A   1      45.060  33.374  29.222  1.00  0.00     0.023 A 
ATOM     83  C   UNL A   1      44.901  34.426  28.302  1.00  0.00     0.031 A 
ATOM     84  C   UNL A   1      45.926  33.570  30.313  1.00  0.00     0.131 A 
ATOM     85  C   UNL A   1      45.633  35.612  28.467  1.00  0.00     0.055 A 
ATOM     86  C   UNL A   1      46.611  34.771  30.499  1.00  0.00     0.041 A 
ATOM     87  F   UNL A   1      46.113  32.598  31.220  1.00  0.00    -0.206 F 
ATOM     88  C   UNL A   1      46.476  35.795  29.567  1.00  0.00     0.022 A 
BRANCH  85  89
ATOM     89  S   UNL A   1      45.527  36.889  27.183  1.00  0.00     0.124 S 
ATOM     90  O   UNL A   1      46.064  38.058  27.870  1.00  0.00    -0.237 OA
ATOM     91  O   UNL A   1      46.362  36.334  26.120  1.00  0.00    -0.237 OA
ATOM     92  O   UNL A   1      44.099  36.950  26.877  1.00  0.00    -0.744 OA
ENDBRANCH  85  89
ENDBRANCH  59  82
ENDBRANCH  33  34
ENDBRANCH  26  28
ENDBRANCH  25  26
ENDBRANCH  24  25
ENDBRANCH   1  24
TORSDOF 19
ENDMDL
MODEL 3
REMARK VINA RESULT:     -11.1      4.991      9.877
REMARK SMILES COCCCN1C(=O)CC[C@@H](C(=O)OCCOC(=O)c2ccc(-c3c4nc(c(-c5cc(S(=O)(=O)[O-])ccc5F)c5ccc([nH]5)c(-c5cc(S(=O)(=O)[O-])ccc5F)c5nc(c(-c6cc(S(=O)(=O)[O-])ccc6F)c6ccc3[nH]6)C=C5)C=C4)cc2)[C@@H]1c1ccc(F)cc1
REMARK SMILES IDX 15 1 14 2 12 3 13 4 11 5 6 6 7 7 83 8 8 9 9 10 10 11 5 12
REMARK SMILES IDX 4 13 3 14 2 15 1 16 84 17 85 18 90 19 86 20 89 21 87 22
REMARK SMILES IDX 88 23 16 24 17 25 18 26 19 27 20 28 21 29 82 30 22 31 81 32
REMARK SMILES IDX 23 33 24 34 25 35 75 36 26 37 80 38 74 39 76 40 27 41 79 42
REMARK SMILES IDX 73 43 72 44 28 46 60 47 40 48 59 49 41 50 44 51 58 52 77 53
REMARK SMILES IDX 42 54 43 55 57 57 78 58 45 59 29 60 30 61 38 62 31 63 37 64
REMARK SMILES IDX 39 65 36 66 32 67 33 68 34 69 35 70 61 71 62 72 70 73 63 74
REMARK SMILES IDX 69 75 71 76 68 77 64 78 65 79 66 80 67 81 46 82 47 83 55 84
REMARK SMILES IDX 48 85 54 86 56 87 53 88 49 89 50 90 51 91 52 92
REMARK H PARENT 76 45 44 56
REMARK Flexibility Score: inf
ROOT
ATOM      1  C   UNL A   1      31.387  29.753  25.337  1.00  0.00     0.274 C 
ENDROOT
BRANCH   1   2
ATOM      2  O   UNL A   1      32.380  28.913  24.695  1.00  0.00    -0.462 OA
BRANCH   2   3
ATOM      3  C   UNL A   1      32.271  27.572  24.934  1.00  0.00     0.311 C 
ATOM      4  O   UNL A   1      31.275  27.043  25.406  1.00  0.00    -0.252 OA
BRANCH   3   5
ATOM      5  C   UNL A   1      33.565  26.837  24.591  1.00  0.00     0.127 C 
ATOM      6  N   UNL A   1      32.433  25.042  23.273  1.00  0.00    -0.335 N 
ATOM      7  C   UNL A   1      32.493  25.809  22.107  1.00  0.00     0.223 C 
ATOM      8  C   UNL A   1      33.258  25.339  24.452  1.00  0.00     0.129 C 
ATOM      9  O   UNL A   1      31.823  25.532  21.110  1.00  0.00    -0.275 OA
ATOM     10  C   UNL A   1      33.376  27.045  22.080  1.00  0.00     0.101 C 
ATOM     11  C   UNL A   1      34.240  27.294  23.304  1.00  0.00     0.028 C 
BRANCH   6  12
ATOM     12  C   UNL A   1      31.455  23.942  23.271  1.00  0.00     0.122 C 
BRANCH  12  13
ATOM     13  C   UNL A   1      30.968  23.339  24.590  1.00  0.00     0.050 C 
BRANCH  13  14
ATOM     14  C   UNL A   1      31.683  22.111  25.153  1.00  0.00     0.161 C 
BRANCH  14  15
ATOM     15  O   UNL A   1      32.612  21.512  24.257  1.00  0.00    -0.385 OA
ATOM     16  C   UNL A   1      32.402  20.128  24.012  1.00  0.00     0.194 C 
ENDBRANCH  14  15
ENDBRANCH  13  14
ENDBRANCH  12  13
ENDBRANCH   6  12
BRANCH   8  17
ATOM     17  C   UNL A   1      34.547  24.509  24.482  1.00  0.00    -0.024 A 
ATOM     18  C   UNL A   1      35.362  24.431  25.630  1.00  0.00     0.009 A 
ATOM     19  C   UNL A   1      34.910  23.747  23.356  1.00  0.00     0.009 A 
ATOM     20  C   UNL A   1      36.497  23.622  25.655  1.00  0.00     0.039 A 
ATOM     21  C   UNL A   1      36.044  22.932  23.385  1.00  0.00     0.039 A 
ATOM     22  C   UNL A   1      36.826  22.878  24.532  1.00  0.00     0.123 A 
ATOM     23  F   UNL A   1      37.913  22.095  24.554  1.00  0.00    -0.207 F 
ENDBRANCH   8  17
ENDBRANCH   3   5
ENDBRANCH   2   3
ENDBRANCH   1   2
BRANCH   1  24
ATOM     24  C   UNL A   1      31.860  30.236  26.708  1.00  0.00     0.275 C 
BRANCH  24  25
ATOM     25  O   UNL A   1      33.255  30.558  26.621  1.00  0.00    -0.458 OA
BRANCH  25  26
ATOM     26  C   UNL A   1      33.673  31.638  27.323  1.00  0.00     0.338 C 
ATOM     27  O   UNL A   1      33.061  32.668  27.534  1.00  0.00    -0.246 OA
BRANCH  26  28
ATOM     28  C   UNL A   1      34.997  31.310  27.886  1.00  0.00     0.060 A 
ATOM     29  C   UNL A   1      35.206  30.007  28.330  1.00  0.00     0.016 A 
ATOM     30  C   UNL A   1      35.996  32.266  28.043  1.00  0.00     0.016 A 
ATOM     31  C   UNL A   1      36.393  29.640  28.950  1.00  0.00     0.010 A 
ATOM     32  C   UNL A   1      37.215  31.888  28.625  1.00  0.00     0.010 A 
ATOM     33  C   UNL A   1      37.417  30.576  29.095  1.00  0.00    -0.014 A 
BRANCH  33  34
ATOM     34  C   UNL A   1      38.639  30.198  29.850  1.00  0.00     0.031 A 
ATOM     35  C   UNL A   1      39.620  29.257  29.215  1.00  0.00     0.074 A 
ATOM     36  C   UNL A   1      38.921  30.755  31.044  1.00  0.00     0.049 A 
ATOM     37  N   UNL A   1      40.658  28.660  29.736  1.00  0.00    -0.248 NA
ATOM     38  C   UNL A   1      39.403  28.961  27.790  1.00  0.00     0.031 C 
ATOM     39  C   UNL A   1      38.134  31.798  31.702  1.00  0.00     0.029 A 
ATOM     40  N   UNL A   1      39.959  30.524  31.915  1.00  0.00    -0.354 N 
ATOM     41  C   UNL A   1      41.201  27.888  28.716  1.00  0.00     0.074 A 
ATOM     42  C   UNL A   1      40.372  28.093  27.546  1.00  0.00     0.031 C 
ATOM     43  C   UNL A   1      38.716  32.116  32.871  1.00  0.00     0.029 A 
ATOM     44  C   UNL A   1      39.866  31.242  33.086  1.00  0.00     0.049 A 
ATOM     45  H   UNL A   1      40.699  29.904  31.720  1.00  0.00     0.167 HD
ATOM     46  C   UNL A   1      42.285  27.075  28.759  1.00  0.00     0.034 A 
ATOM     47  C   UNL A   1      40.588  31.159  34.222  1.00  0.00     0.034 A 
ATOM     48  C   UNL A   1      43.095  26.885  29.936  1.00  0.00     0.049 A 
ATOM     49  C   UNL A   1      41.700  30.141  34.299  1.00  0.00     0.074 A 
ATOM     50  C   UNL A   1      44.175  26.039  30.118  1.00  0.00     0.029 A 
ATOM     51  N   UNL A   1      42.912  27.556  31.139  1.00  0.00    -0.354 N 
ATOM     52  N   UNL A   1      42.138  29.320  33.370  1.00  0.00    -0.248 NA
ATOM     53  C   UNL A   1      42.402  30.021  35.584  1.00  0.00     0.031 C 
ATOM     54  C   UNL A   1      44.607  26.156  31.444  1.00  0.00     0.029 A 
ATOM     55  C   UNL A   1      43.841  27.124  32.074  1.00  0.00     0.049 A 
ATOM     56  H   UNL A   1      42.223  28.239  31.305  1.00  0.00     0.167 HD
ATOM     57  C   UNL A   1      43.177  28.602  33.956  1.00  0.00     0.074 A 
ATOM     58  C   UNL A   1      43.312  29.098  35.310  1.00  0.00     0.031 C 
ATOM     59  C   UNL A   1      43.952  27.623  33.424  1.00  0.00     0.034 A 
BRANCH  46  60
ATOM     60  C   UNL A   1      42.577  26.264  27.522  1.00  0.00     0.023 A 
ATOM     61  C   UNL A   1      42.093  24.955  27.355  1.00  0.00     0.031 A 
ATOM     62  C   UNL A   1      43.416  26.791  26.524  1.00  0.00     0.131 A 
ATOM     63  C   UNL A   1      42.511  24.192  26.253  1.00  0.00     0.055 A 
ATOM     64  C   UNL A   1      43.768  26.054  25.393  1.00  0.00     0.041 A 
ATOM     65  F   UNL A   1      43.931  28.025  26.647  1.00  0.00    -0.206 F 
ATOM     66  C   UNL A   1      43.327  24.741  25.260  1.00  0.00     0.022 A 
BRANCH  63  67
ATOM     67  S   UNL A   1      42.099  22.427  26.211  1.00  0.00     0.124 S 
ATOM     68  O   UNL A   1      40.641  22.460  26.278  1.00  0.00    -0.237 OA
ATOM     69  O   UNL A   1      42.672  21.999  24.940  1.00  0.00    -0.237 OA
ATOM     70  O   UNL A   1      42.757  21.892  27.403  1.00  0.00    -0.744 OA
ENDBRANCH  63  67
ENDBRANCH  46  60
BRANCH  47  71
ATOM     71  C   UNL A   1      40.225  31.975  35.418  1.00  0.00     0.023 A 
ATOM     72  C   UNL A   1      39.241  31.550  36.325  1.00  0.00     0.031 A 
ATOM     73  C   UNL A   1      40.810  33.238  35.630  1.00  0.00     0.131 A 
ATOM     74  C   UNL A   1      38.842  32.396  37.373  1.00  0.00     0.055 A 
ATOM     75  C   UNL A   1      40.452  34.050  36.707  1.00  0.00     0.041 A 
ATOM     76  F   UNL A   1      41.744  33.705  34.785  1.00  0.00    -0.206 F 
ATOM     77  C   UNL A   1      39.452  33.636  37.579  1.00  0.00     0.022 A 
BRANCH  74  78
ATOM     78  S   UNL A   1      37.437  31.899  38.410  1.00  0.00     0.124 S 
ATOM     79  O   UNL A   1      36.427  32.881  38.030  1.00  0.00    -0.237 OA
ATOM     80  O   UNL A   1      37.198  30.530  37.966  1.00  0.00    -0.237 OA
ATOM     81  O   UNL A   1      37.953  32.031  39.770  1.00  0.00    -0.744 OA
ENDBRANCH  74  78
ENDBRANCH  47  71
BRANCH  59  82
ATOM     82  C   UNL A   1      45.040  27.059  34.303  1.00  0.00     0.023 A 
ATOM     83  C   UNL A   1      44.853  25.882  35.049  1.00  0.00     0.031 A 
ATOM     84  C   UNL A   1      46.279  27.717  34.400  1.00  0.00     0.131 A 
ATOM     85  C   UNL A   1      45.875  25.423  35.895  1.00  0.00     0.055 A 
ATOM     86  C   UNL A   1      47.309  27.228  35.203  1.00  0.00     0.041 A 
ATOM     87  F   UNL A   1      46.509  28.845  33.708  1.00  0.00    -0.206 F 
ATOM     88  C   UNL A   1      47.106  26.081  35.965  1.00  0.00     0.022 A 
BRANCH  85  89
ATOM     89  S   UNL A   1      45.549  23.993  36.962  1.00  0.00     0.124 S 
ATOM     90  O   UNL A   1      46.894  23.494  37.223  1.00  0.00    -0.237 OA
ATOM     91  O   UNL A   1      44.862  24.599  38.099  1.00  0.00    -0.237 OA
ATOM     92  O   UNL A   1      44.717  23.126  36.129  1.00  0.00    -0.744 OA
ENDBRANCH  85  89
ENDBRANCH  59  82
ENDBRANCH  33  34
ENDBRANCH  26  28
ENDBRANCH  25  26
ENDBRANCH  24  25
ENDBRANCH   1  24
TORSDOF 19
ENDMDL
