MODEL 1
REMARK VINA RESULT:     -12.4      0.000      0.000
REMARK SMILES O=C(CCC(=O)N1CCC(c2nnc3ccccn23)CC1)OCCOC(=O)c1ccc(-c2c3nc(c(-c4cc(S(=O)(=O)[O-])ccc4F)c4ccc([nH]4)c(-c4cc(S(=O)(=O)[O-])ccc4F)c4nc(c(-c5cc(S(=O)(=O)[O-])ccc5F)c5ccc2[nH]5)C=C4)C=C3)cc1
REMARK SMILES IDX 23 1 22 2 2 3 1 4 3 5 4 6 5 7 6 8 7 9 8 10 21 11 9 12 20 13
REMARK SMILES IDX 10 14 11 15 12 16 19 17 13 18 14 19 18 20 15 21 17 22 16 23
REMARK SMILES IDX 24 24 25 25 26 26 27 27 28 28 29 29 90 30 30 31 89 32 31 33
REMARK SMILES IDX 32 34 33 35 83 36 34 37 88 38 82 39 84 40 35 41 87 42 81 43
REMARK SMILES IDX 80 44 36 46 68 47 48 48 67 49 49 50 52 51 66 52 85 53 50 54
REMARK SMILES IDX 51 55 65 57 86 58 53 59 37 60 38 61 46 62 39 63 45 64 47 65
REMARK SMILES IDX 44 66 40 67 41 68 42 69 43 70 69 71 70 72 78 73 71 74 77 75
REMARK SMILES IDX 79 76 76 77 72 78 73 79 74 80 75 81 54 82 55 83 63 84 56 85
REMARK SMILES IDX 62 86 64 87 61 88 57 89 58 90 59 91 60 92
REMARK H PARENT 84 45 52 56
REMARK Flexibility Score: inf
ROOT
ATOM      1  C   UNL A   1      31.776  29.530  25.370  1.00  0.00     0.274 C 
ENDROOT
BRANCH   1   2
ATOM      2  O   UNL A   1      30.927  29.617  24.204  1.00  0.00    -0.462 OA
BRANCH   2   3
ATOM      3  C   UNL A   1      30.780  28.674  23.251  1.00  0.00     0.306 C 
ATOM      4  O   UNL A   1      30.461  28.997  22.107  1.00  0.00    -0.252 OA
BRANCH   3   5
ATOM      5  C   UNL A   1      31.168  27.257  23.553  1.00  0.00     0.132 C 
BRANCH   5   6
ATOM      6  C   UNL A   1      30.048  26.566  24.312  1.00  0.00     0.112 C 
BRANCH   6   7
ATOM      7  C   UNL A   1      30.559  25.641  25.397  1.00  0.00     0.223 C 
ATOM      8  O   UNL A   1      30.861  26.109  26.497  1.00  0.00    -0.275 OA
ATOM      9  N   UNL A   1      30.630  24.282  25.135  1.00  0.00    -0.343 N 
ATOM     10  C   UNL A   1      30.710  23.355  26.256  1.00  0.00     0.120 C 
ATOM     11  C   UNL A   1      30.756  23.659  23.814  1.00  0.00     0.120 C 
ATOM     12  C   UNL A   1      31.992  22.537  26.209  1.00  0.00     0.033 C 
ATOM     13  C   UNL A   1      32.085  22.899  23.719  1.00  0.00     0.033 C 
ATOM     14  C   UNL A   1      32.156  21.856  24.841  1.00  0.00     0.062 C 
BRANCH  14  15
ATOM     15  C   UNL A   1      33.419  21.057  24.824  1.00  0.00     0.140 A 
ATOM     16  N   UNL A   1      34.594  21.401  25.317  1.00  0.00    -0.134 NA
ATOM     17  N   UNL A   1      33.486  19.759  24.361  1.00  0.00    -0.286 N 
ATOM     18  N   UNL A   1      35.450  20.328  25.188  1.00  0.00    -0.130 NA
ATOM     19  C   UNL A   1      34.782  19.346  24.627  1.00  0.00     0.160 A 
ATOM     20  C   UNL A   1      32.525  18.937  23.772  1.00  0.00     0.095 A 
ATOM     21  C   UNL A   1      35.128  18.010  24.282  1.00  0.00     0.050 A 
ATOM     22  C   UNL A   1      32.855  17.676  23.443  1.00  0.00     0.019 A 
ATOM     23  C   UNL A   1      34.205  17.206  23.717  1.00  0.00     0.005 A 
ENDBRANCH  14  15
ENDBRANCH   6   7
ENDBRANCH   5   6
ENDBRANCH   3   5
ENDBRANCH   2   3
ENDBRANCH   1   2
BRANCH   1  24
ATOM     24  C   UNL A   1      31.735  30.851  26.135  1.00  0.00     0.275 C 
BRANCH  24  25
ATOM     25  O   UNL A   1      32.664  30.781  27.227  1.00  0.00    -0.458 OA
BRANCH  25  26
ATOM     26  C   UNL A   1      33.386  31.915  27.445  1.00  0.00     0.338 C 
ATOM     27  O   UNL A   1      32.978  33.057  27.415  1.00  0.00    -0.246 OA
BRANCH  26  28
ATOM     28  C   UNL A   1      34.719  31.512  27.943  1.00  0.00     0.060 A 
ATOM     29  C   UNL A   1      34.927  30.168  28.278  1.00  0.00     0.016 A 
ATOM     30  C   UNL A   1      35.761  32.438  28.047  1.00  0.00     0.016 A 
ATOM     31  C   UNL A   1      36.171  29.751  28.749  1.00  0.00     0.010 A 
ATOM     32  C   UNL A   1      37.001  32.025  28.531  1.00  0.00     0.010 A 
ATOM     33  C   UNL A   1      37.197  30.688  28.915  1.00  0.00    -0.014 A 
BRANCH  33  34
ATOM     34  C   UNL A   1      38.386  30.353  29.730  1.00  0.00     0.031 A 
ATOM     35  C   UNL A   1      39.339  29.335  29.168  1.00  0.00     0.074 A 
ATOM     36  C   UNL A   1      38.584  30.901  30.940  1.00  0.00     0.049 A 
ATOM     37  N   UNL A   1      40.388  28.784  29.716  1.00  0.00    -0.248 NA
ATOM     38  C   UNL A   1      39.051  28.864  27.803  1.00  0.00     0.031 C 
ATOM     39  C   UNL A   1      37.735  31.917  31.559  1.00  0.00     0.029 A 
ATOM     40  N   UNL A   1      39.557  30.658  31.875  1.00  0.00    -0.354 N 
ATOM     41  C   UNL A   1      40.887  27.901  28.764  1.00  0.00     0.074 A 
ATOM     42  C   UNL A   1      40.001  27.962  27.622  1.00  0.00     0.031 C 
ATOM     43  C   UNL A   1      38.214  32.194  32.785  1.00  0.00     0.029 A 
ATOM     44  C   UNL A   1      39.380  31.352  33.048  1.00  0.00     0.049 A 
ATOM     45  H   UNL A   1      40.312  30.044  31.721  1.00  0.00     0.167 HD
ATOM     46  C   UNL A   1      41.990  27.119  28.834  1.00  0.00     0.034 A 
ATOM     47  C   UNL A   1      40.068  31.285  34.206  1.00  0.00     0.034 A 
ATOM     48  C   UNL A   1      42.835  27.048  29.997  1.00  0.00     0.049 A 
ATOM     49  C   UNL A   1      41.244  30.340  34.295  1.00  0.00     0.074 A 
ATOM     50  C   UNL A   1      43.976  26.291  30.192  1.00  0.00     0.029 A 
ATOM     51  N   UNL A   1      42.616  27.752  31.175  1.00  0.00    -0.354 N 
ATOM     52  N   UNL A   1      41.723  29.523  33.382  1.00  0.00    -0.248 NA
ATOM     53  C   UNL A   1      41.975  30.310  35.568  1.00  0.00     0.031 C 
ATOM     54  C   UNL A   1      44.407  26.488  31.510  1.00  0.00     0.029 A 
ATOM     55  C   UNL A   1      43.582  27.424  32.113  1.00  0.00     0.049 A 
ATOM     56  H   UNL A   1      41.881  28.390  31.323  1.00  0.00     0.167 HD
ATOM     57  C   UNL A   1      42.830  28.909  33.963  1.00  0.00     0.074 A 
ATOM     58  C   UNL A   1      42.953  29.457  35.298  1.00  0.00     0.031 C 
ATOM     59  C   UNL A   1      43.674  27.981  33.442  1.00  0.00     0.034 A 
BRANCH  46  60
ATOM     60  C   UNL A   1      42.285  26.244  27.640  1.00  0.00     0.023 A 
ATOM     61  C   UNL A   1      41.785  24.932  27.546  1.00  0.00     0.031 A 
ATOM     62  C   UNL A   1      43.130  26.702  26.615  1.00  0.00     0.131 A 
ATOM     63  C   UNL A   1      42.196  24.100  26.494  1.00  0.00     0.055 A 
ATOM     64  C   UNL A   1      43.472  25.894  25.528  1.00  0.00     0.041 A 
ATOM     65  F   UNL A   1      43.660  27.934  26.665  1.00  0.00    -0.206 F 
ATOM     66  C   UNL A   1      43.018  24.580  25.472  1.00  0.00     0.022 A 
BRANCH  63  67
ATOM     67  S   UNL A   1      41.765  22.339  26.562  1.00  0.00     0.124 S 
ATOM     68  O   UNL A   1      42.445  21.823  25.376  1.00  0.00    -0.237 OA
ATOM     69  O   UNL A   1      42.319  21.928  27.847  1.00  0.00    -0.237 OA
ATOM     70  O   UNL A   1      40.305  22.341  26.483  1.00  0.00    -0.744 OA
ENDBRANCH  63  67
ENDBRANCH  46  60
BRANCH  47  71
ATOM     71  C   UNL A   1      39.654  32.098  35.386  1.00  0.00     0.023 A 
ATOM     72  C   UNL A   1      38.851  31.551  36.399  1.00  0.00     0.031 A 
ATOM     73  C   UNL A   1      40.009  33.456  35.488  1.00  0.00     0.131 A 
ATOM     74  C   UNL A   1      38.391  32.367  37.445  1.00  0.00     0.055 A 
ATOM     75  C   UNL A   1      39.590  34.250  36.557  1.00  0.00     0.041 A 
ATOM     76  F   UNL A   1      40.776  34.029  34.548  1.00  0.00    -0.206 F 
ATOM     77  C   UNL A   1      38.763  33.709  37.537  1.00  0.00     0.022 A 
BRANCH  74  78
ATOM     78  S   UNL A   1      37.225  31.665  38.647  1.00  0.00     0.124 S 
ATOM     79  O   UNL A   1      36.089  32.572  38.524  1.00  0.00    -0.237 OA
ATOM     80  O   UNL A   1      37.030  30.317  38.127  1.00  0.00    -0.237 OA
ATOM     81  O   UNL A   1      37.952  31.744  39.913  1.00  0.00    -0.744 OA
ENDBRANCH  74  78
ENDBRANCH  47  71
BRANCH  59  82
ATOM     82  C   UNL A   1      44.828  27.542  34.310  1.00  0.00     0.023 A 
ATOM     83  C   UNL A   1      44.697  26.503  35.246  1.00  0.00     0.031 A 
ATOM     84  C   UNL A   1      46.078  28.178  34.193  1.00  0.00     0.131 A 
ATOM     85  C   UNL A   1      45.783  26.165  36.067  1.00  0.00     0.055 A 
ATOM     86  C   UNL A   1      47.170  27.797  34.971  1.00  0.00     0.041 A 
ATOM     87  F   UNL A   1      46.256  29.177  33.314  1.00  0.00    -0.206 F 
ATOM     88  C   UNL A   1      47.023  26.792  35.924  1.00  0.00     0.022 A 
BRANCH  85  89
ATOM     89  S   UNL A   1      45.530  24.947  37.387  1.00  0.00     0.124 S 
ATOM     90  O   UNL A   1      44.669  25.676  38.313  1.00  0.00    -0.237 OA
ATOM     91  O   UNL A   1      44.905  23.838  36.675  1.00  0.00    -0.237 OA
ATOM     92  O   UNL A   1      46.883  24.684  37.875  1.00  0.00    -0.744 OA
ENDBRANCH  85  89
ENDBRANCH  59  82
ENDBRANCH  33  34
ENDBRANCH  26  28
ENDBRANCH  25  26
ENDBRANCH  24  25
ENDBRANCH   1  24
TORSDOF 17
ENDMDL
MODEL 2
REMARK VINA RESULT:     -12.2      5.192     10.717
REMARK SMILES O=C(CCC(=O)N1CCC(c2nnc3ccccn23)CC1)OCCOC(=O)c1ccc(-c2c3nc(c(-c4cc(S(=O)(=O)[O-])ccc4F)c4ccc([nH]4)c(-c4cc(S(=O)(=O)[O-])ccc4F)c4nc(c(-c5cc(S(=O)(=O)[O-])ccc5F)c5ccc2[nH]5)C=C4)C=C3)cc1
REMARK SMILES IDX 23 1 22 2 2 3 1 4 3 5 4 6 5 7 6 8 7 9 8 10 21 11 9 12 20 13
REMARK SMILES IDX 10 14 11 15 12 16 19 17 13 18 14 19 18 20 15 21 17 22 16 23
REMARK SMILES IDX 24 24 25 25 26 26 27 27 28 28 29 29 90 30 30 31 89 32 31 33
REMARK SMILES IDX 32 34 33 35 83 36 34 37 88 38 82 39 84 40 35 41 87 42 81 43
REMARK SMILES IDX 80 44 36 46 68 47 48 48 67 49 49 50 52 51 66 52 85 53 50 54
REMARK SMILES IDX 51 55 65 57 86 58 53 59 37 60 38 61 46 62 39 63 45 64 47 65
REMARK SMILES IDX 44 66 40 67 41 68 42 69 43 70 69 71 70 72 78 73 71 74 77 75
REMARK SMILES IDX 79 76 76 77 72 78 73 79 74 80 75 81 54 82 55 83 63 84 56 85
REMARK SMILES IDX 62 86 64 87 61 88 57 89 58 90 59 91 60 92
REMARK H PARENT 84 45 52 56
REMARK Flexibility Score: inf
ROOT
ATOM      1  C   UNL A   1      35.615  20.936  24.988  1.00  0.00     0.274 C 
ENDROOT
BRANCH   1   2
ATOM      2  O   UNL A   1      34.658  19.856  24.892  1.00  0.00    -0.462 OA
BRANCH   2   3
ATOM      3  C   UNL A   1      33.333  19.980  24.680  1.00  0.00     0.306 C 
ATOM      4  O   UNL A   1      32.532  19.501  25.483  1.00  0.00    -0.252 OA
BRANCH   3   5
ATOM      5  C   UNL A   1      32.846  20.841  23.553  1.00  0.00     0.132 C 
BRANCH   5   6
ATOM      6  C   UNL A   1      32.167  22.082  24.108  1.00  0.00     0.112 C 
BRANCH   6   7
ATOM      7  C   UNL A   1      32.698  23.363  23.499  1.00  0.00     0.223 C 
ATOM      8  O   UNL A   1      33.915  23.513  23.373  1.00  0.00    -0.275 OA
ATOM      9  N   UNL A   1      31.793  24.315  23.058  1.00  0.00    -0.343 N 
ATOM     10  C   UNL A   1      32.246  25.330  22.116  1.00  0.00     0.120 C 
ATOM     11  C   UNL A   1      30.419  24.493  23.536  1.00  0.00     0.120 C 
ATOM     12  C   UNL A   1      32.095  26.729  22.693  1.00  0.00     0.033 C 
ATOM     13  C   UNL A   1      30.270  25.869  24.198  1.00  0.00     0.033 C 
ATOM     14  C   UNL A   1      30.662  26.961  23.196  1.00  0.00     0.062 C 
BRANCH  14  15
ATOM     15  C   UNL A   1      30.541  28.343  23.753  1.00  0.00     0.140 A 
ATOM     16  N   UNL A   1      31.392  28.969  24.543  1.00  0.00    -0.134 NA
ATOM     17  N   UNL A   1      29.524  29.210  23.408  1.00  0.00    -0.286 N 
ATOM     18  N   UNL A   1      30.948  30.261  24.724  1.00  0.00    -0.130 NA
ATOM     19  C   UNL A   1      29.838  30.405  24.036  1.00  0.00     0.160 A 
ATOM     20  C   UNL A   1      28.403  29.044  22.595  1.00  0.00     0.095 A 
ATOM     21  C   UNL A   1      28.966  31.507  23.822  1.00  0.00     0.050 A 
ATOM     22  C   UNL A   1      27.577  30.085  22.397  1.00  0.00     0.019 A 
ATOM     23  C   UNL A   1      27.882  31.358  23.034  1.00  0.00     0.005 A 
ENDBRANCH  14  15
ENDBRANCH   6   7
ENDBRANCH   5   6
ENDBRANCH   3   5
ENDBRANCH   2   3
ENDBRANCH   1   2
BRANCH   1  24
ATOM     24  C   UNL A   1      37.031  20.367  25.005  1.00  0.00     0.275 C 
BRANCH  24  25
ATOM     25  O   UNL A   1      37.956  21.437  25.254  1.00  0.00    -0.458 OA
BRANCH  25  26
ATOM     26  C   UNL A   1      39.078  21.084  25.938  1.00  0.00     0.338 C 
ATOM     27  O   UNL A   1      39.628  20.003  25.930  1.00  0.00    -0.246 OA
BRANCH  26  28
ATOM     28  C   UNL A   1      39.649  22.312  26.533  1.00  0.00     0.060 A 
ATOM     29  C   UNL A   1      39.087  23.546  26.182  1.00  0.00     0.016 A 
ATOM     30  C   UNL A   1      40.703  22.248  27.450  1.00  0.00     0.016 A 
ATOM     31  C   UNL A   1      39.597  24.725  26.724  1.00  0.00     0.010 A 
ATOM     32  C   UNL A   1      41.223  23.426  27.981  1.00  0.00     0.010 A 
ATOM     33  C   UNL A   1      40.693  24.668  27.592  1.00  0.00    -0.014 A 
BRANCH  33  34
ATOM     34  C   UNL A   1      41.466  25.893  27.896  1.00  0.00     0.031 A 
ATOM     35  C   UNL A   1      40.749  26.995  28.625  1.00  0.00     0.074 A 
ATOM     36  C   UNL A   1      42.741  26.035  27.498  1.00  0.00     0.049 A 
ATOM     37  N   UNL A   1      41.152  28.203  28.915  1.00  0.00    -0.248 NA
ATOM     38  C   UNL A   1      39.379  26.690  29.072  1.00  0.00     0.031 C 
ATOM     39  C   UNL A   1      43.532  25.015  26.811  1.00  0.00     0.029 A 
ATOM     40  N   UNL A   1      43.587  27.109  27.597  1.00  0.00    -0.354 N 
ATOM     41  C   UNL A   1      40.086  28.802  29.579  1.00  0.00     0.074 A 
ATOM     42  C   UNL A   1      39.008  27.840  29.610  1.00  0.00     0.031 C 
ATOM     43  C   UNL A   1      44.745  25.524  26.530  1.00  0.00     0.029 A 
ATOM     44  C   UNL A   1      44.802  26.912  26.986  1.00  0.00     0.049 A 
ATOM     45  H   UNL A   1      43.347  27.943  28.062  1.00  0.00     0.167 HD
ATOM     46  C   UNL A   1      40.019  30.042  30.119  1.00  0.00     0.034 A 
ATOM     47  C   UNL A   1      45.825  27.771  26.795  1.00  0.00     0.034 A 
ATOM     48  C   UNL A   1      41.094  30.997  30.042  1.00  0.00     0.049 A 
ATOM     49  C   UNL A   1      45.696  29.179  27.330  1.00  0.00     0.074 A 
ATOM     50  C   UNL A   1      41.146  32.284  30.546  1.00  0.00     0.029 A 
ATOM     51  N   UNL A   1      42.305  30.770  29.399  1.00  0.00    -0.354 N 
ATOM     52  N   UNL A   1      44.693  29.733  27.975  1.00  0.00    -0.248 NA
ATOM     53  C   UNL A   1      46.838  30.076  27.114  1.00  0.00     0.031 C 
ATOM     54  C   UNL A   1      42.361  32.856  30.150  1.00  0.00     0.029 A 
ATOM     55  C   UNL A   1      43.099  31.904  29.465  1.00  0.00     0.049 A 
ATOM     56  H   UNL A   1      42.562  29.928  28.960  1.00  0.00     0.167 HD
ATOM     57  C   UNL A   1      45.100  31.032  28.269  1.00  0.00     0.074 A 
ATOM     58  C   UNL A   1      46.442  31.174  27.741  1.00  0.00     0.031 C 
ATOM     59  C   UNL A   1      44.432  32.019  28.921  1.00  0.00     0.034 A 
BRANCH  46  60
ATOM     60  C   UNL A   1      38.718  30.432  30.776  1.00  0.00     0.023 A 
ATOM     61  C   UNL A   1      37.766  31.226  30.109  1.00  0.00     0.031 A 
ATOM     62  C   UNL A   1      38.453  30.064  32.105  1.00  0.00     0.131 A 
ATOM     63  C   UNL A   1      36.635  31.689  30.798  1.00  0.00     0.055 A 
ATOM     64  C   UNL A   1      37.286  30.463  32.760  1.00  0.00     0.041 A 
ATOM     65  F   UNL A   1      39.338  29.332  32.801  1.00  0.00    -0.206 F 
ATOM     66  C   UNL A   1      36.377  31.293  32.112  1.00  0.00     0.022 A 
BRANCH  63  67
ATOM     67  S   UNL A   1      35.585  32.937  30.003  1.00  0.00     0.124 S 
ATOM     68  O   UNL A   1      35.284  33.826  31.123  1.00  0.00    -0.237 OA
ATOM     69  O   UNL A   1      36.464  33.480  28.974  1.00  0.00    -0.237 OA
ATOM     70  O   UNL A   1      34.448  32.163  29.508  1.00  0.00    -0.744 OA
ENDBRANCH  63  67
ENDBRANCH  46  60
BRANCH  47  71
ATOM     71  C   UNL A   1      47.040  27.352  26.040  1.00  0.00     0.023 A 
ATOM     72  C   UNL A   1      47.216  27.705  24.692  1.00  0.00     0.031 A 
ATOM     73  C   UNL A   1      48.020  26.539  26.640  1.00  0.00     0.131 A 
ATOM     74  C   UNL A   1      48.318  27.211  23.977  1.00  0.00     0.055 A 
ATOM     75  C   UNL A   1      49.140  26.091  25.938  1.00  0.00     0.041 A 
ATOM     76  F   UNL A   1      47.902  26.173  27.926  1.00  0.00    -0.206 F 
ATOM     77  C   UNL A   1      49.287  26.416  24.592  1.00  0.00     0.022 A 
BRANCH  74  78
ATOM     78  S   UNL A   1      48.426  27.556  22.198  1.00  0.00     0.124 S 
ATOM     79  O   UNL A   1      47.143  28.200  21.941  1.00  0.00    -0.237 OA
ATOM     80  O   UNL A   1      49.602  28.416  22.127  1.00  0.00    -0.237 OA
ATOM     81  O   UNL A   1      48.589  26.230  21.603  1.00  0.00    -0.744 OA
ENDBRANCH  74  78
ENDBRANCH  47  71
BRANCH  59  82
ATOM     82  C   UNL A   1      45.169  33.318  29.135  1.00  0.00     0.023 A 
ATOM     83  C   UNL A   1      45.058  34.390  28.233  1.00  0.00     0.031 A 
ATOM     84  C   UNL A   1      45.995  33.481  30.262  1.00  0.00     0.131 A 
ATOM     85  C   UNL A   1      45.802  35.559  28.447  1.00  0.00     0.055 A 
ATOM     86  C   UNL A   1      46.687  34.668  30.500  1.00  0.00     0.041 A 
ATOM     87  F   UNL A   1      46.136  32.488  31.154  1.00  0.00    -0.206 F 
ATOM     88  C   UNL A   1      46.602  35.713  29.582  1.00  0.00     0.022 A 
BRANCH  85  89
ATOM     89  S   UNL A   1      45.778  36.851  27.173  1.00  0.00     0.124 S 
ATOM     90  O   UNL A   1      44.347  37.033  26.953  1.00  0.00    -0.237 OA
ATOM     91  O   UNL A   1      46.467  37.954  27.834  1.00  0.00    -0.237 OA
ATOM     92  O   UNL A   1      46.505  36.247  26.058  1.00  0.00    -0.744 OA
ENDBRANCH  85  89
ENDBRANCH  59  82
ENDBRANCH  33  34
ENDBRANCH  26  28
ENDBRANCH  25  26
ENDBRANCH  24  25
ENDBRANCH   1  24
TORSDOF 17
ENDMDL
MODEL 3
REMARK VINA RESULT:     -12.2      5.136     10.358
REMARK SMILES O=C(CCC(=O)N1CCC(c2nnc3ccccn23)CC1)OCCOC(=O)c1ccc(-c2c3nc(c(-c4cc(S(=O)(=O)[O-])ccc4F)c4ccc([nH]4)c(-c4cc(S(=O)(=O)[O-])ccc4F)c4nc(c(-c5cc(S(=O)(=O)[O-])ccc5F)c5ccc2[nH]5)C=C4)C=C3)cc1
REMARK SMILES IDX 23 1 22 2 2 3 1 4 3 5 4 6 5 7 6 8 7 9 8 10 21 11 9 12 20 13
REMARK SMILES IDX 10 14 11 15 12 16 19 17 13 18 14 19 18 20 15 21 17 22 16 23
REMARK SMILES IDX 24 24 25 25 26 26 27 27 28 28 29 29 90 30 30 31 89 32 31 33
REMARK SMILES IDX 32 34 33 35 83 36 34 37 88 38 82 39 84 40 35 41 87 42 81 43
REMARK SMILES IDX 80 44 36 46 68 47 48 48 67 49 49 50 52 51 66 52 85 53 50 54
REMARK SMILES IDX 51 55 65 57 86 58 53 59 37 60 38 61 46 62 39 63 45 64 47 65
REMARK SMILES IDX 44 66 40 67 41 68 42 69 43 70 69 71 70 72 78 73 71 74 77 75
REMARK SMILES IDX 79 76 76 77 72 78 73 79 74 80 75 81 54 82 55 83 63 84 56 85
REMARK SMILES IDX 62 86 64 87 61 88 57 89 58 90 59 91 60 92
REMARK H PARENT 84 45 52 56
REMARK Flexibility Score: inf
ROOT
ATOM      1  C   UNL A   1      35.350  21.134  25.170  1.00  0.00     0.274 C 
ENDROOT
BRANCH   1   2
ATOM      2  O   UNL A   1      34.280  20.166  25.079  1.00  0.00    -0.462 OA
BRANCH   2   3
ATOM      3  C   UNL A   1      32.984  20.431  24.822  1.00  0.00     0.306 C 
ATOM      4  O   UNL A   1      32.133  19.553  24.964  1.00  0.00    -0.252 OA
BRANCH   3   5
ATOM      5  C   UNL A   1      32.566  21.841  24.523  1.00  0.00     0.132 C 
BRANCH   5   6
ATOM      6  C   UNL A   1      32.542  22.063  23.020  1.00  0.00     0.112 C 
BRANCH   6   7
ATOM      7  C   UNL A   1      33.136  23.397  22.615  1.00  0.00     0.223 C 
ATOM      8  O   UNL A   1      34.348  23.479  22.404  1.00  0.00    -0.275 OA
ATOM      9  N   UNL A   1      32.288  24.480  22.450  1.00  0.00    -0.343 N 
ATOM     10  C   UNL A   1      32.755  25.624  21.678  1.00  0.00     0.120 C 
ATOM     11  C   UNL A   1      30.978  24.661  23.082  1.00  0.00     0.120 C 
ATOM     12  C   UNL A   1      32.777  26.891  22.520  1.00  0.00     0.033 C 
ATOM     13  C   UNL A   1      31.007  25.887  24.003  1.00  0.00     0.033 C 
ATOM     14  C   UNL A   1      31.415  27.123  23.193  1.00  0.00     0.062 C 
BRANCH  14  15
ATOM     15  C   UNL A   1      31.463  28.374  24.009  1.00  0.00     0.140 A 
ATOM     16  N   UNL A   1      30.637  29.402  23.956  1.00  0.00    -0.134 NA
ATOM     17  N   UNL A   1      32.361  28.571  25.038  1.00  0.00    -0.286 N 
ATOM     18  N   UNL A   1      30.978  30.287  24.955  1.00  0.00    -0.130 NA
ATOM     19  C   UNL A   1      32.001  29.783  25.607  1.00  0.00     0.160 A 
ATOM     20  C   UNL A   1      33.411  27.785  25.512  1.00  0.00     0.095 A 
ATOM     21  C   UNL A   1      32.747  30.226  26.734  1.00  0.00     0.050 A 
ATOM     22  C   UNL A   1      34.118  28.206  26.575  1.00  0.00     0.019 A 
ATOM     23  C   UNL A   1      33.761  29.470  27.202  1.00  0.00     0.005 A 
ENDBRANCH  14  15
ENDBRANCH   6   7
ENDBRANCH   5   6
ENDBRANCH   3   5
ENDBRANCH   2   3
ENDBRANCH   1   2
BRANCH   1  24
ATOM     24  C   UNL A   1      36.695  20.428  25.012  1.00  0.00     0.275 C 
BRANCH  24  25
ATOM     25  O   UNL A   1      37.743  21.404  25.115  1.00  0.00    -0.458 OA
BRANCH  25  26
ATOM     26  C   UNL A   1      38.836  21.004  25.821  1.00  0.00     0.338 C 
ATOM     27  O   UNL A   1      39.347  19.904  25.814  1.00  0.00    -0.246 OA
BRANCH  26  28
ATOM     28  C   UNL A   1      39.437  22.206  26.441  1.00  0.00     0.060 A 
ATOM     29  C   UNL A   1      38.918  23.461  26.100  1.00  0.00     0.016 A 
ATOM     30  C   UNL A   1      40.475  22.096  27.371  1.00  0.00     0.016 A 
ATOM     31  C   UNL A   1      39.457  24.616  26.666  1.00  0.00     0.010 A 
ATOM     32  C   UNL A   1      41.024  23.250  27.926  1.00  0.00     0.010 A 
ATOM     33  C   UNL A   1      40.539  24.513  27.548  1.00  0.00    -0.014 A 
BRANCH  33  34
ATOM     34  C   UNL A   1      41.345  25.708  27.879  1.00  0.00     0.031 A 
ATOM     35  C   UNL A   1      40.648  26.828  28.601  1.00  0.00     0.074 A 
ATOM     36  C   UNL A   1      42.633  25.810  27.512  1.00  0.00     0.049 A 
ATOM     37  N   UNL A   1      41.085  28.020  28.910  1.00  0.00    -0.248 NA
ATOM     38  C   UNL A   1      39.259  26.566  29.014  1.00  0.00     0.031 C 
ATOM     39  C   UNL A   1      43.405  24.770  26.835  1.00  0.00     0.029 A 
ATOM     40  N   UNL A   1      43.512  26.855  27.640  1.00  0.00    -0.354 N 
ATOM     41  C   UNL A   1      40.025  28.650  29.554  1.00  0.00     0.074 A 
ATOM     42  C   UNL A   1      38.914  27.724  29.552  1.00  0.00     0.031 C 
ATOM     43  C   UNL A   1      44.641  25.240  26.587  1.00  0.00     0.029 A 
ATOM     44  C   UNL A   1      44.734  26.621  27.055  1.00  0.00     0.049 A 
ATOM     45  H   UNL A   1      43.289  27.693  28.106  1.00  0.00     0.167 HD
ATOM     46  C   UNL A   1      39.987  29.887  30.104  1.00  0.00     0.034 A 
ATOM     47  C   UNL A   1      45.789  27.446  26.895  1.00  0.00     0.034 A 
ATOM     48  C   UNL A   1      41.094  30.806  30.059  1.00  0.00     0.049 A 
ATOM     49  C   UNL A   1      45.695  28.854  27.438  1.00  0.00     0.074 A 
ATOM     50  C   UNL A   1      41.178  32.086  30.574  1.00  0.00     0.029 A 
ATOM     51  N   UNL A   1      42.312  30.543  29.442  1.00  0.00    -0.354 N 
ATOM     52  N   UNL A   1      44.696  29.436  28.065  1.00  0.00    -0.248 NA
ATOM     53  C   UNL A   1      46.871  29.713  27.257  1.00  0.00     0.031 C 
ATOM     54  C   UNL A   1      42.420  32.620  30.211  1.00  0.00     0.029 A 
ATOM     55  C   UNL A   1      43.142  31.649  29.536  1.00  0.00     0.049 A 
ATOM     56  H   UNL A   1      42.550  29.696  29.002  1.00  0.00     0.167 HD
ATOM     57  C   UNL A   1      45.140  30.719  28.379  1.00  0.00     0.074 A 
ATOM     58  C   UNL A   1      46.497  30.819  27.883  1.00  0.00     0.031 C 
ATOM     59  C   UNL A   1      44.491  31.723  29.024  1.00  0.00     0.034 A 
BRANCH  46  60
ATOM     60  C   UNL A   1      38.684  30.316  30.733  1.00  0.00     0.023 A 
ATOM     61  C   UNL A   1      37.726  31.054  30.013  1.00  0.00     0.031 A 
ATOM     62  C   UNL A   1      38.424  30.043  32.086  1.00  0.00     0.131 A 
ATOM     63  C   UNL A   1      36.593  31.559  30.669  1.00  0.00     0.055 A 
ATOM     64  C   UNL A   1      37.256  30.482  32.714  1.00  0.00     0.041 A 
ATOM     65  F   UNL A   1      39.315  29.369  32.831  1.00  0.00    -0.206 F 
ATOM     66  C   UNL A   1      36.341  31.258  32.009  1.00  0.00     0.022 A 
BRANCH  63  67
ATOM     67  S   UNL A   1      35.534  32.739  29.788  1.00  0.00     0.124 S 
ATOM     68  O   UNL A   1      36.245  33.996  30.010  1.00  0.00    -0.237 OA
ATOM     69  O   UNL A   1      35.555  32.224  28.423  1.00  0.00    -0.237 OA
ATOM     70  O   UNL A   1      34.250  32.627  30.477  1.00  0.00    -0.744 OA
ENDBRANCH  63  67
ENDBRANCH  46  60
BRANCH  47  71
ATOM     71  C   UNL A   1      47.007  26.992  26.164  1.00  0.00     0.023 A 
ATOM     72  C   UNL A   1      48.062  26.354  26.836  1.00  0.00     0.031 A 
ATOM     73  C   UNL A   1      47.159  27.245  24.788  1.00  0.00     0.131 A 
ATOM     74  C   UNL A   1      49.239  26.031  26.142  1.00  0.00     0.055 A 
ATOM     75  C   UNL A   1      48.312  26.877  24.093  1.00  0.00     0.041 A 
ATOM     76  F   UNL A   1      46.182  27.852  24.097  1.00  0.00    -0.206 F 
ATOM     77  C   UNL A   1      49.368  26.277  24.775  1.00  0.00     0.022 A 
BRANCH  74  78
ATOM     78  S   UNL A   1      50.641  25.354  27.077  1.00  0.00     0.124 S 
ATOM     79  O   UNL A   1      51.037  26.499  27.890  1.00  0.00    -0.237 OA
ATOM     80  O   UNL A   1      50.020  24.244  27.791  1.00  0.00    -0.237 OA
ATOM     81  O   UNL A   1      51.591  24.969  26.035  1.00  0.00    -0.744 OA
ENDBRANCH  74  78
ENDBRANCH  47  71
BRANCH  59  82
ATOM     82  C   UNL A   1      45.265  32.995  29.265  1.00  0.00     0.023 A 
ATOM     83  C   UNL A   1      45.209  34.078  28.372  1.00  0.00     0.031 A 
ATOM     84  C   UNL A   1      46.072  33.120  30.412  1.00  0.00     0.131 A 
ATOM     85  C   UNL A   1      45.987  35.220  28.612  1.00  0.00     0.055 A 
ATOM     86  C   UNL A   1      46.797  34.282  30.675  1.00  0.00     0.041 A 
ATOM     87  F   UNL A   1      46.161  32.115  31.297  1.00  0.00    -0.206 F 
ATOM     88  C   UNL A   1      46.767  35.336  29.765  1.00  0.00     0.022 A 
BRANCH  85  89
ATOM     89  S   UNL A   1      46.033  36.523  27.351  1.00  0.00     0.124 S 
ATOM     90  O   UNL A   1      46.773  35.875  26.272  1.00  0.00    -0.237 OA
ATOM     91  O   UNL A   1      44.617  36.763  27.098  1.00  0.00    -0.237 OA
ATOM     92  O   UNL A   1      46.738  37.618  28.015  1.00  0.00    -0.744 OA
ENDBRANCH  85  89
ENDBRANCH  59  82
ENDBRANCH  33  34
ENDBRANCH  26  28
ENDBRANCH  25  26
ENDBRANCH  24  25
ENDBRANCH   1  24
TORSDOF 17
ENDMDL
