MODEL 1
REMARK VINA RESULT:     -13.6      0.000      0.000
REMARK SMILES O=C(OCCOC(=O)c1ccc(-c2c3nc(c(-c4cc(S(=O)(=O)[O-])ccc4F)c4ccc([nH]4)c(-c4cc(S(=O)(=O)[O-])ccc4F)c4nc(c(-c5cc(S(=O)(=O)[O-])ccc5F)c5ccc2[nH]5)C=C4)C=C3)cc1)c1ccc(NC(=O)[C@@H]2CC=CC[C@H]2C(=O)Nc2cccc([N+](=O)[O-])c2)cc1
REMARK SMILES IDX 4 1 3 2 2 3 1 4 72 5 73 6 98 7 74 8 97 9 75 10 76 11 77 12
REMARK SMILES IDX 78 14 79 15 80 16 84 17 81 18 83 19 82 20 85 21 86 22 87 23
REMARK SMILES IDX 88 25 89 26 96 27 90 28 92 29 91 30 93 31 94 32 95 33 5 34
REMARK SMILES IDX 6 35 7 36 8 37 9 38 10 39 71 40 11 41 70 42 12 43 13 44
REMARK SMILES IDX 14 45 64 46 15 47 69 48 63 49 65 50 16 51 68 52 62 53 61 54
REMARK SMILES IDX 17 56 49 57 29 58 48 59 30 60 33 61 47 62 66 63 31 64 32 65
REMARK SMILES IDX 46 67 67 68 34 69 18 70 19 71 27 72 20 73 26 74 28 75 25 76
REMARK SMILES IDX 21 77 22 78 23 79 24 80 50 81 51 82 59 83 52 84 58 85 60 86
REMARK SMILES IDX 57 87 53 88 54 89 55 90 56 91 35 92 36 93 44 94 37 95 43 96
REMARK SMILES IDX 45 97 42 98 38 99 39 100 40 101 41 102
REMARK H PARENT 76 13 87 24 65 55 33 66
REMARK Flexibility Score: inf
ROOT
ATOM      1  C   UNL A   1      31.159  30.969  25.717  1.00  0.00     0.275 C 
ENDROOT
BRANCH   1   2
ATOM      2  O   UNL A   1      31.731  29.844  26.432  1.00  0.00    -0.458 OA
BRANCH   2   3
ATOM      3  C   UNL A   1      32.857  29.165  26.052  1.00  0.00     0.338 C 
ATOM      4  O   UNL A   1      33.960  29.694  26.121  1.00  0.00    -0.246 OA
BRANCH   3   5
ATOM      5  C   UNL A   1      32.706  27.861  25.333  1.00  0.00     0.060 A 
ATOM      6  C   UNL A   1      33.604  27.474  24.370  1.00  0.00     0.018 A 
ATOM      7  C   UNL A   1      31.702  26.933  25.653  1.00  0.00     0.018 A 
ATOM      8  C   UNL A   1      33.609  26.206  23.839  1.00  0.00     0.027 A 
ATOM      9  C   UNL A   1      31.606  25.697  24.958  1.00  0.00     0.027 A 
ATOM     10  C   UNL A   1      32.552  25.359  23.988  1.00  0.00     0.041 A 
BRANCH  10  11
ATOM     11  N   UNL A   1      32.430  24.236  23.163  1.00  0.00    -0.326 N 
ATOM     12  C   UNL A   1      33.138  23.064  23.095  1.00  0.00     0.228 C 
ATOM     13  H   UNL A   1      31.698  24.299  22.508  1.00  0.00     0.169 HD
ATOM     14  O   UNL A   1      32.767  22.256  22.231  1.00  0.00    -0.274 OA
BRANCH  12  15
ATOM     15  C   UNL A   1      34.363  22.655  23.956  1.00  0.00     0.095 C 
ATOM     16  C   UNL A   1      35.709  22.792  23.208  1.00  0.00     0.041 C 
ATOM     17  C   UNL A   1      34.254  21.409  24.869  1.00  0.00     0.095 C 
ATOM     18  C   UNL A   1      36.868  22.131  23.906  1.00  0.00    -0.030 C 
ATOM     19  C   UNL A   1      35.477  21.197  25.775  1.00  0.00     0.041 C 
ATOM     20  C   UNL A   1      36.771  21.438  25.050  1.00  0.00    -0.030 C 
BRANCH  17  21
ATOM     21  C   UNL A   1      32.873  21.206  25.496  1.00  0.00     0.228 C 
ATOM     22  O   UNL A   1      32.235  22.187  25.898  1.00  0.00    -0.274 OA
ATOM     23  N   UNL A   1      32.249  19.998  25.612  1.00  0.00    -0.326 N 
ATOM     24  H   UNL A   1      31.563  19.911  26.312  1.00  0.00     0.169 HD
BRANCH  23  25
ATOM     25  C   UNL A   1      32.501  18.877  24.826  1.00  0.00     0.048 A 
ATOM     26  C   UNL A   1      32.389  19.027  23.442  1.00  0.00     0.026 A 
ATOM     27  C   UNL A   1      32.967  17.687  25.376  1.00  0.00     0.111 A 
ATOM     28  C   UNL A   1      32.869  18.030  22.595  1.00  0.00     0.009 A 
ATOM     29  C   UNL A   1      33.500  16.715  24.526  1.00  0.00     0.271 A 
ATOM     30  C   UNL A   1      33.458  16.884  23.134  1.00  0.00     0.086 A 
BRANCH  29  31
ATOM     31  N   UNL A   1      34.208  15.565  25.098  1.00  0.00     0.062 N 
ATOM     32  O   UNL A   1      35.447  15.588  25.080  1.00  0.00    -0.258 OA
ATOM     33  O   UNL A   1      33.527  14.656  25.592  1.00  0.00    -0.258 OA
ENDBRANCH  29  31
ENDBRANCH  23  25
ENDBRANCH  17  21
ENDBRANCH  12  15
ENDBRANCH  10  11
ENDBRANCH   3   5
ENDBRANCH   2   3
ENDBRANCH   1   2
BRANCH   1  34
ATOM     34  C   UNL A   1      31.380  32.321  26.453  1.00  0.00     0.275 C 
BRANCH  34  35
ATOM     35  O   UNL A   1      32.156  32.194  27.667  1.00  0.00    -0.458 OA
BRANCH  35  36
ATOM     36  C   UNL A   1      33.016  33.219  27.910  1.00  0.00     0.338 C 
ATOM     37  O   UNL A   1      32.692  34.387  28.049  1.00  0.00    -0.246 OA
BRANCH  36  38
ATOM     38  C   UNL A   1      34.386  32.707  28.202  1.00  0.00     0.060 A 
ATOM     39  C   UNL A   1      34.479  31.419  28.743  1.00  0.00     0.016 A 
ATOM     40  C   UNL A   1      35.560  33.418  27.931  1.00  0.00     0.016 A 
ATOM     41  C   UNL A   1      35.725  30.867  29.062  1.00  0.00     0.010 A 
ATOM     42  C   UNL A   1      36.815  32.839  28.204  1.00  0.00     0.010 A 
ATOM     43  C   UNL A   1      36.908  31.581  28.829  1.00  0.00    -0.014 A 
BRANCH  43  44
ATOM     44  C   UNL A   1      38.180  31.092  29.450  1.00  0.00     0.031 A 
ATOM     45  C   UNL A   1      38.492  31.511  30.869  1.00  0.00     0.074 A 
ATOM     46  C   UNL A   1      39.001  30.215  28.837  1.00  0.00     0.049 A 
ATOM     47  N   UNL A   1      39.418  31.071  31.685  1.00  0.00    -0.248 NA
ATOM     48  C   UNL A   1      37.648  32.570  31.440  1.00  0.00     0.031 C 
ATOM     49  C   UNL A   1      38.846  29.714  27.472  1.00  0.00     0.029 A 
ATOM     50  N   UNL A   1      40.129  29.572  29.297  1.00  0.00    -0.354 N 
ATOM     51  C   UNL A   1      39.244  31.777  32.870  1.00  0.00     0.074 A 
ATOM     52  C   UNL A   1      38.191  32.738  32.633  1.00  0.00     0.031 C 
ATOM     53  C   UNL A   1      39.834  28.837  27.210  1.00  0.00     0.029 A 
ATOM     54  C   UNL A   1      40.691  28.703  28.389  1.00  0.00     0.049 A 
ATOM     55  H   UNL A   1      40.501  29.720  30.197  1.00  0.00     0.167 HD
ATOM     56  C   UNL A   1      39.862  31.617  34.066  1.00  0.00     0.034 A 
ATOM     57  C   UNL A   1      41.755  27.878  28.498  1.00  0.00     0.034 A 
ATOM     58  C   UNL A   1      40.923  30.674  34.311  1.00  0.00     0.049 A 
ATOM     59  C   UNL A   1      42.487  27.767  29.819  1.00  0.00     0.074 A 
ATOM     60  C   UNL A   1      41.596  30.421  35.494  1.00  0.00     0.029 A 
ATOM     61  N   UNL A   1      41.484  29.846  33.350  1.00  0.00    -0.354 N 
ATOM     62  N   UNL A   1      42.243  28.374  30.957  1.00  0.00    -0.248 NA
ATOM     63  C   UNL A   1      43.617  26.826  29.875  1.00  0.00     0.031 C 
ATOM     64  C   UNL A   1      42.607  29.490  35.233  1.00  0.00     0.029 A 
ATOM     65  C   UNL A   1      42.516  29.104  33.905  1.00  0.00     0.049 A 
ATOM     66  H   UNL A   1      41.194  29.792  32.410  1.00  0.00     0.167 HD
ATOM     67  C   UNL A   1      43.153  27.843  31.873  1.00  0.00     0.074 A 
ATOM     68  C   UNL A   1      43.947  26.871  31.156  1.00  0.00     0.031 C 
ATOM     69  C   UNL A   1      43.303  28.126  33.194  1.00  0.00     0.034 A 
BRANCH  56  70
ATOM     70  C   UNL A   1      39.403  32.512  35.191  1.00  0.00     0.023 A 
ATOM     71  C   UNL A   1      39.848  33.843  35.295  1.00  0.00     0.031 A 
ATOM     72  C   UNL A   1      38.569  32.014  36.205  1.00  0.00     0.131 A 
ATOM     73  C   UNL A   1      39.535  34.599  36.434  1.00  0.00     0.055 A 
ATOM     74  C   UNL A   1      38.187  32.802  37.294  1.00  0.00     0.041 A 
ATOM     75  F   UNL A   1      38.132  30.745  36.170  1.00  0.00    -0.206 F 
ATOM     76  C   UNL A   1      38.686  34.095  37.422  1.00  0.00     0.022 A 
BRANCH  73  77
ATOM     77  S   UNL A   1      40.388  36.179  36.684  1.00  0.00     0.124 S 
ATOM     78  O   UNL A   1      39.712  36.694  37.873  1.00  0.00    -0.237 OA
ATOM     79  O   UNL A   1      41.774  35.766  36.865  1.00  0.00    -0.237 OA
ATOM     80  O   UNL A   1      40.111  36.916  35.453  1.00  0.00    -0.744 OA
ENDBRANCH  73  77
ENDBRANCH  56  70
BRANCH  57  81
ATOM     81  C   UNL A   1      42.216  27.063  27.332  1.00  0.00     0.023 A 
ATOM     82  C   UNL A   1      41.924  25.691  27.238  1.00  0.00     0.031 A 
ATOM     83  C   UNL A   1      43.049  27.627  26.350  1.00  0.00     0.131 A 
ATOM     84  C   UNL A   1      42.511  24.918  26.224  1.00  0.00     0.055 A 
ATOM     85  C   UNL A   1      43.591  26.863  25.314  1.00  0.00     0.041 A 
ATOM     86  F   UNL A   1      43.360  28.933  26.393  1.00  0.00    -0.206 F 
ATOM     87  C   UNL A   1      43.336  25.497  25.256  1.00  0.00     0.022 A 
BRANCH  84  88
ATOM     88  S   UNL A   1      42.263  23.119  26.241  1.00  0.00     0.124 S 
ATOM     89  O   UNL A   1      40.820  23.021  26.428  1.00  0.00    -0.237 OA
ATOM     90  O   UNL A   1      42.769  22.731  24.929  1.00  0.00    -0.237 OA
ATOM     91  O   UNL A   1      43.071  22.674  27.375  1.00  0.00    -0.744 OA
ENDBRANCH  84  88
ENDBRANCH  57  81
BRANCH  69  92
ATOM     92  C   UNL A   1      44.316  27.317  33.972  1.00  0.00     0.023 A 
ATOM     93  C   UNL A   1      43.976  26.122  34.632  1.00  0.00     0.031 A 
ATOM     94  C   UNL A   1      45.650  27.756  34.055  1.00  0.00     0.131 A 
ATOM     95  C   UNL A   1      44.942  25.442  35.391  1.00  0.00     0.055 A 
ATOM     96  C   UNL A   1      46.620  27.044  34.762  1.00  0.00     0.041 A 
ATOM     97  F   UNL A   1      46.035  28.890  33.445  1.00  0.00    -0.206 F 
ATOM     98  C   UNL A   1      46.266  25.886  35.446  1.00  0.00     0.022 A 
BRANCH  95  99
ATOM     99  S   UNL A   1      44.427  24.014  36.388  1.00  0.00     0.124 S 
ATOM    100  O   UNL A   1      43.547  24.633  37.374  1.00  0.00    -0.237 OA
ATOM    101  O   UNL A   1      43.776  23.163  35.398  1.00  0.00    -0.237 OA
ATOM    102  O   UNL A   1      45.685  23.495  36.920  1.00  0.00    -0.744 OA
ENDBRANCH  95  99
ENDBRANCH  69  92
ENDBRANCH  43  44
ENDBRANCH  36  38
ENDBRANCH  35  36
ENDBRANCH  34  35
ENDBRANCH   1  34
TORSDOF 19
ENDMDL
MODEL 2
REMARK VINA RESULT:     -13.6      1.831      2.132
REMARK SMILES O=C(OCCOC(=O)c1ccc(-c2c3nc(c(-c4cc(S(=O)(=O)[O-])ccc4F)c4ccc([nH]4)c(-c4cc(S(=O)(=O)[O-])ccc4F)c4nc(c(-c5cc(S(=O)(=O)[O-])ccc5F)c5ccc2[nH]5)C=C4)C=C3)cc1)c1ccc(NC(=O)[C@@H]2CC=CC[C@H]2C(=O)Nc2cccc([N+](=O)[O-])c2)cc1
REMARK SMILES IDX 4 1 3 2 2 3 1 4 72 5 73 6 98 7 74 8 97 9 75 10 76 11 77 12
REMARK SMILES IDX 78 14 79 15 80 16 84 17 81 18 83 19 82 20 85 21 86 22 87 23
REMARK SMILES IDX 88 25 89 26 96 27 90 28 92 29 91 30 93 31 94 32 95 33 5 34
REMARK SMILES IDX 6 35 7 36 8 37 9 38 10 39 71 40 11 41 70 42 12 43 13 44
REMARK SMILES IDX 14 45 64 46 15 47 69 48 63 49 65 50 16 51 68 52 62 53 61 54
REMARK SMILES IDX 17 56 49 57 29 58 48 59 30 60 33 61 47 62 66 63 31 64 32 65
REMARK SMILES IDX 46 67 67 68 34 69 18 70 19 71 27 72 20 73 26 74 28 75 25 76
REMARK SMILES IDX 21 77 22 78 23 79 24 80 50 81 51 82 59 83 52 84 58 85 60 86
REMARK SMILES IDX 57 87 53 88 54 89 55 90 56 91 35 92 36 93 44 94 37 95 43 96
REMARK SMILES IDX 45 97 42 98 38 99 39 100 40 101 41 102
REMARK H PARENT 76 13 87 24 65 55 33 66
REMARK Flexibility Score: inf
ROOT
ATOM      1  C   UNL A   1      31.364  31.031  25.809  1.00  0.00     0.275 C 
ENDROOT
BRANCH   1   2
ATOM      2  O   UNL A   1      32.209  29.864  25.989  1.00  0.00    -0.458 OA
BRANCH   2   3
ATOM      3  C   UNL A   1      31.805  28.683  26.549  1.00  0.00     0.338 C 
ATOM      4  O   UNL A   1      31.623  28.593  27.757  1.00  0.00    -0.246 OA
BRANCH   3   5
ATOM      5  C   UNL A   1      31.818  27.444  25.709  1.00  0.00     0.060 A 
ATOM      6  C   UNL A   1      32.928  27.090  24.984  1.00  0.00     0.018 A 
ATOM      7  C   UNL A   1      30.743  26.542  25.677  1.00  0.00     0.018 A 
ATOM      8  C   UNL A   1      33.042  25.866  24.369  1.00  0.00     0.027 A 
ATOM      9  C   UNL A   1      30.803  25.367  24.880  1.00  0.00     0.027 A 
ATOM     10  C   UNL A   1      31.963  25.059  24.166  1.00  0.00     0.041 A 
BRANCH  10  11
ATOM     11  N   UNL A   1      32.035  24.007  23.247  1.00  0.00    -0.326 N 
ATOM     12  C   UNL A   1      32.941  22.990  23.083  1.00  0.00     0.228 C 
ATOM     13  H   UNL A   1      31.298  23.993  22.596  1.00  0.00     0.169 HD
ATOM     14  O   UNL A   1      32.711  22.205  22.150  1.00  0.00    -0.274 OA
BRANCH  12  15
ATOM     15  C   UNL A   1      34.227  22.735  23.913  1.00  0.00     0.095 C 
ATOM     16  C   UNL A   1      35.528  22.940  23.103  1.00  0.00     0.041 C 
ATOM     17  C   UNL A   1      34.259  21.538  24.895  1.00  0.00     0.095 C 
ATOM     18  C   UNL A   1      36.764  22.419  23.786  1.00  0.00    -0.030 C 
ATOM     19  C   UNL A   1      35.528  21.480  25.759  1.00  0.00     0.041 C 
ATOM     20  C   UNL A   1      36.770  21.787  24.969  1.00  0.00    -0.030 C 
BRANCH  17  21
ATOM     21  C   UNL A   1      32.925  21.256  25.589  1.00  0.00     0.228 C 
ATOM     22  O   UNL A   1      32.243  22.201  26.007  1.00  0.00    -0.274 OA
ATOM     23  N   UNL A   1      32.388  20.012  25.751  1.00  0.00    -0.326 N 
ATOM     24  H   UNL A   1      31.742  19.894  26.484  1.00  0.00     0.169 HD
BRANCH  23  25
ATOM     25  C   UNL A   1      32.677  18.897  24.970  1.00  0.00     0.048 A 
ATOM     26  C   UNL A   1      32.540  19.031  23.587  1.00  0.00     0.026 A 
ATOM     27  C   UNL A   1      33.199  17.732  25.523  1.00  0.00     0.111 A 
ATOM     28  C   UNL A   1      33.050  18.049  22.741  1.00  0.00     0.009 A 
ATOM     29  C   UNL A   1      33.761  16.777  24.673  1.00  0.00     0.271 A 
ATOM     30  C   UNL A   1      33.694  16.933  23.281  1.00  0.00     0.086 A 
BRANCH  29  31
ATOM     31  N   UNL A   1      34.524  15.662  25.244  1.00  0.00     0.062 N 
ATOM     32  O   UNL A   1      35.693  15.885  25.588  1.00  0.00    -0.258 OA
ATOM     33  O   UNL A   1      33.946  14.575  25.377  1.00  0.00    -0.258 OA
ENDBRANCH  29  31
ENDBRANCH  23  25
ENDBRANCH  17  21
ENDBRANCH  12  15
ENDBRANCH  10  11
ENDBRANCH   3   5
ENDBRANCH   2   3
ENDBRANCH   1   2
BRANCH   1  34
ATOM     34  C   UNL A   1      31.809  32.234  26.687  1.00  0.00     0.275 C 
BRANCH  34  35
ATOM     35  O   UNL A   1      32.805  31.886  27.677  1.00  0.00    -0.458 OA
BRANCH  35  36
ATOM     36  C   UNL A   1      33.637  32.899  28.036  1.00  0.00     0.338 C 
ATOM     37  O   UNL A   1      33.287  34.045  28.267  1.00  0.00    -0.246 OA
BRANCH  36  38
ATOM     38  C   UNL A   1      35.007  32.386  28.326  1.00  0.00     0.060 A 
ATOM     39  C   UNL A   1      35.134  31.011  28.558  1.00  0.00     0.016 A 
ATOM     40  C   UNL A   1      36.156  33.186  28.338  1.00  0.00     0.016 A 
ATOM     41  C   UNL A   1      36.380  30.448  28.853  1.00  0.00     0.010 A 
ATOM     42  C   UNL A   1      37.417  32.607  28.584  1.00  0.00     0.010 A 
ATOM     43  C   UNL A   1      37.534  31.242  28.903  1.00  0.00    -0.014 A 
BRANCH  43  44
ATOM     44  C   UNL A   1      38.778  30.669  29.509  1.00  0.00     0.031 A 
ATOM     45  C   UNL A   1      39.145  31.079  30.917  1.00  0.00     0.074 A 
ATOM     46  C   UNL A   1      39.523  29.729  28.892  1.00  0.00     0.049 A 
ATOM     47  N   UNL A   1      40.051  30.582  31.721  1.00  0.00    -0.248 NA
ATOM     48  C   UNL A   1      38.390  32.203  31.490  1.00  0.00     0.031 C 
ATOM     49  C   UNL A   1      39.308  29.226  27.536  1.00  0.00     0.029 A 
ATOM     50  N   UNL A   1      40.609  29.011  29.340  1.00  0.00    -0.354 N 
ATOM     51  C   UNL A   1      39.949  31.311  32.901  1.00  0.00     0.074 A 
ATOM     52  C   UNL A   1      38.965  32.344  32.672  1.00  0.00     0.031 C 
ATOM     53  C   UNL A   1      40.225  28.278  27.267  1.00  0.00     0.029 A 
ATOM     54  C   UNL A   1      41.091  28.094  28.432  1.00  0.00     0.049 A 
ATOM     55  H   UNL A   1      41.007  29.141  30.232  1.00  0.00     0.167 HD
ATOM     56  C   UNL A   1      40.576  31.119  34.088  1.00  0.00     0.034 A 
ATOM     57  C   UNL A   1      42.095  27.195  28.533  1.00  0.00     0.034 A 
ATOM     58  C   UNL A   1      41.571  30.105  34.326  1.00  0.00     0.049 A 
ATOM     59  C   UNL A   1      42.840  27.045  29.842  1.00  0.00     0.074 A 
ATOM     60  C   UNL A   1      42.244  29.816  35.500  1.00  0.00     0.029 A 
ATOM     61  N   UNL A   1      42.053  29.228  33.365  1.00  0.00    -0.354 N 
ATOM     62  N   UNL A   1      42.661  27.681  30.977  1.00  0.00    -0.248 NA
ATOM     63  C   UNL A   1      43.900  26.026  29.890  1.00  0.00     0.031 C 
ATOM     64  C   UNL A   1      43.181  28.812  35.233  1.00  0.00     0.029 A 
ATOM     65  C   UNL A   1      43.038  28.420  33.912  1.00  0.00     0.049 A 
ATOM     66  H   UNL A   1      41.743  29.186  32.432  1.00  0.00     0.167 HD
ATOM     67  C   UNL A   1      43.546  27.095  31.884  1.00  0.00     0.074 A 
ATOM     68  C   UNL A   1      44.256  26.060  31.165  1.00  0.00     0.031 C 
ATOM     69  C   UNL A   1      43.740  27.380  33.198  1.00  0.00     0.034 A 
BRANCH  56  70
ATOM     70  C   UNL A   1      40.203  32.057  35.210  1.00  0.00     0.023 A 
ATOM     71  C   UNL A   1      39.274  31.682  36.199  1.00  0.00     0.031 A 
ATOM     72  C   UNL A   1      40.726  33.360  35.256  1.00  0.00     0.131 A 
ATOM     73  C   UNL A   1      38.827  32.628  37.133  1.00  0.00     0.055 A 
ATOM     74  C   UNL A   1      40.342  34.270  36.244  1.00  0.00     0.041 A 
ATOM     75  F   UNL A   1      41.598  33.780  34.326  1.00  0.00    -0.206 F 
ATOM     76  C   UNL A   1      39.374  33.912  37.178  1.00  0.00     0.022 A 
BRANCH  73  77
ATOM     77  S   UNL A   1      37.403  32.207  38.175  1.00  0.00     0.124 S 
ATOM     78  O   UNL A   1      36.367  33.075  37.621  1.00  0.00    -0.237 OA
ATOM     79  O   UNL A   1      37.241  30.779  37.928  1.00  0.00    -0.237 OA
ATOM     80  O   UNL A   1      37.847  32.562  39.521  1.00  0.00    -0.744 OA
ENDBRANCH  73  77
ENDBRANCH  56  70
BRANCH  57  81
ATOM     81  C   UNL A   1      42.474  26.337  27.369  1.00  0.00     0.023 A 
ATOM     82  C   UNL A   1      42.032  25.007  27.266  1.00  0.00     0.031 A 
ATOM     83  C   UNL A   1      43.376  26.807  26.398  1.00  0.00     0.131 A 
ATOM     84  C   UNL A   1      42.540  24.175  26.255  1.00  0.00     0.055 A 
ATOM     85  C   UNL A   1      43.841  25.989  25.365  1.00  0.00     0.041 A 
ATOM     86  F   UNL A   1      43.831  28.069  26.450  1.00  0.00    -0.206 F 
ATOM     87  C   UNL A   1      43.436  24.661  25.299  1.00  0.00     0.022 A 
BRANCH  84  88
ATOM     88  S   UNL A   1      42.092  22.415  26.263  1.00  0.00     0.124 S 
ATOM     89  O   UNL A   1      42.647  21.963  24.993  1.00  0.00    -0.237 OA
ATOM     90  O   UNL A   1      42.766  21.938  27.466  1.00  0.00    -0.237 OA
ATOM     91  O   UNL A   1      40.632  22.436  26.336  1.00  0.00    -0.744 OA
ENDBRANCH  84  88
ENDBRANCH  57  81
BRANCH  69  92
ATOM     92  C   UNL A   1      44.706  26.508  33.969  1.00  0.00     0.023 A 
ATOM     93  C   UNL A   1      46.078  26.803  34.058  1.00  0.00     0.031 A 
ATOM     94  C   UNL A   1      44.237  25.355  34.626  1.00  0.00     0.131 A 
ATOM     95  C   UNL A   1      46.940  25.926  34.737  1.00  0.00     0.055 A 
ATOM     96  C   UNL A   1      45.090  24.519  35.349  1.00  0.00     0.041 A 
ATOM     97  F   UNL A   1      42.937  25.021  34.577  1.00  0.00    -0.206 F 
ATOM     98  C   UNL A   1      46.452  24.795  35.397  1.00  0.00     0.022 A 
BRANCH  95  99
ATOM     99  S   UNL A   1      48.729  26.229  34.668  1.00  0.00     0.124 S 
ATOM    100  O   UNL A   1      48.792  27.687  34.699  1.00  0.00    -0.237 OA
ATOM    101  O   UNL A   1      49.207  25.545  35.865  1.00  0.00    -0.237 OA
ATOM    102  O   UNL A   1      49.133  25.619  33.403  1.00  0.00    -0.744 OA
ENDBRANCH  95  99
ENDBRANCH  69  92
ENDBRANCH  43  44
ENDBRANCH  36  38
ENDBRANCH  35  36
ENDBRANCH  34  35
ENDBRANCH   1  34
TORSDOF 19
ENDMDL
MODEL 3
REMARK VINA RESULT:     -13.4      2.765      4.262
REMARK SMILES O=C(OCCOC(=O)c1ccc(-c2c3nc(c(-c4cc(S(=O)(=O)[O-])ccc4F)c4ccc([nH]4)c(-c4cc(S(=O)(=O)[O-])ccc4F)c4nc(c(-c5cc(S(=O)(=O)[O-])ccc5F)c5ccc2[nH]5)C=C4)C=C3)cc1)c1ccc(NC(=O)[C@@H]2CC=CC[C@H]2C(=O)Nc2cccc([N+](=O)[O-])c2)cc1
REMARK SMILES IDX 4 1 3 2 2 3 1 4 72 5 73 6 98 7 74 8 97 9 75 10 76 11 77 12
REMARK SMILES IDX 78 14 79 15 80 16 84 17 81 18 83 19 82 20 85 21 86 22 87 23
REMARK SMILES IDX 88 25 89 26 96 27 90 28 92 29 91 30 93 31 94 32 95 33 5 34
REMARK SMILES IDX 6 35 7 36 8 37 9 38 10 39 71 40 11 41 70 42 12 43 13 44
REMARK SMILES IDX 14 45 64 46 15 47 69 48 63 49 65 50 16 51 68 52 62 53 61 54
REMARK SMILES IDX 17 56 49 57 29 58 48 59 30 60 33 61 47 62 66 63 31 64 32 65
REMARK SMILES IDX 46 67 67 68 34 69 18 70 19 71 27 72 20 73 26 74 28 75 25 76
REMARK SMILES IDX 21 77 22 78 23 79 24 80 50 81 51 82 59 83 52 84 58 85 60 86
REMARK SMILES IDX 57 87 53 88 54 89 55 90 56 91 35 92 36 93 44 94 37 95 43 96
REMARK SMILES IDX 45 97 42 98 38 99 39 100 40 101 41 102
REMARK H PARENT 76 13 87 24 65 55 33 66
REMARK Flexibility Score: inf
ROOT
ATOM      1  C   UNL A   1      31.668  31.702  26.505  1.00  0.00     0.275 C 
ENDROOT
BRANCH   1   2
ATOM      2  O   UNL A   1      32.056  30.494  27.211  1.00  0.00    -0.458 OA
BRANCH   2   3
ATOM      3  C   UNL A   1      33.048  29.640  26.816  1.00  0.00     0.338 C 
ATOM      4  O   UNL A   1      34.153  30.066  26.501  1.00  0.00    -0.246 OA
BRANCH   3   5
ATOM      5  C   UNL A   1      32.704  28.208  26.546  1.00  0.00     0.060 A 
ATOM      6  C   UNL A   1      31.401  27.777  26.563  1.00  0.00     0.018 A 
ATOM      7  C   UNL A   1      33.669  27.254  26.186  1.00  0.00     0.018 A 
ATOM      8  C   UNL A   1      31.038  26.526  26.125  1.00  0.00     0.027 A 
ATOM      9  C   UNL A   1      33.297  25.909  25.919  1.00  0.00     0.027 A 
ATOM     10  C   UNL A   1      31.952  25.531  25.949  1.00  0.00     0.041 A 
BRANCH  10  11
ATOM     11  N   UNL A   1      31.533  24.200  25.850  1.00  0.00    -0.326 N 
ATOM     12  C   UNL A   1      32.195  23.051  25.504  1.00  0.00     0.228 C 
ATOM     13  H   UNL A   1      30.583  24.063  26.069  1.00  0.00     0.169 HD
ATOM     14  O   UNL A   1      31.519  22.011  25.513  1.00  0.00    -0.274 OA
BRANCH  12  15
ATOM     15  C   UNL A   1      33.681  22.915  25.076  1.00  0.00     0.095 C 
ATOM     16  C   UNL A   1      34.677  23.214  26.221  1.00  0.00     0.041 C 
ATOM     17  C   UNL A   1      34.112  23.449  23.688  1.00  0.00     0.095 C 
ATOM     18  C   UNL A   1      36.103  23.379  25.765  1.00  0.00    -0.030 C 
ATOM     19  C   UNL A   1      35.570  23.126  23.326  1.00  0.00     0.041 C 
ATOM     20  C   UNL A   1      36.504  23.325  24.487  1.00  0.00    -0.030 C 
BRANCH  17  21
ATOM     21  C   UNL A   1      33.060  23.273  22.591  1.00  0.00     0.228 C 
ATOM     22  O   UNL A   1      32.625  22.142  22.340  1.00  0.00    -0.274 OA
ATOM     23  N   UNL A   1      32.515  24.298  21.874  1.00  0.00    -0.326 N 
ATOM     24  H   UNL A   1      32.137  24.079  20.993  1.00  0.00     0.169 HD
BRANCH  23  25
ATOM     25  C   UNL A   1      32.449  25.627  22.283  1.00  0.00     0.048 A 
ATOM     26  C   UNL A   1      33.654  26.326  22.389  1.00  0.00     0.026 A 
ATOM     27  C   UNL A   1      31.233  26.278  22.461  1.00  0.00     0.111 A 
ATOM     28  C   UNL A   1      33.641  27.710  22.543  1.00  0.00     0.009 A 
ATOM     29  C   UNL A   1      31.222  27.672  22.557  1.00  0.00     0.271 A 
ATOM     30  C   UNL A   1      32.424  28.393  22.593  1.00  0.00     0.086 A 
BRANCH  29  31
ATOM     31  N   UNL A   1      29.945  28.390  22.505  1.00  0.00     0.062 N 
ATOM     32  O   UNL A   1      29.852  29.339  21.714  1.00  0.00    -0.258 OA
ATOM     33  O   UNL A   1      29.026  27.986  23.231  1.00  0.00    -0.258 OA
ENDBRANCH  29  31
ENDBRANCH  23  25
ENDBRANCH  17  21
ENDBRANCH  12  15
ENDBRANCH  10  11
ENDBRANCH   3   5
ENDBRANCH   2   3
ENDBRANCH   1   2
BRANCH   1  34
ATOM     34  C   UNL A   1      32.018  32.995  27.294  1.00  0.00     0.275 C 
BRANCH  34  35
ATOM     35  O   UNL A   1      33.438  33.260  27.362  1.00  0.00    -0.458 OA
BRANCH  35  36
ATOM     36  C   UNL A   1      33.916  33.521  28.608  1.00  0.00     0.338 C 
ATOM     37  O   UNL A   1      33.289  34.075  29.497  1.00  0.00    -0.246 OA
BRANCH  36  38
ATOM     38  C   UNL A   1      35.229  32.849  28.827  1.00  0.00     0.060 A 
ATOM     39  C   UNL A   1      35.197  31.533  29.303  1.00  0.00     0.016 A 
ATOM     40  C   UNL A   1      36.466  33.442  28.548  1.00  0.00     0.016 A 
ATOM     41  C   UNL A   1      36.384  30.834  29.551  1.00  0.00     0.010 A 
ATOM     42  C   UNL A   1      37.658  32.717  28.749  1.00  0.00     0.010 A 
ATOM     43  C   UNL A   1      37.631  31.426  29.310  1.00  0.00    -0.014 A 
BRANCH  43  44
ATOM     44  C   UNL A   1      38.859  30.772  29.862  1.00  0.00     0.031 A 
ATOM     45  C   UNL A   1      39.273  31.102  31.279  1.00  0.00     0.074 A 
ATOM     46  C   UNL A   1      39.548  29.828  29.189  1.00  0.00     0.049 A 
ATOM     47  N   UNL A   1      40.171  30.529  32.041  1.00  0.00    -0.248 NA
ATOM     48  C   UNL A   1      38.581  32.231  31.917  1.00  0.00     0.031 C 
ATOM     49  C   UNL A   1      39.283  29.396  27.817  1.00  0.00     0.029 A 
ATOM     50  N   UNL A   1      40.609  29.043  29.581  1.00  0.00    -0.354 N 
ATOM     51  C   UNL A   1      40.126  31.208  33.254  1.00  0.00     0.074 A 
ATOM     52  C   UNL A   1      39.185  32.293  33.091  1.00  0.00     0.031 C 
ATOM     53  C   UNL A   1      40.151  28.421  27.487  1.00  0.00     0.029 A 
ATOM     54  C   UNL A   1      41.031  28.147  28.623  1.00  0.00     0.049 A 
ATOM     55  H   UNL A   1      41.030  29.115  30.469  1.00  0.00     0.167 HD
ATOM     56  C   UNL A   1      40.767  30.935  34.417  1.00  0.00     0.034 A 
ATOM     57  C   UNL A   1      41.994  27.200  28.663  1.00  0.00     0.034 A 
ATOM     58  C   UNL A   1      41.719  29.868  34.588  1.00  0.00     0.049 A 
ATOM     59  C   UNL A   1      42.757  26.959  29.947  1.00  0.00     0.074 A 
ATOM     60  C   UNL A   1      42.402  29.497  35.733  1.00  0.00     0.029 A 
ATOM     61  N   UNL A   1      42.142  29.015  33.579  1.00  0.00    -0.354 N 
ATOM     62  N   UNL A   1      42.631  27.550  31.113  1.00  0.00    -0.248 NA
ATOM     63  C   UNL A   1      43.771  25.892  29.927  1.00  0.00     0.031 C 
ATOM     64  C   UNL A   1      43.286  28.465  35.402  1.00  0.00     0.029 A 
ATOM     65  C   UNL A   1      43.099  28.139  34.068  1.00  0.00     0.049 A 
ATOM     66  H   UNL A   1      41.811  29.028  32.652  1.00  0.00     0.167 HD
ATOM     67  C   UNL A   1      43.506  26.885  31.973  1.00  0.00     0.074 A 
ATOM     68  C   UNL A   1      44.153  25.853  31.194  1.00  0.00     0.031 C 
ATOM     69  C   UNL A   1      43.739  27.102  33.294  1.00  0.00     0.034 A 
BRANCH  56  70
ATOM     70  C   UNL A   1      40.459  31.837  35.587  1.00  0.00     0.023 A 
ATOM     71  C   UNL A   1      39.350  31.603  36.421  1.00  0.00     0.031 A 
ATOM     72  C   UNL A   1      41.238  32.980  35.832  1.00  0.00     0.131 A 
ATOM     73  C   UNL A   1      38.997  32.544  37.398  1.00  0.00     0.055 A 
ATOM     74  C   UNL A   1      40.932  33.869  36.865  1.00  0.00     0.041 A 
ATOM     75  F   UNL A   1      42.295  33.268  35.054  1.00  0.00    -0.206 F 
ATOM     76  C   UNL A   1      39.796  33.664  37.642  1.00  0.00     0.022 A 
BRANCH  73  77
ATOM     77  S   UNL A   1      37.392  32.372  38.224  1.00  0.00     0.124 S 
ATOM     78  O   UNL A   1      36.510  33.088  37.306  1.00  0.00    -0.237 OA
ATOM     79  O   UNL A   1      37.219  30.925  38.281  1.00  0.00    -0.237 OA
ATOM     80  O   UNL A   1      37.600  33.027  39.514  1.00  0.00    -0.744 OA
ENDBRANCH  73  77
ENDBRANCH  56  70
BRANCH  57  81
ATOM     81  C   UNL A   1      42.311  26.379  27.454  1.00  0.00     0.023 A 
ATOM     82  C   UNL A   1      41.857  25.055  27.331  1.00  0.00     0.031 A 
ATOM     83  C   UNL A   1      43.166  26.877  26.455  1.00  0.00     0.131 A 
ATOM     84  C   UNL A   1      42.310  24.254  26.270  1.00  0.00     0.055 A 
ATOM     85  C   UNL A   1      43.574  26.092  25.374  1.00  0.00     0.041 A 
ATOM     86  F   UNL A   1      43.628  28.136  26.525  1.00  0.00    -0.206 F 
ATOM     87  C   UNL A   1      43.160  24.768  25.286  1.00  0.00     0.022 A 
BRANCH  84  88
ATOM     88  S   UNL A   1      41.854  22.497  26.243  1.00  0.00     0.124 S 
ATOM     89  O   UNL A   1      42.417  22.026  27.504  1.00  0.00    -0.237 OA
ATOM     90  O   UNL A   1      40.399  22.564  26.174  1.00  0.00    -0.237 OA
ATOM     91  O   UNL A   1      42.511  21.992  25.039  1.00  0.00    -0.744 OA
ENDBRANCH  84  88
ENDBRANCH  57  81
BRANCH  69  92
ATOM     92  C   UNL A   1      44.679  26.154  34.005  1.00  0.00     0.023 A 
ATOM     93  C   UNL A   1      46.073  26.339  34.006  1.00  0.00     0.031 A 
ATOM     94  C   UNL A   1      44.162  25.040  34.693  1.00  0.00     0.131 A 
ATOM     95  C   UNL A   1      46.904  25.394  34.631  1.00  0.00     0.055 A 
ATOM     96  C   UNL A   1      44.990  24.137  35.363  1.00  0.00     0.041 A 
ATOM     97  F   UNL A   1      42.839  24.810  34.727  1.00  0.00    -0.206 F 
ATOM     98  C   UNL A   1      46.370  24.304  35.324  1.00  0.00     0.022 A 
BRANCH  95  99
ATOM     99  S   UNL A   1      48.703  25.555  34.449  1.00  0.00     0.124 S 
ATOM    100  O   UNL A   1      48.878  25.407  33.008  1.00  0.00    -0.237 OA
ATOM    101  O   UNL A   1      48.953  26.888  34.988  1.00  0.00    -0.237 OA
ATOM    102  O   UNL A   1      49.229  24.454  35.253  1.00  0.00    -0.744 OA
ENDBRANCH  95  99
ENDBRANCH  69  92
ENDBRANCH  43  44
ENDBRANCH  36  38
ENDBRANCH  35  36
ENDBRANCH  34  35
ENDBRANCH   1  34
TORSDOF 19
ENDMDL
