MODEL 1
REMARK VINA RESULT:     -12.4      0.000      0.000
REMARK SMILES CCOc1ccc(C=C2C[N@@H+](CC)Cc3c2nc2ccccc2c3C(=O)OCCOC(=O)c2ccc(-c3c4nc(c(-c5cc(S(=O)(=O)[O-])ccc5F)c5ccc([nH]5)c(-c5cc(S(=O)(=O)[O-])ccc5F)c5nc(c(-c6cc(S(=O)(=O)[O-])ccc6F)c6ccc3[nH]6)C=C5)C=C4)cc2)cc1
REMARK SMILES IDX 28 1 27 2 25 3 26 4 24 5 8 6 9 7 10 8 16 9 11 10 15 11 17 12
REMARK SMILES IDX 14 13 18 15 23 16 19 17 22 18 20 19 21 20 7 21 4 22 5 23
REMARK SMILES IDX 97 24 6 25 96 26 3 27 2 28 1 29 12 30 13 31 29 32 30 33
REMARK SMILES IDX 31 34 32 35 33 36 34 37 95 38 35 39 94 40 36 41 37 42 38 43
REMARK SMILES IDX 88 44 39 45 93 46 87 47 89 48 40 49 92 50 86 51 85 52 41 54
REMARK SMILES IDX 73 55 53 56 72 57 54 58 57 59 71 60 90 61 55 62 56 63 70 65
REMARK SMILES IDX 91 66 58 67 42 68 43 69 51 70 44 71 50 72 52 73 49 74 45 75
REMARK SMILES IDX 46 76 47 77 48 78 74 79 75 80 83 81 76 82 82 83 84 84 81 85
REMARK SMILES IDX 77 86 78 87 79 88 80 89 59 90 60 91 68 92 61 93 67 94 69 95
REMARK SMILES IDX 66 96 62 97 63 98 64 99 65 100
REMARK H PARENT 11 14 89 53 57 64
REMARK Flexibility Score: inf
ROOT
ATOM      1  C   UNL A   1      38.639  19.863  25.326  1.00  0.00     0.275 C 
ENDROOT
BRANCH   1   2
ATOM      2  O   UNL A   1      37.785  21.003  25.607  1.00  0.00    -0.458 OA
BRANCH   2   3
ATOM      3  C   UNL A   1      37.068  21.657  24.641  1.00  0.00     0.339 C 
ATOM      4  O   UNL A   1      37.444  21.885  23.508  1.00  0.00    -0.246 OA
BRANCH   3   5
ATOM      5  C   UNL A   1      35.651  21.940  25.188  1.00  0.00     0.080 A 
ATOM      6  C   UNL A   1      32.626  26.454  26.091  1.00  0.00     0.020 C 
ATOM      7  C   UNL A   1      33.130  25.462  25.290  1.00  0.00     0.033 C 
ATOM      8  C   UNL A   1      32.231  24.349  25.833  1.00  0.00     0.301 C 
ATOM      9  C   UNL A   1      33.670  24.247  24.375  1.00  0.00     0.082 A 
ATOM     10  N   UNL A   1      33.174  23.416  26.519  1.00  0.00    -0.328 N 
ATOM     11  C   UNL A   1      35.134  23.677  25.270  1.00  0.00     0.048 A 
ATOM     12  N   UNL A   1      32.596  22.949  23.718  1.00  0.00    -0.247 NA
ATOM     13  C   UNL A   1      34.547  23.907  26.735  1.00  0.00     0.302 C 
ATOM     14  H   UNL A   1      32.732  23.170  27.405  1.00  0.00     0.348 HD
ATOM     15  C   UNL A   1      32.995  21.189  23.838  1.00  0.00     0.072 A 
ATOM     16  C   UNL A   1      34.549  20.687  24.567  1.00  0.00     0.015 A 
ATOM     17  C   UNL A   1      32.143  20.087  23.779  1.00  0.00     0.029 A 
ATOM     18  C   UNL A   1      34.839  19.348  24.790  1.00  0.00     0.011 A 
ATOM     19  C   UNL A   1      32.518  18.796  24.255  1.00  0.00     0.002 A 
ATOM     20  C   UNL A   1      33.815  18.428  24.678  1.00  0.00     0.001 A 
BRANCH   6  21
ATOM     21  C   UNL A   1      32.753  27.823  26.681  1.00  0.00    -0.025 A 
ATOM     22  C   UNL A   1      33.454  30.547  27.237  1.00  0.00     0.119 A 
ATOM     23  C   UNL A   1      32.118  30.131  27.138  1.00  0.00     0.047 A 
ATOM     24  C   UNL A   1      34.446  29.604  27.066  1.00  0.00     0.047 A 
ATOM     25  C   UNL A   1      31.768  28.786  26.834  1.00  0.00     0.012 A 
ATOM     26  C   UNL A   1      34.100  28.280  26.792  1.00  0.00     0.012 A 
BRANCH  22  27
ATOM     27  O   UNL A   1      33.727  31.811  27.677  1.00  0.00    -0.494 OA
BRANCH  27  28
ATOM     28  C   UNL A   1      35.083  32.133  28.019  1.00  0.00     0.226 C 
ATOM     29  C   UNL A   1      35.304  33.549  28.542  1.00  0.00     0.049 C 
ENDBRANCH  27  28
ENDBRANCH  22  27
ENDBRANCH   6  21
BRANCH  10  30
ATOM     30  C   UNL A   1      33.494  22.380  25.427  1.00  0.00     0.259 C 
ATOM     31  C   UNL A   1      34.116  22.617  23.372  1.00  0.00     0.071 C 
ENDBRANCH  10  30
ENDBRANCH   3   5
ENDBRANCH   2   3
ENDBRANCH   1   2
BRANCH   1  32
ATOM     32  C   UNL A   1      39.896  19.856  26.201  1.00  0.00     0.275 C 
BRANCH  32  33
ATOM     33  O   UNL A   1      40.974  19.313  25.432  1.00  0.00    -0.458 OA
BRANCH  33  34
ATOM     34  C   UNL A   1      42.187  19.486  25.992  1.00  0.00     0.338 C 
ATOM     35  O   UNL A   1      43.035  18.637  26.207  1.00  0.00    -0.246 OA
BRANCH  34  36
ATOM     36  C   UNL A   1      42.395  20.893  26.331  1.00  0.00     0.060 A 
ATOM     37  C   UNL A   1      42.574  21.851  25.339  1.00  0.00     0.016 A 
ATOM     38  C   UNL A   1      42.628  21.205  27.659  1.00  0.00     0.016 A 
ATOM     39  C   UNL A   1      43.171  23.063  25.642  1.00  0.00     0.010 A 
ATOM     40  C   UNL A   1      43.043  22.490  27.985  1.00  0.00     0.010 A 
ATOM     41  C   UNL A   1      43.358  23.419  26.979  1.00  0.00    -0.014 A 
BRANCH  41  42
ATOM     42  C   UNL A   1      43.838  24.773  27.331  1.00  0.00     0.031 A 
ATOM     43  C   UNL A   1      42.870  25.817  27.802  1.00  0.00     0.074 A 
ATOM     44  C   UNL A   1      45.149  25.062  27.195  1.00  0.00     0.049 A 
ATOM     45  N   UNL A   1      43.088  27.083  28.031  1.00  0.00    -0.248 NA
ATOM     46  C   UNL A   1      41.484  25.386  28.057  1.00  0.00     0.031 C 
ATOM     47  C   UNL A   1      46.184  24.114  26.771  1.00  0.00     0.029 A 
ATOM     48  N   UNL A   1      45.838  26.232  27.384  1.00  0.00    -0.354 N 
ATOM     49  C   UNL A   1      41.870  27.606  28.445  1.00  0.00     0.074 A 
ATOM     50  C   UNL A   1      40.906  26.528  28.395  1.00  0.00     0.031 C 
ATOM     51  C   UNL A   1      47.373  24.729  26.761  1.00  0.00     0.029 A 
ATOM     52  C   UNL A   1      47.176  26.137  27.075  1.00  0.00     0.049 A 
ATOM     53  H   UNL A   1      45.417  27.060  27.710  1.00  0.00     0.167 HD
ATOM     54  C   UNL A   1      41.596  28.870  28.840  1.00  0.00     0.034 A 
ATOM     55  C   UNL A   1      48.134  27.081  26.996  1.00  0.00     0.034 A 
ATOM     56  C   UNL A   1      42.568  29.931  28.863  1.00  0.00     0.049 A 
ATOM     57  C   UNL A   1      47.761  28.505  27.304  1.00  0.00     0.074 A 
ATOM     58  C   UNL A   1      42.383  31.249  29.239  1.00  0.00     0.029 A 
ATOM     59  N   UNL A   1      43.896  29.810  28.476  1.00  0.00    -0.354 N 
ATOM     60  N   UNL A   1      46.597  28.987  27.676  1.00  0.00    -0.248 NA
ATOM     61  C   UNL A   1      48.821  29.511  27.181  1.00  0.00     0.031 C 
ATOM     62  C   UNL A   1      43.560  31.948  28.975  1.00  0.00     0.029 A 
ATOM     63  C   UNL A   1      44.522  31.043  28.557  1.00  0.00     0.049 A 
ATOM     64  H   UNL A   1      44.328  28.974  28.189  1.00  0.00     0.167 HD
ATOM     65  C   UNL A   1      46.802  30.348  27.874  1.00  0.00     0.074 A 
ATOM     66  C   UNL A   1      48.198  30.606  27.590  1.00  0.00     0.031 C 
ATOM     67  C   UNL A   1      45.913  31.295  28.267  1.00  0.00     0.034 A 
BRANCH  54  68
ATOM     68  C   UNL A   1      40.175  29.192  29.217  1.00  0.00     0.023 A 
ATOM     69  C   UNL A   1      39.764  29.273  30.557  1.00  0.00     0.031 A 
ATOM     70  C   UNL A   1      39.218  29.420  28.212  1.00  0.00     0.131 A 
ATOM     71  C   UNL A   1      38.414  29.506  30.852  1.00  0.00     0.055 A 
ATOM     72  C   UNL A   1      37.900  29.754  28.515  1.00  0.00     0.041 A 
ATOM     73  F   UNL A   1      39.550  29.319  26.915  1.00  0.00    -0.206 F 
ATOM     74  C   UNL A   1      37.487  29.785  29.843  1.00  0.00     0.022 A 
BRANCH  71  75
ATOM     75  S   UNL A   1      37.845  29.253  32.556  1.00  0.00     0.124 S 
ATOM     76  O   UNL A   1      36.497  29.812  32.501  1.00  0.00    -0.237 OA
ATOM     77  O   UNL A   1      37.935  27.806  32.712  1.00  0.00    -0.237 OA
ATOM     78  O   UNL A   1      38.798  30.026  33.351  1.00  0.00    -0.744 OA
ENDBRANCH  71  75
ENDBRANCH  54  68
BRANCH  55  79
ATOM     79  C   UNL A   1      49.512  26.730  26.545  1.00  0.00     0.023 A 
ATOM     80  C   UNL A   1      50.570  26.631  27.460  1.00  0.00     0.031 A 
ATOM     81  C   UNL A   1      49.806  26.572  25.178  1.00  0.00     0.131 A 
ATOM     82  C   UNL A   1      51.881  26.458  26.991  1.00  0.00     0.055 A 
ATOM     83  C   UNL A   1      51.097  26.305  24.725  1.00  0.00     0.041 A 
ATOM     84  F   UNL A   1      48.837  26.677  24.255  1.00  0.00    -0.206 F 
ATOM     85  C   UNL A   1      52.148  26.268  25.635  1.00  0.00     0.022 A 
BRANCH  82  86
ATOM     86  S   UNL A   1      53.250  26.670  28.161  1.00  0.00     0.124 S 
ATOM     87  O   UNL A   1      53.586  28.075  27.964  1.00  0.00    -0.237 OA
ATOM     88  O   UNL A   1      52.621  26.332  29.433  1.00  0.00    -0.237 OA
ATOM     89  O   UNL A   1      54.251  25.716  27.687  1.00  0.00    -0.744 OA
ENDBRANCH  82  86
ENDBRANCH  55  79
BRANCH  67  90
ATOM     90  C   UNL A   1      46.435  32.692  28.485  1.00  0.00     0.023 A 
ATOM     91  C   UNL A   1      46.545  33.620  27.437  1.00  0.00     0.031 A 
ATOM     92  C   UNL A   1      46.833  33.097  29.773  1.00  0.00     0.131 A 
ATOM     93  C   UNL A   1      47.114  34.878  27.682  1.00  0.00     0.055 A 
ATOM     94  C   UNL A   1      47.299  34.386  30.028  1.00  0.00     0.041 A 
ATOM     95  F   UNL A   1      46.766  32.247  30.810  1.00  0.00    -0.206 F 
ATOM     96  C   UNL A   1      47.460  35.279  28.975  1.00  0.00     0.022 A 
BRANCH  93  97
ATOM     97  S   UNL A   1      47.553  35.916  26.263  1.00  0.00     0.124 S 
ATOM     98  O   UNL A   1      46.239  36.306  25.761  1.00  0.00    -0.237 OA
ATOM     99  O   UNL A   1      48.340  36.978  26.882  1.00  0.00    -0.237 OA
ATOM    100  O   UNL A   1      48.305  35.010  25.397  1.00  0.00    -0.744 OA
ENDBRANCH  93  97
ENDBRANCH  67  90
ENDBRANCH  41  42
ENDBRANCH  34  36
ENDBRANCH  33  34
ENDBRANCH  32  33
ENDBRANCH   1  32
TORSDOF 18
ENDMDL
MODEL 2
REMARK VINA RESULT:     -11.7      1.530      7.345
REMARK SMILES CCOc1ccc(C=C2C[N@@H+](CC)Cc3c2nc2ccccc2c3C(=O)OCCOC(=O)c2ccc(-c3c4nc(c(-c5cc(S(=O)(=O)[O-])ccc5F)c5ccc([nH]5)c(-c5cc(S(=O)(=O)[O-])ccc5F)c5nc(c(-c6cc(S(=O)(=O)[O-])ccc6F)c6ccc3[nH]6)C=C5)C=C4)cc2)cc1
REMARK SMILES IDX 28 1 27 2 25 3 26 4 24 5 8 6 9 7 10 8 16 9 11 10 15 11 17 12
REMARK SMILES IDX 14 13 18 15 23 16 19 17 22 18 20 19 21 20 7 21 4 22 5 23
REMARK SMILES IDX 97 24 6 25 96 26 3 27 2 28 1 29 12 30 13 31 29 32 30 33
REMARK SMILES IDX 31 34 32 35 33 36 34 37 95 38 35 39 94 40 36 41 37 42 38 43
REMARK SMILES IDX 88 44 39 45 93 46 87 47 89 48 40 49 92 50 86 51 85 52 41 54
REMARK SMILES IDX 73 55 53 56 72 57 54 58 57 59 71 60 90 61 55 62 56 63 70 65
REMARK SMILES IDX 91 66 58 67 42 68 43 69 51 70 44 71 50 72 52 73 49 74 45 75
REMARK SMILES IDX 46 76 47 77 48 78 74 79 75 80 83 81 76 82 82 83 84 84 81 85
REMARK SMILES IDX 77 86 78 87 79 88 80 89 59 90 60 91 68 92 61 93 67 94 69 95
REMARK SMILES IDX 66 96 62 97 63 98 64 99 65 100
REMARK H PARENT 11 14 89 53 57 64
REMARK Flexibility Score: inf
ROOT
ATOM      1  C   UNL A   1      38.230  20.551  25.871  1.00  0.00     0.275 C 
ENDROOT
BRANCH   1   2
ATOM      2  O   UNL A   1      38.062  21.866  25.277  1.00  0.00    -0.458 OA
BRANCH   2   3
ATOM      3  C   UNL A   1      37.182  22.120  24.259  1.00  0.00     0.339 C 
ATOM      4  O   UNL A   1      37.402  21.969  23.074  1.00  0.00    -0.246 OA
BRANCH   3   5
ATOM      5  C   UNL A   1      35.818  22.505  24.875  1.00  0.00     0.080 A 
ATOM      6  C   UNL A   1      33.035  27.201  25.612  1.00  0.00     0.020 C 
ATOM      7  C   UNL A   1      33.445  26.129  24.861  1.00  0.00     0.033 C 
ATOM      8  C   UNL A   1      32.544  25.102  25.550  1.00  0.00     0.301 C 
ATOM      9  C   UNL A   1      33.874  24.826  24.012  1.00  0.00     0.082 A 
ATOM     10  N   UNL A   1      33.496  24.185  26.244  1.00  0.00    -0.328 N 
ATOM     11  C   UNL A   1      35.374  24.264  24.852  1.00  0.00     0.048 A 
ATOM     12  N   UNL A   1      32.708  23.528  23.534  1.00  0.00    -0.247 NA
ATOM     13  C   UNL A   1      34.899  24.631  26.329  1.00  0.00     0.302 C 
ATOM     14  H   UNL A   1      33.109  24.027  27.174  1.00  0.00     0.348 HD
ATOM     15  C   UNL A   1      33.049  21.767  23.768  1.00  0.00     0.072 A 
ATOM     16  C   UNL A   1      34.630  21.257  24.430  1.00  0.00     0.015 A 
ATOM     17  C   UNL A   1      32.154  20.701  23.854  1.00  0.00     0.029 A 
ATOM     18  C   UNL A   1      34.884  19.928  24.740  1.00  0.00     0.011 A 
ATOM     19  C   UNL A   1      32.512  19.436  24.406  1.00  0.00     0.002 A 
ATOM     20  C   UNL A   1      33.820  19.046  24.770  1.00  0.00     0.001 A 
BRANCH   6  21
ATOM     21  C   UNL A   1      33.254  28.605  26.081  1.00  0.00    -0.025 A 
ATOM     22  C   UNL A   1      32.991  31.209  27.251  1.00  0.00     0.119 A 
ATOM     23  C   UNL A   1      34.081  30.374  27.539  1.00  0.00     0.047 A 
ATOM     24  C   UNL A   1      32.032  30.751  26.374  1.00  0.00     0.047 A 
ATOM     25  C   UNL A   1      34.199  29.070  26.982  1.00  0.00     0.012 A 
ATOM     26  C   UNL A   1      32.163  29.481  25.809  1.00  0.00     0.012 A 
BRANCH  22  27
ATOM     27  O   UNL A   1      33.007  32.501  27.695  1.00  0.00    -0.494 OA
BRANCH  27  28
ATOM     28  C   UNL A   1      34.273  33.095  28.012  1.00  0.00     0.226 C 
ATOM     29  C   UNL A   1      34.323  33.860  29.331  1.00  0.00     0.049 C 
ENDBRANCH  27  28
ENDBRANCH  22  27
ENDBRANCH   6  21
BRANCH  10  30
ATOM     30  C   UNL A   1      33.700  23.055  25.220  1.00  0.00     0.259 C 
ATOM     31  C   UNL A   1      34.216  23.104  23.123  1.00  0.00     0.071 C 
ENDBRANCH  10  30
ENDBRANCH   3   5
ENDBRANCH   2   3
ENDBRANCH   1   2
BRANCH   1  32
ATOM     32  C   UNL A   1      39.504  19.857  25.382  1.00  0.00     0.275 C 
BRANCH  32  33
ATOM     33  O   UNL A   1      40.382  19.694  26.501  1.00  0.00    -0.458 OA
BRANCH  33  34
ATOM     34  C   UNL A   1      41.686  19.631  26.168  1.00  0.00     0.338 C 
ATOM     35  O   UNL A   1      42.299  18.665  25.745  1.00  0.00    -0.246 OA
BRANCH  34  36
ATOM     36  C   UNL A   1      42.327  20.928  26.374  1.00  0.00     0.060 A 
ATOM     37  C   UNL A   1      42.519  21.438  27.654  1.00  0.00     0.016 A 
ATOM     38  C   UNL A   1      42.534  21.725  25.262  1.00  0.00     0.016 A 
ATOM     39  C   UNL A   1      42.728  22.795  27.837  1.00  0.00     0.010 A 
ATOM     40  C   UNL A   1      42.937  23.042  25.443  1.00  0.00     0.010 A 
ATOM     41  C   UNL A   1      42.998  23.602  26.730  1.00  0.00    -0.014 A 
BRANCH  41  42
ATOM     42  C   UNL A   1      43.389  25.017  26.915  1.00  0.00     0.031 A 
ATOM     43  C   UNL A   1      44.795  25.454  26.629  1.00  0.00     0.074 A 
ATOM     44  C   UNL A   1      42.474  25.897  27.370  1.00  0.00     0.049 A 
ATOM     45  N   UNL A   1      45.347  26.615  26.854  1.00  0.00    -0.248 NA
ATOM     46  C   UNL A   1      45.695  24.467  26.006  1.00  0.00     0.031 C 
ATOM     47  C   UNL A   1      41.069  25.587  27.653  1.00  0.00     0.029 A 
ATOM     48  N   UNL A   1      42.582  27.227  27.686  1.00  0.00    -0.354 N 
ATOM     49  C   UNL A   1      46.658  26.501  26.413  1.00  0.00     0.074 A 
ATOM     50  C   UNL A   1      46.832  25.143  25.946  1.00  0.00     0.031 C 
ATOM     51  C   UNL A   1      40.445  26.694  28.072  1.00  0.00     0.029 A 
ATOM     52  C   UNL A   1      41.420  27.769  28.186  1.00  0.00     0.049 A 
ATOM     53  H   UNL A   1      43.411  27.744  27.567  1.00  0.00     0.167 HD
ATOM     54  C   UNL A   1      47.618  27.454  26.393  1.00  0.00     0.034 A 
ATOM     55  C   UNL A   1      41.170  28.975  28.730  1.00  0.00     0.034 A 
ATOM     56  C   UNL A   1      47.426  28.794  26.882  1.00  0.00     0.049 A 
ATOM     57  C   UNL A   1      42.299  29.965  28.824  1.00  0.00     0.074 A 
ATOM     58  C   UNL A   1      48.342  29.829  26.912  1.00  0.00     0.029 A 
ATOM     59  N   UNL A   1      46.254  29.283  27.444  1.00  0.00    -0.354 N 
ATOM     60  N   UNL A   1      43.541  29.834  28.419  1.00  0.00    -0.248 NA
ATOM     61  C   UNL A   1      41.999  31.259  29.447  1.00  0.00     0.031 C 
ATOM     62  C   UNL A   1      47.766  30.902  27.591  1.00  0.00     0.029 A 
ATOM     63  C   UNL A   1      46.447  30.586  27.870  1.00  0.00     0.049 A 
ATOM     64  H   UNL A   1      45.413  28.778  27.527  1.00  0.00     0.167 HD
ATOM     65  C   UNL A   1      44.157  31.049  28.700  1.00  0.00     0.074 A 
ATOM     66  C   UNL A   1      43.149  31.899  29.298  1.00  0.00     0.031 C 
ATOM     67  C   UNL A   1      45.440  31.427  28.471  1.00  0.00     0.034 A 
BRANCH  54  68
ATOM     68  C   UNL A   1      48.980  27.064  25.886  1.00  0.00     0.023 A 
ATOM     69  C   UNL A   1      49.488  27.555  24.673  1.00  0.00     0.031 A 
ATOM     70  C   UNL A   1      49.780  26.182  26.635  1.00  0.00     0.131 A 
ATOM     71  C   UNL A   1      50.733  27.104  24.213  1.00  0.00     0.055 A 
ATOM     72  C   UNL A   1      51.060  25.820  26.221  1.00  0.00     0.041 A 
ATOM     73  F   UNL A   1      49.327  25.654  27.784  1.00  0.00    -0.206 F 
ATOM     74  C   UNL A   1      51.538  26.272  24.995  1.00  0.00     0.022 A 
BRANCH  71  75
ATOM     75  S   UNL A   1      51.204  27.467  22.500  1.00  0.00     0.124 S 
ATOM     76  O   UNL A   1      50.223  26.683  21.754  1.00  0.00    -0.237 OA
ATOM     77  O   UNL A   1      51.058  28.916  22.428  1.00  0.00    -0.237 OA
ATOM     78  O   UNL A   1      52.578  26.975  22.413  1.00  0.00    -0.744 OA
ENDBRANCH  71  75
ENDBRANCH  54  68
BRANCH  55  79
ATOM     79  C   UNL A   1      39.824  29.294  29.289  1.00  0.00     0.023 A 
ATOM     80  C   UNL A   1      39.577  29.220  30.668  1.00  0.00     0.031 A 
ATOM     81  C   UNL A   1      38.743  29.595  28.441  1.00  0.00     0.131 A 
ATOM     82  C   UNL A   1      38.267  29.368  31.148  1.00  0.00     0.055 A 
ATOM     83  C   UNL A   1      37.461  29.837  28.933  1.00  0.00     0.041 A 
ATOM     84  F   UNL A   1      38.916  29.660  27.111  1.00  0.00    -0.206 F 
ATOM     85  C   UNL A   1      37.214  29.703  30.295  1.00  0.00     0.022 A 
BRANCH  82  86
ATOM     86  S   UNL A   1      37.928  28.938  32.876  1.00  0.00     0.124 S 
ATOM     87  O   UNL A   1      39.091  29.503  33.550  1.00  0.00    -0.237 OA
ATOM     88  O   UNL A   1      36.656  29.611  33.116  1.00  0.00    -0.237 OA
ATOM     89  O   UNL A   1      37.866  27.478  32.855  1.00  0.00    -0.744 OA
ENDBRANCH  82  86
ENDBRANCH  55  79
BRANCH  67  90
ATOM     90  C   UNL A   1      45.816  32.849  28.802  1.00  0.00     0.023 A 
ATOM     91  C   UNL A   1      45.774  33.874  27.843  1.00  0.00     0.031 A 
ATOM     92  C   UNL A   1      46.227  33.179  30.107  1.00  0.00     0.131 A 
ATOM     93  C   UNL A   1      46.213  35.161  28.185  1.00  0.00     0.055 A 
ATOM     94  C   UNL A   1      46.560  34.483  30.466  1.00  0.00     0.041 A 
ATOM     95  F   UNL A   1      46.302  32.237  31.060  1.00  0.00    -0.206 F 
ATOM     96  C   UNL A   1      46.572  35.480  29.497  1.00  0.00     0.022 A 
BRANCH  93  97
ATOM     97  S   UNL A   1      46.467  36.366  26.856  1.00  0.00     0.124 S 
ATOM     98  O   UNL A   1      46.466  35.511  25.673  1.00  0.00    -0.237 OA
ATOM     99  O   UNL A   1      45.315  37.249  27.006  1.00  0.00    -0.237 OA
ATOM    100  O   UNL A   1      47.758  36.969  27.185  1.00  0.00    -0.744 OA
ENDBRANCH  93  97
ENDBRANCH  67  90
ENDBRANCH  41  42
ENDBRANCH  34  36
ENDBRANCH  33  34
ENDBRANCH  32  33
ENDBRANCH   1  32
TORSDOF 18
ENDMDL
MODEL 3
REMARK VINA RESULT:     -11.7      5.342     10.401
REMARK SMILES CCOc1ccc(C=C2C[N@@H+](CC)Cc3c2nc2ccccc2c3C(=O)OCCOC(=O)c2ccc(-c3c4nc(c(-c5cc(S(=O)(=O)[O-])ccc5F)c5ccc([nH]5)c(-c5cc(S(=O)(=O)[O-])ccc5F)c5nc(c(-c6cc(S(=O)(=O)[O-])ccc6F)c6ccc3[nH]6)C=C5)C=C4)cc2)cc1
REMARK SMILES IDX 28 1 27 2 25 3 26 4 24 5 8 6 9 7 10 8 16 9 11 10 15 11 17 12
REMARK SMILES IDX 14 13 18 15 23 16 19 17 22 18 20 19 21 20 7 21 4 22 5 23
REMARK SMILES IDX 97 24 6 25 96 26 3 27 2 28 1 29 12 30 13 31 29 32 30 33
REMARK SMILES IDX 31 34 32 35 33 36 34 37 95 38 35 39 94 40 36 41 37 42 38 43
REMARK SMILES IDX 88 44 39 45 93 46 87 47 89 48 40 49 92 50 86 51 85 52 41 54
REMARK SMILES IDX 73 55 53 56 72 57 54 58 57 59 71 60 90 61 55 62 56 63 70 65
REMARK SMILES IDX 91 66 58 67 42 68 43 69 51 70 44 71 50 72 52 73 49 74 45 75
REMARK SMILES IDX 46 76 47 77 48 78 74 79 75 80 83 81 76 82 82 83 84 84 81 85
REMARK SMILES IDX 77 86 78 87 79 88 80 89 59 90 60 91 68 92 61 93 67 94 69 95
REMARK SMILES IDX 66 96 62 97 63 98 64 99 65 100
REMARK H PARENT 11 14 89 53 57 64
REMARK Flexibility Score: inf
ROOT
ATOM      1  C   UNL A   1      32.493  31.698  26.965  1.00  0.00     0.275 C 
ENDROOT
BRANCH   1   2
ATOM      2  O   UNL A   1      33.014  30.343  27.009  1.00  0.00    -0.458 OA
BRANCH   2   3
ATOM      3  C   UNL A   1      32.214  29.237  27.112  1.00  0.00     0.339 C 
ATOM      4  O   UNL A   1      31.384  29.037  27.978  1.00  0.00    -0.246 OA
BRANCH   3   5
ATOM      5  C   UNL A   1      32.447  28.344  25.872  1.00  0.00     0.080 A 
ATOM      6  C   UNL A   1      34.695  23.397  24.970  1.00  0.00     0.020 C 
ATOM      7  C   UNL A   1      33.663  24.220  25.340  1.00  0.00     0.033 C 
ATOM      8  C   UNL A   1      33.322  24.690  23.924  1.00  0.00     0.301 C 
ATOM      9  C   UNL A   1      32.433  25.201  25.701  1.00  0.00     0.082 A 
ATOM     10  N   UNL A   1      33.658  26.145  23.927  1.00  0.00    -0.328 N 
ATOM     11  C   UNL A   1      33.258  26.746  26.152  1.00  0.00     0.048 A 
ATOM     12  N   UNL A   1      30.963  25.371  24.660  1.00  0.00    -0.247 NA
ATOM     13  C   UNL A   1      34.433  26.639  25.080  1.00  0.00     0.302 C 
ATOM     14  H   UNL A   1      34.154  26.322  23.054  1.00  0.00     0.348 HD
ATOM     15  C   UNL A   1      30.278  26.975  24.182  1.00  0.00     0.072 A 
ATOM     16  C   UNL A   1      31.023  28.473  24.812  1.00  0.00     0.015 A 
ATOM     17  C   UNL A   1      29.458  27.295  23.101  1.00  0.00     0.029 A 
ATOM     18  C   UNL A   1      30.607  29.723  24.374  1.00  0.00     0.011 A 
ATOM     19  C   UNL A   1      29.297  28.629  22.623  1.00  0.00     0.002 A 
ATOM     20  C   UNL A   1      29.790  29.788  23.261  1.00  0.00     0.001 A 
BRANCH   6  21
ATOM     21  C   UNL A   1      35.904  22.599  25.344  1.00  0.00    -0.025 A 
ATOM     22  C   UNL A   1      38.162  20.833  25.363  1.00  0.00     0.119 A 
ATOM     23  C   UNL A   1      38.270  22.177  25.749  1.00  0.00     0.047 A 
ATOM     24  C   UNL A   1      36.926  20.363  24.973  1.00  0.00     0.047 A 
ATOM     25  C   UNL A   1      37.158  23.063  25.713  1.00  0.00     0.012 A 
ATOM     26  C   UNL A   1      35.831  21.227  24.963  1.00  0.00     0.012 A 
BRANCH  22  27
ATOM     27  O   UNL A   1      39.224  19.996  25.560  1.00  0.00    -0.494 OA
BRANCH  27  28
ATOM     28  C   UNL A   1      40.369  20.505  26.258  1.00  0.00     0.226 C 
ATOM     29  C   UNL A   1      41.583  19.582  26.281  1.00  0.00     0.049 C 
ENDBRANCH  27  28
ENDBRANCH  22  27
ENDBRANCH   6  21
BRANCH  10  30
ATOM     30  C   UNL A   1      32.317  26.811  24.279  1.00  0.00     0.259 C 
ATOM     31  C   UNL A   1      30.876  26.388  25.832  1.00  0.00     0.071 C 
ENDBRANCH  10  30
ENDBRANCH   3   5
ENDBRANCH   2   3
ENDBRANCH   1   2
BRANCH   1  32
ATOM     32  C   UNL A   1      33.467  32.708  27.576  1.00  0.00     0.275 C 
BRANCH  32  33
ATOM     33  O   UNL A   1      32.712  33.642  28.357  1.00  0.00    -0.458 OA
BRANCH  33  34
ATOM     34  C   UNL A   1      33.446  34.654  28.859  1.00  0.00     0.338 C 
ATOM     35  O   UNL A   1      33.293  35.849  28.668  1.00  0.00    -0.246 OA
BRANCH  34  36
ATOM     36  C   UNL A   1      34.508  34.135  29.718  1.00  0.00     0.060 A 
ATOM     37  C   UNL A   1      35.838  34.480  29.502  1.00  0.00     0.016 A 
ATOM     38  C   UNL A   1      34.180  33.125  30.605  1.00  0.00     0.016 A 
ATOM     39  C   UNL A   1      36.854  33.694  30.020  1.00  0.00     0.010 A 
ATOM     40  C   UNL A   1      35.199  32.462  31.276  1.00  0.00     0.010 A 
ATOM     41  C   UNL A   1      36.545  32.710  30.962  1.00  0.00    -0.014 A 
BRANCH  41  42
ATOM     42  C   UNL A   1      37.626  31.972  31.652  1.00  0.00     0.031 A 
ATOM     43  C   UNL A   1      38.038  32.362  33.040  1.00  0.00     0.074 A 
ATOM     44  C   UNL A   1      38.251  30.966  31.006  1.00  0.00     0.049 A 
ATOM     45  N   UNL A   1      39.042  31.917  33.745  1.00  0.00    -0.248 NA
ATOM     46  C   UNL A   1      37.217  33.375  33.727  1.00  0.00     0.031 C 
ATOM     47  C   UNL A   1      37.912  30.483  29.663  1.00  0.00     0.029 A 
ATOM     48  N   UNL A   1      39.307  30.174  31.378  1.00  0.00    -0.354 N 
ATOM     49  C   UNL A   1      38.985  32.598  34.953  1.00  0.00     0.074 A 
ATOM     50  C   UNL A   1      37.872  33.519  34.870  1.00  0.00     0.031 C 
ATOM     51  C   UNL A   1      38.721  29.467  29.339  1.00  0.00     0.029 A 
ATOM     52  C   UNL A   1      39.701  29.290  30.400  1.00  0.00     0.049 A 
ATOM     53  H   UNL A   1      39.741  30.233  32.259  1.00  0.00     0.167 HD
ATOM     54  C   UNL A   1      39.786  32.451  36.033  1.00  0.00     0.034 A 
ATOM     55  C   UNL A   1      40.763  28.464  30.332  1.00  0.00     0.034 A 
ATOM     56  C   UNL A   1      40.900  31.541  36.085  1.00  0.00     0.049 A 
ATOM     57  C   UNL A   1      41.718  28.430  31.494  1.00  0.00     0.074 A 
ATOM     58  C   UNL A   1      41.778  31.327  37.132  1.00  0.00     0.029 A 
ATOM     59  N   UNL A   1      41.309  30.712  35.049  1.00  0.00    -0.354 N 
ATOM     60  N   UNL A   1      41.660  29.096  32.624  1.00  0.00    -0.248 NA
ATOM     61  C   UNL A   1      42.879  27.540  31.375  1.00  0.00     0.031 C 
ATOM     62  C   UNL A   1      42.777  30.460  36.695  1.00  0.00     0.029 A 
ATOM     63  C   UNL A   1      42.455  30.028  35.418  1.00  0.00     0.049 A 
ATOM     64  H   UNL A   1      40.851  30.623  34.182  1.00  0.00     0.167 HD
ATOM     65  C   UNL A   1      42.755  28.669  33.367  1.00  0.00     0.074 A 
ATOM     66  C   UNL A   1      43.447  27.685  32.562  1.00  0.00     0.031 C 
ATOM     67  C   UNL A   1      43.143  29.052  34.609  1.00  0.00     0.034 A 
BRANCH  54  68
ATOM     68  C   UNL A   1      39.530  33.338  37.220  1.00  0.00     0.023 A 
ATOM     69  C   UNL A   1      40.171  34.578  37.372  1.00  0.00     0.031 A 
ATOM     70  C   UNL A   1      38.626  32.931  38.217  1.00  0.00     0.131 A 
ATOM     71  C   UNL A   1      39.949  35.333  38.531  1.00  0.00     0.055 A 
ATOM     72  C   UNL A   1      38.332  33.735  39.317  1.00  0.00     0.041 A 
ATOM     73  F   UNL A   1      38.012  31.738  38.140  1.00  0.00    -0.206 F 
ATOM     74  C   UNL A   1      39.007  34.940  39.485  1.00  0.00     0.022 A 
BRANCH  71  75
ATOM     75  S   UNL A   1      41.044  36.739  38.870  1.00  0.00     0.124 S 
ATOM     76  O   UNL A   1      41.918  36.718  37.699  1.00  0.00    -0.237 OA
ATOM     77  O   UNL A   1      40.113  37.857  38.958  1.00  0.00    -0.237 OA
ATOM     78  O   UNL A   1      41.694  36.369  40.126  1.00  0.00    -0.744 OA
ENDBRANCH  71  75
ENDBRANCH  54  68
BRANCH  55  79
ATOM     79  C   UNL A   1      41.022  27.657  29.105  1.00  0.00     0.023 A 
ATOM     80  C   UNL A   1      42.039  28.010  28.207  1.00  0.00     0.031 A 
ATOM     81  C   UNL A   1      40.197  26.567  28.770  1.00  0.00     0.131 A 
ATOM     82  C   UNL A   1      42.155  27.330  26.985  1.00  0.00     0.055 A 
ATOM     83  C   UNL A   1      40.379  25.834  27.598  1.00  0.00     0.041 A 
ATOM     84  F   UNL A   1      39.194  26.195  29.582  1.00  0.00    -0.206 F 
ATOM     85  C   UNL A   1      41.351  26.229  26.687  1.00  0.00     0.022 A 
BRANCH  82  86
ATOM     86  S   UNL A   1      43.249  28.021  25.714  1.00  0.00     0.124 S 
ATOM     87  O   UNL A   1      44.468  27.250  25.931  1.00  0.00    -0.237 OA
ATOM     88  O   UNL A   1      42.515  27.732  24.488  1.00  0.00    -0.237 OA
ATOM     89  O   UNL A   1      43.333  29.436  26.072  1.00  0.00    -0.744 OA
ENDBRANCH  82  86
ENDBRANCH  55  79
BRANCH  67  90
ATOM     90  C   UNL A   1      44.335  28.353  35.213  1.00  0.00     0.023 A 
ATOM     91  C   UNL A   1      44.212  27.153  35.931  1.00  0.00     0.031 A 
ATOM     92  C   UNL A   1      45.621  28.907  35.063  1.00  0.00     0.131 A 
ATOM     93  C   UNL A   1      45.343  26.591  36.539  1.00  0.00     0.055 A 
ATOM     94  C   UNL A   1      46.755  28.285  35.582  1.00  0.00     0.041 A 
ATOM     95  F   UNL A   1      45.797  30.062  34.401  1.00  0.00    -0.206 F 
ATOM     96  C   UNL A   1      46.617  27.129  36.341  1.00  0.00     0.022 A 
BRANCH  93  97
ATOM     97  S   UNL A   1      45.102  25.246  37.730  1.00  0.00     0.124 S 
ATOM     98  O   UNL A   1      44.777  24.126  36.854  1.00  0.00    -0.237 OA
ATOM     99  O   UNL A   1      46.398  25.180  38.397  1.00  0.00    -0.237 OA
ATOM    100  O   UNL A   1      43.999  25.723  38.564  1.00  0.00    -0.744 OA
ENDBRANCH  93  97
ENDBRANCH  67  90
ENDBRANCH  41  42
ENDBRANCH  34  36
ENDBRANCH  33  34
ENDBRANCH  32  33
ENDBRANCH   1  32
TORSDOF 18
ENDMDL
