MODEL 1
REMARK VINA RESULT:     -11.0      0.000      0.000
REMARK SMILES O=C(OCCOC(=O)[C@H]1CC[C@H](CNS(=O)(=O)C[C@H]2CCCO2)O1)c1ccc(-c2c3nc(c(-c4cc(S(=O)(=O)[O-])ccc4F)c4ccc([nH]4)c(-c4cc(S(=O)(=O)[O-])ccc4F)c4nc(c(-c5cc(S(=O)(=O)[O-])ccc5F)c5ccc2[nH]5)C=C4)C=C3)cc1
REMARK SMILES IDX 5 1 4 2 3 3 2 4 1 5 25 6 26 7 87 8 27 9 86 10 28 11 29 12
REMARK SMILES IDX 30 13 80 14 31 15 85 16 79 17 81 18 32 19 84 20 78 21 77 22
REMARK SMILES IDX 33 24 65 25 45 26 64 27 46 28 49 29 63 30 82 31 47 32 48 33
REMARK SMILES IDX 62 35 83 36 50 37 34 38 35 39 43 40 36 41 42 42 44 43 41 44
REMARK SMILES IDX 37 45 38 46 39 47 40 48 66 49 67 50 75 51 68 52 74 53 76 54
REMARK SMILES IDX 73 55 69 56 70 57 71 58 72 59 51 60 52 61 60 62 53 63 59 64
REMARK SMILES IDX 61 65 58 66 54 67 55 68 56 69 57 70 6 71 7 72 8 73 9 74
REMARK SMILES IDX 10 75 24 76 11 77 12 78 13 79 14 80 15 82 16 83 17 84 18 85
REMARK SMILES IDX 19 86 20 87 23 88 21 89 22 90
REMARK H PARENT 81 23 49 34 14 81
REMARK Flexibility Score: inf
ROOT
ATOM      1  C   UNL A   1      35.856  22.616  25.324  1.00  0.00     0.274 C 
ENDROOT
BRANCH   1   2
ATOM      2  C   UNL A   1      36.376  21.242  25.758  1.00  0.00     0.275 C 
BRANCH   2   3
ATOM      3  O   UNL A   1      37.712  20.952  25.300  1.00  0.00    -0.458 OA
BRANCH   3   4
ATOM      4  C   UNL A   1      38.903  21.040  25.942  1.00  0.00     0.338 C 
ATOM      5  O   UNL A   1      39.451  19.995  26.293  1.00  0.00    -0.246 OA
BRANCH   4   6
ATOM      6  C   UNL A   1      39.525  22.336  26.379  1.00  0.00     0.060 A 
ATOM      7  C   UNL A   1      39.172  23.608  25.929  1.00  0.00     0.016 A 
ATOM      8  C   UNL A   1      40.531  22.251  27.366  1.00  0.00     0.016 A 
ATOM      9  C   UNL A   1      39.722  24.757  26.499  1.00  0.00     0.010 A 
ATOM     10  C   UNL A   1      41.096  23.400  27.938  1.00  0.00     0.010 A 
ATOM     11  C   UNL A   1      40.679  24.662  27.510  1.00  0.00    -0.014 A 
BRANCH  11  12
ATOM     12  C   UNL A   1      41.316  25.916  27.964  1.00  0.00     0.031 A 
ATOM     13  C   UNL A   1      42.727  26.175  27.528  1.00  0.00     0.074 A 
ATOM     14  C   UNL A   1      40.593  26.857  28.597  1.00  0.00     0.049 A 
ATOM     15  N   UNL A   1      43.447  27.255  27.664  1.00  0.00    -0.248 NA
ATOM     16  C   UNL A   1      43.402  25.077  26.819  1.00  0.00     0.031 C 
ATOM     17  C   UNL A   1      39.190  26.716  28.989  1.00  0.00     0.029 A 
ATOM     18  N   UNL A   1      40.917  28.128  28.995  1.00  0.00    -0.354 N 
ATOM     19  C   UNL A   1      44.647  26.982  27.020  1.00  0.00     0.074 A 
ATOM     20  C   UNL A   1      44.580  25.614  26.553  1.00  0.00     0.031 C 
ATOM     21  C   UNL A   1      38.773  27.856  29.565  1.00  0.00     0.029 A 
ATOM     22  C   UNL A   1      39.885  28.800  29.610  1.00  0.00     0.049 A 
ATOM     23  H   UNL A   1      41.807  28.525  28.853  1.00  0.00     0.167 HD
ATOM     24  C   UNL A   1      45.699  27.810  26.817  1.00  0.00     0.034 A 
ATOM     25  C   UNL A   1      39.851  30.033  30.157  1.00  0.00     0.034 A 
ATOM     26  C   UNL A   1      45.760  29.147  27.345  1.00  0.00     0.049 A 
ATOM     27  C   UNL A   1      41.096  30.884  30.047  1.00  0.00     0.074 A 
ATOM     28  C   UNL A   1      46.803  30.053  27.289  1.00  0.00     0.029 A 
ATOM     29  N   UNL A   1      44.732  29.764  28.050  1.00  0.00    -0.354 N 
ATOM     30  N   UNL A   1      42.233  30.608  29.444  1.00  0.00    -0.248 NA
ATOM     31  C   UNL A   1      41.052  32.211  30.669  1.00  0.00     0.031 C 
ATOM     32  C   UNL A   1      46.430  31.189  28.017  1.00  0.00     0.029 A 
ATOM     33  C   UNL A   1      45.124  31.030  28.453  1.00  0.00     0.049 A 
ATOM     34  H   UNL A   1      43.853  29.361  28.236  1.00  0.00     0.167 HD
ATOM     35  C   UNL A   1      43.025  31.745  29.590  1.00  0.00     0.074 A 
ATOM     36  C   UNL A   1      42.222  32.714  30.309  1.00  0.00     0.031 C 
ATOM     37  C   UNL A   1      44.297  31.972  29.174  1.00  0.00     0.034 A 
BRANCH  24  38
ATOM     38  C   UNL A   1      46.865  27.247  26.047  1.00  0.00     0.023 A 
ATOM     39  C   UNL A   1      47.909  26.563  26.697  1.00  0.00     0.031 A 
ATOM     40  C   UNL A   1      46.980  27.464  24.664  1.00  0.00     0.131 A 
ATOM     41  C   UNL A   1      49.056  26.192  25.980  1.00  0.00     0.055 A 
ATOM     42  C   UNL A   1      48.087  27.019  23.940  1.00  0.00     0.041 A 
ATOM     43  F   UNL A   1      46.031  28.140  23.998  1.00  0.00    -0.206 F 
ATOM     44  C   UNL A   1      49.141  26.393  24.600  1.00  0.00     0.022 A 
BRANCH  41  45
ATOM     45  S   UNL A   1      50.497  25.589  26.902  1.00  0.00     0.124 S 
ATOM     46  O   UNL A   1      49.929  24.452  27.624  1.00  0.00    -0.237 OA
ATOM     47  O   UNL A   1      51.439  25.260  25.839  1.00  0.00    -0.237 OA
ATOM     48  O   UNL A   1      50.871  26.727  27.738  1.00  0.00    -0.744 OA
ENDBRANCH  41  45
ENDBRANCH  24  38
BRANCH  25  49
ATOM     49  C   UNL A   1      38.647  30.524  30.896  1.00  0.00     0.023 A 
ATOM     50  C   UNL A   1      37.578  31.155  30.238  1.00  0.00     0.031 A 
ATOM     51  C   UNL A   1      38.594  30.455  32.302  1.00  0.00     0.131 A 
ATOM     52  C   UNL A   1      36.545  31.751  30.983  1.00  0.00     0.055 A 
ATOM     53  C   UNL A   1      37.533  30.992  33.034  1.00  0.00     0.041 A 
ATOM     54  F   UNL A   1      39.584  29.866  32.991  1.00  0.00    -0.206 F 
ATOM     55  C   UNL A   1      36.510  31.662  32.376  1.00  0.00     0.022 A 
BRANCH  52  56
ATOM     56  S   UNL A   1      35.311  32.760  30.113  1.00  0.00     0.124 S 
ATOM     57  O   UNL A   1      34.846  31.838  29.084  1.00  0.00    -0.237 OA
ATOM     58  O   UNL A   1      34.363  33.061  31.181  1.00  0.00    -0.237 OA
ATOM     59  O   UNL A   1      36.084  33.901  29.629  1.00  0.00    -0.744 OA
ENDBRANCH  52  56
ENDBRANCH  25  49
BRANCH  37  60
ATOM     60  C   UNL A   1      44.870  33.340  29.451  1.00  0.00     0.023 A 
ATOM     61  C   UNL A   1      44.775  34.385  28.516  1.00  0.00     0.031 A 
ATOM     62  C   UNL A   1      45.532  33.596  30.665  1.00  0.00     0.131 A 
ATOM     63  C   UNL A   1      45.395  35.614  28.778  1.00  0.00     0.055 A 
ATOM     64  C   UNL A   1      46.079  34.846  30.952  1.00  0.00     0.041 A 
ATOM     65  F   UNL A   1      45.655  32.634  31.593  1.00  0.00    -0.206 F 
ATOM     66  C   UNL A   1      46.027  35.859  29.999  1.00  0.00     0.022 A 
BRANCH  63  67
ATOM     67  S   UNL A   1      45.469  36.847  27.451  1.00  0.00     0.124 S 
ATOM     68  O   UNL A   1      46.393  37.831  28.006  1.00  0.00    -0.237 OA
ATOM     69  O   UNL A   1      45.971  36.065  26.327  1.00  0.00    -0.237 OA
ATOM     70  O   UNL A   1      44.084  37.296  27.325  1.00  0.00    -0.744 OA
ENDBRANCH  63  67
ENDBRANCH  37  60
ENDBRANCH  11  12
ENDBRANCH   4   6
ENDBRANCH   3   4
ENDBRANCH   2   3
ENDBRANCH   1   2
BRANCH   1  71
ATOM     71  O   UNL A   1      34.740  22.528  24.427  1.00  0.00    -0.460 OA
BRANCH  71  72
ATOM     72  C   UNL A   1      34.937  23.025  23.169  1.00  0.00     0.335 C 
ATOM     73  O   UNL A   1      36.030  23.186  22.641  1.00  0.00    -0.249 OA
BRANCH  72  74
ATOM     74  C   UNL A   1      33.588  23.313  22.498  1.00  0.00     0.228 C 
ATOM     75  C   UNL A   1      32.452  23.375  23.495  1.00  0.00     0.047 C 
ATOM     76  O   UNL A   1      33.601  24.577  21.817  1.00  0.00    -0.362 OA
ATOM     77  C   UNL A   1      32.409  24.841  23.845  1.00  0.00     0.037 C 
ATOM     78  C   UNL A   1      32.790  25.519  22.536  1.00  0.00     0.134 C 
BRANCH  78  79
ATOM     79  C   UNL A   1      31.583  25.920  21.663  1.00  0.00     0.130 C 
BRANCH  79  80
ATOM     80  N   UNL A   1      31.446  27.395  21.637  1.00  0.00    -0.213 NA
ATOM     81  H   UNL A   1      30.954  27.637  20.777  1.00  0.00     0.141 HD
BRANCH  80  82
ATOM     82  S   UNL A   1      30.633  28.144  22.904  1.00  0.00     0.214 S 
ATOM     83  O   UNL A   1      29.512  27.302  23.239  1.00  0.00    -0.212 OA
ATOM     84  O   UNL A   1      31.648  28.461  23.889  1.00  0.00    -0.212 OA
BRANCH  82  85
ATOM     85  C   UNL A   1      30.034  29.656  22.190  1.00  0.00     0.185 C 
BRANCH  85  86
ATOM     86  C   UNL A   1      28.526  29.760  21.994  1.00  0.00     0.134 C 
ATOM     87  C   UNL A   1      27.667  30.356  23.096  1.00  0.00     0.035 C 
ATOM     88  O   UNL A   1      28.316  30.661  20.875  1.00  0.00    -0.377 OA
ATOM     89  C   UNL A   1      27.833  31.837  22.888  1.00  0.00     0.031 C 
ATOM     90  C   UNL A   1      27.906  31.946  21.381  1.00  0.00     0.160 C 
ENDBRANCH  85  86
ENDBRANCH  82  85
ENDBRANCH  80  82
ENDBRANCH  79  80
ENDBRANCH  78  79
ENDBRANCH  72  74
ENDBRANCH  71  72
ENDBRANCH   1  71
TORSDOF 19
ENDMDL
MODEL 2
REMARK VINA RESULT:     -10.9      1.902      2.541
REMARK SMILES O=C(OCCOC(=O)[C@H]1CC[C@H](CNS(=O)(=O)C[C@H]2CCCO2)O1)c1ccc(-c2c3nc(c(-c4cc(S(=O)(=O)[O-])ccc4F)c4ccc([nH]4)c(-c4cc(S(=O)(=O)[O-])ccc4F)c4nc(c(-c5cc(S(=O)(=O)[O-])ccc5F)c5ccc2[nH]5)C=C4)C=C3)cc1
REMARK SMILES IDX 5 1 4 2 3 3 2 4 1 5 25 6 26 7 87 8 27 9 86 10 28 11 29 12
REMARK SMILES IDX 30 13 80 14 31 15 85 16 79 17 81 18 32 19 84 20 78 21 77 22
REMARK SMILES IDX 33 24 65 25 45 26 64 27 46 28 49 29 63 30 82 31 47 32 48 33
REMARK SMILES IDX 62 35 83 36 50 37 34 38 35 39 43 40 36 41 42 42 44 43 41 44
REMARK SMILES IDX 37 45 38 46 39 47 40 48 66 49 67 50 75 51 68 52 74 53 76 54
REMARK SMILES IDX 73 55 69 56 70 57 71 58 72 59 51 60 52 61 60 62 53 63 59 64
REMARK SMILES IDX 61 65 58 66 54 67 55 68 56 69 57 70 6 71 7 72 8 73 9 74
REMARK SMILES IDX 10 75 24 76 11 77 12 78 13 79 14 80 15 82 16 83 17 84 18 85
REMARK SMILES IDX 19 86 20 87 23 88 21 89 22 90
REMARK H PARENT 81 23 49 34 14 81
REMARK Flexibility Score: inf
ROOT
ATOM      1  C   UNL A   1      36.478  22.178  24.005  1.00  0.00     0.274 C 
ENDROOT
BRANCH   1   2
ATOM      2  C   UNL A   1      37.126  22.280  25.390  1.00  0.00     0.275 C 
BRANCH   2   3
ATOM      3  O   UNL A   1      38.370  21.562  25.506  1.00  0.00    -0.458 OA
BRANCH   3   4
ATOM      4  C   UNL A   1      39.428  21.757  26.332  1.00  0.00     0.338 C 
ATOM      5  O   UNL A   1      39.969  20.767  26.825  1.00  0.00    -0.246 OA
BRANCH   4   6
ATOM      6  C   UNL A   1      39.888  23.110  26.797  1.00  0.00     0.060 A 
ATOM      7  C   UNL A   1      39.430  24.340  26.325  1.00  0.00     0.016 A 
ATOM      8  C   UNL A   1      40.844  23.127  27.837  1.00  0.00     0.016 A 
ATOM      9  C   UNL A   1      39.827  25.537  26.920  1.00  0.00     0.010 A 
ATOM     10  C   UNL A   1      41.256  24.327  28.434  1.00  0.00     0.010 A 
ATOM     11  C   UNL A   1      40.733  25.540  27.981  1.00  0.00    -0.014 A 
BRANCH  11  12
ATOM     12  C   UNL A   1      41.213  26.852  28.463  1.00  0.00     0.031 A 
ATOM     13  C   UNL A   1      42.644  27.210  28.198  1.00  0.00     0.074 A 
ATOM     14  C   UNL A   1      40.347  27.750  28.967  1.00  0.00     0.049 A 
ATOM     15  N   UNL A   1      43.258  28.346  28.381  1.00  0.00    -0.248 NA
ATOM     16  C   UNL A   1      43.484  26.149  27.619  1.00  0.00     0.031 C 
ATOM     17  C   UNL A   1      38.920  27.510  29.186  1.00  0.00     0.029 A 
ATOM     18  N   UNL A   1      40.522  29.053  29.355  1.00  0.00    -0.354 N 
ATOM     19  C   UNL A   1      44.548  28.151  27.902  1.00  0.00     0.074 A 
ATOM     20  C   UNL A   1      44.643  26.770  27.481  1.00  0.00     0.031 C 
ATOM     21  C   UNL A   1      38.349  28.629  29.663  1.00  0.00     0.029 A 
ATOM     22  C   UNL A   1      39.373  29.658  29.812  1.00  0.00     0.049 A 
ATOM     23  H   UNL A   1      41.391  29.515  29.310  1.00  0.00     0.167 HD
ATOM     24  C   UNL A   1      45.552  29.053  27.802  1.00  0.00     0.034 A 
ATOM     25  C   UNL A   1      39.178  30.899  30.305  1.00  0.00     0.034 A 
ATOM     26  C   UNL A   1      45.446  30.405  28.284  1.00  0.00     0.049 A 
ATOM     27  C   UNL A   1      40.360  31.842  30.318  1.00  0.00     0.074 A 
ATOM     28  C   UNL A   1      46.416  31.389  28.324  1.00  0.00     0.029 A 
ATOM     29  N   UNL A   1      44.293  30.958  28.832  1.00  0.00    -0.354 N 
ATOM     30  N   UNL A   1      41.581  31.640  29.872  1.00  0.00    -0.248 NA
ATOM     31  C   UNL A   1      40.138  33.178  30.880  1.00  0.00     0.031 C 
ATOM     32  C   UNL A   1      45.871  32.511  28.957  1.00  0.00     0.029 A 
ATOM     33  C   UNL A   1      44.535  32.262  29.234  1.00  0.00     0.049 A 
ATOM     34  H   UNL A   1      43.431  30.492  28.921  1.00  0.00     0.167 HD
ATOM     35  C   UNL A   1      42.261  32.839  30.073  1.00  0.00     0.074 A 
ATOM     36  C   UNL A   1      41.304  33.761  30.651  1.00  0.00     0.031 C 
ATOM     37  C   UNL A   1      43.556  33.154  29.810  1.00  0.00     0.034 A 
BRANCH  24  38
ATOM     38  C   UNL A   1      46.845  28.563  27.204  1.00  0.00     0.023 A 
ATOM     39  C   UNL A   1      47.003  28.432  25.812  1.00  0.00     0.031 A 
ATOM     40  C   UNL A   1      47.901  28.145  28.030  1.00  0.00     0.131 A 
ATOM     41  C   UNL A   1      48.156  27.823  25.293  1.00  0.00     0.055 A 
ATOM     42  C   UNL A   1      49.081  27.616  27.504  1.00  0.00     0.041 A 
ATOM     43  F   UNL A   1      47.792  28.215  29.366  1.00  0.00    -0.206 F 
ATOM     44  C   UNL A   1      49.207  27.438  26.129  1.00  0.00     0.022 A 
BRANCH  41  45
ATOM     45  S   UNL A   1      48.194  27.400  23.530  1.00  0.00     0.124 S 
ATOM     46  O   UNL A   1      48.009  25.951  23.571  1.00  0.00    -0.237 OA
ATOM     47  O   UNL A   1      47.076  28.168  22.995  1.00  0.00    -0.237 OA
ATOM     48  O   UNL A   1      49.518  27.842  23.099  1.00  0.00    -0.744 OA
ENDBRANCH  41  45
ENDBRANCH  24  38
BRANCH  25  49
ATOM     49  C   UNL A   1      37.856  31.313  30.869  1.00  0.00     0.023 A 
ATOM     50  C   UNL A   1      36.870  31.924  30.078  1.00  0.00     0.031 A 
ATOM     51  C   UNL A   1      37.599  31.192  32.249  1.00  0.00     0.131 A 
ATOM     52  C   UNL A   1      35.712  32.450  30.677  1.00  0.00     0.055 A 
ATOM     53  C   UNL A   1      36.418  31.658  32.830  1.00  0.00     0.041 A 
ATOM     54  F   UNL A   1      38.502  30.619  33.060  1.00  0.00    -0.206 F 
ATOM     55  C   UNL A   1      35.475  32.310  32.046  1.00  0.00     0.022 A 
BRANCH  52  56
ATOM     56  S   UNL A   1      34.575  33.439  29.663  1.00  0.00     0.124 S 
ATOM     57  O   UNL A   1      33.706  34.024  30.676  1.00  0.00    -0.237 OA
ATOM     58  O   UNL A   1      35.492  34.357  28.995  1.00  0.00    -0.237 OA
ATOM     59  O   UNL A   1      33.945  32.449  28.793  1.00  0.00    -0.744 OA
ENDBRANCH  52  56
ENDBRANCH  25  49
BRANCH  37  60
ATOM     60  C   UNL A   1      43.985  34.571  30.106  1.00  0.00     0.023 A 
ATOM     61  C   UNL A   1      43.771  35.614  29.190  1.00  0.00     0.031 A 
ATOM     62  C   UNL A   1      44.629  34.875  31.319  1.00  0.00     0.131 A 
ATOM     63  C   UNL A   1      44.262  36.897  29.467  1.00  0.00     0.055 A 
ATOM     64  C   UNL A   1      45.045  36.171  31.623  1.00  0.00     0.041 A 
ATOM     65  F   UNL A   1      44.861  33.917  32.229  1.00  0.00    -0.206 F 
ATOM     66  C   UNL A   1      44.878  37.188  30.687  1.00  0.00     0.022 A 
BRANCH  63  67
ATOM     67  S   UNL A   1      44.193  38.153  28.161  1.00  0.00     0.124 S 
ATOM     68  O   UNL A   1      44.483  37.363  26.968  1.00  0.00    -0.237 OA
ATOM     69  O   UNL A   1      42.827  38.650  28.280  1.00  0.00    -0.237 OA
ATOM     70  O   UNL A   1      45.234  39.103  28.546  1.00  0.00    -0.744 OA
ENDBRANCH  63  67
ENDBRANCH  37  60
ENDBRANCH  11  12
ENDBRANCH   4   6
ENDBRANCH   3   4
ENDBRANCH   2   3
ENDBRANCH   1   2
BRANCH   1  71
ATOM     71  O   UNL A   1      35.327  23.023  23.869  1.00  0.00    -0.460 OA
BRANCH  71  72
ATOM     72  C   UNL A   1      34.124  22.387  23.741  1.00  0.00     0.335 C 
ATOM     73  O   UNL A   1      33.771  21.415  24.399  1.00  0.00    -0.249 OA
BRANCH  72  74
ATOM     74  C   UNL A   1      33.263  23.092  22.686  1.00  0.00     0.228 C 
ATOM     75  C   UNL A   1      31.797  23.111  23.060  1.00  0.00     0.047 C 
ATOM     76  O   UNL A   1      33.658  24.463  22.519  1.00  0.00    -0.362 OA
ATOM     77  C   UNL A   1      31.671  24.417  23.804  1.00  0.00     0.037 C 
ATOM     78  C   UNL A   1      32.654  25.324  23.077  1.00  0.00     0.134 C 
BRANCH  78  79
ATOM     79  C   UNL A   1      32.019  26.162  21.949  1.00  0.00     0.130 C 
BRANCH  79  80
ATOM     80  N   UNL A   1      31.977  27.589  22.341  1.00  0.00    -0.213 NA
ATOM     81  H   UNL A   1      32.344  28.129  21.558  1.00  0.00     0.141 HD
BRANCH  80  82
ATOM     82  S   UNL A   1      30.492  28.261  22.757  1.00  0.00     0.214 S 
ATOM     83  O   UNL A   1      30.080  29.085  21.650  1.00  0.00    -0.212 OA
ATOM     84  O   UNL A   1      29.673  27.153  23.208  1.00  0.00    -0.212 OA
BRANCH  82  85
ATOM     85  C   UNL A   1      30.870  29.299  24.148  1.00  0.00     0.185 C 
BRANCH  85  86
ATOM     86  C   UNL A   1      32.223  29.075  24.812  1.00  0.00     0.134 C 
ATOM     87  C   UNL A   1      32.653  29.974  25.958  1.00  0.00     0.035 C 
ATOM     88  O   UNL A   1      32.174  27.755  25.415  1.00  0.00    -0.377 OA
ATOM     89  C   UNL A   1      31.935  29.380  27.139  1.00  0.00     0.031 C 
ATOM     90  C   UNL A   1      31.984  27.898  26.836  1.00  0.00     0.160 C 
ENDBRANCH  85  86
ENDBRANCH  82  85
ENDBRANCH  80  82
ENDBRANCH  79  80
ENDBRANCH  78  79
ENDBRANCH  72  74
ENDBRANCH  71  72
ENDBRANCH   1  71
TORSDOF 19
ENDMDL
MODEL 3
REMARK VINA RESULT:     -10.8      2.265      2.907
REMARK SMILES O=C(OCCOC(=O)[C@H]1CC[C@H](CNS(=O)(=O)C[C@H]2CCCO2)O1)c1ccc(-c2c3nc(c(-c4cc(S(=O)(=O)[O-])ccc4F)c4ccc([nH]4)c(-c4cc(S(=O)(=O)[O-])ccc4F)c4nc(c(-c5cc(S(=O)(=O)[O-])ccc5F)c5ccc2[nH]5)C=C4)C=C3)cc1
REMARK SMILES IDX 5 1 4 2 3 3 2 4 1 5 25 6 26 7 87 8 27 9 86 10 28 11 29 12
REMARK SMILES IDX 30 13 80 14 31 15 85 16 79 17 81 18 32 19 84 20 78 21 77 22
REMARK SMILES IDX 33 24 65 25 45 26 64 27 46 28 49 29 63 30 82 31 47 32 48 33
REMARK SMILES IDX 62 35 83 36 50 37 34 38 35 39 43 40 36 41 42 42 44 43 41 44
REMARK SMILES IDX 37 45 38 46 39 47 40 48 66 49 67 50 75 51 68 52 74 53 76 54
REMARK SMILES IDX 73 55 69 56 70 57 71 58 72 59 51 60 52 61 60 62 53 63 59 64
REMARK SMILES IDX 61 65 58 66 54 67 55 68 56 69 57 70 6 71 7 72 8 73 9 74
REMARK SMILES IDX 10 75 24 76 11 77 12 78 13 79 14 80 15 82 16 83 17 84 18 85
REMARK SMILES IDX 19 86 20 87 23 88 21 89 22 90
REMARK H PARENT 81 23 49 34 14 81
REMARK Flexibility Score: inf
ROOT
ATOM      1  C   UNL A   1      37.813  20.868  24.904  1.00  0.00     0.274 C 
ENDROOT
BRANCH   1   2
ATOM      2  C   UNL A   1      38.651  19.693  25.418  1.00  0.00     0.275 C 
BRANCH   2   3
ATOM      3  O   UNL A   1      40.028  20.029  25.679  1.00  0.00    -0.458 OA
BRANCH   3   4
ATOM      4  C   UNL A   1      40.641  20.412  26.827  1.00  0.00     0.338 C 
ATOM      5  O   UNL A   1      40.780  19.575  27.718  1.00  0.00    -0.246 OA
BRANCH   4   6
ATOM      6  C   UNL A   1      41.030  21.831  27.134  1.00  0.00     0.060 A 
ATOM      7  C   UNL A   1      40.688  22.956  26.382  1.00  0.00     0.016 A 
ATOM      8  C   UNL A   1      41.776  22.039  28.314  1.00  0.00     0.016 A 
ATOM      9  C   UNL A   1      40.989  24.243  26.829  1.00  0.00     0.010 A 
ATOM     10  C   UNL A   1      42.090  23.328  28.765  1.00  0.00     0.010 A 
ATOM     11  C   UNL A   1      41.682  24.439  28.024  1.00  0.00    -0.014 A 
BRANCH  11  12
ATOM     12  C   UNL A   1      42.087  25.821  28.358  1.00  0.00     0.031 A 
ATOM     13  C   UNL A   1      43.440  26.278  27.905  1.00  0.00     0.074 A 
ATOM     14  C   UNL A   1      41.200  26.678  28.896  1.00  0.00     0.049 A 
ATOM     15  N   UNL A   1      43.962  27.474  27.939  1.00  0.00    -0.248 NA
ATOM     16  C   UNL A   1      44.308  25.251  27.307  1.00  0.00     0.031 C 
ATOM     17  C   UNL A   1      39.834  26.335  29.295  1.00  0.00     0.029 A 
ATOM     18  N   UNL A   1      41.294  28.018  29.172  1.00  0.00    -0.354 N 
ATOM     19  C   UNL A   1      45.204  27.353  27.329  1.00  0.00     0.074 A 
ATOM     20  C   UNL A   1      45.382  25.957  26.994  1.00  0.00     0.031 C 
ATOM     21  C   UNL A   1      39.217  27.434  29.758  1.00  0.00     0.029 A 
ATOM     22  C   UNL A   1      40.149  28.556  29.717  1.00  0.00     0.049 A 
ATOM     23  H   UNL A   1      42.105  28.547  28.996  1.00  0.00     0.167 HD
ATOM     24  C   UNL A   1      46.102  28.327  27.052  1.00  0.00     0.034 A 
ATOM     25  C   UNL A   1      39.894  29.810  30.143  1.00  0.00     0.034 A 
ATOM     26  C   UNL A   1      45.923  29.698  27.450  1.00  0.00     0.049 A 
ATOM     27  C   UNL A   1      40.977  30.849  29.957  1.00  0.00     0.074 A 
ATOM     28  C   UNL A   1      46.795  30.761  27.312  1.00  0.00     0.029 A 
ATOM     29  N   UNL A   1      44.790  30.191  28.089  1.00  0.00    -0.354 N 
ATOM     30  N   UNL A   1      42.156  30.718  29.387  1.00  0.00    -0.248 NA
ATOM     31  C   UNL A   1      40.693  32.200  30.449  1.00  0.00     0.031 C 
ATOM     32  C   UNL A   1      46.219  31.879  27.926  1.00  0.00     0.029 A 
ATOM     33  C   UNL A   1      44.950  31.538  28.371  1.00  0.00     0.049 A 
ATOM     34  H   UNL A   1      43.990  29.662  28.309  1.00  0.00     0.167 HD
ATOM     35  C   UNL A   1      42.738  31.983  29.427  1.00  0.00     0.074 A 
ATOM     36  C   UNL A   1      41.767  32.862  30.047  1.00  0.00     0.031 C 
ATOM     37  C   UNL A   1      43.961  32.386  28.995  1.00  0.00     0.034 A 
BRANCH  24  38
ATOM     38  C   UNL A   1      47.363  27.904  26.343  1.00  0.00     0.023 A 
ATOM     39  C   UNL A   1      47.519  28.089  24.957  1.00  0.00     0.031 A 
ATOM     40  C   UNL A   1      48.384  27.237  27.039  1.00  0.00     0.131 A 
ATOM     41  C   UNL A   1      48.631  27.543  24.300  1.00  0.00     0.055 A 
ATOM     42  C   UNL A   1      49.528  26.767  26.392  1.00  0.00     0.041 A 
ATOM     43  F   UNL A   1      48.272  27.002  28.356  1.00  0.00    -0.206 F 
ATOM     44  C   UNL A   1      49.649  26.905  25.012  1.00  0.00     0.022 A 
BRANCH  41  45
ATOM     45  S   UNL A   1      48.650  27.538  22.486  1.00  0.00     0.124 S 
ATOM     46  O   UNL A   1      47.406  28.240  22.177  1.00  0.00    -0.237 OA
ATOM     47  O   UNL A   1      49.879  28.259  22.179  1.00  0.00    -0.237 OA
ATOM     48  O   UNL A   1      48.658  26.117  22.146  1.00  0.00    -0.744 OA
ENDBRANCH  41  45
ENDBRANCH  24  38
BRANCH  25  49
ATOM     49  C   UNL A   1      38.608  30.153  30.827  1.00  0.00     0.023 A 
ATOM     50  C   UNL A   1      37.581  30.850  30.171  1.00  0.00     0.031 A 
ATOM     51  C   UNL A   1      38.430  29.870  32.195  1.00  0.00     0.131 A 
ATOM     52  C   UNL A   1      36.461  31.300  30.893  1.00  0.00     0.055 A 
ATOM     53  C   UNL A   1      37.286  30.262  32.894  1.00  0.00     0.041 A 
ATOM     54  F   UNL A   1      39.375  29.207  32.881  1.00  0.00    -0.206 F 
ATOM     55  C   UNL A   1      36.303  30.999  32.248  1.00  0.00     0.022 A 
BRANCH  52  56
ATOM     56  S   UNL A   1      35.274  32.399  30.069  1.00  0.00     0.124 S 
ATOM     57  O   UNL A   1      36.123  33.519  29.684  1.00  0.00    -0.237 OA
ATOM     58  O   UNL A   1      34.790  31.555  28.981  1.00  0.00    -0.237 OA
ATOM     59  O   UNL A   1      34.293  32.686  31.114  1.00  0.00    -0.744 OA
ENDBRANCH  52  56
ENDBRANCH  25  49
BRANCH  37  60
ATOM     60  C   UNL A   1      44.285  33.853  29.143  1.00  0.00     0.023 A 
ATOM     61  C   UNL A   1      44.865  34.367  30.315  1.00  0.00     0.031 A 
ATOM     62  C   UNL A   1      43.996  34.749  28.098  1.00  0.00     0.131 A 
ATOM     63  C   UNL A   1      45.071  35.747  30.443  1.00  0.00     0.055 A 
ATOM     64  C   UNL A   1      44.275  36.111  28.202  1.00  0.00     0.041 A 
ATOM     65  F   UNL A   1      43.439  34.313  26.958  1.00  0.00    -0.206 F 
ATOM     66  C   UNL A   1      44.800  36.620  29.386  1.00  0.00     0.022 A 
BRANCH  63  67
ATOM     67  S   UNL A   1      45.583  36.401  32.054  1.00  0.00     0.124 S 
ATOM     68  O   UNL A   1      47.025  36.542  31.879  1.00  0.00    -0.237 OA
ATOM     69  O   UNL A   1      44.826  37.646  32.140  1.00  0.00    -0.237 OA
ATOM     70  O   UNL A   1      45.169  35.359  32.993  1.00  0.00    -0.744 OA
ENDBRANCH  63  67
ENDBRANCH  37  60
ENDBRANCH  11  12
ENDBRANCH   4   6
ENDBRANCH   3   4
ENDBRANCH   2   3
ENDBRANCH   1   2
BRANCH   1  71
ATOM     71  O   UNL A   1      36.664  21.129  25.722  1.00  0.00    -0.460 OA
BRANCH  71  72
ATOM     72  C   UNL A   1      35.453  20.792  25.185  1.00  0.00     0.335 C 
ATOM     73  O   UNL A   1      35.149  19.675  24.785  1.00  0.00    -0.249 OA
BRANCH  72  74
ATOM     74  C   UNL A   1      34.515  22.006  25.196  1.00  0.00     0.228 C 
ATOM     75  C   UNL A   1      35.252  23.304  24.952  1.00  0.00     0.047 C 
ATOM     76  O   UNL A   1      33.517  21.905  24.169  1.00  0.00    -0.362 OA
ATOM     77  C   UNL A   1      35.161  23.449  23.453  1.00  0.00     0.037 C 
ATOM     78  C   UNL A   1      33.796  22.858  23.132  1.00  0.00     0.134 C 
BRANCH  78  79
ATOM     79  C   UNL A   1      32.658  23.898  23.078  1.00  0.00     0.130 C 
BRANCH  79  80
ATOM     80  N   UNL A   1      33.225  25.266  23.052  1.00  0.00    -0.213 NA
ATOM     81  H   UNL A   1      34.231  25.179  23.199  1.00  0.00     0.141 HD
BRANCH  80  82
ATOM     82  S   UNL A   1      33.003  26.198  21.670  1.00  0.00     0.214 S 
ATOM     83  O   UNL A   1      33.796  27.390  21.836  1.00  0.00    -0.212 OA
ATOM     84  O   UNL A   1      33.227  25.303  20.552  1.00  0.00    -0.212 OA
BRANCH  82  85
ATOM     85  C   UNL A   1      31.281  26.631  21.722  1.00  0.00     0.185 C 
BRANCH  85  86
ATOM     86  C   UNL A   1      30.867  27.630  22.796  1.00  0.00     0.134 C 
ATOM     87  C   UNL A   1      29.392  27.851  23.083  1.00  0.00     0.035 C 
ATOM     88  O   UNL A   1      31.386  27.123  24.054  1.00  0.00    -0.377 OA
ATOM     89  C   UNL A   1      29.045  26.692  23.977  1.00  0.00     0.031 C 
ATOM     90  C   UNL A   1      30.306  26.528  24.798  1.00  0.00     0.160 C 
ENDBRANCH  85  86
ENDBRANCH  82  85
ENDBRANCH  80  82
ENDBRANCH  79  80
ENDBRANCH  78  79
ENDBRANCH  72  74
ENDBRANCH  71  72
ENDBRANCH   1  71
TORSDOF 19
ENDMDL
