MODEL 1
REMARK VINA RESULT:     -11.6      0.000      0.000
REMARK SMILES CCCc1nn(-c2ccc(OC)cc2)c2sc(C(=O)OCCOC(=O)c3ccc(-c4c5nc(c(-c6cc(S(=O)(=O)[O-])ccc6F)c6ccc([nH]6)c(-c6cc(S(=O)(=O)[O-])ccc6F)c6nc(c(-c7cc(S(=O)(=O)[O-])ccc7F)c7ccc4[nH]7)C=C6)C=C5)cc3)cc12
REMARK SMILES IDX 22 1 21 2 20 3 18 4 19 5 17 6 4 7 5 8 90 9 6 10 15 11 89 12
REMARK SMILES IDX 16 13 3 14 2 15 1 16 7 17 8 18 14 19 9 20 13 21 10 22 11 23
REMARK SMILES IDX 12 24 23 25 24 26 25 27 26 28 27 29 88 30 28 31 87 32 29 33
REMARK SMILES IDX 30 34 31 35 81 36 32 37 86 38 80 39 82 40 33 41 85 42 79 43
REMARK SMILES IDX 78 44 34 46 66 47 46 48 65 49 47 50 50 51 64 52 83 53 48 54
REMARK SMILES IDX 49 55 63 57 84 58 51 59 35 60 36 61 44 62 37 63 43 64 45 65
REMARK SMILES IDX 42 66 38 67 39 68 40 69 41 70 67 71 68 72 76 73 69 74 75 75
REMARK SMILES IDX 77 76 74 77 70 78 71 79 72 80 73 81 52 82 53 83 61 84 54 85
REMARK SMILES IDX 60 86 62 87 59 88 55 89 56 90 57 91 58 92
REMARK H PARENT 82 45 50 56
REMARK Flexibility Score: inf
ROOT
ATOM      1  C   UNL A   1      32.458  32.995  27.343  1.00  0.00     0.275 C 
ENDROOT
BRANCH   1   2
ATOM      2  C   UNL A   1      33.297  31.730  27.257  1.00  0.00     0.275 C 
BRANCH   2   3
ATOM      3  O   UNL A   1      32.476  30.561  27.359  1.00  0.00    -0.458 OA
BRANCH   3   4
ATOM      4  C   UNL A   1      32.988  29.354  26.969  1.00  0.00     0.348 C 
ATOM      5  O   UNL A   1      33.874  28.751  27.568  1.00  0.00    -0.245 OA
BRANCH   4   6
ATOM      6  C   UNL A   1      32.310  28.883  25.773  1.00  0.00     0.115 A 
ATOM      7  C   UNL A   1      30.277  28.696  22.704  1.00  0.00     0.072 A 
ATOM      8  N   UNL A   1      30.392  27.493  22.078  1.00  0.00    -0.171 NA
ATOM      9  C   UNL A   1      31.064  28.693  23.861  1.00  0.00     0.036 A 
ATOM     10  N   UNL A   1      31.167  26.737  22.914  1.00  0.00    -0.223 N 
ATOM     11  C   UNL A   1      31.592  27.477  23.965  1.00  0.00     0.128 A 
ATOM     12  C   UNL A   1      31.424  29.551  24.908  1.00  0.00     0.040 A 
ATOM     13  S   UNL A   1      32.628  27.260  25.233  1.00  0.00    -0.108 S 
BRANCH   7  14
ATOM     14  C   UNL A   1      29.343  29.750  22.197  1.00  0.00     0.058 C 
BRANCH  14  15
ATOM     15  C   UNL A   1      27.987  29.881  22.901  1.00  0.00     0.003 C 
ATOM     16  C   UNL A   1      27.714  31.243  23.527  1.00  0.00     0.004 C 
ENDBRANCH  14  15
ENDBRANCH   7  14
BRANCH  10  17
ATOM     17  C   UNL A   1      31.474  25.378  22.704  1.00  0.00     0.066 A 
ATOM     18  C   UNL A   1      30.685  24.411  23.342  1.00  0.00     0.032 A 
ATOM     19  C   UNL A   1      32.642  25.014  22.039  1.00  0.00     0.032 A 
ATOM     20  C   UNL A   1      31.106  23.090  23.388  1.00  0.00     0.048 A 
ATOM     21  C   UNL A   1      33.070  23.680  22.110  1.00  0.00     0.048 A 
ATOM     22  C   UNL A   1      32.311  22.721  22.797  1.00  0.00     0.119 A 
BRANCH  22  23
ATOM     23  O   UNL A   1      32.629  21.404  22.981  1.00  0.00    -0.497 OA
ATOM     24  C   UNL A   1      32.465  20.885  24.289  1.00  0.00     0.278 C 
ENDBRANCH  22  23
ENDBRANCH  10  17
ENDBRANCH   4   6
ENDBRANCH   3   4
ENDBRANCH   2   3
ENDBRANCH   1   2
BRANCH   1  25
ATOM     25  O   UNL A   1      32.402  33.474  28.683  1.00  0.00    -0.458 OA
BRANCH  25  26
ATOM     26  C   UNL A   1      33.097  34.611  28.923  1.00  0.00     0.338 C 
ATOM     27  O   UNL A   1      32.712  35.756  28.765  1.00  0.00    -0.246 OA
BRANCH  26  28
ATOM     28  C   UNL A   1      34.475  34.250  29.257  1.00  0.00     0.060 A 
ATOM     29  C   UNL A   1      35.478  34.489  28.314  1.00  0.00     0.016 A 
ATOM     30  C   UNL A   1      34.710  33.486  30.411  1.00  0.00     0.016 A 
ATOM     31  C   UNL A   1      36.695  33.854  28.474  1.00  0.00     0.010 A 
ATOM     32  C   UNL A   1      35.914  32.845  30.558  1.00  0.00     0.010 A 
ATOM     33  C   UNL A   1      36.873  32.987  29.560  1.00  0.00    -0.014 A 
BRANCH  33  34
ATOM     34  C   UNL A   1      38.166  32.357  29.762  1.00  0.00     0.031 A 
ATOM     35  C   UNL A   1      38.143  30.923  29.385  1.00  0.00     0.074 A 
ATOM     36  C   UNL A   1      39.275  33.053  30.089  1.00  0.00     0.049 A 
ATOM     37  N   UNL A   1      38.243  29.905  30.170  1.00  0.00    -0.248 NA
ATOM     38  C   UNL A   1      37.741  30.572  28.009  1.00  0.00     0.031 C 
ATOM     39  C   UNL A   1      39.400  34.506  30.245  1.00  0.00     0.029 A 
ATOM     40  N   UNL A   1      40.556  32.622  30.259  1.00  0.00    -0.354 N 
ATOM     41  C   UNL A   1      38.198  28.791  29.339  1.00  0.00     0.074 A 
ATOM     42  C   UNL A   1      37.651  29.244  28.093  1.00  0.00     0.031 C 
ATOM     43  C   UNL A   1      40.709  34.849  30.269  1.00  0.00     0.029 A 
ATOM     44  C   UNL A   1      41.514  33.639  30.270  1.00  0.00     0.049 A 
ATOM     45  H   UNL A   1      40.788  31.672  30.366  1.00  0.00     0.167 HD
ATOM     46  C   UNL A   1      38.914  27.677  29.651  1.00  0.00     0.034 A 
ATOM     47  C   UNL A   1      42.870  33.502  30.256  1.00  0.00     0.034 A 
ATOM     48  C   UNL A   1      39.290  27.694  31.048  1.00  0.00     0.049 A 
ATOM     49  C   UNL A   1      43.155  32.142  30.764  1.00  0.00     0.074 A 
ATOM     50  C   UNL A   1      38.611  27.661  32.249  1.00  0.00     0.029 A 
ATOM     51  N   UNL A   1      40.549  28.174  31.325  1.00  0.00    -0.354 N 
ATOM     52  N   UNL A   1      42.885  31.772  31.987  1.00  0.00    -0.248 NA
ATOM     53  C   UNL A   1      43.306  31.049  29.814  1.00  0.00     0.031 C 
ATOM     54  C   UNL A   1      39.366  28.491  33.132  1.00  0.00     0.029 A 
ATOM     55  C   UNL A   1      40.509  28.937  32.464  1.00  0.00     0.049 A 
ATOM     56  H   UNL A   1      41.354  27.997  30.788  1.00  0.00     0.167 HD
ATOM     57  C   UNL A   1      42.386  30.486  31.868  1.00  0.00     0.074 A 
ATOM     58  C   UNL A   1      42.816  30.041  30.544  1.00  0.00     0.031 C 
ATOM     59  C   UNL A   1      41.433  30.029  32.734  1.00  0.00     0.034 A 
BRANCH  46  60
ATOM     60  C   UNL A   1      39.672  26.843  28.633  1.00  0.00     0.023 A 
ATOM     61  C   UNL A   1      40.705  27.488  27.924  1.00  0.00     0.031 A 
ATOM     62  C   UNL A   1      39.257  25.596  28.106  1.00  0.00     0.131 A 
ATOM     63  C   UNL A   1      41.192  26.960  26.716  1.00  0.00     0.055 A 
ATOM     64  C   UNL A   1      39.787  25.049  26.936  1.00  0.00     0.041 A 
ATOM     65  F   UNL A   1      38.257  24.877  28.627  1.00  0.00    -0.206 F 
ATOM     66  C   UNL A   1      40.738  25.745  26.215  1.00  0.00     0.022 A 
BRANCH  63  67
ATOM     67  S   UNL A   1      42.306  27.980  25.716  1.00  0.00     0.124 S 
ATOM     68  O   UNL A   1      43.477  28.068  26.581  1.00  0.00    -0.237 OA
ATOM     69  O   UNL A   1      42.450  27.171  24.511  1.00  0.00    -0.237 OA
ATOM     70  O   UNL A   1      41.562  29.225  25.545  1.00  0.00    -0.744 OA
ENDBRANCH  63  67
ENDBRANCH  46  60
BRANCH  47  71
ATOM     71  C   UNL A   1      43.868  34.338  29.526  1.00  0.00     0.023 A 
ATOM     72  C   UNL A   1      44.386  34.021  28.246  1.00  0.00     0.031 A 
ATOM     73  C   UNL A   1      44.141  35.637  30.010  1.00  0.00     0.131 A 
ATOM     74  C   UNL A   1      45.135  34.984  27.520  1.00  0.00     0.055 A 
ATOM     75  C   UNL A   1      44.876  36.581  29.289  1.00  0.00     0.041 A 
ATOM     76  F   UNL A   1      43.623  36.062  31.174  1.00  0.00    -0.206 F 
ATOM     77  C   UNL A   1      45.372  36.260  28.036  1.00  0.00     0.022 A 
BRANCH  74  78
ATOM     78  S   UNL A   1      45.781  34.618  25.849  1.00  0.00     0.124 S 
ATOM     79  O   UNL A   1      44.565  34.536  25.049  1.00  0.00    -0.237 OA
ATOM     80  O   UNL A   1      46.652  35.760  25.594  1.00  0.00    -0.237 OA
ATOM     81  O   UNL A   1      46.482  33.344  26.023  1.00  0.00    -0.744 OA
ENDBRANCH  74  78
ENDBRANCH  47  71
BRANCH  59  82
ATOM     82  C   UNL A   1      41.220  30.818  34.013  1.00  0.00     0.023 A 
ATOM     83  C   UNL A   1      40.310  31.890  34.173  1.00  0.00     0.031 A 
ATOM     84  C   UNL A   1      41.937  30.400  35.147  1.00  0.00     0.131 A 
ATOM     85  C   UNL A   1      40.160  32.507  35.431  1.00  0.00     0.055 A 
ATOM     86  C   UNL A   1      41.766  30.994  36.396  1.00  0.00     0.041 A 
ATOM     87  F   UNL A   1      42.799  29.373  35.065  1.00  0.00    -0.206 F 
ATOM     88  C   UNL A   1      40.881  32.056  36.541  1.00  0.00     0.022 A 
BRANCH  85  89
ATOM     89  S   UNL A   1      39.032  33.925  35.649  1.00  0.00     0.124 S 
ATOM     90  O   UNL A   1      39.622  34.660  36.762  1.00  0.00    -0.237 OA
ATOM     91  O   UNL A   1      39.088  34.581  34.346  1.00  0.00    -0.237 OA
ATOM     92  O   UNL A   1      37.746  33.294  35.953  1.00  0.00    -0.744 OA
ENDBRANCH  85  89
ENDBRANCH  59  82
ENDBRANCH  33  34
ENDBRANCH  26  28
ENDBRANCH  25  26
ENDBRANCH   1  25
TORSDOF 18
ENDMDL
MODEL 2
REMARK VINA RESULT:     -11.3      5.403     10.946
REMARK SMILES CCCc1nn(-c2ccc(OC)cc2)c2sc(C(=O)OCCOC(=O)c3ccc(-c4c5nc(c(-c6cc(S(=O)(=O)[O-])ccc6F)c6ccc([nH]6)c(-c6cc(S(=O)(=O)[O-])ccc6F)c6nc(c(-c7cc(S(=O)(=O)[O-])ccc7F)c7ccc4[nH]7)C=C6)C=C5)cc3)cc12
REMARK SMILES IDX 22 1 21 2 20 3 18 4 19 5 17 6 4 7 5 8 90 9 6 10 15 11 89 12
REMARK SMILES IDX 16 13 3 14 2 15 1 16 7 17 8 18 14 19 9 20 13 21 10 22 11 23
REMARK SMILES IDX 12 24 23 25 24 26 25 27 26 28 27 29 88 30 28 31 87 32 29 33
REMARK SMILES IDX 30 34 31 35 81 36 32 37 86 38 80 39 82 40 33 41 85 42 79 43
REMARK SMILES IDX 78 44 34 46 66 47 46 48 65 49 47 50 50 51 64 52 83 53 48 54
REMARK SMILES IDX 49 55 63 57 84 58 51 59 35 60 36 61 44 62 37 63 43 64 45 65
REMARK SMILES IDX 42 66 38 67 39 68 40 69 41 70 67 71 68 72 76 73 69 74 75 75
REMARK SMILES IDX 77 76 74 77 70 78 71 79 72 80 73 81 52 82 53 83 61 84 54 85
REMARK SMILES IDX 60 86 62 87 59 88 55 89 56 90 57 91 58 92
REMARK H PARENT 82 45 50 56
REMARK Flexibility Score: inf
ROOT
ATOM      1  C   UNL A   1      41.219  20.222  26.208  1.00  0.00     0.275 C 
ENDROOT
BRANCH   1   2
ATOM      2  C   UNL A   1      42.594  19.712  25.809  1.00  0.00     0.275 C 
BRANCH   2   3
ATOM      3  O   UNL A   1      43.263  20.652  24.959  1.00  0.00    -0.458 OA
BRANCH   3   4
ATOM      4  C   UNL A   1      44.623  20.773  25.044  1.00  0.00     0.348 C 
ATOM      5  O   UNL A   1      45.421  19.958  24.587  1.00  0.00    -0.245 OA
BRANCH   4   6
ATOM      6  C   UNL A   1      44.977  22.011  25.718  1.00  0.00     0.115 A 
ATOM      7  C   UNL A   1      45.364  24.685  28.224  1.00  0.00     0.072 A 
ATOM      8  N   UNL A   1      46.183  25.684  27.795  1.00  0.00    -0.171 NA
ATOM      9  C   UNL A   1      45.255  23.713  27.223  1.00  0.00     0.036 A 
ATOM     10  N   UNL A   1      46.482  25.358  26.501  1.00  0.00    -0.223 N 
ATOM     11  C   UNL A   1      45.947  24.158  26.179  1.00  0.00     0.128 A 
ATOM     12  C   UNL A   1      44.639  22.475  27.002  1.00  0.00     0.040 A 
ATOM     13  S   UNL A   1      46.020  23.129  24.888  1.00  0.00    -0.108 S 
BRANCH   7  14
ATOM     14  C   UNL A   1      44.660  24.769  29.544  1.00  0.00     0.058 C 
BRANCH  14  15
ATOM     15  C   UNL A   1      45.481  25.257  30.743  1.00  0.00     0.003 C 
ATOM     16  C   UNL A   1      45.018  24.733  32.098  1.00  0.00     0.004 C 
ENDBRANCH  14  15
ENDBRANCH   7  14
BRANCH  10  17
ATOM     17  C   UNL A   1      47.240  26.167  25.631  1.00  0.00     0.066 A 
ATOM     18  C   UNL A   1      46.576  27.157  24.894  1.00  0.00     0.032 A 
ATOM     19  C   UNL A   1      48.574  25.863  25.369  1.00  0.00     0.032 A 
ATOM     20  C   UNL A   1      47.219  27.787  23.838  1.00  0.00     0.048 A 
ATOM     21  C   UNL A   1      49.207  26.489  24.286  1.00  0.00     0.048 A 
ATOM     22  C   UNL A   1      48.527  27.439  23.511  1.00  0.00     0.119 A 
BRANCH  22  23
ATOM     23  O   UNL A   1      49.005  28.091  22.408  1.00  0.00    -0.497 OA
ATOM     24  C   UNL A   1      48.744  27.493  21.150  1.00  0.00     0.278 C 
ENDBRANCH  22  23
ENDBRANCH  10  17
ENDBRANCH   4   6
ENDBRANCH   3   4
ENDBRANCH   2   3
ENDBRANCH   1   2
BRANCH   1  25
ATOM     25  O   UNL A   1      41.217  21.642  26.311  1.00  0.00    -0.458 OA
BRANCH  25  26
ATOM     26  C   UNL A   1      40.000  22.209  26.489  1.00  0.00     0.338 C 
ATOM     27  O   UNL A   1      38.945  21.860  25.991  1.00  0.00    -0.246 OA
BRANCH  26  28
ATOM     28  C   UNL A   1      40.171  23.437  27.266  1.00  0.00     0.060 A 
ATOM     29  C   UNL A   1      39.242  24.468  27.104  1.00  0.00     0.016 A 
ATOM     30  C   UNL A   1      41.367  23.624  27.976  1.00  0.00     0.016 A 
ATOM     31  C   UNL A   1      39.575  25.731  27.557  1.00  0.00     0.010 A 
ATOM     32  C   UNL A   1      41.701  24.882  28.412  1.00  0.00     0.010 A 
ATOM     33  C   UNL A   1      40.830  25.934  28.146  1.00  0.00    -0.014 A 
BRANCH  33  34
ATOM     34  C   UNL A   1      41.165  27.246  28.672  1.00  0.00     0.031 A 
ATOM     35  C   UNL A   1      42.309  27.851  27.948  1.00  0.00     0.074 A 
ATOM     36  C   UNL A   1      40.405  27.882  29.587  1.00  0.00     0.049 A 
ATOM     37  N   UNL A   1      43.495  28.074  28.404  1.00  0.00    -0.248 NA
ATOM     38  C   UNL A   1      42.195  28.025  26.487  1.00  0.00     0.031 C 
ATOM     39  C   UNL A   1      39.135  27.425  30.163  1.00  0.00     0.029 A 
ATOM     40  N   UNL A   1      40.553  29.122  30.132  1.00  0.00    -0.354 N 
ATOM     41  C   UNL A   1      44.185  28.678  27.360  1.00  0.00     0.074 A 
ATOM     42  C   UNL A   1      43.435  28.397  26.169  1.00  0.00     0.031 C 
ATOM     43  C   UNL A   1      38.528  28.455  30.797  1.00  0.00     0.029 A 
ATOM     44  C   UNL A   1      39.421  29.602  30.796  1.00  0.00     0.049 A 
ATOM     45  H   UNL A   1      41.388  29.637  30.065  1.00  0.00     0.167 HD
ATOM     46  C   UNL A   1      45.131  29.620  27.621  1.00  0.00     0.034 A 
ATOM     47  C   UNL A   1      39.218  30.856  31.289  1.00  0.00     0.034 A 
ATOM     48  C   UNL A   1      45.558  29.536  29.001  1.00  0.00     0.049 A 
ATOM     49  C   UNL A   1      40.560  31.448  31.485  1.00  0.00     0.074 A 
ATOM     50  C   UNL A   1      46.205  28.593  29.774  1.00  0.00     0.029 A 
ATOM     51  N   UNL A   1      44.937  30.398  29.875  1.00  0.00    -0.354 N 
ATOM     52  N   UNL A   1      41.420  30.982  32.350  1.00  0.00    -0.248 NA
ATOM     53  C   UNL A   1      41.140  32.253  30.420  1.00  0.00     0.031 C 
ATOM     54  C   UNL A   1      45.621  28.705  31.072  1.00  0.00     0.029 A 
ATOM     55  C   UNL A   1      44.697  29.754  31.062  1.00  0.00     0.049 A 
ATOM     56  H   UNL A   1      44.701  31.333  29.679  1.00  0.00     0.167 HD
ATOM     57  C   UNL A   1      42.642  31.036  31.703  1.00  0.00     0.074 A 
ATOM     58  C   UNL A   1      42.435  31.966  30.594  1.00  0.00     0.031 C 
ATOM     59  C   UNL A   1      43.606  30.101  31.960  1.00  0.00     0.034 A 
BRANCH  46  60
ATOM     60  C   UNL A   1      45.311  30.890  26.808  1.00  0.00     0.023 A 
ATOM     61  C   UNL A   1      46.621  31.396  26.699  1.00  0.00     0.031 A 
ATOM     62  C   UNL A   1      44.280  31.777  26.414  1.00  0.00     0.131 A 
ATOM     63  C   UNL A   1      46.852  32.732  26.329  1.00  0.00     0.055 A 
ATOM     64  C   UNL A   1      44.521  33.085  25.990  1.00  0.00     0.041 A 
ATOM     65  F   UNL A   1      42.981  31.475  26.502  1.00  0.00    -0.206 F 
ATOM     66  C   UNL A   1      45.809  33.582  25.975  1.00  0.00     0.022 A 
BRANCH  63  67
ATOM     67  S   UNL A   1      48.531  33.393  26.487  1.00  0.00     0.124 S 
ATOM     68  O   UNL A   1      49.331  32.174  26.456  1.00  0.00    -0.237 OA
ATOM     69  O   UNL A   1      48.623  34.258  25.315  1.00  0.00    -0.237 OA
ATOM     70  O   UNL A   1      48.501  34.087  27.772  1.00  0.00    -0.744 OA
ENDBRANCH  63  67
ENDBRANCH  46  60
BRANCH  47  71
ATOM     71  C   UNL A   1      37.958  31.656  31.271  1.00  0.00     0.023 A 
ATOM     72  C   UNL A   1      37.316  32.155  32.430  1.00  0.00     0.031 A 
ATOM     73  C   UNL A   1      37.497  32.158  30.033  1.00  0.00     0.131 A 
ATOM     74  C   UNL A   1      36.269  33.107  32.314  1.00  0.00     0.055 A 
ATOM     75  C   UNL A   1      36.469  33.097  29.925  1.00  0.00     0.041 A 
ATOM     76  F   UNL A   1      38.097  31.811  28.882  1.00  0.00    -0.206 F 
ATOM     77  C   UNL A   1      35.854  33.581  31.068  1.00  0.00     0.022 A 
BRANCH  74  78
ATOM     78  S   UNL A   1      35.450  33.800  33.795  1.00  0.00     0.124 S 
ATOM     79  O   UNL A   1      35.830  35.206  33.740  1.00  0.00    -0.237 OA
ATOM     80  O   UNL A   1      34.045  33.495  33.546  1.00  0.00    -0.237 OA
ATOM     81  O   UNL A   1      36.048  33.049  34.901  1.00  0.00    -0.744 OA
ENDBRANCH  74  78
ENDBRANCH  47  71
BRANCH  59  82
ATOM     82  C   UNL A   1      43.436  29.253  33.207  1.00  0.00     0.023 A 
ATOM     83  C   UNL A   1      43.929  29.580  34.493  1.00  0.00     0.031 A 
ATOM     84  C   UNL A   1      42.665  28.085  33.084  1.00  0.00     0.131 A 
ATOM     85  C   UNL A   1      43.654  28.738  35.589  1.00  0.00     0.055 A 
ATOM     86  C   UNL A   1      42.373  27.269  34.175  1.00  0.00     0.041 A 
ATOM     87  F   UNL A   1      42.150  27.733  31.894  1.00  0.00    -0.206 F 
ATOM     88  C   UNL A   1      42.873  27.589  35.432  1.00  0.00     0.022 A 
BRANCH  85  89
ATOM     89  S   UNL A   1      44.323  29.111  37.246  1.00  0.00     0.124 S 
ATOM     90  O   UNL A   1      45.664  29.612  36.965  1.00  0.00    -0.237 OA
ATOM     91  O   UNL A   1      43.370  30.088  37.763  1.00  0.00    -0.237 OA
ATOM     92  O   UNL A   1      44.290  27.815  37.927  1.00  0.00    -0.744 OA
ENDBRANCH  85  89
ENDBRANCH  59  82
ENDBRANCH  33  34
ENDBRANCH  26  28
ENDBRANCH  25  26
ENDBRANCH   1  25
TORSDOF 18
ENDMDL
MODEL 3
REMARK VINA RESULT:     -11.3      3.371      8.864
REMARK SMILES CCCc1nn(-c2ccc(OC)cc2)c2sc(C(=O)OCCOC(=O)c3ccc(-c4c5nc(c(-c6cc(S(=O)(=O)[O-])ccc6F)c6ccc([nH]6)c(-c6cc(S(=O)(=O)[O-])ccc6F)c6nc(c(-c7cc(S(=O)(=O)[O-])ccc7F)c7ccc4[nH]7)C=C6)C=C5)cc3)cc12
REMARK SMILES IDX 22 1 21 2 20 3 18 4 19 5 17 6 4 7 5 8 90 9 6 10 15 11 89 12
REMARK SMILES IDX 16 13 3 14 2 15 1 16 7 17 8 18 14 19 9 20 13 21 10 22 11 23
REMARK SMILES IDX 12 24 23 25 24 26 25 27 26 28 27 29 88 30 28 31 87 32 29 33
REMARK SMILES IDX 30 34 31 35 81 36 32 37 86 38 80 39 82 40 33 41 85 42 79 43
REMARK SMILES IDX 78 44 34 46 66 47 46 48 65 49 47 50 50 51 64 52 83 53 48 54
REMARK SMILES IDX 49 55 63 57 84 58 51 59 35 60 36 61 44 62 37 63 43 64 45 65
REMARK SMILES IDX 42 66 38 67 39 68 40 69 41 70 67 71 68 72 76 73 69 74 75 75
REMARK SMILES IDX 77 76 74 77 70 78 71 79 72 80 73 81 52 82 53 83 61 84 54 85
REMARK SMILES IDX 60 86 62 87 59 88 55 89 56 90 57 91 58 92
REMARK H PARENT 82 45 50 56
REMARK Flexibility Score: inf
ROOT
ATOM      1  C   UNL A   1      40.622  23.262  26.932  1.00  0.00     0.275 C 
ENDROOT
BRANCH   1   2
ATOM      2  C   UNL A   1      40.290  22.036  26.097  1.00  0.00     0.275 C 
BRANCH   2   3
ATOM      3  O   UNL A   1      38.901  22.015  25.746  1.00  0.00    -0.458 OA
BRANCH   3   4
ATOM      4  C   UNL A   1      38.317  20.823  25.419  1.00  0.00     0.348 C 
ATOM      5  O   UNL A   1      38.894  19.738  25.446  1.00  0.00    -0.245 OA
BRANCH   4   6
ATOM      6  C   UNL A   1      36.919  21.024  25.074  1.00  0.00     0.115 A 
ATOM      7  C   UNL A   1      33.322  20.512  24.454  1.00  0.00     0.072 A 
ATOM      8  N   UNL A   1      32.673  21.676  24.179  1.00  0.00    -0.171 NA
ATOM      9  C   UNL A   1      34.680  20.779  24.668  1.00  0.00     0.036 A 
ATOM     10  N   UNL A   1      33.658  22.623  24.129  1.00  0.00    -0.223 N 
ATOM     11  C   UNL A   1      34.854  22.080  24.456  1.00  0.00     0.128 A 
ATOM     12  C   UNL A   1      35.859  20.102  25.003  1.00  0.00     0.040 A 
ATOM     13  S   UNL A   1      36.384  22.642  24.724  1.00  0.00    -0.108 S 
BRANCH   7  14
ATOM     14  C   UNL A   1      32.612  19.195  24.407  1.00  0.00     0.058 C 
BRANCH  14  15
ATOM     15  C   UNL A   1      32.844  18.320  23.169  1.00  0.00     0.003 C 
ATOM     16  C   UNL A   1      33.942  17.273  23.316  1.00  0.00     0.004 C 
ENDBRANCH  14  15
ENDBRANCH   7  14
BRANCH  10  17
ATOM     17  C   UNL A   1      33.450  23.972  23.781  1.00  0.00     0.066 A 
ATOM     18  C   UNL A   1      33.248  24.290  22.431  1.00  0.00     0.032 A 
ATOM     19  C   UNL A   1      33.632  24.979  24.726  1.00  0.00     0.032 A 
ATOM     20  C   UNL A   1      33.311  25.610  22.010  1.00  0.00     0.048 A 
ATOM     21  C   UNL A   1      33.715  26.309  24.287  1.00  0.00     0.048 A 
ATOM     22  C   UNL A   1      33.571  26.623  22.928  1.00  0.00     0.119 A 
BRANCH  22  23
ATOM     23  O   UNL A   1      33.671  27.863  22.359  1.00  0.00    -0.497 OA
ATOM     24  C   UNL A   1      33.061  28.936  23.056  1.00  0.00     0.278 C 
ENDBRANCH  22  23
ENDBRANCH  10  17
ENDBRANCH   4   6
ENDBRANCH   3   4
ENDBRANCH   2   3
ENDBRANCH   1   2
BRANCH   1  25
ATOM     25  O   UNL A   1      39.754  24.343  26.610  1.00  0.00    -0.458 OA
BRANCH  25  26
ATOM     26  C   UNL A   1      40.363  25.456  26.138  1.00  0.00     0.338 C 
ATOM     27  O   UNL A   1      41.113  25.535  25.181  1.00  0.00    -0.246 OA
BRANCH  26  28
ATOM     28  C   UNL A   1      40.107  26.556  27.069  1.00  0.00     0.060 A 
ATOM     29  C   UNL A   1      40.535  27.839  26.723  1.00  0.00     0.016 A 
ATOM     30  C   UNL A   1      39.641  26.252  28.357  1.00  0.00     0.016 A 
ATOM     31  C   UNL A   1      40.608  28.798  27.717  1.00  0.00     0.010 A 
ATOM     32  C   UNL A   1      39.729  27.201  29.344  1.00  0.00     0.010 A 
ATOM     33  C   UNL A   1      40.266  28.445  29.029  1.00  0.00    -0.014 A 
BRANCH  33  34
ATOM     34  C   UNL A   1      40.290  29.461  30.068  1.00  0.00     0.031 A 
ATOM     35  C   UNL A   1      39.010  30.206  30.135  1.00  0.00     0.074 A 
ATOM     36  C   UNL A   1      41.298  29.572  30.958  1.00  0.00     0.049 A 
ATOM     37  N   UNL A   1      38.807  31.442  29.827  1.00  0.00    -0.248 NA
ATOM     38  C   UNL A   1      37.769  29.440  30.356  1.00  0.00     0.031 C 
ATOM     39  C   UNL A   1      42.478  28.708  31.079  1.00  0.00     0.029 A 
ATOM     40  N   UNL A   1      41.441  30.424  32.010  1.00  0.00    -0.354 N 
ATOM     41  C   UNL A   1      37.462  31.673  30.090  1.00  0.00     0.074 A 
ATOM     42  C   UNL A   1      36.843  30.380  30.168  1.00  0.00     0.031 C 
ATOM     43  C   UNL A   1      43.091  28.942  32.263  1.00  0.00     0.029 A 
ATOM     44  C   UNL A   1      42.437  30.061  32.920  1.00  0.00     0.049 A 
ATOM     45  H   UNL A   1      40.888  31.231  32.121  1.00  0.00     0.167 HD
ATOM     46  C   UNL A   1      37.051  32.891  30.537  1.00  0.00     0.034 A 
ATOM     47  C   UNL A   1      42.694  30.620  34.136  1.00  0.00     0.034 A 
ATOM     48  C   UNL A   1      38.059  33.892  30.265  1.00  0.00     0.049 A 
ATOM     49  C   UNL A   1      42.117  31.983  34.098  1.00  0.00     0.074 A 
ATOM     50  C   UNL A   1      38.622  34.437  29.128  1.00  0.00     0.029 A 
ATOM     51  N   UNL A   1      38.920  34.174  31.300  1.00  0.00    -0.354 N 
ATOM     52  N   UNL A   1      42.561  32.916  33.301  1.00  0.00    -0.248 NA
ATOM     53  C   UNL A   1      40.763  32.191  34.589  1.00  0.00     0.031 C 
ATOM     54  C   UNL A   1      39.987  34.685  29.465  1.00  0.00     0.029 A 
ATOM     55  C   UNL A   1      40.188  34.351  30.807  1.00  0.00     0.049 A 
ATOM     56  H   UNL A   1      38.666  34.238  32.248  1.00  0.00     0.167 HD
ATOM     57  C   UNL A   1      41.425  33.557  32.836  1.00  0.00     0.074 A 
ATOM     58  C   UNL A   1      40.373  33.179  33.777  1.00  0.00     0.031 C 
ATOM     59  C   UNL A   1      41.395  34.089  31.577  1.00  0.00     0.034 A 
BRANCH  46  60
ATOM     60  C   UNL A   1      36.004  33.089  31.617  1.00  0.00     0.023 A 
ATOM     61  C   UNL A   1      34.875  33.860  31.276  1.00  0.00     0.031 A 
ATOM     62  C   UNL A   1      36.181  32.847  33.001  1.00  0.00     0.131 A 
ATOM     63  C   UNL A   1      34.062  34.433  32.270  1.00  0.00     0.055 A 
ATOM     64  C   UNL A   1      35.335  33.371  33.981  1.00  0.00     0.041 A 
ATOM     65  F   UNL A   1      37.225  32.177  33.500  1.00  0.00    -0.206 F 
ATOM     66  C   UNL A   1      34.286  34.195  33.622  1.00  0.00     0.022 A 
BRANCH  63  67
ATOM     67  S   UNL A   1      32.809  35.640  31.769  1.00  0.00     0.124 S 
ATOM     68  O   UNL A   1      33.485  36.900  32.053  1.00  0.00    -0.237 OA
ATOM     69  O   UNL A   1      32.620  35.308  30.361  1.00  0.00    -0.237 OA
ATOM     70  O   UNL A   1      31.677  35.331  32.639  1.00  0.00    -0.744 OA
ENDBRANCH  63  67
ENDBRANCH  46  60
BRANCH  47  71
ATOM     71  C   UNL A   1      43.096  29.929  35.397  1.00  0.00     0.023 A 
ATOM     72  C   UNL A   1      42.715  28.608  35.735  1.00  0.00     0.031 A 
ATOM     73  C   UNL A   1      44.106  30.515  36.193  1.00  0.00     0.131 A 
ATOM     74  C   UNL A   1      43.337  27.941  36.824  1.00  0.00     0.055 A 
ATOM     75  C   UNL A   1      44.716  29.853  37.260  1.00  0.00     0.041 A 
ATOM     76  F   UNL A   1      44.596  31.731  35.900  1.00  0.00    -0.206 F 
ATOM     77  C   UNL A   1      44.339  28.558  37.577  1.00  0.00     0.022 A 
BRANCH  74  78
ATOM     78  S   UNL A   1      42.895  26.221  37.258  1.00  0.00     0.124 S 
ATOM     79  O   UNL A   1      43.022  25.528  35.982  1.00  0.00    -0.237 OA
ATOM     80  O   UNL A   1      43.885  25.893  38.278  1.00  0.00    -0.237 OA
ATOM     81  O   UNL A   1      41.522  26.334  37.756  1.00  0.00    -0.744 OA
ENDBRANCH  74  78
ENDBRANCH  47  71
BRANCH  59  82
ATOM     82  C   UNL A   1      42.724  34.276  30.869  1.00  0.00     0.023 A 
ATOM     83  C   UNL A   1      43.236  33.438  29.850  1.00  0.00     0.031 A 
ATOM     84  C   UNL A   1      43.471  35.417  31.208  1.00  0.00     0.131 A 
ATOM     85  C   UNL A   1      44.460  33.752  29.227  1.00  0.00     0.055 A 
ATOM     86  C   UNL A   1      44.668  35.739  30.570  1.00  0.00     0.041 A 
ATOM     87  F   UNL A   1      43.027  36.265  32.151  1.00  0.00    -0.206 F 
ATOM     88  C   UNL A   1      45.171  34.903  29.581  1.00  0.00     0.022 A 
BRANCH  85  89
ATOM     89  S   UNL A   1      45.166  32.657  27.948  1.00  0.00     0.124 S 
ATOM     90  O   UNL A   1      45.447  33.565  26.842  1.00  0.00    -0.237 OA
ATOM     91  O   UNL A   1      46.329  32.088  28.621  1.00  0.00    -0.237 OA
ATOM     92  O   UNL A   1      44.090  31.699  27.687  1.00  0.00    -0.744 OA
ENDBRANCH  85  89
ENDBRANCH  59  82
ENDBRANCH  33  34
ENDBRANCH  26  28
ENDBRANCH  25  26
ENDBRANCH   1  25
TORSDOF 18
ENDMDL
