MODEL 1
REMARK VINA RESULT:     -11.5      0.000      0.000
REMARK SMILES [NH3+]C[C@H]1CC[C@@H](C(=O)N[C@@H]2C=C[C@@H](C(=O)OCCOC(=O)c3ccc(-c4c5nc(c(-c6cc(S(=O)(=O)[O-])ccc6F)c6ccc([nH]6)c(-c6cc(S(=O)(=O)[O-])ccc6F)c6nc(c(-c7cc(S(=O)(=O)[O-])ccc7F)c7ccc4[nH]7)C=C6)C=C5)cc3)C2)CC1
REMARK SMILES IDX 17 1 16 2 14 3 15 4 13 5 10 6 11 7 85 8 12 9 9 10 7 11 8 12
REMARK SMILES IDX 6 14 3 15 4 16 87 17 5 18 86 19 2 20 1 21 18 25 19 26 20 27
REMARK SMILES IDX 21 28 22 29 23 30 84 31 24 32 83 33 25 34 26 35 27 36 77 37
REMARK SMILES IDX 28 38 82 39 76 40 78 41 29 42 81 43 75 44 74 45 30 47 62 48
REMARK SMILES IDX 42 49 61 50 43 51 46 52 60 53 79 54 44 55 45 56 59 58 80 59
REMARK SMILES IDX 47 60 31 61 32 62 40 63 33 64 39 65 41 66 38 67 34 68 35 69
REMARK SMILES IDX 36 70 37 71 63 72 64 73 72 74 65 75 71 76 73 77 70 78 66 79
REMARK SMILES IDX 67 80 68 81 69 82 48 83 49 84 57 85 50 86 56 87 58 88 55 89
REMARK SMILES IDX 51 90 52 91 53 92 54 93
REMARK H PARENT 9 13 1 22 1 23 1 24 78 46 46 57
REMARK Flexibility Score: inf
ROOT
ATOM      1  C   UNL A   1      34.721  21.106  25.364  1.00  0.00     0.274 C 
ENDROOT
BRANCH   1   2
ATOM      2  O   UNL A   1      34.155  21.785  24.226  1.00  0.00    -0.462 OA
BRANCH   2   3
ATOM      3  C   UNL A   1      33.238  22.751  24.503  1.00  0.00     0.312 C 
ATOM      4  O   UNL A   1      32.171  22.877  23.914  1.00  0.00    -0.252 OA
BRANCH   3   5
ATOM      5  C   UNL A   1      33.643  23.606  25.710  1.00  0.00     0.124 C 
ATOM      6  C   UNL A   1      33.397  26.027  25.510  1.00  0.00     0.106 C 
ATOM      7  C   UNL A   1      32.325  25.441  26.365  1.00  0.00    -0.006 C 
ATOM      8  C   UNL A   1      34.426  24.902  25.427  1.00  0.00     0.048 C 
ATOM      9  C   UNL A   1      32.439  24.112  26.449  1.00  0.00    -0.014 C 
BRANCH   6  10
ATOM     10  N   UNL A   1      33.892  27.234  26.103  1.00  0.00    -0.350 N 
ATOM     11  C   UNL A   1      33.841  28.528  25.709  1.00  0.00     0.223 C 
ATOM     12  O   UNL A   1      34.285  29.358  26.513  1.00  0.00    -0.275 OA
ATOM     13  H   UNL A   1      34.359  27.096  26.958  1.00  0.00     0.164 HD
BRANCH  11  14
ATOM     14  C   UNL A   1      33.258  29.030  24.377  1.00  0.00     0.078 C 
ATOM     15  C   UNL A   1      31.774  27.256  22.427  1.00  0.00     0.044 C 
ATOM     16  C   UNL A   1      31.096  27.812  23.694  1.00  0.00     0.010 C 
ATOM     17  C   UNL A   1      33.315  27.358  22.395  1.00  0.00     0.010 C 
ATOM     18  C   UNL A   1      31.739  29.055  24.286  1.00  0.00     0.014 C 
ATOM     19  C   UNL A   1      33.934  28.560  23.093  1.00  0.00     0.014 C 
BRANCH  15  20
ATOM     20  C   UNL A   1      31.387  25.777  22.158  1.00  0.00     0.262 C 
BRANCH  20  21
ATOM     21  N   UNL A   1      32.464  24.937  21.652  1.00  0.00    -0.357 N 
ATOM     22  H   UNL A   1      32.555  24.108  22.239  1.00  0.00     0.344 HD
ATOM     23  H   UNL A   1      33.339  25.462  21.666  1.00  0.00     0.344 HD
ATOM     24  H   UNL A   1      32.253  24.653  20.695  1.00  0.00     0.344 HD
ENDBRANCH  20  21
ENDBRANCH  15  20
ENDBRANCH  11  14
ENDBRANCH   6  10
ENDBRANCH   3   5
ENDBRANCH   2   3
ENDBRANCH   1   2
BRANCH   1  25
ATOM     25  C   UNL A   1      36.176  20.745  25.057  1.00  0.00     0.275 C 
BRANCH  25  26
ATOM     26  O   UNL A   1      37.041  21.648  25.770  1.00  0.00    -0.458 OA
BRANCH  26  27
ATOM     27  C   UNL A   1      38.330  21.246  25.888  1.00  0.00     0.338 C 
ATOM     28  O   UNL A   1      38.822  20.196  25.519  1.00  0.00    -0.246 OA
BRANCH  27  29
ATOM     29  C   UNL A   1      39.111  22.379  26.403  1.00  0.00     0.060 A 
ATOM     30  C   UNL A   1      38.704  23.663  26.044  1.00  0.00     0.016 A 
ATOM     31  C   UNL A   1      40.250  22.191  27.178  1.00  0.00     0.016 A 
ATOM     32  C   UNL A   1      39.434  24.776  26.443  1.00  0.00     0.010 A 
ATOM     33  C   UNL A   1      40.960  23.312  27.622  1.00  0.00     0.010 A 
ATOM     34  C   UNL A   1      40.558  24.613  27.258  1.00  0.00    -0.014 A 
BRANCH  34  35
ATOM     35  C   UNL A   1      41.320  25.799  27.722  1.00  0.00     0.031 A 
ATOM     36  C   UNL A   1      40.640  26.840  28.563  1.00  0.00     0.074 A 
ATOM     37  C   UNL A   1      42.617  25.939  27.385  1.00  0.00     0.049 A 
ATOM     38  N   UNL A   1      41.056  28.031  28.903  1.00  0.00    -0.248 NA
ATOM     39  C   UNL A   1      39.309  26.492  29.082  1.00  0.00     0.031 C 
ATOM     40  C   UNL A   1      43.406  24.959  26.635  1.00  0.00     0.029 A 
ATOM     41  N   UNL A   1      43.500  26.965  27.619  1.00  0.00    -0.354 N 
ATOM     42  C   UNL A   1      40.025  28.594  29.648  1.00  0.00     0.074 A 
ATOM     43  C   UNL A   1      38.961  27.613  29.698  1.00  0.00     0.031 C 
ATOM     44  C   UNL A   1      44.653  25.430  26.472  1.00  0.00     0.029 A 
ATOM     45  C   UNL A   1      44.728  26.776  27.027  1.00  0.00     0.049 A 
ATOM     46  H   UNL A   1      43.276  27.758  28.157  1.00  0.00     0.167 HD
ATOM     47  C   UNL A   1      39.977  29.819  30.227  1.00  0.00     0.034 A 
ATOM     48  C   UNL A   1      45.774  27.616  26.892  1.00  0.00     0.034 A 
ATOM     49  C   UNL A   1      41.059  30.772  30.172  1.00  0.00     0.049 A 
ATOM     50  C   UNL A   1      45.656  29.010  27.452  1.00  0.00     0.074 A 
ATOM     51  C   UNL A   1      41.129  32.034  30.738  1.00  0.00     0.029 A 
ATOM     52  N   UNL A   1      42.260  30.572  29.505  1.00  0.00    -0.354 N 
ATOM     53  N   UNL A   1      44.659  29.552  28.111  1.00  0.00    -0.248 NA
ATOM     54  C   UNL A   1      46.795  29.910  27.230  1.00  0.00     0.031 C 
ATOM     55  C   UNL A   1      42.343  32.619  30.358  1.00  0.00     0.029 A 
ATOM     56  C   UNL A   1      43.060  31.700  29.610  1.00  0.00     0.049 A 
ATOM     57  H   UNL A   1      42.508  29.748  29.025  1.00  0.00     0.167 HD
ATOM     58  C   UNL A   1      45.054  30.857  28.388  1.00  0.00     0.074 A 
ATOM     59  C   UNL A   1      46.388  31.012  27.843  1.00  0.00     0.031 C 
ATOM     60  C   UNL A   1      44.376  31.842  29.032  1.00  0.00     0.034 A 
BRANCH  47  61
ATOM     61  C   UNL A   1      38.687  30.215  30.903  1.00  0.00     0.023 A 
ATOM     62  C   UNL A   1      37.674  30.917  30.227  1.00  0.00     0.031 A 
ATOM     63  C   UNL A   1      38.486  29.913  32.262  1.00  0.00     0.131 A 
ATOM     64  C   UNL A   1      36.539  31.351  30.928  1.00  0.00     0.055 A 
ATOM     65  C   UNL A   1      37.321  30.284  32.936  1.00  0.00     0.041 A 
ATOM     66  F   UNL A   1      39.428  29.264  32.963  1.00  0.00    -0.206 F 
ATOM     67  C   UNL A   1      36.345  31.021  32.272  1.00  0.00     0.022 A 
BRANCH  64  68
ATOM     68  S   UNL A   1      35.380  32.472  30.096  1.00  0.00     0.124 S 
ATOM     69  O   UNL A   1      34.309  32.575  31.085  1.00  0.00    -0.237 OA
ATOM     70  O   UNL A   1      36.187  33.669  29.898  1.00  0.00    -0.237 OA
ATOM     71  O   UNL A   1      35.023  31.750  28.875  1.00  0.00    -0.744 OA
ENDBRANCH  64  68
ENDBRANCH  47  61
BRANCH  48  72
ATOM     72  C   UNL A   1      46.979  27.201  26.119  1.00  0.00     0.023 A 
ATOM     73  C   UNL A   1      47.179  27.626  24.797  1.00  0.00     0.031 A 
ATOM     74  C   UNL A   1      47.937  26.338  26.686  1.00  0.00     0.131 A 
ATOM     75  C   UNL A   1      48.293  27.166  24.077  1.00  0.00     0.055 A 
ATOM     76  C   UNL A   1      49.068  25.925  25.983  1.00  0.00     0.041 A 
ATOM     77  F   UNL A   1      47.792  25.896  27.946  1.00  0.00    -0.206 F 
ATOM     78  C   UNL A   1      49.246  26.331  24.665  1.00  0.00     0.022 A 
BRANCH  75  79
ATOM     79  S   UNL A   1      48.444  27.620  22.326  1.00  0.00     0.124 S 
ATOM     80  O   UNL A   1      47.213  28.372  22.107  1.00  0.00    -0.237 OA
ATOM     81  O   UNL A   1      49.680  28.394  22.320  1.00  0.00    -0.237 OA
ATOM     82  O   UNL A   1      48.517  26.329  21.646  1.00  0.00    -0.744 OA
ENDBRANCH  75  79
ENDBRANCH  48  72
BRANCH  60  83
ATOM     83  C   UNL A   1      45.087  33.160  29.188  1.00  0.00     0.023 A 
ATOM     84  C   UNL A   1      44.883  34.214  28.280  1.00  0.00     0.031 A 
ATOM     85  C   UNL A   1      45.987  33.360  30.249  1.00  0.00     0.131 A 
ATOM     86  C   UNL A   1      45.606  35.406  28.423  1.00  0.00     0.055 A 
ATOM     87  C   UNL A   1      46.664  34.568  30.416  1.00  0.00     0.041 A 
ATOM     88  F   UNL A   1      46.218  32.385  31.141  1.00  0.00    -0.206 F 
ATOM     89  C   UNL A   1      46.484  35.596  29.494  1.00  0.00     0.022 A 
BRANCH  86  90
ATOM     90  S   UNL A   1      45.435  36.688  27.150  1.00  0.00     0.124 S 
ATOM     91  O   UNL A   1      46.412  36.257  26.155  1.00  0.00    -0.237 OA
ATOM     92  O   UNL A   1      44.033  36.562  26.764  1.00  0.00    -0.237 OA
ATOM     93  O   UNL A   1      45.772  37.921  27.859  1.00  0.00    -0.744 OA
ENDBRANCH  86  90
ENDBRANCH  60  83
ENDBRANCH  34  35
ENDBRANCH  27  29
ENDBRANCH  26  27
ENDBRANCH  25  26
ENDBRANCH   1  25
TORSDOF 18
ENDMDL
MODEL 2
REMARK VINA RESULT:     -11.3      3.857      6.564
REMARK SMILES [NH3+]C[C@H]1CC[C@@H](C(=O)N[C@@H]2C=C[C@@H](C(=O)OCCOC(=O)c3ccc(-c4c5nc(c(-c6cc(S(=O)(=O)[O-])ccc6F)c6ccc([nH]6)c(-c6cc(S(=O)(=O)[O-])ccc6F)c6nc(c(-c7cc(S(=O)(=O)[O-])ccc7F)c7ccc4[nH]7)C=C6)C=C5)cc3)C2)CC1
REMARK SMILES IDX 17 1 16 2 14 3 15 4 13 5 10 6 11 7 85 8 12 9 9 10 7 11 8 12
REMARK SMILES IDX 6 14 3 15 4 16 87 17 5 18 86 19 2 20 1 21 18 25 19 26 20 27
REMARK SMILES IDX 21 28 22 29 23 30 84 31 24 32 83 33 25 34 26 35 27 36 77 37
REMARK SMILES IDX 28 38 82 39 76 40 78 41 29 42 81 43 75 44 74 45 30 47 62 48
REMARK SMILES IDX 42 49 61 50 43 51 46 52 60 53 79 54 44 55 45 56 59 58 80 59
REMARK SMILES IDX 47 60 31 61 32 62 40 63 33 64 39 65 41 66 38 67 34 68 35 69
REMARK SMILES IDX 36 70 37 71 63 72 64 73 72 74 65 75 71 76 73 77 70 78 66 79
REMARK SMILES IDX 67 80 68 81 69 82 48 83 49 84 57 85 50 86 56 87 58 88 55 89
REMARK SMILES IDX 51 90 52 91 53 92 54 93
REMARK H PARENT 9 13 1 22 1 23 1 24 78 46 46 57
REMARK Flexibility Score: inf
ROOT
ATOM      1  C   UNL A   1      41.234  19.478  26.368  1.00  0.00     0.274 C 
ENDROOT
BRANCH   1   2
ATOM      2  O   UNL A   1      42.176  19.427  25.277  1.00  0.00    -0.462 OA
BRANCH   2   3
ATOM      3  C   UNL A   1      43.349  18.785  25.531  1.00  0.00     0.312 C 
ATOM      4  O   UNL A   1      43.502  17.960  26.424  1.00  0.00    -0.252 OA
BRANCH   3   5
ATOM      5  C   UNL A   1      44.434  19.132  24.504  1.00  0.00     0.124 C 
ATOM      6  C   UNL A   1      45.660  21.219  24.823  1.00  0.00     0.106 C 
ATOM      7  C   UNL A   1      46.488  20.039  25.204  1.00  0.00    -0.006 C 
ATOM      8  C   UNL A   1      44.515  20.595  24.030  1.00  0.00     0.048 C 
ATOM      9  C   UNL A   1      45.807  18.898  25.062  1.00  0.00    -0.014 C 
BRANCH   6  10
ATOM     10  N   UNL A   1      46.450  22.153  24.078  1.00  0.00    -0.350 N 
ATOM     11  C   UNL A   1      46.609  23.493  24.178  1.00  0.00     0.223 C 
ATOM     12  O   UNL A   1      47.460  23.997  23.432  1.00  0.00    -0.275 OA
ATOM     13  H   UNL A   1      46.978  21.742  23.355  1.00  0.00     0.164 HD
BRANCH  11  14
ATOM     14  C   UNL A   1      45.847  24.410  25.149  1.00  0.00     0.078 C 
ATOM     15  C   UNL A   1      43.803  23.403  27.141  1.00  0.00     0.044 C 
ATOM     16  C   UNL A   1      45.317  23.281  27.401  1.00  0.00     0.010 C 
ATOM     17  C   UNL A   1      43.401  23.732  25.686  1.00  0.00     0.010 C 
ATOM     18  C   UNL A   1      46.193  24.248  26.623  1.00  0.00     0.014 C 
ATOM     19  C   UNL A   1      44.356  24.616  24.897  1.00  0.00     0.014 C 
BRANCH  15  20
ATOM     20  C   UNL A   1      43.031  22.128  27.574  1.00  0.00     0.262 C 
BRANCH  20  21
ATOM     21  N   UNL A   1      42.997  21.883  29.010  1.00  0.00    -0.357 N 
ATOM     22  H   UNL A   1      42.797  20.898  29.182  1.00  0.00     0.344 HD
ATOM     23  H   UNL A   1      42.270  22.458  29.435  1.00  0.00     0.344 HD
ATOM     24  H   UNL A   1      43.901  22.122  29.417  1.00  0.00     0.344 HD
ENDBRANCH  20  21
ENDBRANCH  15  20
ENDBRANCH  11  14
ENDBRANCH   6  10
ENDBRANCH   3   5
ENDBRANCH   2   3
ENDBRANCH   1   2
BRANCH   1  25
ATOM     25  C   UNL A   1      39.989  20.242  25.916  1.00  0.00     0.275 C 
BRANCH  25  26
ATOM     26  O   UNL A   1      39.812  21.390  26.767  1.00  0.00    -0.458 OA
BRANCH  26  27
ATOM     27  C   UNL A   1      39.161  22.436  26.203  1.00  0.00     0.338 C 
ATOM     28  O   UNL A   1      38.229  22.403  25.421  1.00  0.00    -0.246 OA
BRANCH  27  29
ATOM     29  C   UNL A   1      39.663  23.669  26.825  1.00  0.00     0.060 A 
ATOM     30  C   UNL A   1      39.799  24.795  26.014  1.00  0.00     0.016 A 
ATOM     31  C   UNL A   1      40.043  23.712  28.162  1.00  0.00     0.016 A 
ATOM     32  C   UNL A   1      40.328  25.975  26.522  1.00  0.00     0.010 A 
ATOM     33  C   UNL A   1      40.530  24.914  28.689  1.00  0.00     0.010 A 
ATOM     34  C   UNL A   1      40.677  26.054  27.874  1.00  0.00    -0.014 A 
BRANCH  34  35
ATOM     35  C   UNL A   1      41.204  27.323  28.434  1.00  0.00     0.031 A 
ATOM     36  C   UNL A   1      40.252  28.363  28.950  1.00  0.00     0.074 A 
ATOM     37  C   UNL A   1      42.533  27.539  28.474  1.00  0.00     0.049 A 
ATOM     38  N   UNL A   1      40.485  29.602  29.292  1.00  0.00    -0.248 NA
ATOM     39  C   UNL A   1      38.848  27.949  29.091  1.00  0.00     0.031 C 
ATOM     40  C   UNL A   1      43.559  26.575  28.072  1.00  0.00     0.029 A 
ATOM     41  N   UNL A   1      43.252  28.643  28.863  1.00  0.00    -0.354 N 
ATOM     42  C   UNL A   1      39.252  30.133  29.656  1.00  0.00     0.074 A 
ATOM     43  C   UNL A   1      38.274  29.079  29.482  1.00  0.00     0.031 C 
ATOM     44  C   UNL A   1      44.771  27.128  28.235  1.00  0.00     0.029 A 
ATOM     45  C   UNL A   1      44.608  28.511  28.670  1.00  0.00     0.049 A 
ATOM     46  H   UNL A   1      42.837  29.451  29.244  1.00  0.00     0.167 HD
ATOM     47  C   UNL A   1      38.970  31.387  30.088  1.00  0.00     0.034 A 
ATOM     48  C   UNL A   1      45.600  29.417  28.771  1.00  0.00     0.034 A 
ATOM     49  C   UNL A   1      39.967  32.414  30.266  1.00  0.00     0.049 A 
ATOM     50  C   UNL A   1      45.249  30.832  29.151  1.00  0.00     0.074 A 
ATOM     51  C   UNL A   1      39.800  33.712  30.718  1.00  0.00     0.029 A 
ATOM     52  N   UNL A   1      41.321  32.263  29.994  1.00  0.00    -0.354 N 
ATOM     53  N   UNL A   1      44.074  31.339  29.445  1.00  0.00    -0.248 NA
ATOM     54  C   UNL A   1      46.352  31.800  29.190  1.00  0.00     0.031 C 
ATOM     55  C   UNL A   1      41.039  34.362  30.655  1.00  0.00     0.029 A 
ATOM     56  C   UNL A   1      41.993  33.453  30.227  1.00  0.00     0.049 A 
ATOM     57  H   UNL A   1      41.743  31.430  29.679  1.00  0.00     0.167 HD
ATOM     58  C   UNL A   1      44.299  32.686  29.710  1.00  0.00     0.074 A 
ATOM     59  C   UNL A   1      45.724  32.906  29.562  1.00  0.00     0.031 C 
ATOM     60  C   UNL A   1      43.410  33.656  30.044  1.00  0.00     0.034 A 
BRANCH  47  61
ATOM     61  C   UNL A   1      37.519  31.727  30.327  1.00  0.00     0.023 A 
ATOM     62  C   UNL A   1      36.697  32.247  29.313  1.00  0.00     0.031 A 
ATOM     63  C   UNL A   1      36.960  31.558  31.607  1.00  0.00     0.131 A 
ATOM     64  C   UNL A   1      35.385  32.643  29.612  1.00  0.00     0.055 A 
ATOM     65  C   UNL A   1      35.632  31.886  31.881  1.00  0.00     0.041 A 
ATOM     66  F   UNL A   1      37.704  31.086  32.620  1.00  0.00    -0.206 F 
ATOM     67  C   UNL A   1      34.839  32.446  30.884  1.00  0.00     0.022 A 
BRANCH  64  68
ATOM     68  S   UNL A   1      34.441  33.547  28.353  1.00  0.00     0.124 S 
ATOM     69  O   UNL A   1      35.482  33.862  27.377  1.00  0.00    -0.237 OA
ATOM     70  O   UNL A   1      33.449  32.563  27.937  1.00  0.00    -0.237 OA
ATOM     71  O   UNL A   1      33.912  34.698  29.082  1.00  0.00    -0.744 OA
ENDBRANCH  64  68
ENDBRANCH  47  61
BRANCH  48  72
ATOM     72  C   UNL A   1      47.000  29.045  28.417  1.00  0.00     0.023 A 
ATOM     73  C   UNL A   1      47.356  28.714  27.101  1.00  0.00     0.031 A 
ATOM     74  C   UNL A   1      48.000  28.981  29.407  1.00  0.00     0.131 A 
ATOM     75  C   UNL A   1      48.669  28.308  26.814  1.00  0.00     0.055 A 
ATOM     76  C   UNL A   1      49.315  28.627  29.106  1.00  0.00     0.041 A 
ATOM     77  F   UNL A   1      47.713  29.283  30.683  1.00  0.00    -0.206 F 
ATOM     78  C   UNL A   1      49.654  28.276  27.804  1.00  0.00     0.022 A 
BRANCH  75  79
ATOM     79  S   UNL A   1      49.058  27.749  25.132  1.00  0.00     0.124 S 
ATOM     80  O   UNL A   1      50.269  28.508  24.839  1.00  0.00    -0.237 OA
ATOM     81  O   UNL A   1      49.229  26.313  25.322  1.00  0.00    -0.237 OA
ATOM     82  O   UNL A   1      47.877  28.137  24.364  1.00  0.00    -0.744 OA
ENDBRANCH  75  79
ENDBRANCH  48  72
BRANCH  60  83
ATOM     83  C   UNL A   1      43.972  35.033  30.284  1.00  0.00     0.023 A 
ATOM     84  C   UNL A   1      44.041  35.985  29.252  1.00  0.00     0.031 A 
ATOM     85  C   UNL A   1      44.454  35.391  31.555  1.00  0.00     0.131 A 
ATOM     86  C   UNL A   1      44.624  37.237  29.498  1.00  0.00     0.055 A 
ATOM     87  C   UNL A   1      44.986  36.656  31.806  1.00  0.00     0.041 A 
ATOM     88  F   UNL A   1      44.412  34.517  32.572  1.00  0.00    -0.206 F 
ATOM     89  C   UNL A   1      45.083  37.584  30.772  1.00  0.00     0.022 A 
BRANCH  86  90
ATOM     90  S   UNL A   1      44.837  38.387  28.111  1.00  0.00     0.124 S 
ATOM     91  O   UNL A   1      46.283  38.355  27.912  1.00  0.00    -0.237 OA
ATOM     92  O   UNL A   1      44.035  37.766  27.062  1.00  0.00    -0.237 OA
ATOM     93  O   UNL A   1      44.309  39.648  28.628  1.00  0.00    -0.744 OA
ENDBRANCH  86  90
ENDBRANCH  60  83
ENDBRANCH  34  35
ENDBRANCH  27  29
ENDBRANCH  26  27
ENDBRANCH  25  26
ENDBRANCH   1  25
TORSDOF 18
ENDMDL
MODEL 3
REMARK VINA RESULT:     -11.3      1.637      2.210
REMARK SMILES [NH3+]C[C@H]1CC[C@@H](C(=O)N[C@@H]2C=C[C@@H](C(=O)OCCOC(=O)c3ccc(-c4c5nc(c(-c6cc(S(=O)(=O)[O-])ccc6F)c6ccc([nH]6)c(-c6cc(S(=O)(=O)[O-])ccc6F)c6nc(c(-c7cc(S(=O)(=O)[O-])ccc7F)c7ccc4[nH]7)C=C6)C=C5)cc3)C2)CC1
REMARK SMILES IDX 17 1 16 2 14 3 15 4 13 5 10 6 11 7 85 8 12 9 9 10 7 11 8 12
REMARK SMILES IDX 6 14 3 15 4 16 87 17 5 18 86 19 2 20 1 21 18 25 19 26 20 27
REMARK SMILES IDX 21 28 22 29 23 30 84 31 24 32 83 33 25 34 26 35 27 36 77 37
REMARK SMILES IDX 28 38 82 39 76 40 78 41 29 42 81 43 75 44 74 45 30 47 62 48
REMARK SMILES IDX 42 49 61 50 43 51 46 52 60 53 79 54 44 55 45 56 59 58 80 59
REMARK SMILES IDX 47 60 31 61 32 62 40 63 33 64 39 65 41 66 38 67 34 68 35 69
REMARK SMILES IDX 36 70 37 71 63 72 64 73 72 74 65 75 71 76 73 77 70 78 66 79
REMARK SMILES IDX 67 80 68 81 69 82 48 83 49 84 57 85 50 86 56 87 58 88 55 89
REMARK SMILES IDX 51 90 52 91 53 92 54 93
REMARK H PARENT 9 13 1 22 1 23 1 24 78 46 46 57
REMARK Flexibility Score: inf
ROOT
ATOM      1  C   UNL A   1      34.967  20.738  25.374  1.00  0.00     0.274 C 
ENDROOT
BRANCH   1   2
ATOM      2  O   UNL A   1      34.269  21.218  24.207  1.00  0.00    -0.462 OA
BRANCH   2   3
ATOM      3  C   UNL A   1      33.615  22.402  24.349  1.00  0.00     0.312 C 
ATOM      4  O   UNL A   1      32.466  22.509  24.762  1.00  0.00    -0.252 OA
BRANCH   3   5
ATOM      5  C   UNL A   1      34.514  23.603  24.032  1.00  0.00     0.124 C 
ATOM      6  C   UNL A   1      33.492  25.820  24.082  1.00  0.00     0.106 C 
ATOM      7  C   UNL A   1      34.338  25.585  25.286  1.00  0.00    -0.006 C 
ATOM      8  C   UNL A   1      33.927  24.707  23.132  1.00  0.00     0.048 C 
ATOM      9  C   UNL A   1      34.873  24.360  25.277  1.00  0.00    -0.014 C 
BRANCH   6  10
ATOM     10  N   UNL A   1      33.712  27.143  23.578  1.00  0.00    -0.350 N 
ATOM     11  C   UNL A   1      32.983  28.280  23.657  1.00  0.00     0.223 C 
ATOM     12  O   UNL A   1      33.511  29.298  23.192  1.00  0.00    -0.275 OA
ATOM     13  H   UNL A   1      34.555  27.244  23.077  1.00  0.00     0.164 HD
BRANCH  11  14
ATOM     14  C   UNL A   1      31.588  28.399  24.294  1.00  0.00     0.078 C 
ATOM     15  C   UNL A   1      30.266  26.168  25.852  1.00  0.00     0.044 C 
ATOM     16  C   UNL A   1      31.355  27.059  26.479  1.00  0.00     0.010 C 
ATOM     17  C   UNL A   1      30.146  26.243  24.314  1.00  0.00     0.010 C 
ATOM     18  C   UNL A   1      31.553  28.411  25.816  1.00  0.00     0.014 C 
ATOM     19  C   UNL A   1      30.458  27.586  23.670  1.00  0.00     0.014 C 
BRANCH  15  20
ATOM     20  C   UNL A   1      30.432  24.676  26.247  1.00  0.00     0.262 C 
BRANCH  20  21
ATOM     21  N   UNL A   1      29.306  24.097  26.969  1.00  0.00    -0.357 N 
ATOM     22  H   UNL A   1      29.567  23.178  27.325  1.00  0.00     0.344 HD
ATOM     23  H   UNL A   1      28.510  24.006  26.338  1.00  0.00     0.344 HD
ATOM     24  H   UNL A   1      29.054  24.705  27.749  1.00  0.00     0.344 HD
ENDBRANCH  20  21
ENDBRANCH  15  20
ENDBRANCH  11  14
ENDBRANCH   6  10
ENDBRANCH   3   5
ENDBRANCH   2   3
ENDBRANCH   1   2
BRANCH   1  25
ATOM     25  C   UNL A   1      36.440  20.527  25.022  1.00  0.00     0.275 C 
BRANCH  25  26
ATOM     26  O   UNL A   1      37.221  21.566  25.641  1.00  0.00    -0.458 OA
BRANCH  26  27
ATOM     27  C   UNL A   1      38.505  21.236  25.927  1.00  0.00     0.338 C 
ATOM     28  O   UNL A   1      39.056  20.164  25.758  1.00  0.00    -0.246 OA
BRANCH  27  29
ATOM     29  C   UNL A   1      39.205  22.460  26.340  1.00  0.00     0.060 A 
ATOM     30  C   UNL A   1      40.351  22.318  27.122  1.00  0.00     0.016 A 
ATOM     31  C   UNL A   1      38.724  23.723  26.015  1.00  0.00     0.016 A 
ATOM     32  C   UNL A   1      41.025  23.435  27.600  1.00  0.00     0.010 A 
ATOM     33  C   UNL A   1      39.429  24.850  26.455  1.00  0.00     0.010 A 
ATOM     34  C   UNL A   1      40.584  24.715  27.251  1.00  0.00    -0.014 A 
BRANCH  34  35
ATOM     35  C   UNL A   1      41.322  25.912  27.724  1.00  0.00     0.031 A 
ATOM     36  C   UNL A   1      40.611  26.954  28.538  1.00  0.00     0.074 A 
ATOM     37  C   UNL A   1      42.625  26.063  27.417  1.00  0.00     0.049 A 
ATOM     38  N   UNL A   1      41.006  28.152  28.878  1.00  0.00    -0.248 NA
ATOM     39  C   UNL A   1      39.271  26.597  29.027  1.00  0.00     0.031 C 
ATOM     40  C   UNL A   1      43.442  25.084  26.696  1.00  0.00     0.029 A 
ATOM     41  N   UNL A   1      43.491  27.100  27.663  1.00  0.00    -0.354 N 
ATOM     42  C   UNL A   1      39.951  28.711  29.592  1.00  0.00     0.074 A 
ATOM     43  C   UNL A   1      38.896  27.719  29.624  1.00  0.00     0.031 C 
ATOM     44  C   UNL A   1      44.688  25.567  26.559  1.00  0.00     0.029 A 
ATOM     45  C   UNL A   1      44.735  26.919  27.104  1.00  0.00     0.049 A 
ATOM     46  H   UNL A   1      43.246  27.895  28.189  1.00  0.00     0.167 HD
ATOM     47  C   UNL A   1      39.876  29.941  30.158  1.00  0.00     0.034 A 
ATOM     48  C   UNL A   1      45.776  27.768  26.987  1.00  0.00     0.034 A 
ATOM     49  C   UNL A   1      40.950  30.904  30.122  1.00  0.00     0.049 A 
ATOM     50  C   UNL A   1      45.631  29.165  27.532  1.00  0.00     0.074 A 
ATOM     51  C   UNL A   1      40.993  32.171  30.678  1.00  0.00     0.029 A 
ATOM     52  N   UNL A   1      42.169  30.710  29.486  1.00  0.00    -0.354 N 
ATOM     53  N   UNL A   1      44.612  29.703  28.161  1.00  0.00    -0.248 NA
ATOM     54  C   UNL A   1      46.765  30.076  27.330  1.00  0.00     0.031 C 
ATOM     55  C   UNL A   1      42.211  32.765  30.323  1.00  0.00     0.029 A 
ATOM     56  C   UNL A   1      42.955  31.847  29.600  1.00  0.00     0.049 A 
ATOM     57  H   UNL A   1      42.438  29.885  29.020  1.00  0.00     0.167 HD
ATOM     58  C   UNL A   1      44.987  31.014  28.435  1.00  0.00     0.074 A 
ATOM     59  C   UNL A   1      46.332  31.179  27.923  1.00  0.00     0.031 C 
ATOM     60  C   UNL A   1      44.283  31.997  29.054  1.00  0.00     0.034 A 
BRANCH  47  61
ATOM     61  C   UNL A   1      38.566  30.329  30.799  1.00  0.00     0.023 A 
ATOM     62  C   UNL A   1      37.549  30.983  30.083  1.00  0.00     0.031 A 
ATOM     63  C   UNL A   1      38.349  30.069  32.164  1.00  0.00     0.131 A 
ATOM     64  C   UNL A   1      36.392  31.415  30.749  1.00  0.00     0.055 A 
ATOM     65  C   UNL A   1      37.164  30.436  32.805  1.00  0.00     0.041 A 
ATOM     66  F   UNL A   1      39.293  29.467  32.903  1.00  0.00    -0.206 F 
ATOM     67  C   UNL A   1      36.183  31.127  32.101  1.00  0.00     0.022 A 
BRANCH  64  68
ATOM     68  S   UNL A   1      35.223  32.479  29.859  1.00  0.00     0.124 S 
ATOM     69  O   UNL A   1      36.101  33.542  29.377  1.00  0.00    -0.237 OA
ATOM     70  O   UNL A   1      34.689  31.579  28.843  1.00  0.00    -0.237 OA
ATOM     71  O   UNL A   1      34.274  32.886  30.894  1.00  0.00    -0.744 OA
ENDBRANCH  64  68
ENDBRANCH  47  61
BRANCH  48  72
ATOM     72  C   UNL A   1      47.004  27.359  26.248  1.00  0.00     0.023 A 
ATOM     73  C   UNL A   1      47.191  27.699  24.900  1.00  0.00     0.031 A 
ATOM     74  C   UNL A   1      47.999  26.584  26.877  1.00  0.00     0.131 A 
ATOM     75  C   UNL A   1      48.330  27.244  24.216  1.00  0.00     0.055 A 
ATOM     76  C   UNL A   1      49.153  26.178  26.206  1.00  0.00     0.041 A 
ATOM     77  F   UNL A   1      47.868  26.225  28.163  1.00  0.00    -0.206 F 
ATOM     78  C   UNL A   1      49.319  26.500  24.864  1.00  0.00     0.022 A 
BRANCH  75  79
ATOM     79  S   UNL A   1      48.469  27.582  22.439  1.00  0.00     0.124 S 
ATOM     80  O   UNL A   1      48.555  26.234  21.887  1.00  0.00    -0.237 OA
ATOM     81  O   UNL A   1      47.232  28.308  22.171  1.00  0.00    -0.237 OA
ATOM     82  O   UNL A   1      49.689  28.378  22.339  1.00  0.00    -0.744 OA
ENDBRANCH  75  79
ENDBRANCH  48  72
BRANCH  60  83
ATOM     83  C   UNL A   1      44.976  33.324  29.216  1.00  0.00     0.023 A 
ATOM     84  C   UNL A   1      45.782  33.598  30.335  1.00  0.00     0.031 A 
ATOM     85  C   UNL A   1      44.819  34.330  28.246  1.00  0.00     0.131 A 
ATOM     86  C   UNL A   1      46.364  34.866  30.480  1.00  0.00     0.055 A 
ATOM     87  C   UNL A   1      45.443  35.572  28.371  1.00  0.00     0.041 A 
ATOM     88  F   UNL A   1      44.058  34.119  27.161  1.00  0.00    -0.206 F 
ATOM     89  C   UNL A   1      46.212  35.849  29.498  1.00  0.00     0.022 A 
BRANCH  86  90
ATOM     90  S   UNL A   1      47.271  35.238  32.006  1.00  0.00     0.124 S 
ATOM     91  O   UNL A   1      46.718  36.537  32.377  1.00  0.00    -0.237 OA
ATOM     92  O   UNL A   1      46.907  34.120  32.870  1.00  0.00    -0.237 OA
ATOM     93  O   UNL A   1      48.669  35.258  31.578  1.00  0.00    -0.744 OA
ENDBRANCH  86  90
ENDBRANCH  60  83
ENDBRANCH  34  35
ENDBRANCH  27  29
ENDBRANCH  26  27
ENDBRANCH  25  26
ENDBRANCH   1  25
TORSDOF 18
ENDMDL
