MODEL 1
REMARK VINA RESULT:     -13.0      0.000      0.000
REMARK SMILES O=C1CCCC2=C1[C@H](c1ccc([N+](=O)[O-])cc1)CC(=O)N2c1ccccc1C(=O)OCCOC(=O)c1ccc(-c2c3nc(c(-c4cc(S(=O)(=O)[O-])ccc4F)c4ccc([nH]4)c(-c4cc(S(=O)(=O)[O-])ccc4F)c4nc(c(-c5cc(S(=O)(=O)[O-])ccc5F)c5ccc2[nH]5)C=C4)C=C3)cc1
REMARK SMILES IDX 31 1 30 2 28 3 29 4 27 5 22 6 23 7 24 8 26 9 25 10 21 11
REMARK SMILES IDX 1 12 2 13 3 14 7 15 4 16 6 17 8 18 5 19 18 20 19 21 20 22
REMARK SMILES IDX 9 23 10 24 17 25 11 26 16 27 12 28 13 29 14 30 15 31 32 32
REMARK SMILES IDX 33 33 34 34 35 35 36 36 37 37 98 38 38 39 97 40 39 41 40 42
REMARK SMILES IDX 41 43 91 44 42 45 96 46 90 47 92 48 43 49 95 50 89 51 88 52
REMARK SMILES IDX 44 54 76 55 56 56 75 57 57 58 60 59 74 60 93 61 58 62 59 63
REMARK SMILES IDX 73 65 94 66 61 67 45 68 46 69 54 70 47 71 53 72 55 73 52 74
REMARK SMILES IDX 48 75 49 76 50 77 51 78 77 79 78 80 86 81 79 82 85 83 87 84
REMARK SMILES IDX 84 85 80 86 81 87 82 88 83 89 62 90 63 91 71 92 64 93 70 94
REMARK SMILES IDX 72 95 69 96 65 97 66 98 67 99 68 100
REMARK H PARENT 92 53 60 64
REMARK Flexibility Score: inf
ROOT
ATOM      1  C   UNL A   1      37.011  23.356  24.119  1.00  0.00     0.275 C 
ENDROOT
BRANCH   1   2
ATOM      2  O   UNL A   1      35.584  23.554  24.055  1.00  0.00    -0.458 OA
BRANCH   2   3
ATOM      3  C   UNL A   1      34.921  23.413  25.230  1.00  0.00     0.340 C 
ATOM      4  O   UNL A   1      35.137  24.044  26.254  1.00  0.00    -0.246 OA
BRANCH   3   5
ATOM      5  C   UNL A   1      33.896  22.342  25.178  1.00  0.00     0.084 A 
ATOM      6  C   UNL A   1      32.515  22.583  25.075  1.00  0.00     0.063 A 
ATOM      7  C   UNL A   1      31.640  21.475  25.066  1.00  0.00     0.027 A 
ATOM      8  C   UNL A   1      32.122  20.166  25.132  1.00  0.00     0.002 A 
ATOM      9  C   UNL A   1      34.370  21.015  25.203  1.00  0.00     0.018 A 
ATOM     10  C   UNL A   1      33.489  19.935  25.197  1.00  0.00     0.001 A 
BRANCH   6  11
ATOM     11  N   UNL A   1      31.932  23.899  24.967  1.00  0.00    -0.284 N 
ATOM     12  O   UNL A   1      31.298  27.927  22.553  1.00  0.00    -0.294 OA
ATOM     13  C   UNL A   1      31.934  26.887  22.701  1.00  0.00     0.161 C 
ATOM     14  C   UNL A   1      32.942  26.424  21.685  1.00  0.00     0.081 C 
ATOM     15  C   UNL A   1      31.752  26.031  23.910  1.00  0.00     0.023 C 
ATOM     16  C   UNL A   1      32.567  25.011  21.302  1.00  0.00     0.015 C 
ATOM     17  C   UNL A   1      32.084  24.725  23.832  1.00  0.00     0.033 C 
ATOM     18  C   UNL A   1      31.125  26.666  25.122  1.00  0.00     0.064 C 
ATOM     19  C   UNL A   1      32.572  24.094  22.527  1.00  0.00     0.055 C 
ATOM     20  C   UNL A   1      30.416  25.597  25.944  1.00  0.00     0.114 C 
ATOM     21  C   UNL A   1      31.226  24.337  26.109  1.00  0.00     0.232 C 
ATOM     22  O   UNL A   1      31.164  23.729  27.180  1.00  0.00    -0.274 OA
BRANCH  18  23
ATOM     23  C   UNL A   1      32.078  27.580  25.901  1.00  0.00    -0.039 A 
ATOM     24  C   UNL A   1      31.664  28.715  26.620  1.00  0.00     0.011 A 
ATOM     25  C   UNL A   1      33.458  27.291  25.865  1.00  0.00     0.011 A 
ATOM     26  C   UNL A   1      32.600  29.549  27.252  1.00  0.00     0.086 A 
ATOM     27  C   UNL A   1      34.395  28.101  26.509  1.00  0.00     0.086 A 
ATOM     28  C   UNL A   1      33.962  29.239  27.189  1.00  0.00     0.269 A 
BRANCH  28  29
ATOM     29  N   UNL A   1      34.951  30.121  27.817  1.00  0.00     0.062 N 
ATOM     30  O   UNL A   1      35.712  29.631  28.661  1.00  0.00    -0.258 OA
ATOM     31  O   UNL A   1      34.958  31.313  27.472  1.00  0.00    -0.258 OA
ENDBRANCH  28  29
ENDBRANCH  18  23
ENDBRANCH   6  11
ENDBRANCH   3   5
ENDBRANCH   2   3
ENDBRANCH   1   2
BRANCH   1  32
ATOM     32  C   UNL A   1      37.368  21.933  24.532  1.00  0.00     0.275 C 
BRANCH  32  33
ATOM     33  O   UNL A   1      37.699  21.907  25.928  1.00  0.00    -0.458 OA
BRANCH  33  34
ATOM     34  C   UNL A   1      38.998  21.679  26.208  1.00  0.00     0.338 C 
ATOM     35  O   UNL A   1      39.658  20.682  25.929  1.00  0.00    -0.246 OA
BRANCH  34  36
ATOM     36  C   UNL A   1      39.566  22.861  26.862  1.00  0.00     0.060 A 
ATOM     37  C   UNL A   1      39.069  24.112  26.510  1.00  0.00     0.016 A 
ATOM     38  C   UNL A   1      40.664  22.755  27.710  1.00  0.00     0.016 A 
ATOM     39  C   UNL A   1      39.710  25.272  26.927  1.00  0.00     0.010 A 
ATOM     40  C   UNL A   1      41.257  23.923  28.202  1.00  0.00     0.010 A 
ATOM     41  C   UNL A   1      40.812  25.193  27.783  1.00  0.00    -0.014 A 
BRANCH  41  42
ATOM     42  C   UNL A   1      41.556  26.425  28.162  1.00  0.00     0.031 A 
ATOM     43  C   UNL A   1      40.871  27.460  29.016  1.00  0.00     0.074 A 
ATOM     44  C   UNL A   1      42.834  26.610  27.780  1.00  0.00     0.049 A 
ATOM     45  N   UNL A   1      41.221  28.693  29.269  1.00  0.00    -0.248 NA
ATOM     46  C   UNL A   1      39.609  27.050  29.650  1.00  0.00     0.031 C 
ATOM     47  C   UNL A   1      43.645  25.647  27.031  1.00  0.00     0.029 A 
ATOM     48  N   UNL A   1      43.681  27.673  27.972  1.00  0.00    -0.354 N 
ATOM     49  C   UNL A   1      40.185  29.233  30.026  1.00  0.00     0.074 A 
ATOM     50  C   UNL A   1      39.197  28.186  30.190  1.00  0.00     0.031 C 
ATOM     51  C   UNL A   1      44.879  26.147  26.861  1.00  0.00     0.029 A 
ATOM     52  C   UNL A   1      44.917  27.506  27.390  1.00  0.00     0.049 A 
ATOM     53  H   UNL A   1      43.429  28.478  28.479  1.00  0.00     0.167 HD
ATOM     54  C   UNL A   1      40.070  30.490  30.523  1.00  0.00     0.034 A 
ATOM     55  C   UNL A   1      45.942  28.368  27.245  1.00  0.00     0.034 A 
ATOM     56  C   UNL A   1      41.100  31.492  30.392  1.00  0.00     0.049 A 
ATOM     57  C   UNL A   1      45.776  29.775  27.759  1.00  0.00     0.074 A 
ATOM     58  C   UNL A   1      41.106  32.794  30.863  1.00  0.00     0.029 A 
ATOM     59  N   UNL A   1      42.317  31.299  29.747  1.00  0.00    -0.354 N 
ATOM     60  N   UNL A   1      44.753  30.308  28.388  1.00  0.00    -0.248 NA
ATOM     61  C   UNL A   1      46.890  30.699  27.522  1.00  0.00     0.031 C 
ATOM     62  C   UNL A   1      42.300  33.403  30.456  1.00  0.00     0.029 A 
ATOM     63  C   UNL A   1      43.070  32.463  29.789  1.00  0.00     0.049 A 
ATOM     64  H   UNL A   1      42.603  30.459  29.323  1.00  0.00     0.167 HD
ATOM     65  C   UNL A   1      45.109  31.631  28.633  1.00  0.00     0.074 A 
ATOM     66  C   UNL A   1      46.447  31.805  28.103  1.00  0.00     0.031 C 
ATOM     67  C   UNL A   1      44.397  32.615  29.240  1.00  0.00     0.034 A 
BRANCH  54  68
ATOM     68  C   UNL A   1      38.758  30.864  31.173  1.00  0.00     0.023 A 
ATOM     69  C   UNL A   1      37.803  31.675  30.536  1.00  0.00     0.031 A 
ATOM     70  C   UNL A   1      38.487  30.439  32.487  1.00  0.00     0.131 A 
ATOM     71  C   UNL A   1      36.665  32.101  31.241  1.00  0.00     0.055 A 
ATOM     72  C   UNL A   1      37.314  30.799  33.153  1.00  0.00     0.041 A 
ATOM     73  F   UNL A   1      39.370  29.682  33.156  1.00  0.00    -0.206 F 
ATOM     74  C   UNL A   1      36.402  31.650  32.537  1.00  0.00     0.022 A 
BRANCH  71  75
ATOM     75  S   UNL A   1      35.612  33.378  30.498  1.00  0.00     0.124 S 
ATOM     76  O   UNL A   1      36.345  33.690  29.273  1.00  0.00    -0.237 OA
ATOM     77  O   UNL A   1      34.345  32.679  30.324  1.00  0.00    -0.237 OA
ATOM     78  O   UNL A   1      35.605  34.443  31.499  1.00  0.00    -0.744 OA
ENDBRANCH  71  75
ENDBRANCH  54  68
BRANCH  55  79
ATOM     79  C   UNL A   1      47.180  27.960  26.519  1.00  0.00     0.023 A 
ATOM     80  C   UNL A   1      47.261  28.049  25.120  1.00  0.00     0.031 A 
ATOM     81  C   UNL A   1      48.292  27.446  27.212  1.00  0.00     0.131 A 
ATOM     82  C   UNL A   1      48.417  27.606  24.458  1.00  0.00     0.055 A 
ATOM     83  C   UNL A   1      49.459  27.055  26.553  1.00  0.00     0.041 A 
ATOM     84  F   UNL A   1      48.267  27.332  28.550  1.00  0.00    -0.206 F 
ATOM     85  C   UNL A   1      49.522  27.125  25.165  1.00  0.00     0.022 A 
BRANCH  82  86
ATOM     86  S   UNL A   1      48.432  27.602  22.643  1.00  0.00     0.124 S 
ATOM     87  O   UNL A   1      47.182  28.288  22.334  1.00  0.00    -0.237 OA
ATOM     88  O   UNL A   1      49.658  28.336  22.348  1.00  0.00    -0.237 OA
ATOM     89  O   UNL A   1      48.464  26.180  22.306  1.00  0.00    -0.744 OA
ENDBRANCH  82  86
ENDBRANCH  55  79
BRANCH  67  90
ATOM     90  C   UNL A   1      45.083  33.948  29.392  1.00  0.00     0.023 A 
ATOM     91  C   UNL A   1      44.993  34.941  28.402  1.00  0.00     0.031 A 
ATOM     92  C   UNL A   1      45.862  34.214  30.532  1.00  0.00     0.131 A 
ATOM     93  C   UNL A   1      45.718  36.134  28.544  1.00  0.00     0.055 A 
ATOM     94  C   UNL A   1      46.533  35.425  30.695  1.00  0.00     0.041 A 
ATOM     95  F   UNL A   1      45.982  33.297  31.506  1.00  0.00    -0.206 F 
ATOM     96  C   UNL A   1      46.475  36.388  29.691  1.00  0.00     0.022 A 
BRANCH  93  97
ATOM     97  S   UNL A   1      45.731  37.313  27.166  1.00  0.00     0.124 S 
ATOM     98  O   UNL A   1      46.377  36.539  26.111  1.00  0.00    -0.237 OA
ATOM     99  O   UNL A   1      44.311  37.590  26.976  1.00  0.00    -0.237 OA
ATOM    100  O   UNL A   1      46.516  38.434  27.681  1.00  0.00    -0.744 OA
ENDBRANCH  93  97
ENDBRANCH  67  90
ENDBRANCH  41  42
ENDBRANCH  34  36
ENDBRANCH  33  34
ENDBRANCH  32  33
ENDBRANCH   1  32
TORSDOF 17
ENDMDL
MODEL 2
REMARK VINA RESULT:     -12.8      4.730      9.773
REMARK SMILES O=C1CCCC2=C1[C@H](c1ccc([N+](=O)[O-])cc1)CC(=O)N2c1ccccc1C(=O)OCCOC(=O)c1ccc(-c2c3nc(c(-c4cc(S(=O)(=O)[O-])ccc4F)c4ccc([nH]4)c(-c4cc(S(=O)(=O)[O-])ccc4F)c4nc(c(-c5cc(S(=O)(=O)[O-])ccc5F)c5ccc2[nH]5)C=C4)C=C3)cc1
REMARK SMILES IDX 31 1 30 2 28 3 29 4 27 5 22 6 23 7 24 8 26 9 25 10 21 11
REMARK SMILES IDX 1 12 2 13 3 14 7 15 4 16 6 17 8 18 5 19 18 20 19 21 20 22
REMARK SMILES IDX 9 23 10 24 17 25 11 26 16 27 12 28 13 29 14 30 15 31 32 32
REMARK SMILES IDX 33 33 34 34 35 35 36 36 37 37 98 38 38 39 97 40 39 41 40 42
REMARK SMILES IDX 41 43 91 44 42 45 96 46 90 47 92 48 43 49 95 50 89 51 88 52
REMARK SMILES IDX 44 54 76 55 56 56 75 57 57 58 60 59 74 60 93 61 58 62 59 63
REMARK SMILES IDX 73 65 94 66 61 67 45 68 46 69 54 70 47 71 53 72 55 73 52 74
REMARK SMILES IDX 48 75 49 76 50 77 51 78 77 79 78 80 86 81 79 82 85 83 87 84
REMARK SMILES IDX 84 85 80 86 81 87 82 88 83 89 62 90 63 91 71 92 64 93 70 94
REMARK SMILES IDX 72 95 69 96 65 97 66 98 67 99 68 100
REMARK H PARENT 92 53 60 64
REMARK Flexibility Score: inf
ROOT
ATOM      1  C   UNL A   1      32.679  28.381  27.603  1.00  0.00     0.275 C 
ENDROOT
BRANCH   1   2
ATOM      2  O   UNL A   1      32.247  27.411  26.627  1.00  0.00    -0.458 OA
BRANCH   2   3
ATOM      3  C   UNL A   1      32.903  27.444  25.439  1.00  0.00     0.340 C 
ATOM      4  O   UNL A   1      34.113  27.376  25.288  1.00  0.00    -0.246 OA
BRANCH   3   5
ATOM      5  C   UNL A   1      31.985  27.628  24.289  1.00  0.00     0.084 A 
ATOM      6  C   UNL A   1      31.684  26.619  23.358  1.00  0.00     0.063 A 
ATOM      7  C   UNL A   1      30.817  26.932  22.288  1.00  0.00     0.027 A 
ATOM      8  C   UNL A   1      30.246  28.200  22.161  1.00  0.00     0.002 A 
ATOM      9  C   UNL A   1      31.369  28.890  24.170  1.00  0.00     0.018 A 
ATOM     10  C   UNL A   1      30.519  29.180  23.104  1.00  0.00     0.001 A 
BRANCH   6  11
ATOM     11  N   UNL A   1      32.200  25.273  23.431  1.00  0.00    -0.284 N 
ATOM     12  O   UNL A   1      32.474  21.093  25.647  1.00  0.00    -0.294 OA
ATOM     13  C   UNL A   1      32.161  22.280  25.691  1.00  0.00     0.161 C 
ATOM     14  C   UNL A   1      31.379  22.851  26.841  1.00  0.00     0.081 C 
ATOM     15  C   UNL A   1      32.557  23.227  24.607  1.00  0.00     0.023 C 
ATOM     16  C   UNL A   1      30.171  23.545  26.254  1.00  0.00     0.015 C 
ATOM     17  C   UNL A   1      31.836  24.357  24.441  1.00  0.00     0.033 C 
ATOM     18  C   UNL A   1      33.693  22.818  23.707  1.00  0.00     0.064 C 
ATOM     19  C   UNL A   1      30.594  24.651  25.285  1.00  0.00     0.055 C 
ATOM     20  C   UNL A   1      33.525  23.483  22.347  1.00  0.00     0.114 C 
ATOM     21  C   UNL A   1      33.146  24.939  22.438  1.00  0.00     0.232 C 
ATOM     22  O   UNL A   1      33.610  25.725  21.608  1.00  0.00    -0.274 OA
BRANCH  18  23
ATOM     23  C   UNL A   1      35.075  22.965  24.353  1.00  0.00    -0.039 A 
ATOM     24  C   UNL A   1      36.111  22.026  24.213  1.00  0.00     0.011 A 
ATOM     25  C   UNL A   1      35.313  24.089  25.172  1.00  0.00     0.011 A 
ATOM     26  C   UNL A   1      37.329  22.188  24.891  1.00  0.00     0.086 A 
ATOM     27  C   UNL A   1      36.528  24.272  25.834  1.00  0.00     0.086 A 
ATOM     28  C   UNL A   1      37.529  23.310  25.702  1.00  0.00     0.269 A 
BRANCH  28  29
ATOM     29  N   UNL A   1      38.784  23.473  26.443  1.00  0.00     0.062 N 
ATOM     30  O   UNL A   1      39.040  24.589  26.912  1.00  0.00    -0.258 OA
ATOM     31  O   UNL A   1      39.523  22.481  26.544  1.00  0.00    -0.258 OA
ENDBRANCH  28  29
ENDBRANCH  18  23
ENDBRANCH   6  11
ENDBRANCH   3   5
ENDBRANCH   2   3
ENDBRANCH   1   2
BRANCH   1  32
ATOM     32  C   UNL A   1      32.362  29.805  27.164  1.00  0.00     0.275 C 
BRANCH  32  33
ATOM     33  O   UNL A   1      33.558  30.436  26.684  1.00  0.00    -0.458 OA
BRANCH  33  34
ATOM     34  C   UNL A   1      34.016  31.456  27.438  1.00  0.00     0.338 C 
ATOM     35  O   UNL A   1      33.404  32.462  27.784  1.00  0.00    -0.246 OA
BRANCH  34  36
ATOM     36  C   UNL A   1      35.385  31.160  27.871  1.00  0.00     0.060 A 
ATOM     37  C   UNL A   1      35.710  29.841  28.176  1.00  0.00     0.016 A 
ATOM     38  C   UNL A   1      36.301  32.180  28.105  1.00  0.00     0.016 A 
ATOM     39  C   UNL A   1      36.914  29.534  28.795  1.00  0.00     0.010 A 
ATOM     40  C   UNL A   1      37.550  31.860  28.648  1.00  0.00     0.010 A 
ATOM     41  C   UNL A   1      37.854  30.539  29.036  1.00  0.00    -0.014 A 
BRANCH  41  42
ATOM     42  C   UNL A   1      39.107  30.232  29.777  1.00  0.00     0.031 A 
ATOM     43  C   UNL A   1      40.152  29.368  29.122  1.00  0.00     0.074 A 
ATOM     44  C   UNL A   1      39.330  30.738  31.006  1.00  0.00     0.049 A 
ATOM     45  N   UNL A   1      41.194  28.779  29.647  1.00  0.00    -0.248 NA
ATOM     46  C   UNL A   1      39.983  29.120  27.682  1.00  0.00     0.031 C 
ATOM     47  C   UNL A   1      38.444  31.663  31.717  1.00  0.00     0.029 A 
ATOM     48  N   UNL A   1      40.375  30.550  31.876  1.00  0.00    -0.354 N 
ATOM     49  C   UNL A   1      41.760  28.026  28.622  1.00  0.00     0.074 A 
ATOM     50  C   UNL A   1      40.943  28.240  27.445  1.00  0.00     0.031 C 
ATOM     51  C   UNL A   1      39.000  31.988  32.895  1.00  0.00     0.029 A 
ATOM     52  C   UNL A   1      40.224  31.215  33.071  1.00  0.00     0.049 A 
ATOM     53  H   UNL A   1      41.159  29.993  31.665  1.00  0.00     0.167 HD
ATOM     54  C   UNL A   1      42.852  27.222  28.670  1.00  0.00     0.034 A 
ATOM     55  C   UNL A   1      40.955  31.163  34.202  1.00  0.00     0.034 A 
ATOM     56  C   UNL A   1      43.679  27.077  29.844  1.00  0.00     0.049 A 
ATOM     57  C   UNL A   1      42.134  30.228  34.253  1.00  0.00     0.074 A 
ATOM     58  C   UNL A   1      44.816  26.307  30.011  1.00  0.00     0.029 A 
ATOM     59  N   UNL A   1      43.461  27.728  31.053  1.00  0.00    -0.354 N 
ATOM     60  N   UNL A   1      42.607  29.443  33.311  1.00  0.00    -0.248 NA
ATOM     61  C   UNL A   1      42.862  30.153  35.524  1.00  0.00     0.031 C 
ATOM     62  C   UNL A   1      45.252  26.448  31.335  1.00  0.00     0.029 A 
ATOM     63  C   UNL A   1      44.428  27.360  31.976  1.00  0.00     0.049 A 
ATOM     64  H   UNL A   1      42.727  28.360  31.229  1.00  0.00     0.167 HD
ATOM     65  C   UNL A   1      43.698  28.791  33.875  1.00  0.00     0.074 A 
ATOM     66  C   UNL A   1      43.825  29.290  35.230  1.00  0.00     0.031 C 
ATOM     67  C   UNL A   1      44.523  27.862  33.327  1.00  0.00     0.034 A 
BRANCH  54  68
ATOM     68  C   UNL A   1      43.154  26.386  27.449  1.00  0.00     0.023 A 
ATOM     69  C   UNL A   1      42.890  25.007  27.393  1.00  0.00     0.031 A 
ATOM     70  C   UNL A   1      43.776  26.981  26.335  1.00  0.00     0.131 A 
ATOM     71  C   UNL A   1      43.317  24.257  26.285  1.00  0.00     0.055 A 
ATOM     72  C   UNL A   1      44.124  26.244  25.202  1.00  0.00     0.041 A 
ATOM     73  F   UNL A   1      44.075  28.289  26.337  1.00  0.00    -0.206 F 
ATOM     74  C   UNL A   1      43.912  24.869  25.179  1.00  0.00     0.022 A 
BRANCH  71  75
ATOM     75  S   UNL A   1      43.229  22.447  26.376  1.00  0.00     0.124 S 
ATOM     76  O   UNL A   1      42.621  22.246  27.689  1.00  0.00    -0.237 OA
ATOM     77  O   UNL A   1      42.393  22.115  25.228  1.00  0.00    -0.237 OA
ATOM     78  O   UNL A   1      44.625  22.028  26.273  1.00  0.00    -0.744 OA
ENDBRANCH  71  75
ENDBRANCH  54  68
BRANCH  55  79
ATOM     79  C   UNL A   1      40.552  31.954  35.402  1.00  0.00     0.023 A 
ATOM     80  C   UNL A   1      39.457  31.567  36.189  1.00  0.00     0.031 A 
ATOM     81  C   UNL A   1      41.242  33.127  35.762  1.00  0.00     0.131 A 
ATOM     82  C   UNL A   1      39.066  32.360  37.280  1.00  0.00     0.055 A 
ATOM     83  C   UNL A   1      40.881  33.883  36.879  1.00  0.00     0.041 A 
ATOM     84  F   UNL A   1      42.293  33.547  35.041  1.00  0.00    -0.206 F 
ATOM     85  C   UNL A   1      39.780  33.506  37.640  1.00  0.00     0.022 A 
BRANCH  82  86
ATOM     86  S   UNL A   1      37.561  31.909  38.188  1.00  0.00     0.124 S 
ATOM     87  O   UNL A   1      36.613  32.908  37.707  1.00  0.00    -0.237 OA
ATOM     88  O   UNL A   1      37.334  30.540  37.740  1.00  0.00    -0.237 OA
ATOM     89  O   UNL A   1      37.954  32.046  39.589  1.00  0.00    -0.744 OA
ENDBRANCH  82  86
ENDBRANCH  55  79
BRANCH  67  90
ATOM     90  C   UNL A   1      45.654  27.369  34.193  1.00  0.00     0.023 A 
ATOM     91  C   UNL A   1      45.519  26.228  35.003  1.00  0.00     0.031 A 
ATOM     92  C   UNL A   1      46.872  28.069  34.229  1.00  0.00     0.131 A 
ATOM     93  C   UNL A   1      46.566  25.853  35.858  1.00  0.00     0.055 A 
ATOM     94  C   UNL A   1      47.930  27.659  35.039  1.00  0.00     0.041 A 
ATOM     95  F   UNL A   1      47.050  29.167  33.477  1.00  0.00    -0.206 F 
ATOM     96  C   UNL A   1      47.776  26.553  35.870  1.00  0.00     0.022 A 
BRANCH  93  97
ATOM     97  S   UNL A   1      46.292  24.492  37.025  1.00  0.00     0.124 S 
ATOM     98  O   UNL A   1      47.507  24.534  37.831  1.00  0.00    -0.237 OA
ATOM     99  O   UNL A   1      45.064  24.900  37.699  1.00  0.00    -0.237 OA
ATOM    100  O   UNL A   1      46.162  23.320  36.160  1.00  0.00    -0.744 OA
ENDBRANCH  93  97
ENDBRANCH  67  90
ENDBRANCH  41  42
ENDBRANCH  34  36
ENDBRANCH  33  34
ENDBRANCH  32  33
ENDBRANCH   1  32
TORSDOF 17
ENDMDL
MODEL 3
REMARK VINA RESULT:     -12.6      1.511      7.295
REMARK SMILES O=C1CCCC2=C1[C@H](c1ccc([N+](=O)[O-])cc1)CC(=O)N2c1ccccc1C(=O)OCCOC(=O)c1ccc(-c2c3nc(c(-c4cc(S(=O)(=O)[O-])ccc4F)c4ccc([nH]4)c(-c4cc(S(=O)(=O)[O-])ccc4F)c4nc(c(-c5cc(S(=O)(=O)[O-])ccc5F)c5ccc2[nH]5)C=C4)C=C3)cc1
REMARK SMILES IDX 31 1 30 2 28 3 29 4 27 5 22 6 23 7 24 8 26 9 25 10 21 11
REMARK SMILES IDX 1 12 2 13 3 14 7 15 4 16 6 17 8 18 5 19 18 20 19 21 20 22
REMARK SMILES IDX 9 23 10 24 17 25 11 26 16 27 12 28 13 29 14 30 15 31 32 32
REMARK SMILES IDX 33 33 34 34 35 35 36 36 37 37 98 38 38 39 97 40 39 41 40 42
REMARK SMILES IDX 41 43 91 44 42 45 96 46 90 47 92 48 43 49 95 50 89 51 88 52
REMARK SMILES IDX 44 54 76 55 56 56 75 57 57 58 60 59 74 60 93 61 58 62 59 63
REMARK SMILES IDX 73 65 94 66 61 67 45 68 46 69 54 70 47 71 53 72 55 73 52 74
REMARK SMILES IDX 48 75 49 76 50 77 51 78 77 79 78 80 86 81 79 82 85 83 87 84
REMARK SMILES IDX 84 85 80 86 81 87 82 88 83 89 62 90 63 91 71 92 64 93 70 94
REMARK SMILES IDX 72 95 69 96 65 97 66 98 67 99 68 100
REMARK H PARENT 92 53 60 64
REMARK Flexibility Score: inf
ROOT
ATOM      1  C   UNL A   1      37.160  23.309  24.187  1.00  0.00     0.275 C 
ENDROOT
BRANCH   1   2
ATOM      2  O   UNL A   1      35.749  23.422  23.911  1.00  0.00    -0.458 OA
BRANCH   2   3
ATOM      3  C   UNL A   1      34.945  23.514  24.999  1.00  0.00     0.340 C 
ATOM      4  O   UNL A   1      35.048  24.334  25.898  1.00  0.00    -0.246 OA
BRANCH   3   5
ATOM      5  C   UNL A   1      33.911  22.451  25.032  1.00  0.00     0.084 A 
ATOM      6  C   UNL A   1      32.528  22.702  25.016  1.00  0.00     0.063 A 
ATOM      7  C   UNL A   1      31.646  21.601  25.083  1.00  0.00     0.027 A 
ATOM      8  C   UNL A   1      32.122  20.289  25.136  1.00  0.00     0.002 A 
ATOM      9  C   UNL A   1      34.375  21.120  25.045  1.00  0.00     0.018 A 
ATOM     10  C   UNL A   1      33.488  20.047  25.114  1.00  0.00     0.001 A 
BRANCH   6  11
ATOM     11  N   UNL A   1      31.949  24.021  24.927  1.00  0.00    -0.284 N 
ATOM     12  O   UNL A   1      31.308  28.075  22.560  1.00  0.00    -0.294 OA
ATOM     13  C   UNL A   1      31.942  27.032  22.692  1.00  0.00     0.161 C 
ATOM     14  C   UNL A   1      32.938  26.576  21.663  1.00  0.00     0.081 C 
ATOM     15  C   UNL A   1      31.767  26.164  23.894  1.00  0.00     0.023 C 
ATOM     16  C   UNL A   1      32.555  25.168  21.269  1.00  0.00     0.015 C 
ATOM     17  C   UNL A   1      32.094  24.857  23.800  1.00  0.00     0.033 C 
ATOM     18  C   UNL A   1      31.153  26.789  25.118  1.00  0.00     0.064 C 
ATOM     19  C   UNL A   1      32.568  24.238  22.484  1.00  0.00     0.055 C 
ATOM     20  C   UNL A   1      30.447  25.714  25.935  1.00  0.00     0.114 C 
ATOM     21  C   UNL A   1      31.254  24.449  26.080  1.00  0.00     0.232 C 
ATOM     22  O   UNL A   1      31.200  23.831  27.145  1.00  0.00    -0.274 OA
BRANCH  18  23
ATOM     23  C   UNL A   1      32.116  27.691  25.898  1.00  0.00    -0.039 A 
ATOM     24  C   UNL A   1      31.719  28.846  26.594  1.00  0.00     0.011 A 
ATOM     25  C   UNL A   1      33.489  27.370  25.886  1.00  0.00     0.011 A 
ATOM     26  C   UNL A   1      32.665  29.667  27.229  1.00  0.00     0.086 A 
ATOM     27  C   UNL A   1      34.436  28.167  26.531  1.00  0.00     0.086 A 
ATOM     28  C   UNL A   1      34.021  29.324  27.190  1.00  0.00     0.269 A 
BRANCH  28  29
ATOM     29  N   UNL A   1      35.021  30.192  27.819  1.00  0.00     0.062 N 
ATOM     30  O   UNL A   1      34.808  31.411  27.826  1.00  0.00    -0.258 OA
ATOM     31  O   UNL A   1      36.031  29.651  28.297  1.00  0.00    -0.258 OA
ENDBRANCH  28  29
ENDBRANCH  18  23
ENDBRANCH   6  11
ENDBRANCH   3   5
ENDBRANCH   2   3
ENDBRANCH   1   2
BRANCH   1  32
ATOM     32  C   UNL A   1      37.528  21.922  24.699  1.00  0.00     0.275 C 
BRANCH  32  33
ATOM     33  O   UNL A   1      37.885  22.001  26.087  1.00  0.00    -0.458 OA
BRANCH  33  34
ATOM     34  C   UNL A   1      39.199  21.858  26.354  1.00  0.00     0.338 C 
ATOM     35  O   UNL A   1      39.894  20.863  26.171  1.00  0.00    -0.246 OA
BRANCH  34  36
ATOM     36  C   UNL A   1      39.733  23.130  26.850  1.00  0.00     0.060 A 
ATOM     37  C   UNL A   1      39.093  24.307  26.470  1.00  0.00     0.016 A 
ATOM     38  C   UNL A   1      40.923  23.179  27.568  1.00  0.00     0.016 A 
ATOM     39  C   UNL A   1      39.674  25.542  26.725  1.00  0.00     0.010 A 
ATOM     40  C   UNL A   1      41.464  24.425  27.901  1.00  0.00     0.010 A 
ATOM     41  C   UNL A   1      40.866  25.619  27.448  1.00  0.00    -0.014 A 
BRANCH  41  42
ATOM     42  C   UNL A   1      41.539  26.932  27.649  1.00  0.00     0.031 A 
ATOM     43  C   UNL A   1      42.875  27.176  26.999  1.00  0.00     0.074 A 
ATOM     44  C   UNL A   1      40.957  27.907  28.374  1.00  0.00     0.049 A 
ATOM     45  N   UNL A   1      43.745  28.127  27.218  1.00  0.00    -0.248 NA
ATOM     46  C   UNL A   1      43.292  26.202  25.979  1.00  0.00     0.031 C 
ATOM     47  C   UNL A   1      39.625  27.836  28.979  1.00  0.00     0.029 A 
ATOM     48  N   UNL A   1      41.409  29.155  28.722  1.00  0.00    -0.354 N 
ATOM     49  C   UNL A   1      44.846  27.822  26.423  1.00  0.00     0.074 A 
ATOM     50  C   UNL A   1      44.527  26.599  25.716  1.00  0.00     0.031 C 
ATOM     51  C   UNL A   1      39.356  29.000  29.591  1.00  0.00     0.029 A 
ATOM     52  C   UNL A   1      40.532  29.858  29.516  1.00  0.00     0.049 A 
ATOM     53  H   UNL A   1      42.279  29.514  28.431  1.00  0.00     0.167 HD
ATOM     54  C   UNL A   1      46.017  28.498  26.310  1.00  0.00     0.034 A 
ATOM     55  C   UNL A   1      40.680  31.033  30.160  1.00  0.00     0.034 A 
ATOM     56  C   UNL A   1      46.281  29.747  26.984  1.00  0.00     0.049 A 
ATOM     57  C   UNL A   1      42.005  31.743  30.063  1.00  0.00     0.074 A 
ATOM     58  C   UNL A   1      47.420  30.532  26.937  1.00  0.00     0.029 A 
ATOM     59  N   UNL A   1      45.385  30.400  27.823  1.00  0.00    -0.354 N 
ATOM     60  N   UNL A   1      43.078  31.400  29.387  1.00  0.00    -0.248 NA
ATOM     61  C   UNL A   1      42.146  32.984  30.832  1.00  0.00     0.031 C 
ATOM     62  C   UNL A   1      47.234  31.627  27.789  1.00  0.00     0.029 A 
ATOM     63  C   UNL A   1      45.953  31.564  28.317  1.00  0.00     0.049 A 
ATOM     64  H   UNL A   1      44.478  30.082  28.036  1.00  0.00     0.167 HD
ATOM     65  C   UNL A   1      44.018  32.393  29.642  1.00  0.00     0.074 A 
ATOM     66  C   UNL A   1      43.377  33.357  30.514  1.00  0.00     0.031 C 
ATOM     67  C   UNL A   1      45.297  32.501  29.197  1.00  0.00     0.034 A 
BRANCH  54  68
ATOM     68  C   UNL A   1      47.116  27.855  25.496  1.00  0.00     0.023 A 
ATOM     69  C   UNL A   1      47.350  28.182  24.150  1.00  0.00     0.031 A 
ATOM     70  C   UNL A   1      47.911  26.848  26.075  1.00  0.00     0.131 A 
ATOM     71  C   UNL A   1      48.294  27.455  23.407  1.00  0.00     0.055 A 
ATOM     72  C   UNL A   1      48.905  26.185  25.352  1.00  0.00     0.041 A 
ATOM     73  F   UNL A   1      47.721  26.474  27.350  1.00  0.00    -0.206 F 
ATOM     74  C   UNL A   1      49.090  26.474  24.004  1.00  0.00     0.022 A 
BRANCH  71  75
ATOM     75  S   UNL A   1      48.359  27.699  21.610  1.00  0.00     0.124 S 
ATOM     76  O   UNL A   1      47.009  28.180  21.328  1.00  0.00    -0.237 OA
ATOM     77  O   UNL A   1      49.430  28.677  21.463  1.00  0.00    -0.237 OA
ATOM     78  O   UNL A   1      48.657  26.365  21.092  1.00  0.00    -0.744 OA
ENDBRANCH  71  75
ENDBRANCH  54  68
BRANCH  55  79
ATOM     79  C   UNL A   1      39.583  31.572  31.016  1.00  0.00     0.023 A 
ATOM     80  C   UNL A   1      39.573  31.353  32.402  1.00  0.00     0.031 A 
ATOM     81  C   UNL A   1      38.511  32.291  30.454  1.00  0.00     0.131 A 
ATOM     82  C   UNL A   1      38.500  31.824  33.176  1.00  0.00     0.055 A 
ATOM     83  C   UNL A   1      37.474  32.802  31.235  1.00  0.00     0.041 A 
ATOM     84  F   UNL A   1      38.467  32.524  29.133  1.00  0.00    -0.206 F 
ATOM     85  C   UNL A   1      37.459  32.560  32.605  1.00  0.00     0.022 A 
BRANCH  82  86
ATOM     86  S   UNL A   1      38.447  31.400  34.940  1.00  0.00     0.124 S 
ATOM     87  O   UNL A   1      38.401  29.942  34.893  1.00  0.00    -0.237 OA
ATOM     88  O   UNL A   1      39.688  31.988  35.430  1.00  0.00    -0.237 OA
ATOM     89  O   UNL A   1      37.225  32.048  35.409  1.00  0.00    -0.744 OA
ENDBRANCH  82  86
ENDBRANCH  55  79
BRANCH  67  90
ATOM     90  C   UNL A   1      46.057  33.732  29.623  1.00  0.00     0.023 A 
ATOM     91  C   UNL A   1      46.050  34.906  28.851  1.00  0.00     0.031 A 
ATOM     92  C   UNL A   1      46.821  33.716  30.802  1.00  0.00     0.131 A 
ATOM     93  C   UNL A   1      46.839  35.999  29.240  1.00  0.00     0.055 A 
ATOM     94  C   UNL A   1      47.559  34.825  31.213  1.00  0.00     0.041 A 
ATOM     95  F   UNL A   1      46.864  32.617  31.573  1.00  0.00    -0.206 F 
ATOM     96  C   UNL A   1      47.581  35.971  30.424  1.00  0.00     0.022 A 
BRANCH  93  97
ATOM     97  S   UNL A   1      46.956  37.427  28.127  1.00  0.00     0.124 S 
ATOM     98  O   UNL A   1      46.792  38.545  29.050  1.00  0.00    -0.237 OA
ATOM     99  O   UNL A   1      48.287  37.266  27.550  1.00  0.00    -0.237 OA
ATOM    100  O   UNL A   1      45.849  37.226  27.194  1.00  0.00    -0.744 OA
ENDBRANCH  93  97
ENDBRANCH  67  90
ENDBRANCH  41  42
ENDBRANCH  34  36
ENDBRANCH  33  34
ENDBRANCH  32  33
ENDBRANCH   1  32
TORSDOF 17
ENDMDL
