MODEL 1
REMARK VINA RESULT:     -11.8      0.000      0.000
REMARK SMILES O=C(OCCOC(=O)[C@@]1([NH2+]C2CC2)CCC[C@@H](Sc2ncn[nH]2)C1)c1ccc(-c2c3nc(c(-c4cc(S(=O)(=O)[O-])ccc4F)c4ccc([nH]4)c(-c4cc(S(=O)(=O)[O-])ccc4F)c4nc(c(-c5cc(S(=O)(=O)[O-])ccc5F)c5ccc2[nH]5)C=C4)C=C3)cc1
REMARK SMILES IDX 4 1 3 2 2 3 1 4 25 5 26 6 87 7 27 8 86 9 28 10 29 11 30 12
REMARK SMILES IDX 80 13 31 14 85 15 79 16 81 17 32 18 84 19 78 20 77 21 33 23
REMARK SMILES IDX 65 24 45 25 64 26 46 27 49 28 63 29 82 30 47 31 48 32 62 34
REMARK SMILES IDX 83 35 50 36 34 37 35 38 43 39 36 40 42 41 44 42 41 43 37 44
REMARK SMILES IDX 38 45 39 46 40 47 66 48 67 49 75 50 68 51 74 52 76 53 73 54
REMARK SMILES IDX 69 55 70 56 71 57 72 58 51 59 52 60 60 61 53 62 59 63 61 64
REMARK SMILES IDX 58 65 54 66 55 67 56 68 57 69 5 70 6 71 7 72 8 73 9 74 14 75
REMARK SMILES IDX 24 76 15 77 17 78 16 79 10 80 11 83 12 84 13 85 18 86 19 87
REMARK SMILES IDX 20 88 23 89 21 90 22 91
REMARK H PARENT 81 22 49 33 10 81 10 82 23 92
REMARK Flexibility Score: inf
ROOT
ATOM      1  C   UNL A   1      32.562  32.854  27.199  1.00  0.00     0.275 C 
ENDROOT
BRANCH   1   2
ATOM      2  O   UNL A   1      32.169  34.122  27.730  1.00  0.00    -0.458 OA
BRANCH   2   3
ATOM      3  C   UNL A   1      32.899  34.863  28.593  1.00  0.00     0.338 C 
ATOM      4  O   UNL A   1      32.571  36.020  28.843  1.00  0.00    -0.246 OA
BRANCH   3   5
ATOM      5  C   UNL A   1      34.154  34.352  29.201  1.00  0.00     0.060 A 
ATOM      6  C   UNL A   1      35.826  34.333  28.448  1.00  0.00     0.016 A 
ATOM      7  C   UNL A   1      33.951  33.802  30.916  1.00  0.00     0.016 A 
ATOM      8  C   UNL A   1      37.248  33.745  29.398  1.00  0.00     0.010 A 
ATOM      9  C   UNL A   1      35.353  33.113  31.816  1.00  0.00     0.010 A 
ATOM     10  C   UNL A   1      37.003  33.100  31.073  1.00  0.00    -0.014 A 
BRANCH  10  11
ATOM     11  C   UNL A   1      38.156  32.412  31.719  1.00  0.00     0.031 A 
ATOM     12  C   UNL A   1      38.711  32.919  33.027  1.00  0.00     0.074 A 
ATOM     13  C   UNL A   1      38.578  31.230  31.219  1.00  0.00     0.049 A 
ATOM     14  N   UNL A   1      39.541  32.311  33.833  1.00  0.00    -0.248 NA
ATOM     15  C   UNL A   1      38.187  34.178  33.586  1.00  0.00     0.031 C 
ATOM     16  C   UNL A   1      37.967  30.508  30.108  1.00  0.00     0.029 A 
ATOM     17  N   UNL A   1      39.632  30.421  31.544  1.00  0.00    -0.354 N 
ATOM     18  C   UNL A   1      39.547  33.052  35.011  1.00  0.00     0.074 A 
ATOM     19  C   UNL A   1      38.660  34.168  34.823  1.00  0.00     0.031 C 
ATOM     20  C   UNL A   1      38.714  29.469  29.738  1.00  0.00     0.029 A 
ATOM     21  C   UNL A   1      39.858  29.430  30.612  1.00  0.00     0.049 A 
ATOM     22  H   UNL A   1      40.174  30.534  32.359  1.00  0.00     0.167 HD
ATOM     23  C   UNL A   1      40.242  32.811  36.144  1.00  0.00     0.034 A 
ATOM     24  C   UNL A   1      40.889  28.590  30.442  1.00  0.00     0.034 A 
ATOM     25  C   UNL A   1      41.239  31.777  36.221  1.00  0.00     0.049 A 
ATOM     26  C   UNL A   1      41.860  28.538  31.568  1.00  0.00     0.074 A 
ATOM     27  C   UNL A   1      42.110  31.496  37.254  1.00  0.00     0.029 A 
ATOM     28  N   UNL A   1      41.545  30.903  35.183  1.00  0.00    -0.354 N 
ATOM     29  N   UNL A   1      41.828  29.234  32.683  1.00  0.00    -0.248 NA
ATOM     30  C   UNL A   1      42.944  27.567  31.471  1.00  0.00     0.031 C 
ATOM     31  C   UNL A   1      43.021  30.541  36.794  1.00  0.00     0.029 A 
ATOM     32  C   UNL A   1      42.652  30.146  35.516  1.00  0.00     0.049 A 
ATOM     33  H   UNL A   1      41.048  30.834  34.336  1.00  0.00     0.167 HD
ATOM     34  C   UNL A   1      42.871  28.755  33.448  1.00  0.00     0.074 A 
ATOM     35  C   UNL A   1      43.496  27.697  32.668  1.00  0.00     0.031 C 
ATOM     36  C   UNL A   1      43.272  29.145  34.683  1.00  0.00     0.034 A 
BRANCH  23  37
ATOM     37  C   UNL A   1      40.070  33.767  37.297  1.00  0.00     0.023 A 
ATOM     38  C   UNL A   1      40.939  34.851  37.522  1.00  0.00     0.031 A 
ATOM     39  C   UNL A   1      39.006  33.575  38.195  1.00  0.00     0.131 A 
ATOM     40  C   UNL A   1      40.728  35.695  38.628  1.00  0.00     0.055 A 
ATOM     41  C   UNL A   1      38.769  34.447  39.257  1.00  0.00     0.041 A 
ATOM     42  F   UNL A   1      38.181  32.525  38.055  1.00  0.00    -0.206 F 
ATOM     43  C   UNL A   1      39.633  35.514  39.479  1.00  0.00     0.022 A 
BRANCH  40  44
ATOM     44  S   UNL A   1      41.949  36.986  39.006  1.00  0.00     0.124 S 
ATOM     45  O   UNL A   1      42.537  37.233  37.692  1.00  0.00    -0.237 OA
ATOM     46  O   UNL A   1      41.121  38.058  39.548  1.00  0.00    -0.237 OA
ATOM     47  O   UNL A   1      42.843  36.343  39.969  1.00  0.00    -0.744 OA
ENDBRANCH  40  44
ENDBRANCH  23  37
BRANCH  24  48
ATOM     48  C   UNL A   1      41.020  27.796  29.189  1.00  0.00     0.023 A 
ATOM     49  C   UNL A   1      42.001  28.076  28.233  1.00  0.00     0.031 A 
ATOM     50  C   UNL A   1      40.133  26.728  28.928  1.00  0.00     0.131 A 
ATOM     51  C   UNL A   1      42.036  27.344  27.035  1.00  0.00     0.055 A 
ATOM     52  C   UNL A   1      40.212  25.964  27.764  1.00  0.00     0.041 A 
ATOM     53  F   UNL A   1      39.182  26.399  29.818  1.00  0.00    -0.206 F 
ATOM     54  C   UNL A   1      41.158  26.284  26.798  1.00  0.00     0.022 A 
BRANCH  51  55
ATOM     55  S   UNL A   1      43.176  27.883  25.733  1.00  0.00     0.124 S 
ATOM     56  O   UNL A   1      43.476  29.250  26.147  1.00  0.00    -0.237 OA
ATOM     57  O   UNL A   1      44.261  26.918  25.867  1.00  0.00    -0.237 OA
ATOM     58  O   UNL A   1      42.377  27.762  24.515  1.00  0.00    -0.744 OA
ENDBRANCH  51  55
ENDBRANCH  24  48
BRANCH  36  59
ATOM     59  C   UNL A   1      44.461  28.419  35.225  1.00  0.00     0.023 A 
ATOM     60  C   UNL A   1      44.294  27.254  35.986  1.00  0.00     0.031 A 
ATOM     61  C   UNL A   1      45.755  28.926  35.031  1.00  0.00     0.131 A 
ATOM     62  C   UNL A   1      45.400  26.685  36.618  1.00  0.00     0.055 A 
ATOM     63  C   UNL A   1      46.866  28.294  35.581  1.00  0.00     0.041 A 
ATOM     64  F   UNL A   1      45.954  30.044  34.316  1.00  0.00    -0.206 F 
ATOM     65  C   UNL A   1      46.689  27.179  36.398  1.00  0.00     0.022 A 
BRANCH  62  66
ATOM     66  S   UNL A   1      45.098  25.397  37.851  1.00  0.00     0.124 S 
ATOM     67  O   UNL A   1      43.694  25.078  37.607  1.00  0.00    -0.237 OA
ATOM     68  O   UNL A   1      46.059  24.367  37.470  1.00  0.00    -0.237 OA
ATOM     69  O   UNL A   1      45.373  26.069  39.118  1.00  0.00    -0.744 OA
ENDBRANCH  62  66
ENDBRANCH  36  59
ENDBRANCH  10  11
ENDBRANCH   3   5
ENDBRANCH   2   3
ENDBRANCH   1   2
BRANCH   1  70
ATOM     70  C   UNL A   1      31.373  31.974  26.719  1.00  0.00     0.274 C 
BRANCH  70  71
ATOM     71  O   UNL A   1      31.656  30.999  25.672  1.00  0.00    -0.457 OA
BRANCH  71  72
ATOM     72  C   UNL A   1      31.628  29.685  26.030  1.00  0.00     0.368 C 
ATOM     73  O   UNL A   1      31.698  29.359  27.212  1.00  0.00    -0.245 OA
BRANCH  72  74
ATOM     74  C   UNL A   1      31.430  28.649  24.818  1.00  0.00     0.195 C 
ATOM     75  C   UNL A   1      31.016  27.260  25.382  1.00  0.00     0.081 C 
ATOM     76  C   UNL A   1      30.096  29.194  24.130  1.00  0.00     0.096 C 
ATOM     77  C   UNL A   1      30.432  26.321  24.317  1.00  0.00     0.008 C 
ATOM     78  C   UNL A   1      29.217  28.251  23.282  1.00  0.00     0.061 C 
ATOM     79  C   UNL A   1      29.125  26.805  23.757  1.00  0.00     0.015 C 
BRANCH  74  80
ATOM     80  N   UNL A   1      32.601  28.409  23.641  1.00  0.00    -0.330 N 
ATOM     81  H   UNL A   1      33.432  28.692  24.158  1.00  0.00     0.347 HD
ATOM     82  H   UNL A   1      31.948  28.714  22.918  1.00  0.00     0.347 HD
BRANCH  80  83
ATOM     83  C   UNL A   1      33.460  26.993  22.298  1.00  0.00     0.183 C 
ATOM     84  C   UNL A   1      33.655  25.343  22.340  1.00  0.00     0.071 C 
ATOM     85  C   UNL A   1      32.857  25.895  21.236  1.00  0.00     0.071 C 
ENDBRANCH  80  83
ENDBRANCH  74  80
BRANCH  78  86
ATOM     86  S   UNL A   1      27.484  28.896  23.097  1.00  0.00    -0.083 SA
BRANCH  86  87
ATOM     87  C   UNL A   1      27.773  30.470  22.437  1.00  0.00     0.183 A 
ATOM     88  N   UNL A   1      28.316  30.767  21.282  1.00  0.00    -0.210 NA
ATOM     89  N   UNL A   1      27.599  31.606  23.170  1.00  0.00    -0.254 N 
ATOM     90  C   UNL A   1      28.473  32.122  21.361  1.00  0.00     0.247 A 
ATOM     91  N   UNL A   1      28.044  32.685  22.494  1.00  0.00    -0.162 NA
ATOM     92  H   UNL A   1      27.201  31.635  24.069  1.00  0.00     0.192 HD
ENDBRANCH  86  87
ENDBRANCH  78  86
ENDBRANCH  72  74
ENDBRANCH  71  72
ENDBRANCH  70  71
ENDBRANCH   1  70
TORSDOF 18
ENDMDL
MODEL 2
REMARK VINA RESULT:     -11.8      0.534      7.669
REMARK SMILES O=C(OCCOC(=O)[C@@]1([NH2+]C2CC2)CCC[C@@H](Sc2ncn[nH]2)C1)c1ccc(-c2c3nc(c(-c4cc(S(=O)(=O)[O-])ccc4F)c4ccc([nH]4)c(-c4cc(S(=O)(=O)[O-])ccc4F)c4nc(c(-c5cc(S(=O)(=O)[O-])ccc5F)c5ccc2[nH]5)C=C4)C=C3)cc1
REMARK SMILES IDX 4 1 3 2 2 3 1 4 25 5 26 6 87 7 27 8 86 9 28 10 29 11 30 12
REMARK SMILES IDX 80 13 31 14 85 15 79 16 81 17 32 18 84 19 78 20 77 21 33 23
REMARK SMILES IDX 65 24 45 25 64 26 46 27 49 28 63 29 82 30 47 31 48 32 62 34
REMARK SMILES IDX 83 35 50 36 34 37 35 38 43 39 36 40 42 41 44 42 41 43 37 44
REMARK SMILES IDX 38 45 39 46 40 47 66 48 67 49 75 50 68 51 74 52 76 53 73 54
REMARK SMILES IDX 69 55 70 56 71 57 72 58 51 59 52 60 60 61 53 62 59 63 61 64
REMARK SMILES IDX 58 65 54 66 55 67 56 68 57 69 5 70 6 71 7 72 8 73 9 74 14 75
REMARK SMILES IDX 24 76 15 77 17 78 16 79 10 80 11 83 12 84 13 85 18 86 19 87
REMARK SMILES IDX 20 88 23 89 21 90 22 91
REMARK H PARENT 81 22 49 33 10 81 10 82 23 92
REMARK Flexibility Score: inf
ROOT
ATOM      1  C   UNL A   1      32.515  32.921  27.120  1.00  0.00     0.275 C 
ENDROOT
BRANCH   1   2
ATOM      2  O   UNL A   1      32.143  34.200  27.641  1.00  0.00    -0.458 OA
BRANCH   2   3
ATOM      3  C   UNL A   1      32.858  34.910  28.542  1.00  0.00     0.338 C 
ATOM      4  O   UNL A   1      32.528  36.059  28.824  1.00  0.00    -0.246 OA
BRANCH   3   5
ATOM      5  C   UNL A   1      34.101  34.376  29.155  1.00  0.00     0.060 A 
ATOM      6  C   UNL A   1      35.761  34.265  28.385  1.00  0.00     0.016 A 
ATOM      7  C   UNL A   1      33.899  33.900  30.893  1.00  0.00     0.016 A 
ATOM      8  C   UNL A   1      37.172  33.661  29.341  1.00  0.00     0.010 A 
ATOM      9  C   UNL A   1      35.286  33.193  31.803  1.00  0.00     0.010 A 
ATOM     10  C   UNL A   1      36.925  33.090  31.043  1.00  0.00    -0.014 A 
BRANCH  10  11
ATOM     11  C   UNL A   1      38.060  32.384  31.701  1.00  0.00     0.031 A 
ATOM     12  C   UNL A   1      38.622  31.119  31.100  1.00  0.00     0.074 A 
ATOM     13  C   UNL A   1      38.696  32.983  32.731  1.00  0.00     0.049 A 
ATOM     14  N   UNL A   1      39.742  30.518  31.405  1.00  0.00    -0.248 NA
ATOM     15  C   UNL A   1      37.947  30.520  29.934  1.00  0.00     0.031 C 
ATOM     16  C   UNL A   1      38.411  34.317  33.249  1.00  0.00     0.029 A 
ATOM     17  N   UNL A   1      39.698  32.559  33.561  1.00  0.00    -0.354 N 
ATOM     18  C   UNL A   1      39.947  29.561  30.416  1.00  0.00     0.074 A 
ATOM     19  C   UNL A   1      38.835  29.635  29.508  1.00  0.00     0.031 C 
ATOM     20  C   UNL A   1      39.083  34.552  34.375  1.00  0.00     0.029 A 
ATOM     21  C   UNL A   1      39.879  33.384  34.652  1.00  0.00     0.049 A 
ATOM     22  H   UNL A   1      40.233  31.749  33.398  1.00  0.00     0.167 HD
ATOM     23  C   UNL A   1      40.978  28.698  30.292  1.00  0.00     0.034 A 
ATOM     24  C   UNL A   1      40.581  33.220  35.782  1.00  0.00     0.034 A 
ATOM     25  C   UNL A   1      41.978  28.553  31.316  1.00  0.00     0.049 A 
ATOM     26  C   UNL A   1      41.517  32.064  35.787  1.00  0.00     0.074 A 
ATOM     27  C   UNL A   1      43.008  27.637  31.390  1.00  0.00     0.029 A 
ATOM     28  N   UNL A   1      42.018  29.306  32.485  1.00  0.00    -0.354 N 
ATOM     29  N   UNL A   1      41.709  31.187  34.826  1.00  0.00    -0.248 NA
ATOM     30  C   UNL A   1      42.374  31.903  36.956  1.00  0.00     0.031 C 
ATOM     31  C   UNL A   1      43.588  27.753  32.657  1.00  0.00     0.029 A 
ATOM     32  C   UNL A   1      42.996  28.813  33.328  1.00  0.00     0.049 A 
ATOM     33  H   UNL A   1      41.436  30.075  32.684  1.00  0.00     0.167 HD
ATOM     34  C   UNL A   1      42.745  30.385  35.258  1.00  0.00     0.074 A 
ATOM     35  C   UNL A   1      43.145  30.902  36.558  1.00  0.00     0.031 C 
ATOM     36  C   UNL A   1      43.319  29.326  34.637  1.00  0.00     0.034 A 
BRANCH  23  37
ATOM     37  C   UNL A   1      40.975  27.755  29.116  1.00  0.00     0.023 A 
ATOM     38  C   UNL A   1      41.837  27.911  28.014  1.00  0.00     0.031 A 
ATOM     39  C   UNL A   1      40.073  26.676  29.103  1.00  0.00     0.131 A 
ATOM     40  C   UNL A   1      41.769  27.002  26.943  1.00  0.00     0.055 A 
ATOM     41  C   UNL A   1      40.049  25.747  28.063  1.00  0.00     0.041 A 
ATOM     42  F   UNL A   1      39.194  26.515  30.104  1.00  0.00    -0.206 F 
ATOM     43  C   UNL A   1      40.900  25.907  26.975  1.00  0.00     0.022 A 
BRANCH  40  44
ATOM     44  S   UNL A   1      42.765  27.308  25.454  1.00  0.00     0.124 S 
ATOM     45  O   UNL A   1      44.079  27.584  26.027  1.00  0.00    -0.237 OA
ATOM     46  O   UNL A   1      42.637  26.051  24.722  1.00  0.00    -0.237 OA
ATOM     47  O   UNL A   1      42.110  28.458  24.832  1.00  0.00    -0.744 OA
ENDBRANCH  40  44
ENDBRANCH  23  37
BRANCH  24  48
ATOM     48  C   UNL A   1      40.392  34.146  36.932  1.00  0.00     0.023 A 
ATOM     49  C   UNL A   1      41.318  35.148  37.239  1.00  0.00     0.031 A 
ATOM     50  C   UNL A   1      39.255  34.027  37.762  1.00  0.00     0.131 A 
ATOM     51  C   UNL A   1      41.130  35.948  38.376  1.00  0.00     0.055 A 
ATOM     52  C   UNL A   1      39.041  34.865  38.856  1.00  0.00     0.041 A 
ATOM     53  F   UNL A   1      38.320  33.096  37.507  1.00  0.00    -0.206 F 
ATOM     54  C   UNL A   1      39.994  35.823  39.180  1.00  0.00     0.022 A 
BRANCH  51  55
ATOM     55  S   UNL A   1      42.461  37.079  38.862  1.00  0.00     0.124 S 
ATOM     56  O   UNL A   1      43.289  36.221  39.702  1.00  0.00    -0.237 OA
ATOM     57  O   UNL A   1      43.025  37.448  37.568  1.00  0.00    -0.237 OA
ATOM     58  O   UNL A   1      41.756  38.148  39.565  1.00  0.00    -0.744 OA
ENDBRANCH  51  55
ENDBRANCH  24  48
BRANCH  36  59
ATOM     59  C   UNL A   1      44.422  28.663  35.398  1.00  0.00     0.023 A 
ATOM     60  C   UNL A   1      44.154  27.551  36.207  1.00  0.00     0.031 A 
ATOM     61  C   UNL A   1      45.725  29.181  35.362  1.00  0.00     0.131 A 
ATOM     62  C   UNL A   1      45.160  27.049  37.034  1.00  0.00     0.055 A 
ATOM     63  C   UNL A   1      46.748  28.611  36.113  1.00  0.00     0.041 A 
ATOM     64  F   UNL A   1      46.018  30.251  34.606  1.00  0.00    -0.206 F 
ATOM     65  C   UNL A   1      46.462  27.551  36.972  1.00  0.00     0.022 A 
BRANCH  62  66
ATOM     66  S   UNL A   1      44.689  25.843  38.297  1.00  0.00     0.124 S 
ATOM     67  O   UNL A   1      43.623  25.109  37.623  1.00  0.00    -0.237 OA
ATOM     68  O   UNL A   1      45.933  25.107  38.507  1.00  0.00    -0.237 OA
ATOM     69  O   UNL A   1      44.261  26.675  39.419  1.00  0.00    -0.744 OA
ENDBRANCH  62  66
ENDBRANCH  36  59
ENDBRANCH  10  11
ENDBRANCH   3   5
ENDBRANCH   2   3
ENDBRANCH   1   2
BRANCH   1  70
ATOM     70  C   UNL A   1      31.309  31.987  26.818  1.00  0.00     0.274 C 
BRANCH  70  71
ATOM     71  O   UNL A   1      31.475  31.028  25.733  1.00  0.00    -0.457 OA
BRANCH  71  72
ATOM     72  C   UNL A   1      31.779  29.747  26.082  1.00  0.00     0.368 C 
ATOM     73  O   UNL A   1      32.115  29.479  27.233  1.00  0.00    -0.245 OA
BRANCH  72  74
ATOM     74  C   UNL A   1      31.596  28.657  24.917  1.00  0.00     0.195 C 
ATOM     75  C   UNL A   1      31.049  27.333  25.523  1.00  0.00     0.081 C 
ATOM     76  C   UNL A   1      30.354  29.245  24.104  1.00  0.00     0.096 C 
ATOM     77  C   UNL A   1      30.478  26.372  24.471  1.00  0.00     0.008 C 
ATOM     78  C   UNL A   1      29.475  28.313  23.246  1.00  0.00     0.061 C 
ATOM     79  C   UNL A   1      29.250  26.906  23.790  1.00  0.00     0.015 C 
BRANCH  74  80
ATOM     80  N   UNL A   1      32.827  28.273  23.845  1.00  0.00    -0.330 N 
ATOM     81  H   UNL A   1      33.623  28.274  24.481  1.00  0.00     0.347 HD
ATOM     82  H   UNL A   1      32.369  28.814  23.112  1.00  0.00     0.347 HD
BRANCH  80  83
ATOM     83  C   UNL A   1      33.506  26.856  22.403  1.00  0.00     0.183 C 
ATOM     84  C   UNL A   1      33.512  25.195  22.340  1.00  0.00     0.071 C 
ATOM     85  C   UNL A   1      32.771  25.902  21.286  1.00  0.00     0.071 C 
ENDBRANCH  80  83
ENDBRANCH  74  80
BRANCH  78  86
ATOM     86  S   UNL A   1      27.807  29.057  22.898  1.00  0.00    -0.083 SA
BRANCH  86  87
ATOM     87  C   UNL A   1      28.223  30.712  22.611  1.00  0.00     0.183 A 
ATOM     88  N   UNL A   1      28.317  31.678  23.490  1.00  0.00    -0.210 NA
ATOM     89  N   UNL A   1      28.339  31.222  21.352  1.00  0.00    -0.254 N 
ATOM     90  C   UNL A   1      28.479  32.786  22.707  1.00  0.00     0.247 A 
ATOM     91  N   UNL A   1      28.506  32.560  21.390  1.00  0.00    -0.162 NA
ATOM     92  H   UNL A   1      28.307  30.687  20.528  1.00  0.00     0.192 HD
ENDBRANCH  86  87
ENDBRANCH  78  86
ENDBRANCH  72  74
ENDBRANCH  71  72
ENDBRANCH  70  71
ENDBRANCH   1  70
TORSDOF 18
ENDMDL
MODEL 3
REMARK VINA RESULT:     -11.7      6.823     12.130
REMARK SMILES O=C(OCCOC(=O)[C@@]1([NH2+]C2CC2)CCC[C@@H](Sc2ncn[nH]2)C1)c1ccc(-c2c3nc(c(-c4cc(S(=O)(=O)[O-])ccc4F)c4ccc([nH]4)c(-c4cc(S(=O)(=O)[O-])ccc4F)c4nc(c(-c5cc(S(=O)(=O)[O-])ccc5F)c5ccc2[nH]5)C=C4)C=C3)cc1
REMARK SMILES IDX 4 1 3 2 2 3 1 4 25 5 26 6 87 7 27 8 86 9 28 10 29 11 30 12
REMARK SMILES IDX 80 13 31 14 85 15 79 16 81 17 32 18 84 19 78 20 77 21 33 23
REMARK SMILES IDX 65 24 45 25 64 26 46 27 49 28 63 29 82 30 47 31 48 32 62 34
REMARK SMILES IDX 83 35 50 36 34 37 35 38 43 39 36 40 42 41 44 42 41 43 37 44
REMARK SMILES IDX 38 45 39 46 40 47 66 48 67 49 75 50 68 51 74 52 76 53 73 54
REMARK SMILES IDX 69 55 70 56 71 57 72 58 51 59 52 60 60 61 53 62 59 63 61 64
REMARK SMILES IDX 58 65 54 66 55 67 56 68 57 69 5 70 6 71 7 72 8 73 9 74 14 75
REMARK SMILES IDX 24 76 15 77 17 78 16 79 10 80 11 83 12 84 13 85 18 86 19 87
REMARK SMILES IDX 20 88 23 89 21 90 22 91
REMARK H PARENT 81 22 49 33 10 81 10 82 23 92
REMARK Flexibility Score: inf
ROOT
ATOM      1  C   UNL A   1      39.161  20.251  25.627  1.00  0.00     0.275 C 
ENDROOT
BRANCH   1   2
ATOM      2  O   UNL A   1      40.146  19.215  25.692  1.00  0.00    -0.458 OA
BRANCH   2   3
ATOM      3  C   UNL A   1      41.450  19.401  25.996  1.00  0.00     0.338 C 
ATOM      4  O   UNL A   1      42.228  18.451  25.979  1.00  0.00    -0.246 OA
BRANCH   3   5
ATOM      5  C   UNL A   1      41.973  20.718  26.441  1.00  0.00     0.060 A 
ATOM      6  C   UNL A   1      41.939  21.411  28.138  1.00  0.00     0.016 A 
ATOM      7  C   UNL A   1      42.820  21.636  25.128  1.00  0.00     0.016 A 
ATOM      8  C   UNL A   1      42.715  23.006  28.488  1.00  0.00     0.010 A 
ATOM      9  C   UNL A   1      43.492  23.276  25.462  1.00  0.00     0.010 A 
ATOM     10  C   UNL A   1      43.463  23.956  27.138  1.00  0.00    -0.014 A 
BRANCH  10  11
ATOM     11  C   UNL A   1      43.873  25.358  27.430  1.00  0.00     0.031 A 
ATOM     12  C   UNL A   1      45.319  25.772  27.301  1.00  0.00     0.074 A 
ATOM     13  C   UNL A   1      42.919  26.292  27.632  1.00  0.00     0.049 A 
ATOM     14  N   UNL A   1      45.805  26.985  27.285  1.00  0.00    -0.248 NA
ATOM     15  C   UNL A   1      46.334  24.742  27.015  1.00  0.00     0.031 C 
ATOM     16  C   UNL A   1      41.479  26.074  27.537  1.00  0.00     0.029 A 
ATOM     17  N   UNL A   1      42.988  27.612  27.986  1.00  0.00    -0.354 N 
ATOM     18  C   UNL A   1      47.132  26.863  26.887  1.00  0.00     0.074 A 
ATOM     19  C   UNL A   1      47.396  25.463  26.689  1.00  0.00     0.031 C 
ATOM     20  C   UNL A   1      40.800  27.138  27.963  1.00  0.00     0.029 A 
ATOM     21  C   UNL A   1      41.763  28.139  28.341  1.00  0.00     0.049 A 
ATOM     22  H   UNL A   1      43.824  28.132  27.987  1.00  0.00     0.167 HD
ATOM     23  C   UNL A   1      48.044  27.844  26.711  1.00  0.00     0.034 A 
ATOM     24  C   UNL A   1      41.435  29.293  28.939  1.00  0.00     0.034 A 
ATOM     25  C   UNL A   1      47.776  29.207  27.083  1.00  0.00     0.049 A 
ATOM     26  C   UNL A   1      42.531  30.293  29.041  1.00  0.00     0.074 A 
ATOM     27  C   UNL A   1      48.639  30.285  27.082  1.00  0.00     0.029 A 
ATOM     28  N   UNL A   1      46.565  29.658  27.597  1.00  0.00    -0.354 N 
ATOM     29  N   UNL A   1      43.774  30.160  28.634  1.00  0.00    -0.248 NA
ATOM     30  C   UNL A   1      42.195  31.599  29.596  1.00  0.00     0.031 C 
ATOM     31  C   UNL A   1      47.989  31.350  27.711  1.00  0.00     0.029 A 
ATOM     32  C   UNL A   1      46.686  30.973  28.003  1.00  0.00     0.049 A 
ATOM     33  H   UNL A   1      45.743  29.120  27.662  1.00  0.00     0.167 HD
ATOM     34  C   UNL A   1      44.366  31.387  28.847  1.00  0.00     0.074 A 
ATOM     35  C   UNL A   1      43.333  32.248  29.400  1.00  0.00     0.031 C 
ATOM     36  C   UNL A   1      45.643  31.771  28.600  1.00  0.00     0.034 A 
BRANCH  23  37
ATOM     37  C   UNL A   1      49.429  27.452  26.263  1.00  0.00     0.023 A 
ATOM     38  C   UNL A   1      50.480  27.207  27.168  1.00  0.00     0.031 A 
ATOM     39  C   UNL A   1      49.696  27.329  24.889  1.00  0.00     0.131 A 
ATOM     40  C   UNL A   1      51.752  26.860  26.678  1.00  0.00     0.055 A 
ATOM     41  C   UNL A   1      50.946  26.931  24.413  1.00  0.00     0.041 A 
ATOM     42  F   UNL A   1      48.744  27.604  23.984  1.00  0.00    -0.206 F 
ATOM     43  C   UNL A   1      51.982  26.694  25.309  1.00  0.00     0.022 A 
BRANCH  40  44
ATOM     44  S   UNL A   1      53.140  26.711  27.842  1.00  0.00     0.124 S 
ATOM     45  O   UNL A   1      53.848  25.549  27.313  1.00  0.00    -0.237 OA
ATOM     46  O   UNL A   1      53.817  27.995  27.694  1.00  0.00    -0.237 OA
ATOM     47  O   UNL A   1      52.486  26.498  29.132  1.00  0.00    -0.744 OA
ENDBRANCH  40  44
ENDBRANCH  23  37
BRANCH  24  48
ATOM     48  C   UNL A   1      40.058  29.506  29.465  1.00  0.00     0.023 A 
ATOM     49  C   UNL A   1      39.779  29.507  30.836  1.00  0.00     0.031 A 
ATOM     50  C   UNL A   1      38.979  29.707  28.575  1.00  0.00     0.131 A 
ATOM     51  C   UNL A   1      38.453  29.641  31.277  1.00  0.00     0.055 A 
ATOM     52  C   UNL A   1      37.673  29.902  29.022  1.00  0.00     0.041 A 
ATOM     53  F   UNL A   1      39.188  29.736  27.248  1.00  0.00    -0.206 F 
ATOM     54  C   UNL A   1      37.401  29.849  30.383  1.00  0.00     0.022 A 
BRANCH  51  55
ATOM     55  S   UNL A   1      38.109  29.413  33.043  1.00  0.00     0.124 S 
ATOM     56  O   UNL A   1      37.320  28.186  33.036  1.00  0.00    -0.237 OA
ATOM     57  O   UNL A   1      39.454  29.309  33.598  1.00  0.00    -0.237 OA
ATOM     58  O   UNL A   1      37.376  30.625  33.403  1.00  0.00    -0.744 OA
ENDBRANCH  51  55
ENDBRANCH  24  48
BRANCH  36  59
ATOM     59  C   UNL A   1      45.964  33.185  28.966  1.00  0.00     0.023 A 
ATOM     60  C   UNL A   1      45.658  34.230  28.084  1.00  0.00     0.031 A 
ATOM     61  C   UNL A   1      46.628  33.479  30.166  1.00  0.00     0.131 A 
ATOM     62  C   UNL A   1      46.111  35.519  28.368  1.00  0.00     0.055 A 
ATOM     63  C   UNL A   1      46.986  34.783  30.490  1.00  0.00     0.041 A 
ATOM     64  F   UNL A   1      46.946  32.502  31.031  1.00  0.00    -0.206 F 
ATOM     65  C   UNL A   1      46.747  35.809  29.579  1.00  0.00     0.022 A 
BRANCH  62  66
ATOM     66  S   UNL A   1      45.993  36.763  27.060  1.00  0.00     0.124 S 
ATOM     67  O   UNL A   1      46.778  37.858  27.623  1.00  0.00    -0.237 OA
ATOM     68  O   UNL A   1      46.589  36.075  25.919  1.00  0.00    -0.237 OA
ATOM     69  O   UNL A   1      44.558  37.013  26.957  1.00  0.00    -0.744 OA
ENDBRANCH  62  66
ENDBRANCH  36  59
ENDBRANCH  10  11
ENDBRANCH   3   5
ENDBRANCH   2   3
ENDBRANCH   1   2
BRANCH   1  70
ATOM     70  C   UNL A   1      37.849  19.830  24.906  1.00  0.00     0.274 C 
BRANCH  70  71
ATOM     71  O   UNL A   1      36.610  20.424  25.394  1.00  0.00    -0.457 OA
BRANCH  71  72
ATOM     72  C   UNL A   1      36.088  21.449  24.665  1.00  0.00     0.368 C 
ATOM     73  O   UNL A   1      36.817  22.153  23.969  1.00  0.00    -0.245 OA
BRANCH  72  74
ATOM     74  C   UNL A   1      34.491  21.601  24.740  1.00  0.00     0.195 C 
ATOM     75  C   UNL A   1      33.997  22.503  23.574  1.00  0.00     0.081 C 
ATOM     76  C   UNL A   1      34.000  20.139  24.325  1.00  0.00     0.096 C 
ATOM     77  C   UNL A   1      32.486  22.399  23.322  1.00  0.00     0.008 C 
ATOM     78  C   UNL A   1      32.588  19.931  23.737  1.00  0.00     0.061 C 
ATOM     79  C   UNL A   1      32.062  21.042  22.835  1.00  0.00     0.015 C 
BRANCH  74  80
ATOM     80  N   UNL A   1      33.699  22.074  26.140  1.00  0.00    -0.330 N 
ATOM     81  H   UNL A   1      34.427  22.639  26.574  1.00  0.00     0.347 HD
ATOM     82  H   UNL A   1      33.231  21.168  26.192  1.00  0.00     0.347 HD
BRANCH  80  83
ATOM     83  C   UNL A   1      31.965  23.037  26.923  1.00  0.00     0.183 C 
ATOM     84  C   UNL A   1      30.841  24.079  26.280  1.00  0.00     0.071 C 
ATOM     85  C   UNL A   1      30.346  22.792  26.787  1.00  0.00     0.071 C 
ENDBRANCH  80  83
ENDBRANCH  74  80
BRANCH  78  86
ATOM     86  S   UNL A   1      32.456  18.332  22.799  1.00  0.00    -0.083 SA
BRANCH  86  87
ATOM     87  C   UNL A   1      32.922  17.185  24.009  1.00  0.00     0.183 A 
ATOM     88  N   UNL A   1      33.913  16.329  23.962  1.00  0.00    -0.210 NA
ATOM     89  N   UNL A   1      32.158  16.945  25.112  1.00  0.00    -0.254 N 
ATOM     90  C   UNL A   1      33.702  15.561  25.072  1.00  0.00     0.247 A 
ATOM     91  N   UNL A   1      32.644  15.901  25.814  1.00  0.00    -0.162 NA
ATOM     92  H   UNL A   1      31.361  17.464  25.363  1.00  0.00     0.192 HD
ENDBRANCH  86  87
ENDBRANCH  78  86
ENDBRANCH  72  74
ENDBRANCH  71  72
ENDBRANCH  70  71
ENDBRANCH   1  70
TORSDOF 18
ENDMDL
