MODEL 1
REMARK VINA RESULT:     -13.4      0.000      0.000
REMARK SMILES O=C(OCCOC(=O)[C@H](c1c[nH]c2cc(F)ccc12)[NH+]1CC[NH+](CC(=O)N2CCOCC2)CC1)c1ccc(-c2c3nc(c(-c4cc(S(=O)(=O)[O-])ccc4F)c4ccc([nH]4)c(-c4cc(S(=O)(=O)[O-])ccc4F)c4nc(c(-c5cc(S(=O)(=O)[O-])ccc5F)c5ccc2[nH]5)C=C4)C=C3)cc1
REMARK SMILES IDX 4 1 3 2 2 3 1 4 35 5 36 6 97 7 37 8 96 9 38 10 39 11 40 12
REMARK SMILES IDX 90 13 41 14 95 15 89 16 91 17 42 18 94 19 88 20 87 21 43 23
REMARK SMILES IDX 75 24 55 25 74 26 56 27 59 28 73 29 92 30 57 31 58 32 72 34
REMARK SMILES IDX 93 35 60 36 44 37 45 38 53 39 46 40 52 41 54 42 51 43 47 44
REMARK SMILES IDX 48 45 49 46 50 47 76 48 77 49 85 50 78 51 84 52 86 53 83 54
REMARK SMILES IDX 79 55 80 56 81 57 82 58 61 59 62 60 70 61 63 62 69 63 71 64
REMARK SMILES IDX 68 65 64 66 65 67 66 68 67 69 5 70 6 71 7 72 8 73 9 74 20 75
REMARK SMILES IDX 21 76 34 77 22 79 33 80 23 81 24 83 25 84 26 85 27 86 28 87
REMARK SMILES IDX 32 88 29 89 31 90 30 91 10 92 11 93 19 94 12 95 13 96 18 97
REMARK SMILES IDX 14 99 17 100 15 101 16 102
REMARK H PARENT 91 22 59 33 20 78 23 82 12 98
REMARK Flexibility Score: inf
ROOT
ATOM      1  C   UNL A   1      37.600  21.565  24.767  1.00  0.00     0.275 C 
ENDROOT
BRANCH   1   2
ATOM      2  O   UNL A   1      38.078  21.575  26.136  1.00  0.00    -0.458 OA
BRANCH   2   3
ATOM      3  C   UNL A   1      39.365  21.832  26.478  1.00  0.00     0.338 C 
ATOM      4  O   UNL A   1      40.241  20.992  26.307  1.00  0.00    -0.246 OA
BRANCH   3   5
ATOM      5  C   UNL A   1      39.715  23.230  26.914  1.00  0.00     0.060 A 
ATOM      6  C   UNL A   1      39.036  24.382  26.508  1.00  0.00     0.016 A 
ATOM      7  C   UNL A   1      40.768  23.382  27.831  1.00  0.00     0.016 A 
ATOM      8  C   UNL A   1      39.329  25.631  27.083  1.00  0.00     0.010 A 
ATOM      9  C   UNL A   1      41.098  24.640  28.368  1.00  0.00     0.010 A 
ATOM     10  C   UNL A   1      40.357  25.773  28.027  1.00  0.00    -0.014 A 
BRANCH  10  11
ATOM     11  C   UNL A   1      40.794  27.140  28.432  1.00  0.00     0.031 A 
ATOM     12  C   UNL A   1      42.116  27.604  27.912  1.00  0.00     0.074 A 
ATOM     13  C   UNL A   1      40.075  27.951  29.234  1.00  0.00     0.049 A 
ATOM     14  N   UNL A   1      42.708  28.753  28.072  1.00  0.00    -0.248 NA
ATOM     15  C   UNL A   1      42.907  26.600  27.184  1.00  0.00     0.031 C 
ATOM     16  C   UNL A   1      38.882  27.549  29.955  1.00  0.00     0.029 A 
ATOM     17  N   UNL A   1      40.198  29.288  29.543  1.00  0.00    -0.354 N 
ATOM     18  C   UNL A   1      43.987  28.577  27.567  1.00  0.00     0.074 A 
ATOM     19  C   UNL A   1      44.054  27.236  27.029  1.00  0.00     0.031 C 
ATOM     20  C   UNL A   1      38.275  28.642  30.456  1.00  0.00     0.029 A 
ATOM     21  C   UNL A   1      39.077  29.823  30.163  1.00  0.00     0.049 A 
ATOM     22  H   UNL A   1      41.005  29.815  29.343  1.00  0.00     0.167 HD
ATOM     23  C   UNL A   1      45.031  29.435  27.629  1.00  0.00     0.034 A 
ATOM     24  C   UNL A   1      38.753  31.113  30.425  1.00  0.00     0.034 A 
ATOM     25  C   UNL A   1      44.940  30.752  28.199  1.00  0.00     0.049 A 
ATOM     26  C   UNL A   1      39.863  32.133  30.251  1.00  0.00     0.074 A 
ATOM     27  C   UNL A   1      45.938  31.695  28.360  1.00  0.00     0.029 A 
ATOM     28  N   UNL A   1      43.775  31.310  28.711  1.00  0.00    -0.354 N 
ATOM     29  N   UNL A   1      41.066  31.962  29.748  1.00  0.00    -0.248 NA
ATOM     30  C   UNL A   1      39.615  33.492  30.757  1.00  0.00     0.031 C 
ATOM     31  C   UNL A   1      45.385  32.806  29.009  1.00  0.00     0.029 A 
ATOM     32  C   UNL A   1      44.032  32.580  29.199  1.00  0.00     0.049 A 
ATOM     33  H   UNL A   1      42.896  30.867  28.725  1.00  0.00     0.167 HD
ATOM     34  C   UNL A   1      41.734  33.165  29.951  1.00  0.00     0.074 A 
ATOM     35  C   UNL A   1      40.768  34.091  30.506  1.00  0.00     0.031 C 
ATOM     36  C   UNL A   1      43.044  33.463  29.769  1.00  0.00     0.034 A 
BRANCH  23  37
ATOM     37  C   UNL A   1      46.362  28.881  27.207  1.00  0.00     0.023 A 
ATOM     38  C   UNL A   1      46.694  28.703  25.854  1.00  0.00     0.031 A 
ATOM     39  C   UNL A   1      47.244  28.382  28.182  1.00  0.00     0.131 A 
ATOM     40  C   UNL A   1      47.827  27.951  25.516  1.00  0.00     0.055 A 
ATOM     41  C   UNL A   1      48.419  27.715  27.835  1.00  0.00     0.041 A 
ATOM     42  F   UNL A   1      46.952  28.490  29.488  1.00  0.00    -0.206 F 
ATOM     43  C   UNL A   1      48.705  27.478  26.494  1.00  0.00     0.022 A 
BRANCH  40  44
ATOM     44  S   UNL A   1      48.040  27.452  23.784  1.00  0.00     0.124 S 
ATOM     45  O   UNL A   1      47.834  26.006  23.874  1.00  0.00    -0.237 OA
ATOM     46  O   UNL A   1      47.005  28.204  23.103  1.00  0.00    -0.237 OA
ATOM     47  O   UNL A   1      49.416  27.859  23.481  1.00  0.00    -0.744 OA
ENDBRANCH  40  44
ENDBRANCH  23  37
BRANCH  24  48
ATOM     48  C   UNL A   1      37.400  31.563  30.917  1.00  0.00     0.023 A 
ATOM     49  C   UNL A   1      36.460  32.114  30.014  1.00  0.00     0.031 A 
ATOM     50  C   UNL A   1      37.044  31.576  32.276  1.00  0.00     0.131 A 
ATOM     51  C   UNL A   1      35.270  32.704  30.480  1.00  0.00     0.055 A 
ATOM     52  C   UNL A   1      35.814  32.075  32.727  1.00  0.00     0.041 A 
ATOM     53  F   UNL A   1      37.900  31.135  33.211  1.00  0.00    -0.206 F 
ATOM     54  C   UNL A   1      34.928  32.662  31.831  1.00  0.00     0.022 A 
BRANCH  51  55
ATOM     55  S   UNL A   1      34.273  33.713  29.337  1.00  0.00     0.124 S 
ATOM     56  O   UNL A   1      33.699  32.695  28.465  1.00  0.00    -0.237 OA
ATOM     57  O   UNL A   1      33.341  34.381  30.239  1.00  0.00    -0.237 OA
ATOM     58  O   UNL A   1      35.258  34.587  28.701  1.00  0.00    -0.744 OA
ENDBRANCH  51  55
ENDBRANCH  24  48
BRANCH  36  59
ATOM     59  C   UNL A   1      43.499  34.821  30.234  1.00  0.00     0.023 A 
ATOM     60  C   UNL A   1      43.469  35.925  29.363  1.00  0.00     0.031 A 
ATOM     61  C   UNL A   1      43.938  35.020  31.552  1.00  0.00     0.131 A 
ATOM     62  C   UNL A   1      43.907  37.179  29.811  1.00  0.00     0.055 A 
ATOM     63  C   UNL A   1      44.328  36.280  32.007  1.00  0.00     0.041 A 
ATOM     64  F   UNL A   1      43.979  33.996  32.420  1.00  0.00    -0.206 F 
ATOM     65  C   UNL A   1      44.321  37.365  31.133  1.00  0.00     0.022 A 
BRANCH  62  66
ATOM     66  S   UNL A   1      43.964  38.556  28.634  1.00  0.00     0.124 S 
ATOM     67  O   UNL A   1      42.836  39.374  29.066  1.00  0.00    -0.237 OA
ATOM     68  O   UNL A   1      45.290  39.120  28.872  1.00  0.00    -0.237 OA
ATOM     69  O   UNL A   1      43.796  37.904  27.336  1.00  0.00    -0.744 OA
ENDBRANCH  62  66
ENDBRANCH  36  59
ENDBRANCH  10  11
ENDBRANCH   3   5
ENDBRANCH   2   3
ENDBRANCH   1   2
BRANCH   1  70
ATOM     70  C   UNL A   1      36.125  21.238  24.538  1.00  0.00     0.274 C 
BRANCH  70  71
ATOM     71  O   UNL A   1      35.354  22.392  24.862  1.00  0.00    -0.457 OA
BRANCH  71  72
ATOM     72  C   UNL A   1      34.563  22.890  23.871  1.00  0.00     0.370 C 
ATOM     73  O   UNL A   1      35.001  23.443  22.869  1.00  0.00    -0.245 OA
BRANCH  72  74
ATOM     74  C   UNL A   1      33.073  22.814  24.343  1.00  0.00     0.328 C 
BRANCH  74  75
ATOM     75  N   UNL A   1      32.488  24.171  24.188  1.00  0.00    -0.310 N 
ATOM     76  C   UNL A   1      31.039  24.265  24.019  1.00  0.00     0.325 C 
ATOM     77  C   UNL A   1      33.116  25.183  25.060  1.00  0.00     0.325 C 
ATOM     78  H   UNL A   1      32.767  24.435  23.244  1.00  0.00     0.349 HD
ATOM     79  C   UNL A   1      30.304  25.426  24.747  1.00  0.00     0.325 C 
ATOM     80  C   UNL A   1      32.287  26.329  25.662  1.00  0.00     0.325 C 
ATOM     81  N   UNL A   1      31.077  26.653  24.934  1.00  0.00    -0.318 N 
ATOM     82  H   UNL A   1      30.490  27.274  25.490  1.00  0.00     0.348 HD
BRANCH  81  83
ATOM     83  C   UNL A   1      31.267  27.540  23.776  1.00  0.00     0.364 C 
BRANCH  83  84
ATOM     84  C   UNL A   1      30.979  29.027  24.003  1.00  0.00     0.277 C 
ATOM     85  O   UNL A   1      31.774  29.715  24.653  1.00  0.00    -0.268 OA
ATOM     86  N   UNL A   1      29.822  29.600  23.482  1.00  0.00    -0.333 N 
ATOM     87  C   UNL A   1      28.673  28.869  22.945  1.00  0.00     0.148 C 
ATOM     88  C   UNL A   1      29.529  30.973  23.893  1.00  0.00     0.148 C 
ATOM     89  C   UNL A   1      27.805  29.704  22.004  1.00  0.00     0.181 C 
ATOM     90  C   UNL A   1      28.664  31.708  22.875  1.00  0.00     0.181 C 
ATOM     91  O   UNL A   1      27.468  30.974  22.578  1.00  0.00    -0.378 OA
ENDBRANCH  83  84
ENDBRANCH  81  83
ENDBRANCH  74  75
BRANCH  74  92
ATOM     92  C   UNL A   1      32.431  21.675  23.570  1.00  0.00     0.046 A 
ATOM     93  C   UNL A   1      31.868  21.717  22.307  1.00  0.00     0.094 A 
ATOM     94  C   UNL A   1      32.528  20.271  23.907  1.00  0.00     0.009 A 
ATOM     95  N   UNL A   1      31.778  20.436  21.825  1.00  0.00    -0.361 N 
ATOM     96  C   UNL A   1      32.246  19.539  22.754  1.00  0.00     0.049 A 
ATOM     97  C   UNL A   1      32.923  19.549  25.052  1.00  0.00     0.014 A 
ATOM     98  H   UNL A   1      31.427  20.194  20.938  1.00  0.00     0.166 HD
ATOM     99  C   UNL A   1      32.460  18.153  22.665  1.00  0.00     0.065 A 
ATOM    100  C   UNL A   1      33.126  18.166  24.997  1.00  0.00     0.040 A 
ATOM    101  C   UNL A   1      32.925  17.495  23.804  1.00  0.00     0.125 A 
ATOM    102  F   UNL A   1      33.176  16.179  23.744  1.00  0.00    -0.207 F 
ENDBRANCH  74  92
ENDBRANCH  72  74
ENDBRANCH  71  72
ENDBRANCH  70  71
ENDBRANCH   1  70
TORSDOF 18
ENDMDL
MODEL 2
REMARK VINA RESULT:     -13.4      4.828     10.351
REMARK SMILES O=C(OCCOC(=O)[C@H](c1c[nH]c2cc(F)ccc12)[NH+]1CC[NH+](CC(=O)N2CCOCC2)CC1)c1ccc(-c2c3nc(c(-c4cc(S(=O)(=O)[O-])ccc4F)c4ccc([nH]4)c(-c4cc(S(=O)(=O)[O-])ccc4F)c4nc(c(-c5cc(S(=O)(=O)[O-])ccc5F)c5ccc2[nH]5)C=C4)C=C3)cc1
REMARK SMILES IDX 4 1 3 2 2 3 1 4 35 5 36 6 97 7 37 8 96 9 38 10 39 11 40 12
REMARK SMILES IDX 90 13 41 14 95 15 89 16 91 17 42 18 94 19 88 20 87 21 43 23
REMARK SMILES IDX 75 24 55 25 74 26 56 27 59 28 73 29 92 30 57 31 58 32 72 34
REMARK SMILES IDX 93 35 60 36 44 37 45 38 53 39 46 40 52 41 54 42 51 43 47 44
REMARK SMILES IDX 48 45 49 46 50 47 76 48 77 49 85 50 78 51 84 52 86 53 83 54
REMARK SMILES IDX 79 55 80 56 81 57 82 58 61 59 62 60 70 61 63 62 69 63 71 64
REMARK SMILES IDX 68 65 64 66 65 67 66 68 67 69 5 70 6 71 7 72 8 73 9 74 20 75
REMARK SMILES IDX 21 76 34 77 22 79 33 80 23 81 24 83 25 84 26 85 27 86 28 87
REMARK SMILES IDX 32 88 29 89 31 90 30 91 10 92 11 93 19 94 12 95 13 96 18 97
REMARK SMILES IDX 14 99 17 100 15 101 16 102
REMARK H PARENT 91 22 59 33 20 78 23 82 12 98
REMARK Flexibility Score: inf
ROOT
ATOM      1  C   UNL A   1      32.261  30.134  26.778  1.00  0.00     0.275 C 
ENDROOT
BRANCH   1   2
ATOM      2  O   UNL A   1      33.346  31.067  26.542  1.00  0.00    -0.458 OA
BRANCH   2   3
ATOM      3  C   UNL A   1      34.018  31.701  27.535  1.00  0.00     0.338 C 
ATOM      4  O   UNL A   1      33.533  32.675  28.101  1.00  0.00    -0.246 OA
BRANCH   3   5
ATOM      5  C   UNL A   1      35.293  31.076  28.037  1.00  0.00     0.060 A 
ATOM      6  C   UNL A   1      35.496  29.703  28.195  1.00  0.00     0.016 A 
ATOM      7  C   UNL A   1      36.370  31.933  28.320  1.00  0.00     0.016 A 
ATOM      8  C   UNL A   1      36.765  29.195  28.521  1.00  0.00     0.010 A 
ATOM      9  C   UNL A   1      37.628  31.428  28.699  1.00  0.00     0.010 A 
ATOM     10  C   UNL A   1      37.850  30.052  28.767  1.00  0.00    -0.014 A 
BRANCH  10  11
ATOM     11  C   UNL A   1      39.108  29.493  29.339  1.00  0.00     0.031 A 
ATOM     12  C   UNL A   1      39.379  29.786  30.778  1.00  0.00     0.074 A 
ATOM     13  C   UNL A   1      39.995  28.763  28.632  1.00  0.00     0.049 A 
ATOM     14  N   UNL A   1      40.367  29.389  31.529  1.00  0.00    -0.248 NA
ATOM     15  C   UNL A   1      38.450  30.722  31.429  1.00  0.00     0.031 C 
ATOM     16  C   UNL A   1      39.945  28.575  27.194  1.00  0.00     0.029 A 
ATOM     17  N   UNL A   1      41.076  28.000  29.015  1.00  0.00    -0.354 N 
ATOM     18  C   UNL A   1      40.246  30.116  32.703  1.00  0.00     0.074 A 
ATOM     19  C   UNL A   1      39.047  30.917  32.590  1.00  0.00     0.031 C 
ATOM     20  C   UNL A   1      40.813  27.607  26.841  1.00  0.00     0.029 A 
ATOM     21  C   UNL A   1      41.544  27.156  28.018  1.00  0.00     0.049 A 
ATOM     22  H   UNL A   1      41.477  28.048  29.913  1.00  0.00     0.167 HD
ATOM     23  C   UNL A   1      41.111  30.167  33.742  1.00  0.00     0.034 A 
ATOM     24  C   UNL A   1      42.436  26.137  28.081  1.00  0.00     0.034 A 
ATOM     25  C   UNL A   1      42.312  29.379  33.811  1.00  0.00     0.049 A 
ATOM     26  C   UNL A   1      43.244  26.029  29.362  1.00  0.00     0.074 A 
ATOM     27  C   UNL A   1      43.289  29.377  34.790  1.00  0.00     0.029 A 
ATOM     28  N   UNL A   1      42.704  28.454  32.852  1.00  0.00    -0.354 N 
ATOM     29  N   UNL A   1      43.107  26.706  30.480  1.00  0.00    -0.248 NA
ATOM     30  C   UNL A   1      44.379  25.094  29.365  1.00  0.00     0.031 C 
ATOM     31  C   UNL A   1      44.292  28.482  34.399  1.00  0.00     0.029 A 
ATOM     32  C   UNL A   1      43.913  27.884  33.208  1.00  0.00     0.049 A 
ATOM     33  H   UNL A   1      42.195  28.237  32.037  1.00  0.00     0.167 HD
ATOM     34  C   UNL A   1      44.180  26.333  31.281  1.00  0.00     0.074 A 
ATOM     35  C   UNL A   1      44.885  25.284  30.574  1.00  0.00     0.031 C 
ATOM     36  C   UNL A   1      44.598  26.856  32.461  1.00  0.00     0.034 A 
BRANCH  23  37
ATOM     37  C   UNL A   1      40.835  31.222  34.775  1.00  0.00     0.023 A 
ATOM     38  C   UNL A   1      39.854  31.049  35.765  1.00  0.00     0.031 A 
ATOM     39  C   UNL A   1      41.459  32.477  34.665  1.00  0.00     0.131 A 
ATOM     40  C   UNL A   1      39.454  32.149  36.537  1.00  0.00     0.055 A 
ATOM     41  C   UNL A   1      41.119  33.541  35.501  1.00  0.00     0.041 A 
ATOM     42  F   UNL A   1      42.373  32.705  33.709  1.00  0.00    -0.206 F 
ATOM     43  C   UNL A   1      40.096  33.385  36.431  1.00  0.00     0.022 A 
BRANCH  40  44
ATOM     44  S   UNL A   1      37.964  31.982  37.559  1.00  0.00     0.124 S 
ATOM     45  O   UNL A   1      37.085  32.984  36.953  1.00  0.00    -0.237 OA
ATOM     46  O   UNL A   1      37.587  30.598  37.357  1.00  0.00    -0.237 OA
ATOM     47  O   UNL A   1      38.437  32.315  38.906  1.00  0.00    -0.744 OA
ENDBRANCH  40  44
ENDBRANCH  23  37
BRANCH  24  48
ATOM     48  C   UNL A   1      42.694  25.166  26.955  1.00  0.00     0.023 A 
ATOM     49  C   UNL A   1      42.088  23.888  26.963  1.00  0.00     0.031 A 
ATOM     50  C   UNL A   1      43.617  25.416  25.925  1.00  0.00     0.131 A 
ATOM     51  C   UNL A   1      42.457  22.907  26.023  1.00  0.00     0.055 A 
ATOM     52  C   UNL A   1      43.908  24.470  24.932  1.00  0.00     0.041 A 
ATOM     53  F   UNL A   1      44.290  26.575  25.876  1.00  0.00    -0.206 F 
ATOM     54  C   UNL A   1      43.343  23.201  24.988  1.00  0.00     0.022 A 
BRANCH  51  55
ATOM     55  S   UNL A   1      41.931  21.183  26.286  1.00  0.00     0.124 S 
ATOM     56  O   UNL A   1      40.511  21.251  25.957  1.00  0.00    -0.237 OA
ATOM     57  O   UNL A   1      42.771  20.451  25.345  1.00  0.00    -0.237 OA
ATOM     58  O   UNL A   1      42.226  20.946  27.698  1.00  0.00    -0.744 OA
ENDBRANCH  51  55
ENDBRANCH  24  48
BRANCH  36  59
ATOM     59  C   UNL A   1      45.899  26.337  33.009  1.00  0.00     0.023 A 
ATOM     60  C   UNL A   1      45.928  25.193  33.828  1.00  0.00     0.031 A 
ATOM     61  C   UNL A   1      47.114  26.963  32.692  1.00  0.00     0.131 A 
ATOM     62  C   UNL A   1      47.149  24.731  34.337  1.00  0.00     0.055 A 
ATOM     63  C   UNL A   1      48.332  26.470  33.162  1.00  0.00     0.041 A 
ATOM     64  F   UNL A   1      47.137  28.053  31.908  1.00  0.00    -0.206 F 
ATOM     65  C   UNL A   1      48.352  25.354  33.996  1.00  0.00     0.022 A 
BRANCH  62  66
ATOM     66  S   UNL A   1      47.142  23.326  35.483  1.00  0.00     0.124 S 
ATOM     67  O   UNL A   1      47.743  22.271  34.676  1.00  0.00    -0.237 OA
ATOM     68  O   UNL A   1      47.951  23.821  36.594  1.00  0.00    -0.237 OA
ATOM     69  O   UNL A   1      45.724  23.142  35.789  1.00  0.00    -0.744 OA
ENDBRANCH  62  66
ENDBRANCH  36  59
ENDBRANCH  10  11
ENDBRANCH   3   5
ENDBRANCH   2   3
ENDBRANCH   1   2
BRANCH   1  70
ATOM     70  C   UNL A   1      32.036  29.039  25.737  1.00  0.00     0.274 C 
BRANCH  70  71
ATOM     71  O   UNL A   1      31.873  27.798  26.418  1.00  0.00    -0.457 OA
BRANCH  71  72
ATOM     72  C   UNL A   1      31.003  26.910  25.860  1.00  0.00     0.370 C 
ATOM     73  O   UNL A   1      30.336  26.115  26.512  1.00  0.00    -0.245 OA
BRANCH  72  74
ATOM     74  C   UNL A   1      31.178  26.958  24.306  1.00  0.00     0.328 C 
BRANCH  74  75
ATOM     75  N   UNL A   1      31.846  25.697  23.895  1.00  0.00    -0.310 N 
ATOM     76  C   UNL A   1      31.609  25.219  22.534  1.00  0.00     0.325 C 
ATOM     77  C   UNL A   1      33.227  25.573  24.404  1.00  0.00     0.325 C 
ATOM     78  H   UNL A   1      31.322  24.983  24.399  1.00  0.00     0.349 HD
ATOM     79  C   UNL A   1      32.816  24.611  21.764  1.00  0.00     0.325 C 
ATOM     80  C   UNL A   1      34.316  24.880  23.570  1.00  0.00     0.325 C 
ATOM     81  N   UNL A   1      33.823  23.939  22.585  1.00  0.00    -0.318 N 
ATOM     82  H   UNL A   1      34.573  23.674  21.949  1.00  0.00     0.348 HD
BRANCH  81  83
ATOM     83  C   UNL A   1      33.516  22.598  23.106  1.00  0.00     0.364 C 
BRANCH  83  84
ATOM     84  C   UNL A   1      34.279  22.164  24.361  1.00  0.00     0.277 C 
ATOM     85  O   UNL A   1      35.428  21.721  24.259  1.00  0.00    -0.268 OA
ATOM     86  N   UNL A   1      33.676  22.265  25.612  1.00  0.00    -0.333 N 
ATOM     87  C   UNL A   1      32.253  22.500  25.858  1.00  0.00     0.148 C 
ATOM     88  C   UNL A   1      34.396  21.666  26.736  1.00  0.00     0.148 C 
ATOM     89  C   UNL A   1      31.960  23.063  27.250  1.00  0.00     0.181 C 
ATOM     90  C   UNL A   1      34.029  22.312  28.067  1.00  0.00     0.181 C 
ATOM     91  O   UNL A   1      32.611  22.304  28.278  1.00  0.00    -0.378 OA
ENDBRANCH  83  84
ENDBRANCH  81  83
ENDBRANCH  74  75
BRANCH  74  92
ATOM     92  C   UNL A   1      29.805  27.251  23.725  1.00  0.00     0.046 A 
ATOM     93  C   UNL A   1      28.631  26.545  23.920  1.00  0.00     0.094 A 
ATOM     94  C   UNL A   1      29.415  28.480  23.069  1.00  0.00     0.009 A 
ATOM     95  N   UNL A   1      27.575  27.345  23.568  1.00  0.00    -0.361 N 
ATOM     96  C   UNL A   1      28.023  28.562  23.116  1.00  0.00     0.049 A 
ATOM     97  C   UNL A   1      30.110  29.580  22.526  1.00  0.00     0.014 A 
ATOM     98  H   UNL A   1      26.628  27.083  23.629  1.00  0.00     0.166 HD
ATOM     99  C   UNL A   1      27.320  29.727  22.765  1.00  0.00     0.065 A 
ATOM    100  C   UNL A   1      29.434  30.747  22.152  1.00  0.00     0.040 A 
ATOM    101  C   UNL A   1      28.060  30.817  22.305  1.00  0.00     0.125 A 
ATOM    102  F   UNL A   1      27.426  31.957  21.997  1.00  0.00    -0.207 F 
ENDBRANCH  74  92
ENDBRANCH  72  74
ENDBRANCH  71  72
ENDBRANCH  70  71
ENDBRANCH   1  70
TORSDOF 18
ENDMDL
MODEL 3
REMARK VINA RESULT:     -13.3      4.625     10.221
REMARK SMILES O=C(OCCOC(=O)[C@H](c1c[nH]c2cc(F)ccc12)[NH+]1CC[NH+](CC(=O)N2CCOCC2)CC1)c1ccc(-c2c3nc(c(-c4cc(S(=O)(=O)[O-])ccc4F)c4ccc([nH]4)c(-c4cc(S(=O)(=O)[O-])ccc4F)c4nc(c(-c5cc(S(=O)(=O)[O-])ccc5F)c5ccc2[nH]5)C=C4)C=C3)cc1
REMARK SMILES IDX 4 1 3 2 2 3 1 4 35 5 36 6 97 7 37 8 96 9 38 10 39 11 40 12
REMARK SMILES IDX 90 13 41 14 95 15 89 16 91 17 42 18 94 19 88 20 87 21 43 23
REMARK SMILES IDX 75 24 55 25 74 26 56 27 59 28 73 29 92 30 57 31 58 32 72 34
REMARK SMILES IDX 93 35 60 36 44 37 45 38 53 39 46 40 52 41 54 42 51 43 47 44
REMARK SMILES IDX 48 45 49 46 50 47 76 48 77 49 85 50 78 51 84 52 86 53 83 54
REMARK SMILES IDX 79 55 80 56 81 57 82 58 61 59 62 60 70 61 63 62 69 63 71 64
REMARK SMILES IDX 68 65 64 66 65 67 66 68 67 69 5 70 6 71 7 72 8 73 9 74 20 75
REMARK SMILES IDX 21 76 34 77 22 79 33 80 23 81 24 83 25 84 26 85 27 86 28 87
REMARK SMILES IDX 32 88 29 89 31 90 30 91 10 92 11 93 19 94 12 95 13 96 18 97
REMARK SMILES IDX 14 99 17 100 15 101 16 102
REMARK H PARENT 91 22 59 33 20 78 23 82 12 98
REMARK Flexibility Score: inf
ROOT
ATOM      1  C   UNL A   1      32.740  30.292  25.804  1.00  0.00     0.275 C 
ENDROOT
BRANCH   1   2
ATOM      2  O   UNL A   1      32.803  30.820  27.153  1.00  0.00    -0.458 OA
BRANCH   2   3
ATOM      3  C   UNL A   1      33.756  31.690  27.572  1.00  0.00     0.338 C 
ATOM      4  O   UNL A   1      33.515  32.888  27.669  1.00  0.00    -0.246 OA
BRANCH   3   5
ATOM      5  C   UNL A   1      35.058  31.125  28.075  1.00  0.00     0.060 A 
ATOM      6  C   UNL A   1      35.296  29.768  28.312  1.00  0.00     0.016 A 
ATOM      7  C   UNL A   1      36.123  32.019  28.273  1.00  0.00     0.016 A 
ATOM      8  C   UNL A   1      36.585  29.308  28.632  1.00  0.00     0.010 A 
ATOM      9  C   UNL A   1      37.401  31.566  28.645  1.00  0.00     0.010 A 
ATOM     10  C   UNL A   1      37.656  30.201  28.793  1.00  0.00    -0.014 A 
BRANCH  10  11
ATOM     11  C   UNL A   1      38.942  29.705  29.362  1.00  0.00     0.031 A 
ATOM     12  C   UNL A   1      39.202  30.013  30.800  1.00  0.00     0.074 A 
ATOM     13  C   UNL A   1      39.861  29.019  28.653  1.00  0.00     0.049 A 
ATOM     14  N   UNL A   1      40.210  29.666  31.548  1.00  0.00    -0.248 NA
ATOM     15  C   UNL A   1      38.230  30.904  31.452  1.00  0.00     0.031 C 
ATOM     16  C   UNL A   1      39.818  28.827  27.216  1.00  0.00     0.029 A 
ATOM     17  N   UNL A   1      40.980  28.310  29.035  1.00  0.00    -0.354 N 
ATOM     18  C   UNL A   1      40.058  30.388  32.722  1.00  0.00     0.074 A 
ATOM     19  C   UNL A   1      38.820  31.129  32.612  1.00  0.00     0.031 C 
ATOM     20  C   UNL A   1      40.731  27.903  26.862  1.00  0.00     0.029 A 
ATOM     21  C   UNL A   1      41.486  27.490  28.037  1.00  0.00     0.049 A 
ATOM     22  H   UNL A   1      41.381  28.379  29.931  1.00  0.00     0.167 HD
ATOM     23  C   UNL A   1      40.922  30.482  33.759  1.00  0.00     0.034 A 
ATOM     24  C   UNL A   1      42.427  26.515  28.099  1.00  0.00     0.034 A 
ATOM     25  C   UNL A   1      42.160  29.755  33.825  1.00  0.00     0.049 A 
ATOM     26  C   UNL A   1      43.243  26.449  29.377  1.00  0.00     0.074 A 
ATOM     27  C   UNL A   1      43.139  29.801  34.801  1.00  0.00     0.029 A 
ATOM     28  N   UNL A   1      42.595  28.849  32.866  1.00  0.00    -0.354 N 
ATOM     29  N   UNL A   1      43.076  27.120  30.495  1.00  0.00    -0.248 NA
ATOM     30  C   UNL A   1      44.423  25.570  29.378  1.00  0.00     0.031 C 
ATOM     31  C   UNL A   1      44.184  28.956  34.408  1.00  0.00     0.029 A 
ATOM     32  C   UNL A   1      43.831  28.339  33.219  1.00  0.00     0.049 A 
ATOM     33  H   UNL A   1      42.095  28.606  32.052  1.00  0.00     0.167 HD
ATOM     34  C   UNL A   1      44.169  26.801  31.293  1.00  0.00     0.074 A 
ATOM     35  C   UNL A   1      44.922  25.787  30.585  1.00  0.00     0.031 C 
ATOM     36  C   UNL A   1      44.563  27.346  32.471  1.00  0.00     0.034 A 
BRANCH  23  37
ATOM     37  C   UNL A   1      40.597  31.524  34.791  1.00  0.00     0.023 A 
ATOM     38  C   UNL A   1      39.698  31.271  35.840  1.00  0.00     0.031 A 
ATOM     39  C   UNL A   1      41.079  32.835  34.626  1.00  0.00     0.131 A 
ATOM     40  C   UNL A   1      39.230  32.339  36.619  1.00  0.00     0.055 A 
ATOM     41  C   UNL A   1      40.679  33.874  35.466  1.00  0.00     0.041 A 
ATOM     42  F   UNL A   1      41.908  33.136  33.614  1.00  0.00    -0.206 F 
ATOM     43  C   UNL A   1      39.733  33.632  36.458  1.00  0.00     0.022 A 
BRANCH  40  44
ATOM     44  S   UNL A   1      37.827  32.039  37.730  1.00  0.00     0.124 S 
ATOM     45  O   UNL A   1      38.427  32.322  39.035  1.00  0.00    -0.237 OA
ATOM     46  O   UNL A   1      36.838  32.989  37.263  1.00  0.00    -0.237 OA
ATOM     47  O   UNL A   1      37.505  30.628  37.495  1.00  0.00    -0.744 OA
ENDBRANCH  40  44
ENDBRANCH  23  37
BRANCH  24  48
ATOM     48  C   UNL A   1      42.730  25.557  26.973  1.00  0.00     0.023 A 
ATOM     49  C   UNL A   1      42.147  24.268  26.959  1.00  0.00     0.031 A 
ATOM     50  C   UNL A   1      43.672  25.830  25.967  1.00  0.00     0.131 A 
ATOM     51  C   UNL A   1      42.555  23.300  26.021  1.00  0.00     0.055 A 
ATOM     52  C   UNL A   1      44.003  24.897  24.975  1.00  0.00     0.041 A 
ATOM     53  F   UNL A   1      44.325  27.002  25.941  1.00  0.00    -0.206 F 
ATOM     54  C   UNL A   1      43.461  23.617  25.010  1.00  0.00     0.022 A 
BRANCH  51  55
ATOM     55  S   UNL A   1      42.055  21.565  26.261  1.00  0.00     0.124 S 
ATOM     56  O   UNL A   1      40.634  21.617  25.934  1.00  0.00    -0.237 OA
ATOM     57  O   UNL A   1      42.905  20.858  25.309  1.00  0.00    -0.237 OA
ATOM     58  O   UNL A   1      42.355  21.312  27.669  1.00  0.00    -0.744 OA
ENDBRANCH  51  55
ENDBRANCH  24  48
BRANCH  36  59
ATOM     59  C   UNL A   1      45.890  26.891  33.016  1.00  0.00     0.023 A 
ATOM     60  C   UNL A   1      47.078  27.556  32.660  1.00  0.00     0.031 A 
ATOM     61  C   UNL A   1      45.970  25.813  33.910  1.00  0.00     0.131 A 
ATOM     62  C   UNL A   1      48.305  27.111  33.170  1.00  0.00     0.055 A 
ATOM     63  C   UNL A   1      47.189  25.404  34.452  1.00  0.00     0.041 A 
ATOM     64  F   UNL A   1      44.861  25.152  34.283  1.00  0.00    -0.206 F 
ATOM     65  C   UNL A   1      48.365  26.049  34.076  1.00  0.00     0.022 A 
BRANCH  62  66
ATOM     66  S   UNL A   1      49.829  27.915  32.604  1.00  0.00     0.124 S 
ATOM     67  O   UNL A   1      50.334  28.513  33.835  1.00  0.00    -0.237 OA
ATOM     68  O   UNL A   1      50.600  26.792  32.077  1.00  0.00    -0.237 OA
ATOM     69  O   UNL A   1      49.360  28.866  31.598  1.00  0.00    -0.744 OA
ENDBRANCH  62  66
ENDBRANCH  36  59
ENDBRANCH  10  11
ENDBRANCH   3   5
ENDBRANCH   2   3
ENDBRANCH   1   2
BRANCH   1  70
ATOM     70  C   UNL A   1      32.763  28.773  25.641  1.00  0.00     0.274 C 
BRANCH  70  71
ATOM     71  O   UNL A   1      31.606  28.235  26.275  1.00  0.00    -0.457 OA
BRANCH  71  72
ATOM     72  C   UNL A   1      31.438  26.886  26.188  1.00  0.00     0.370 C 
ATOM     73  O   UNL A   1      31.348  26.151  27.165  1.00  0.00    -0.245 OA
BRANCH  72  74
ATOM     74  C   UNL A   1      31.593  26.464  24.689  1.00  0.00     0.328 C 
BRANCH  74  75
ATOM     75  N   UNL A   1      32.202  25.109  24.670  1.00  0.00    -0.310 N 
ATOM     76  C   UNL A   1      31.965  24.280  23.489  1.00  0.00     0.325 C 
ATOM     77  C   UNL A   1      33.564  25.072  25.237  1.00  0.00     0.325 C 
ATOM     78  H   UNL A   1      31.631  24.591  25.336  1.00  0.00     0.349 HD
ATOM     79  C   UNL A   1      33.151  23.425  22.960  1.00  0.00     0.325 C 
ATOM     80  C   UNL A   1      34.631  24.123  24.666  1.00  0.00     0.325 C 
ATOM     81  N   UNL A   1      34.106  22.967  23.968  1.00  0.00    -0.318 N 
ATOM     82  H   UNL A   1      34.853  22.499  23.456  1.00  0.00     0.348 HD
BRANCH  81  83
ATOM     83  C   UNL A   1      33.720  21.841  24.833  1.00  0.00     0.364 C 
BRANCH  83  84
ATOM     84  C   UNL A   1      34.640  20.616  24.807  1.00  0.00     0.277 C 
ATOM     85  O   UNL A   1      35.859  20.760  24.949  1.00  0.00    -0.268 OA
ATOM     86  N   UNL A   1      34.102  19.346  24.620  1.00  0.00    -0.333 N 
ATOM     87  C   UNL A   1      32.742  19.052  24.166  1.00  0.00     0.148 C 
ATOM     88  C   UNL A   1      35.055  18.254  24.426  1.00  0.00     0.148 C 
ATOM     89  C   UNL A   1      32.268  17.645  24.532  1.00  0.00     0.181 C 
ATOM     90  C   UNL A   1      34.476  16.903  24.832  1.00  0.00     0.181 C 
ATOM     91  O   UNL A   1      33.231  16.647  24.166  1.00  0.00    -0.378 OA
ENDBRANCH  83  84
ENDBRANCH  81  83
ENDBRANCH  74  75
BRANCH  74  92
ATOM     92  C   UNL A   1      30.226  26.634  24.048  1.00  0.00     0.046 A 
ATOM     93  C   UNL A   1      29.070  25.921  24.312  1.00  0.00     0.094 A 
ATOM     94  C   UNL A   1      29.815  27.753  23.229  1.00  0.00     0.009 A 
ATOM     95  N   UNL A   1      27.999  26.633  23.838  1.00  0.00    -0.361 N 
ATOM     96  C   UNL A   1      28.421  27.795  23.239  1.00  0.00     0.049 A 
ATOM     97  C   UNL A   1      30.490  28.796  22.561  1.00  0.00     0.014 A 
ATOM     98  H   UNL A   1      27.059  26.351  23.915  1.00  0.00     0.166 HD
ATOM     99  C   UNL A   1      27.692  28.880  22.725  1.00  0.00     0.065 A 
ATOM    100  C   UNL A   1      29.788  29.880  22.024  1.00  0.00     0.040 A 
ATOM    101  C   UNL A   1      28.409  29.925  22.140  1.00  0.00     0.125 A 
ATOM    102  F   UNL A   1      27.748  30.994  21.673  1.00  0.00    -0.207 F 
ENDBRANCH  74  92
ENDBRANCH  72  74
ENDBRANCH  71  72
ENDBRANCH  70  71
ENDBRANCH   1  70
TORSDOF 18
ENDMDL
