MODEL 1
REMARK VINA RESULT:     -11.1      0.000      0.000
REMARK SMILES Cc1cc(N(C)[C@H](C)C(=O)OCCOC(=O)c2ccc(-c3c4nc(c(-c5cc(S(=O)(=O)[O-])ccc5F)c5ccc([nH]5)c(-c5cc(S(=O)(=O)[O-])ccc5F)c5nc(c(-c6cc(S(=O)(=O)[O-])ccc6F)c6ccc3[nH]6)C=C5)C=C4)cc2)ncc1[N+](=O)[O-]
REMARK SMILES IDX 12 1 11 2 9 3 10 4 7 5 8 6 5 7 6 8 4 9 1 10 2 11 3 12 82 13
REMARK SMILES IDX 81 14 80 15 83 16 84 17 85 18 13 19 14 20 15 21 16 22 17 23
REMARK SMILES IDX 18 24 79 25 19 26 78 27 20 28 21 29 22 30 72 31 23 32 77 33
REMARK SMILES IDX 71 34 73 35 24 36 76 37 70 38 69 39 25 41 57 42 37 43 56 44
REMARK SMILES IDX 38 45 41 46 55 47 74 48 39 49 40 50 54 52 75 53 42 54 26 55
REMARK SMILES IDX 27 56 35 57 28 58 34 59 36 60 33 61 29 62 30 63 31 64 32 65
REMARK SMILES IDX 58 66 59 67 67 68 60 69 66 70 68 71 65 72 61 73 62 74 63 75
REMARK SMILES IDX 64 76 43 77 44 78 52 79 45 80 51 81 53 82 50 83 46 84 47 85
REMARK SMILES IDX 48 86 49 87
REMARK H PARENT 73 40 41 51
REMARK Flexibility Score: inf
ROOT
ATOM      1  C   UNL A   1      35.930  21.054  25.396  1.00  0.00     0.274 C 
ENDROOT
BRANCH   1   2
ATOM      2  O   UNL A   1      35.469  21.835  24.277  1.00  0.00    -0.461 OA
BRANCH   2   3
ATOM      3  C   UNL A   1      34.386  22.633  24.506  1.00  0.00     0.328 C 
ATOM      4  O   UNL A   1      34.364  23.836  24.261  1.00  0.00    -0.250 OA
BRANCH   3   5
ATOM      5  C   UNL A   1      33.216  21.875  25.166  1.00  0.00     0.190 C 
ATOM      6  C   UNL A   1      32.124  22.758  25.765  1.00  0.00     0.044 C 
BRANCH   5   7
ATOM      7  N   UNL A   1      32.625  20.893  24.227  1.00  0.00    -0.346 N 
ATOM      8  C   UNL A   1      32.080  21.378  22.973  1.00  0.00     0.146 C 
BRANCH   7   9
ATOM      9  C   UNL A   1      32.847  19.547  24.472  1.00  0.00     0.129 A 
ATOM     10  C   UNL A   1      34.302  16.509  22.711  1.00  0.00     0.052 C 
ATOM     11  C   UNL A   1      33.644  17.331  23.782  1.00  0.00     0.032 A 
ATOM     12  C   UNL A   1      33.469  18.709  23.541  1.00  0.00     0.057 A 
ATOM     13  C   UNL A   1      33.146  16.825  24.985  1.00  0.00     0.290 A 
ATOM     14  C   UNL A   1      32.571  17.700  25.887  1.00  0.00     0.199 A 
ATOM     15  N   UNL A   1      32.415  19.025  25.641  1.00  0.00    -0.232 NA
BRANCH  13  16
ATOM     16  N   UNL A   1      33.158  15.414  25.327  1.00  0.00     0.064 N 
ATOM     17  O   UNL A   1      34.254  14.842  25.355  1.00  0.00    -0.258 OA
ATOM     18  O   UNL A   1      32.073  14.878  25.599  1.00  0.00    -0.258 OA
ENDBRANCH  13  16
ENDBRANCH   7   9
ENDBRANCH   5   7
ENDBRANCH   3   5
ENDBRANCH   2   3
ENDBRANCH   1   2
BRANCH   1  19
ATOM     19  C   UNL A   1      37.256  20.357  25.084  1.00  0.00     0.275 C 
BRANCH  19  20
ATOM     20  O   UNL A   1      38.366  21.270  25.134  1.00  0.00    -0.458 OA
BRANCH  20  21
ATOM     21  C   UNL A   1      39.225  21.065  26.161  1.00  0.00     0.338 C 
ATOM     22  O   UNL A   1      39.626  19.991  26.578  1.00  0.00    -0.246 OA
BRANCH  21  23
ATOM     23  C   UNL A   1      39.733  22.354  26.650  1.00  0.00     0.060 A 
ATOM     24  C   UNL A   1      39.161  23.521  26.139  1.00  0.00     0.016 A 
ATOM     25  C   UNL A   1      40.817  22.419  27.526  1.00  0.00     0.016 A 
ATOM     26  C   UNL A   1      39.675  24.764  26.488  1.00  0.00     0.010 A 
ATOM     27  C   UNL A   1      41.329  23.671  27.884  1.00  0.00     0.010 A 
ATOM     28  C   UNL A   1      40.769  24.850  27.357  1.00  0.00    -0.014 A 
BRANCH  28  29
ATOM     29  C   UNL A   1      41.357  26.176  27.662  1.00  0.00     0.031 A 
ATOM     30  C   UNL A   1      42.730  26.512  27.157  1.00  0.00     0.074 A 
ATOM     31  C   UNL A   1      40.644  27.080  28.358  1.00  0.00     0.049 A 
ATOM     32  N   UNL A   1      43.464  27.568  27.388  1.00  0.00    -0.248 NA
ATOM     33  C   UNL A   1      43.362  25.520  26.274  1.00  0.00     0.031 C 
ATOM     34  C   UNL A   1      39.276  26.884  28.841  1.00  0.00     0.029 A 
ATOM     35  N   UNL A   1      40.969  28.344  28.782  1.00  0.00    -0.354 N 
ATOM     36  C   UNL A   1      44.653  27.365  26.697  1.00  0.00     0.074 A 
ATOM     37  C   UNL A   1      44.549  26.069  26.058  1.00  0.00     0.031 C 
ATOM     38  C   UNL A   1      38.880  27.988  29.494  1.00  0.00     0.029 A 
ATOM     39  C   UNL A   1      39.982  28.945  29.526  1.00  0.00     0.049 A 
ATOM     40  H   UNL A   1      41.827  28.779  28.572  1.00  0.00     0.167 HD
ATOM     41  C   UNL A   1      45.728  28.186  26.604  1.00  0.00     0.034 A 
ATOM     42  C   UNL A   1      39.982  30.117  30.191  1.00  0.00     0.034 A 
ATOM     43  C   UNL A   1      45.809  29.475  27.250  1.00  0.00     0.049 A 
ATOM     44  C   UNL A   1      41.221  30.975  30.143  1.00  0.00     0.074 A 
ATOM     45  C   UNL A   1      46.846  30.391  27.228  1.00  0.00     0.029 A 
ATOM     46  N   UNL A   1      44.809  30.031  28.041  1.00  0.00    -0.354 N 
ATOM     47  N   UNL A   1      42.355  30.757  29.517  1.00  0.00    -0.248 NA
ATOM     48  C   UNL A   1      41.182  32.235  30.895  1.00  0.00     0.031 C 
ATOM     49  C   UNL A   1      46.501  31.467  28.054  1.00  0.00     0.029 A 
ATOM     50  C   UNL A   1      45.218  31.261  28.535  1.00  0.00     0.049 A 
ATOM     51  H   UNL A   1      43.936  29.613  28.223  1.00  0.00     0.167 HD
ATOM     52  C   UNL A   1      43.155  31.864  29.783  1.00  0.00     0.074 A 
ATOM     53  C   UNL A   1      42.368  32.754  30.612  1.00  0.00     0.031 C 
ATOM     54  C   UNL A   1      44.424  32.125  29.377  1.00  0.00     0.034 A 
BRANCH  41  55
ATOM     55  C   UNL A   1      46.921  27.679  25.830  1.00  0.00     0.023 A 
ATOM     56  C   UNL A   1      47.133  28.020  24.483  1.00  0.00     0.031 A 
ATOM     57  C   UNL A   1      47.839  26.808  26.441  1.00  0.00     0.131 A 
ATOM     58  C   UNL A   1      48.196  27.437  23.773  1.00  0.00     0.055 A 
ATOM     59  C   UNL A   1      48.938  26.290  25.751  1.00  0.00     0.041 A 
ATOM     60  F   UNL A   1      47.675  26.428  27.718  1.00  0.00    -0.206 F 
ATOM     61  C   UNL A   1      49.112  26.594  24.404  1.00  0.00     0.022 A 
BRANCH  58  62
ATOM     62  S   UNL A   1      48.284  27.688  21.978  1.00  0.00     0.124 S 
ATOM     63  O   UNL A   1      49.409  28.613  21.864  1.00  0.00    -0.237 OA
ATOM     64  O   UNL A   1      48.513  26.337  21.481  1.00  0.00    -0.237 OA
ATOM     65  O   UNL A   1      46.981  28.262  21.648  1.00  0.00    -0.744 OA
ENDBRANCH  58  62
ENDBRANCH  41  55
BRANCH  42  66
ATOM     66  C   UNL A   1      38.802  30.522  31.007  1.00  0.00     0.023 A 
ATOM     67  C   UNL A   1      37.725  31.219  30.436  1.00  0.00     0.031 A 
ATOM     68  C   UNL A   1      38.759  30.256  32.388  1.00  0.00     0.131 A 
ATOM     69  C   UNL A   1      36.669  31.659  31.251  1.00  0.00     0.055 A 
ATOM     70  C   UNL A   1      37.681  30.649  33.182  1.00  0.00     0.041 A 
ATOM     71  F   UNL A   1      39.765  29.597  32.985  1.00  0.00    -0.206 F 
ATOM     72  C   UNL A   1      36.633  31.366  32.616  1.00  0.00     0.022 A 
BRANCH  69  73
ATOM     73  S   UNL A   1      35.376  32.697  30.514  1.00  0.00     0.124 S 
ATOM     74  O   UNL A   1      36.026  34.002  30.479  1.00  0.00    -0.237 OA
ATOM     75  O   UNL A   1      35.167  32.050  29.222  1.00  0.00    -0.237 OA
ATOM     76  O   UNL A   1      34.266  32.579  31.455  1.00  0.00    -0.744 OA
ENDBRANCH  69  73
ENDBRANCH  42  66
BRANCH  54  77
ATOM     77  C   UNL A   1      45.013  33.446  29.803  1.00  0.00     0.023 A 
ATOM     78  C   UNL A   1      44.871  34.604  29.018  1.00  0.00     0.031 A 
ATOM     79  C   UNL A   1      45.744  33.540  31.000  1.00  0.00     0.131 A 
ATOM     80  C   UNL A   1      45.499  35.795  29.414  1.00  0.00     0.055 A 
ATOM     81  C   UNL A   1      46.319  34.741  31.416  1.00  0.00     0.041 A 
ATOM     82  F   UNL A   1      45.910  32.464  31.786  1.00  0.00    -0.206 F 
ATOM     83  C   UNL A   1      46.209  35.875  30.615  1.00  0.00     0.022 A 
BRANCH  80  84
ATOM     84  S   UNL A   1      45.445  37.222  28.294  1.00  0.00     0.124 S 
ATOM     85  O   UNL A   1      44.273  37.943  28.777  1.00  0.00    -0.237 OA
ATOM     86  O   UNL A   1      46.734  37.861  28.539  1.00  0.00    -0.237 OA
ATOM     87  O   UNL A   1      45.298  36.614  26.972  1.00  0.00    -0.744 OA
ENDBRANCH  80  84
ENDBRANCH  54  77
ENDBRANCH  28  29
ENDBRANCH  21  23
ENDBRANCH  20  21
ENDBRANCH  19  20
ENDBRANCH   1  19
TORSDOF 17
ENDMDL
MODEL 2
REMARK VINA RESULT:     -10.9      1.476      1.741
REMARK SMILES Cc1cc(N(C)[C@H](C)C(=O)OCCOC(=O)c2ccc(-c3c4nc(c(-c5cc(S(=O)(=O)[O-])ccc5F)c5ccc([nH]5)c(-c5cc(S(=O)(=O)[O-])ccc5F)c5nc(c(-c6cc(S(=O)(=O)[O-])ccc6F)c6ccc3[nH]6)C=C5)C=C4)cc2)ncc1[N+](=O)[O-]
REMARK SMILES IDX 12 1 11 2 9 3 10 4 7 5 8 6 5 7 6 8 4 9 1 10 2 11 3 12 82 13
REMARK SMILES IDX 81 14 80 15 83 16 84 17 85 18 13 19 14 20 15 21 16 22 17 23
REMARK SMILES IDX 18 24 79 25 19 26 78 27 20 28 21 29 22 30 72 31 23 32 77 33
REMARK SMILES IDX 71 34 73 35 24 36 76 37 70 38 69 39 25 41 57 42 37 43 56 44
REMARK SMILES IDX 38 45 41 46 55 47 74 48 39 49 40 50 54 52 75 53 42 54 26 55
REMARK SMILES IDX 27 56 35 57 28 58 34 59 36 60 33 61 29 62 30 63 31 64 32 65
REMARK SMILES IDX 58 66 59 67 67 68 60 69 66 70 68 71 65 72 61 73 62 74 63 75
REMARK SMILES IDX 64 76 43 77 44 78 52 79 45 80 51 81 53 82 50 83 46 84 47 85
REMARK SMILES IDX 48 86 49 87
REMARK H PARENT 73 40 41 51
REMARK Flexibility Score: inf
ROOT
ATOM      1  C   UNL A   1      36.042  21.018  25.389  1.00  0.00     0.274 C 
ENDROOT
BRANCH   1   2
ATOM      2  O   UNL A   1      35.531  21.865  24.342  1.00  0.00    -0.461 OA
BRANCH   2   3
ATOM      3  C   UNL A   1      34.439  22.620  24.658  1.00  0.00     0.328 C 
ATOM      4  O   UNL A   1      34.374  23.832  24.472  1.00  0.00    -0.250 OA
BRANCH   3   5
ATOM      5  C   UNL A   1      33.324  21.800  25.337  1.00  0.00     0.190 C 
ATOM      6  C   UNL A   1      32.248  22.623  26.044  1.00  0.00     0.044 C 
BRANCH   5   7
ATOM      7  N   UNL A   1      32.701  20.859  24.376  1.00  0.00    -0.346 N 
ATOM      8  C   UNL A   1      32.147  21.393  23.146  1.00  0.00     0.146 C 
BRANCH   7   9
ATOM      9  C   UNL A   1      32.900  19.503  24.576  1.00  0.00     0.129 A 
ATOM     10  C   UNL A   1      34.370  16.515  22.742  1.00  0.00     0.052 C 
ATOM     11  C   UNL A   1      33.691  17.304  23.824  1.00  0.00     0.032 A 
ATOM     12  C   UNL A   1      33.539  18.693  23.631  1.00  0.00     0.057 A 
ATOM     13  C   UNL A   1      33.154  16.760  24.992  1.00  0.00     0.290 A 
ATOM     14  C   UNL A   1      32.563  17.607  25.911  1.00  0.00     0.199 A 
ATOM     15  N   UNL A   1      32.429  18.943  25.711  1.00  0.00    -0.232 NA
BRANCH  13  16
ATOM     16  N   UNL A   1      33.140  15.336  25.281  1.00  0.00     0.064 N 
ATOM     17  O   UNL A   1      32.038  14.787  25.394  1.00  0.00    -0.258 OA
ATOM     18  O   UNL A   1      34.232  14.756  25.368  1.00  0.00    -0.258 OA
ENDBRANCH  13  16
ENDBRANCH   7   9
ENDBRANCH   5   7
ENDBRANCH   3   5
ENDBRANCH   2   3
ENDBRANCH   1   2
BRANCH   1  19
ATOM     19  C   UNL A   1      37.416  20.448  25.029  1.00  0.00     0.275 C 
BRANCH  19  20
ATOM     20  O   UNL A   1      38.454  21.435  25.153  1.00  0.00    -0.458 OA
BRANCH  20  21
ATOM     21  C   UNL A   1      39.339  21.205  26.152  1.00  0.00     0.338 C 
ATOM     22  O   UNL A   1      39.776  20.125  26.510  1.00  0.00    -0.246 OA
BRANCH  21  23
ATOM     23  C   UNL A   1      39.825  22.484  26.690  1.00  0.00     0.060 A 
ATOM     24  C   UNL A   1      39.283  23.662  26.173  1.00  0.00     0.016 A 
ATOM     25  C   UNL A   1      40.864  22.529  27.620  1.00  0.00     0.016 A 
ATOM     26  C   UNL A   1      39.781  24.896  26.571  1.00  0.00     0.010 A 
ATOM     27  C   UNL A   1      41.360  23.773  28.027  1.00  0.00     0.010 A 
ATOM     28  C   UNL A   1      40.829  24.963  27.495  1.00  0.00    -0.014 A 
BRANCH  28  29
ATOM     29  C   UNL A   1      41.405  26.281  27.854  1.00  0.00     0.031 A 
ATOM     30  C   UNL A   1      42.801  26.623  27.422  1.00  0.00     0.074 A 
ATOM     31  C   UNL A   1      40.661  27.173  28.532  1.00  0.00     0.049 A 
ATOM     32  N   UNL A   1      43.525  27.673  27.710  1.00  0.00    -0.248 NA
ATOM     33  C   UNL A   1      43.473  25.647  26.552  1.00  0.00     0.031 C 
ATOM     34  C   UNL A   1      39.270  26.971  28.944  1.00  0.00     0.029 A 
ATOM     35  N   UNL A   1      40.967  28.428  28.996  1.00  0.00    -0.354 N 
ATOM     36  C   UNL A   1      44.746  27.479  27.073  1.00  0.00     0.074 A 
ATOM     37  C   UNL A   1      44.670  26.196  26.405  1.00  0.00     0.031 C 
ATOM     38  C   UNL A   1      38.845  28.064  29.598  1.00  0.00     0.029 A 
ATOM     39  C   UNL A   1      39.946  29.017  29.703  1.00  0.00     0.049 A 
ATOM     40  H   UNL A   1      41.835  28.864  28.836  1.00  0.00     0.167 HD
ATOM     41  C   UNL A   1      45.825  28.300  27.049  1.00  0.00     0.034 A 
ATOM     42  C   UNL A   1      39.915  30.176  30.390  1.00  0.00     0.034 A 
ATOM     43  C   UNL A   1      45.877  29.575  27.723  1.00  0.00     0.049 A 
ATOM     44  C   UNL A   1      41.157  31.031  30.419  1.00  0.00     0.074 A 
ATOM     45  C   UNL A   1      46.916  30.488  27.770  1.00  0.00     0.029 A 
ATOM     46  N   UNL A   1      44.841  30.118  28.475  1.00  0.00    -0.354 N 
ATOM     47  N   UNL A   1      42.320  30.822  29.844  1.00  0.00    -0.248 NA
ATOM     48  C   UNL A   1      41.084  32.277  31.193  1.00  0.00     0.031 C 
ATOM     49  C   UNL A   1      46.533  31.550  28.598  1.00  0.00     0.029 A 
ATOM     50  C   UNL A   1      45.228  31.337  29.012  1.00  0.00     0.049 A 
ATOM     51  H   UNL A   1      43.960  29.699  28.606  1.00  0.00     0.167 HD
ATOM     52  C   UNL A   1      43.108  31.921  30.170  1.00  0.00     0.074 A 
ATOM     53  C   UNL A   1      42.283  32.797  30.978  1.00  0.00     0.031 C 
ATOM     54  C   UNL A   1      44.396  32.187  29.832  1.00  0.00     0.034 A 
BRANCH  41  55
ATOM     55  C   UNL A   1      47.054  27.804  26.323  1.00  0.00     0.023 A 
ATOM     56  C   UNL A   1      47.250  28.032  24.950  1.00  0.00     0.031 A 
ATOM     57  C   UNL A   1      48.025  27.057  27.012  1.00  0.00     0.131 A 
ATOM     58  C   UNL A   1      48.353  27.459  24.296  1.00  0.00     0.055 A 
ATOM     59  C   UNL A   1      49.160  26.553  26.372  1.00  0.00     0.041 A 
ATOM     60  F   UNL A   1      47.881  26.787  28.319  1.00  0.00    -0.206 F 
ATOM     61  C   UNL A   1      49.320  26.741  25.002  1.00  0.00     0.022 A 
BRANCH  58  62
ATOM     62  S   UNL A   1      48.432  27.548  22.485  1.00  0.00     0.124 S 
ATOM     63  O   UNL A   1      49.587  28.419  22.283  1.00  0.00    -0.237 OA
ATOM     64  O   UNL A   1      48.612  26.151  22.108  1.00  0.00    -0.237 OA
ATOM     65  O   UNL A   1      47.146  28.135  22.114  1.00  0.00    -0.744 OA
ENDBRANCH  58  62
ENDBRANCH  41  55
BRANCH  42  66
ATOM     66  C   UNL A   1      38.699  30.569  31.156  1.00  0.00     0.023 A 
ATOM     67  C   UNL A   1      37.628  31.231  30.534  1.00  0.00     0.031 A 
ATOM     68  C   UNL A   1      38.611  30.324  32.538  1.00  0.00     0.131 A 
ATOM     69  C   UNL A   1      36.534  31.662  31.302  1.00  0.00     0.055 A 
ATOM     70  C   UNL A   1      37.496  30.706  33.286  1.00  0.00     0.041 A 
ATOM     71  F   UNL A   1      39.607  29.697  33.182  1.00  0.00    -0.206 F 
ATOM     72  C   UNL A   1      36.454  31.391  32.670  1.00  0.00     0.022 A 
BRANCH  69  73
ATOM     73  S   UNL A   1      35.248  32.659  30.501  1.00  0.00     0.124 S 
ATOM     74  O   UNL A   1      34.201  32.667  31.516  1.00  0.00    -0.237 OA
ATOM     75  O   UNL A   1      35.939  33.926  30.282  1.00  0.00    -0.237 OA
ATOM     76  O   UNL A   1      34.936  31.905  29.290  1.00  0.00    -0.744 OA
ENDBRANCH  69  73
ENDBRANCH  42  66
BRANCH  54  77
ATOM     77  C   UNL A   1      44.966  33.498  30.312  1.00  0.00     0.023 A 
ATOM     78  C   UNL A   1      45.573  33.621  31.574  1.00  0.00     0.031 A 
ATOM     79  C   UNL A   1      44.882  34.643  29.501  1.00  0.00     0.131 A 
ATOM     80  C   UNL A   1      46.023  34.876  32.012  1.00  0.00     0.055 A 
ATOM     81  C   UNL A   1      45.381  35.876  29.919  1.00  0.00     0.041 A 
ATOM     82  F   UNL A   1      44.311  34.579  28.287  1.00  0.00    -0.206 F 
ATOM     83  C   UNL A   1      45.944  36.001  31.187  1.00  0.00     0.022 A 
BRANCH  80  84
ATOM     84  S   UNL A   1      46.639  35.037  33.711  1.00  0.00     0.124 S 
ATOM     85  O   UNL A   1      48.083  34.976  33.518  1.00  0.00    -0.237 OA
ATOM     86  O   UNL A   1      46.103  36.332  34.117  1.00  0.00    -0.237 OA
ATOM     87  O   UNL A   1      46.055  33.885  34.397  1.00  0.00    -0.744 OA
ENDBRANCH  80  84
ENDBRANCH  54  77
ENDBRANCH  28  29
ENDBRANCH  21  23
ENDBRANCH  20  21
ENDBRANCH  19  20
ENDBRANCH   1  19
TORSDOF 17
ENDMDL
MODEL 3
REMARK VINA RESULT:     -10.7      1.976      8.560
REMARK SMILES Cc1cc(N(C)[C@H](C)C(=O)OCCOC(=O)c2ccc(-c3c4nc(c(-c5cc(S(=O)(=O)[O-])ccc5F)c5ccc([nH]5)c(-c5cc(S(=O)(=O)[O-])ccc5F)c5nc(c(-c6cc(S(=O)(=O)[O-])ccc6F)c6ccc3[nH]6)C=C5)C=C4)cc2)ncc1[N+](=O)[O-]
REMARK SMILES IDX 12 1 11 2 9 3 10 4 7 5 8 6 5 7 6 8 4 9 1 10 2 11 3 12 82 13
REMARK SMILES IDX 81 14 80 15 83 16 84 17 85 18 13 19 14 20 15 21 16 22 17 23
REMARK SMILES IDX 18 24 79 25 19 26 78 27 20 28 21 29 22 30 72 31 23 32 77 33
REMARK SMILES IDX 71 34 73 35 24 36 76 37 70 38 69 39 25 41 57 42 37 43 56 44
REMARK SMILES IDX 38 45 41 46 55 47 74 48 39 49 40 50 54 52 75 53 42 54 26 55
REMARK SMILES IDX 27 56 35 57 28 58 34 59 36 60 33 61 29 62 30 63 31 64 32 65
REMARK SMILES IDX 58 66 59 67 67 68 60 69 66 70 68 71 65 72 61 73 62 74 63 75
REMARK SMILES IDX 64 76 43 77 44 78 52 79 45 80 51 81 53 82 50 83 46 84 47 85
REMARK SMILES IDX 48 86 49 87
REMARK H PARENT 73 40 41 51
REMARK Flexibility Score: inf
ROOT
ATOM      1  C   UNL A   1      35.757  20.077  25.070  1.00  0.00     0.274 C 
ENDROOT
BRANCH   1   2
ATOM      2  O   UNL A   1      35.158  21.283  25.579  1.00  0.00    -0.461 OA
BRANCH   2   3
ATOM      3  C   UNL A   1      34.022  21.702  24.950  1.00  0.00     0.328 C 
ATOM      4  O   UNL A   1      33.493  21.094  24.024  1.00  0.00    -0.250 OA
BRANCH   3   5
ATOM      5  C   UNL A   1      33.512  23.057  25.482  1.00  0.00     0.190 C 
ATOM      6  C   UNL A   1      33.763  23.309  26.967  1.00  0.00     0.044 C 
BRANCH   5   7
ATOM      7  N   UNL A   1      34.046  24.178  24.673  1.00  0.00    -0.346 N 
ATOM      8  C   UNL A   1      35.324  24.003  24.009  1.00  0.00     0.146 C 
BRANCH   7   9
ATOM      9  C   UNL A   1      33.195  25.232  24.384  1.00  0.00     0.129 A 
ATOM     10  C   UNL A   1      29.479  26.027  24.460  1.00  0.00     0.052 C 
ATOM     11  C   UNL A   1      30.951  26.215  24.234  1.00  0.00     0.032 A 
ATOM     12  C   UNL A   1      31.812  25.153  24.580  1.00  0.00     0.057 A 
ATOM     13  C   UNL A   1      31.533  27.349  23.663  1.00  0.00     0.290 A 
ATOM     14  C   UNL A   1      32.907  27.391  23.522  1.00  0.00     0.199 A 
ATOM     15  N   UNL A   1      33.722  26.362  23.864  1.00  0.00    -0.232 NA
BRANCH  13  16
ATOM     16  N   UNL A   1      30.768  28.477  23.161  1.00  0.00     0.064 N 
ATOM     17  O   UNL A   1      30.263  28.370  22.038  1.00  0.00    -0.258 OA
ATOM     18  O   UNL A   1      30.645  29.464  23.902  1.00  0.00    -0.258 OA
ENDBRANCH  13  16
ENDBRANCH   7   9
ENDBRANCH   5   7
ENDBRANCH   3   5
ENDBRANCH   2   3
ENDBRANCH   1   2
BRANCH   1  19
ATOM     19  C   UNL A   1      37.242  20.278  24.756  1.00  0.00     0.275 C 
BRANCH  19  20
ATOM     20  O   UNL A   1      37.810  21.355  25.521  1.00  0.00    -0.458 OA
BRANCH  20  21
ATOM     21  C   UNL A   1      39.016  21.083  26.076  1.00  0.00     0.338 C 
ATOM     22  O   UNL A   1      39.602  20.015  26.066  1.00  0.00    -0.246 OA
BRANCH  21  23
ATOM     23  C   UNL A   1      39.612  22.319  26.602  1.00  0.00     0.060 A 
ATOM     24  C   UNL A   1      39.121  23.537  26.128  1.00  0.00     0.016 A 
ATOM     25  C   UNL A   1      40.698  22.283  27.476  1.00  0.00     0.016 A 
ATOM     26  C   UNL A   1      39.719  24.731  26.513  1.00  0.00     0.010 A 
ATOM     27  C   UNL A   1      41.295  23.486  27.871  1.00  0.00     0.010 A 
ATOM     28  C   UNL A   1      40.816  24.716  27.382  1.00  0.00    -0.014 A 
BRANCH  28  29
ATOM     29  C   UNL A   1      41.494  25.989  27.725  1.00  0.00     0.031 A 
ATOM     30  C   UNL A   1      40.760  27.029  28.519  1.00  0.00     0.074 A 
ATOM     31  C   UNL A   1      42.771  26.187  27.352  1.00  0.00     0.049 A 
ATOM     32  N   UNL A   1      41.130  28.241  28.841  1.00  0.00    -0.248 NA
ATOM     33  C   UNL A   1      39.427  26.654  29.013  1.00  0.00     0.031 C 
ATOM     34  C   UNL A   1      43.601  25.217  26.634  1.00  0.00     0.029 A 
ATOM     35  N   UNL A   1      43.597  27.269  27.523  1.00  0.00    -0.354 N 
ATOM     36  C   UNL A   1      40.071  28.783  29.560  1.00  0.00     0.074 A 
ATOM     37  C   UNL A   1      39.033  27.773  29.604  1.00  0.00     0.031 C 
ATOM     38  C   UNL A   1      44.816  25.749  26.429  1.00  0.00     0.029 A 
ATOM     39  C   UNL A   1      44.834  27.114  26.945  1.00  0.00     0.049 A 
ATOM     40  H   UNL A   1      43.329  28.080  28.014  1.00  0.00     0.167 HD
ATOM     41  C   UNL A   1      39.978  30.010  30.132  1.00  0.00     0.034 A 
ATOM     42  C   UNL A   1      45.853  27.987  26.814  1.00  0.00     0.034 A 
ATOM     43  C   UNL A   1      41.027  31.000  30.077  1.00  0.00     0.049 A 
ATOM     44  C   UNL A   1      45.693  29.374  27.383  1.00  0.00     0.074 A 
ATOM     45  C   UNL A   1      41.043  32.274  30.616  1.00  0.00     0.029 A 
ATOM     46  N   UNL A   1      42.249  30.827  29.436  1.00  0.00    -0.354 N 
ATOM     47  N   UNL A   1      44.672  29.890  28.030  1.00  0.00    -0.248 NA
ATOM     48  C   UNL A   1      46.820  30.297  27.203  1.00  0.00     0.031 C 
ATOM     49  C   UNL A   1      42.245  32.892  30.251  1.00  0.00     0.029 A 
ATOM     50  C   UNL A   1      43.012  31.981  29.543  1.00  0.00     0.049 A 
ATOM     51  H   UNL A   1      42.533  30.005  28.976  1.00  0.00     0.167 HD
ATOM     52  C   UNL A   1      45.045  31.192  28.351  1.00  0.00     0.074 A 
ATOM     53  C   UNL A   1      46.390  31.375  27.842  1.00  0.00     0.031 C 
ATOM     54  C   UNL A   1      44.344  32.150  29.010  1.00  0.00     0.034 A 
BRANCH  41  55
ATOM     55  C   UNL A   1      38.673  30.361  30.806  1.00  0.00     0.023 A 
ATOM     56  C   UNL A   1      37.627  30.999  30.116  1.00  0.00     0.031 A 
ATOM     57  C   UNL A   1      38.489  30.087  32.172  1.00  0.00     0.131 A 
ATOM     58  C   UNL A   1      36.475  31.403  30.810  1.00  0.00     0.055 A 
ATOM     59  C   UNL A   1      37.310  30.424  32.840  1.00  0.00     0.041 A 
ATOM     60  F   UNL A   1      39.461  29.501  32.889  1.00  0.00    -0.206 F 
ATOM     61  C   UNL A   1      36.301  31.100  32.161  1.00  0.00     0.022 A 
BRANCH  58  62
ATOM     62  S   UNL A   1      35.269  32.455  29.954  1.00  0.00     0.124 S 
ATOM     63  O   UNL A   1      34.328  32.758  31.029  1.00  0.00    -0.237 OA
ATOM     64  O   UNL A   1      36.091  33.566  29.490  1.00  0.00    -0.237 OA
ATOM     65  O   UNL A   1      34.742  31.586  28.903  1.00  0.00    -0.744 OA
ENDBRANCH  58  62
ENDBRANCH  41  55
BRANCH  42  66
ATOM     66  C   UNL A   1      47.083  27.606  26.064  1.00  0.00     0.023 A 
ATOM     67  C   UNL A   1      47.208  27.864  24.690  1.00  0.00     0.031 A 
ATOM     68  C   UNL A   1      48.137  26.932  26.708  1.00  0.00     0.131 A 
ATOM     69  C   UNL A   1      48.345  27.416  23.997  1.00  0.00     0.055 A 
ATOM     70  C   UNL A   1      49.288  26.538  26.025  1.00  0.00     0.041 A 
ATOM     71  F   UNL A   1      48.067  26.658  28.020  1.00  0.00    -0.206 F 
ATOM     72  C   UNL A   1      49.391  26.768  24.657  1.00  0.00     0.022 A 
BRANCH  69  73
ATOM     73  S   UNL A   1      48.400  27.618  22.194  1.00  0.00     0.124 S 
ATOM     74  O   UNL A   1      48.619  26.248  21.747  1.00  0.00    -0.237 OA
ATOM     75  O   UNL A   1      47.084  28.184  21.912  1.00  0.00    -0.237 OA
ATOM     76  O   UNL A   1      49.523  28.528  21.988  1.00  0.00    -0.744 OA
ENDBRANCH  69  73
ENDBRANCH  42  66
BRANCH  54  77
ATOM     77  C   UNL A   1      45.045  33.465  29.242  1.00  0.00     0.023 A 
ATOM     78  C   UNL A   1      44.884  34.551  28.364  1.00  0.00     0.031 A 
ATOM     79  C   UNL A   1      45.901  33.623  30.345  1.00  0.00     0.131 A 
ATOM     80  C   UNL A   1      45.614  35.731  28.575  1.00  0.00     0.055 A 
ATOM     81  C   UNL A   1      46.582  34.818  30.580  1.00  0.00     0.041 A 
ATOM     82  F   UNL A   1      46.090  32.616  31.213  1.00  0.00    -0.206 F 
ATOM     83  C   UNL A   1      46.450  35.877  29.685  1.00  0.00     0.022 A 
BRANCH  80  84
ATOM     84  S   UNL A   1      45.520  37.048  27.330  1.00  0.00     0.124 S 
ATOM     85  O   UNL A   1      44.122  36.981  26.922  1.00  0.00    -0.237 OA
ATOM     86  O   UNL A   1      45.906  38.230  28.094  1.00  0.00    -0.237 OA
ATOM     87  O   UNL A   1      46.484  36.627  26.313  1.00  0.00    -0.744 OA
ENDBRANCH  80  84
ENDBRANCH  54  77
ENDBRANCH  28  29
ENDBRANCH  21  23
ENDBRANCH  20  21
ENDBRANCH  19  20
ENDBRANCH   1  19
TORSDOF 17
ENDMDL
