MODEL 1
REMARK VINA RESULT:     -12.0      0.000      0.000
REMARK SMILES COC(=O)c1cc(F)cc(-c2ccccc2C(=O)OCCOC(=O)c2ccc(-c3c4nc(c(-c5cc(S(=O)(=O)[O-])ccc5F)c5ccc([nH]5)c(-c5cc(S(=O)(=O)[O-])ccc5F)c5nc(c(-c6cc(S(=O)(=O)[O-])ccc6F)c6ccc3[nH]6)C=C5)C=C4)cc2)c1
REMARK SMILES IDX 20 1 19 2 17 3 18 4 16 5 11 6 12 7 13 8 15 9 14 10 10 11
REMARK SMILES IDX 5 12 6 13 88 14 7 15 8 16 9 17 3 18 4 19 2 20 1 21 21 22
REMARK SMILES IDX 22 23 23 24 24 25 25 26 26 27 87 28 27 29 86 30 28 31 29 32
REMARK SMILES IDX 30 33 80 34 31 35 85 36 79 37 81 38 32 39 84 40 78 41 77 42
REMARK SMILES IDX 33 44 65 45 45 46 64 47 46 48 49 49 63 50 82 51 47 52 48 53
REMARK SMILES IDX 62 55 83 56 50 57 34 58 35 59 43 60 36 61 42 62 44 63 41 64
REMARK SMILES IDX 37 65 38 66 39 67 40 68 66 69 67 70 75 71 68 72 74 73 76 74
REMARK SMILES IDX 73 75 69 76 70 77 71 78 72 79 51 80 52 81 60 82 53 83 59 84
REMARK SMILES IDX 61 85 58 86 54 87 55 88 56 89 57 90
REMARK H PARENT 81 43 49 54
REMARK Flexibility Score: inf
ROOT
ATOM      1  C   UNL A   1      36.152  20.767  24.795  1.00  0.00     0.275 C 
ENDROOT
BRANCH   1   2
ATOM      2  O   UNL A   1      36.197  22.199  24.962  1.00  0.00    -0.458 OA
BRANCH   2   3
ATOM      3  C   UNL A   1      35.513  22.941  24.055  1.00  0.00     0.338 C 
ATOM      4  O   UNL A   1      35.743  22.997  22.858  1.00  0.00    -0.246 OA
BRANCH   3   5
ATOM      5  C   UNL A   1      34.378  23.678  24.680  1.00  0.00     0.067 A 
ATOM      6  C   UNL A   1      33.051  23.192  24.714  1.00  0.00    -0.004 A 
ATOM      7  C   UNL A   1      32.080  23.981  25.366  1.00  0.00     0.009 A 
ATOM      8  C   UNL A   1      32.401  25.213  25.943  1.00  0.00     0.001 A 
ATOM      9  C   UNL A   1      34.695  24.900  25.303  1.00  0.00     0.016 A 
ATOM     10  C   UNL A   1      33.709  25.677  25.904  1.00  0.00     0.001 A 
BRANCH   6  11
ATOM     11  C   UNL A   1      32.643  21.919  24.092  1.00  0.00    -0.014 A 
ATOM     12  C   UNL A   1      32.469  19.485  24.157  1.00  0.00     0.063 A 
ATOM     13  C   UNL A   1      32.159  19.462  22.797  1.00  0.00     0.055 A 
ATOM     14  C   UNL A   1      32.663  20.711  24.811  1.00  0.00     0.024 A 
ATOM     15  C   UNL A   1      32.070  20.660  22.102  1.00  0.00     0.124 A 
ATOM     16  F   UNL A   1      31.775  20.640  20.796  1.00  0.00    -0.207 F 
ATOM     17  C   UNL A   1      32.318  21.876  22.728  1.00  0.00     0.048 A 
BRANCH  12  18
ATOM     18  C   UNL A   1      32.681  18.240  24.934  1.00  0.00     0.337 C 
ATOM     19  O   UNL A   1      32.383  18.109  26.106  1.00  0.00    -0.246 OA
BRANCH  18  20
ATOM     20  O   UNL A   1      33.337  17.332  24.166  1.00  0.00    -0.465 OA
ATOM     21  C   UNL A   1      34.742  17.277  24.409  1.00  0.00     0.282 C 
ENDBRANCH  18  20
ENDBRANCH  12  18
ENDBRANCH   6  11
ENDBRANCH   3   5
ENDBRANCH   2   3
ENDBRANCH   1   2
BRANCH   1  22
ATOM     22  C   UNL A   1      37.529  20.143  25.008  1.00  0.00     0.275 C 
BRANCH  22  23
ATOM     23  O   UNL A   1      38.522  21.176  25.120  1.00  0.00    -0.458 OA
BRANCH  23  24
ATOM     24  C   UNL A   1      39.416  20.984  26.114  1.00  0.00     0.338 C 
ATOM     25  O   UNL A   1      39.962  19.942  26.433  1.00  0.00    -0.246 OA
BRANCH  24  26
ATOM     26  C   UNL A   1      39.751  22.273  26.727  1.00  0.00     0.060 A 
ATOM     27  C   UNL A   1      39.076  23.399  26.268  1.00  0.00     0.016 A 
ATOM     28  C   UNL A   1      40.834  22.400  27.591  1.00  0.00     0.016 A 
ATOM     29  C   UNL A   1      39.550  24.669  26.570  1.00  0.00     0.010 A 
ATOM     30  C   UNL A   1      41.251  23.680  27.972  1.00  0.00     0.010 A 
ATOM     31  C   UNL A   1      40.649  24.830  27.424  1.00  0.00    -0.014 A 
BRANCH  31  32
ATOM     32  C   UNL A   1      41.222  26.187  27.664  1.00  0.00     0.031 A 
ATOM     33  C   UNL A   1      42.581  26.532  27.106  1.00  0.00     0.074 A 
ATOM     34  C   UNL A   1      40.523  27.123  28.337  1.00  0.00     0.049 A 
ATOM     35  N   UNL A   1      43.339  27.570  27.354  1.00  0.00    -0.248 NA
ATOM     36  C   UNL A   1      43.173  25.578  26.154  1.00  0.00     0.031 C 
ATOM     37  C   UNL A   1      39.167  26.952  28.866  1.00  0.00     0.029 A 
ATOM     38  N   UNL A   1      40.846  28.413  28.679  1.00  0.00    -0.354 N 
ATOM     39  C   UNL A   1      44.516  27.363  26.642  1.00  0.00     0.074 A 
ATOM     40  C   UNL A   1      44.377  26.096  25.957  1.00  0.00     0.031 C 
ATOM     41  C   UNL A   1      38.760  28.105  29.419  1.00  0.00     0.029 A 
ATOM     42  C   UNL A   1      39.858  29.064  29.381  1.00  0.00     0.049 A 
ATOM     43  H   UNL A   1      41.706  28.834  28.445  1.00  0.00     0.167 HD
ATOM     44  C   UNL A   1      45.609  28.159  26.568  1.00  0.00     0.034 A 
ATOM     45  C   UNL A   1      39.846  30.275  29.974  1.00  0.00     0.034 A 
ATOM     46  C   UNL A   1      45.704  29.450  27.200  1.00  0.00     0.049 A 
ATOM     47  C   UNL A   1      41.093  31.116  29.933  1.00  0.00     0.074 A 
ATOM     48  C   UNL A   1      46.757  30.349  27.167  1.00  0.00     0.029 A 
ATOM     49  N   UNL A   1      44.705  30.036  27.964  1.00  0.00    -0.354 N 
ATOM     50  N   UNL A   1      42.234  30.864  29.338  1.00  0.00    -0.248 NA
ATOM     51  C   UNL A   1      41.063  32.388  30.668  1.00  0.00     0.031 C 
ATOM     52  C   UNL A   1      46.417  31.450  27.957  1.00  0.00     0.029 A 
ATOM     53  C   UNL A   1      45.128  31.270  28.430  1.00  0.00     0.049 A 
ATOM     54  H   UNL A   1      43.825  29.634  28.148  1.00  0.00     0.167 HD
ATOM     55  C   UNL A   1      43.058  31.946  29.624  1.00  0.00     0.074 A 
ATOM     56  C   UNL A   1      42.281  32.861  30.434  1.00  0.00     0.031 C 
ATOM     57  C   UNL A   1      44.343  32.161  29.250  1.00  0.00     0.034 A 
BRANCH  44  58
ATOM     58  C   UNL A   1      46.811  27.644  25.819  1.00  0.00     0.023 A 
ATOM     59  C   UNL A   1      47.034  27.944  24.465  1.00  0.00     0.031 A 
ATOM     60  C   UNL A   1      47.769  26.862  26.490  1.00  0.00     0.131 A 
ATOM     61  C   UNL A   1      48.167  27.430  23.815  1.00  0.00     0.055 A 
ATOM     62  C   UNL A   1      48.925  26.407  25.854  1.00  0.00     0.041 A 
ATOM     63  F   UNL A   1      47.597  26.533  27.780  1.00  0.00    -0.206 F 
ATOM     64  C   UNL A   1      49.126  26.685  24.506  1.00  0.00     0.022 A 
BRANCH  61  65
ATOM     65  S   UNL A   1      48.338  27.687  22.028  1.00  0.00     0.124 S 
ATOM     66  O   UNL A   1      47.040  28.264  21.687  1.00  0.00    -0.237 OA
ATOM     67  O   UNL A   1      49.479  28.591  21.944  1.00  0.00    -0.237 OA
ATOM     68  O   UNL A   1      48.572  26.341  21.508  1.00  0.00    -0.744 OA
ENDBRANCH  61  65
ENDBRANCH  44  58
BRANCH  45  69
ATOM     69  C   UNL A   1      38.638  30.723  30.723  1.00  0.00     0.023 A 
ATOM     70  C   UNL A   1      37.614  31.438  30.087  1.00  0.00     0.031 A 
ATOM     71  C   UNL A   1      38.487  30.424  32.091  1.00  0.00     0.131 A 
ATOM     72  C   UNL A   1      36.482  31.836  30.819  1.00  0.00     0.055 A 
ATOM     73  C   UNL A   1      37.342  30.783  32.802  1.00  0.00     0.041 A 
ATOM     74  F   UNL A   1      39.440  29.742  32.746  1.00  0.00    -0.206 F 
ATOM     75  C   UNL A   1      36.332  31.498  32.166  1.00  0.00     0.022 A 
BRANCH  72  76
ATOM     76  S   UNL A   1      35.210  32.828  29.990  1.00  0.00     0.124 S 
ATOM     77  O   UNL A   1      34.414  33.292  31.121  1.00  0.00    -0.237 OA
ATOM     78  O   UNL A   1      36.007  33.842  29.307  1.00  0.00    -0.237 OA
ATOM     79  O   UNL A   1      34.547  31.867  29.112  1.00  0.00    -0.744 OA
ENDBRANCH  72  76
ENDBRANCH  45  69
BRANCH  57  80
ATOM     80  C   UNL A   1      44.992  33.444  29.693  1.00  0.00     0.023 A 
ATOM     81  C   UNL A   1      44.783  34.643  28.996  1.00  0.00     0.031 A 
ATOM     82  C   UNL A   1      45.766  33.475  30.865  1.00  0.00     0.131 A 
ATOM     83  C   UNL A   1      45.360  35.830  29.469  1.00  0.00     0.055 A 
ATOM     84  C   UNL A   1      46.303  34.665  31.355  1.00  0.00     0.041 A 
ATOM     85  F   UNL A   1      45.987  32.351  31.567  1.00  0.00    -0.206 F 
ATOM     86  C   UNL A   1      46.102  35.852  30.655  1.00  0.00     0.022 A 
BRANCH  83  87
ATOM     87  S   UNL A   1      45.137  37.354  28.513  1.00  0.00     0.124 S 
ATOM     88  O   UNL A   1      45.112  36.849  27.144  1.00  0.00    -0.237 OA
ATOM     89  O   UNL A   1      43.871  37.869  29.025  1.00  0.00    -0.237 OA
ATOM     90  O   UNL A   1      46.313  38.151  28.858  1.00  0.00    -0.744 OA
ENDBRANCH  83  87
ENDBRANCH  57  80
ENDBRANCH  31  32
ENDBRANCH  24  26
ENDBRANCH  23  24
ENDBRANCH  22  23
ENDBRANCH   1  22
TORSDOF 17
ENDMDL
MODEL 2
REMARK VINA RESULT:     -11.8      1.038      7.630
REMARK SMILES COC(=O)c1cc(F)cc(-c2ccccc2C(=O)OCCOC(=O)c2ccc(-c3c4nc(c(-c5cc(S(=O)(=O)[O-])ccc5F)c5ccc([nH]5)c(-c5cc(S(=O)(=O)[O-])ccc5F)c5nc(c(-c6cc(S(=O)(=O)[O-])ccc6F)c6ccc3[nH]6)C=C5)C=C4)cc2)c1
REMARK SMILES IDX 20 1 19 2 17 3 18 4 16 5 11 6 12 7 13 8 15 9 14 10 10 11
REMARK SMILES IDX 5 12 6 13 88 14 7 15 8 16 9 17 3 18 4 19 2 20 1 21 21 22
REMARK SMILES IDX 22 23 23 24 24 25 25 26 26 27 87 28 27 29 86 30 28 31 29 32
REMARK SMILES IDX 30 33 80 34 31 35 85 36 79 37 81 38 32 39 84 40 78 41 77 42
REMARK SMILES IDX 33 44 65 45 45 46 64 47 46 48 49 49 63 50 82 51 47 52 48 53
REMARK SMILES IDX 62 55 83 56 50 57 34 58 35 59 43 60 36 61 42 62 44 63 41 64
REMARK SMILES IDX 37 65 38 66 39 67 40 68 66 69 67 70 75 71 68 72 74 73 76 74
REMARK SMILES IDX 73 75 69 76 70 77 71 78 72 79 51 80 52 81 60 82 53 83 59 84
REMARK SMILES IDX 61 85 58 86 54 87 55 88 56 89 57 90
REMARK H PARENT 81 43 49 54
REMARK Flexibility Score: inf
ROOT
ATOM      1  C   UNL A   1      36.209  20.290  25.011  1.00  0.00     0.275 C 
ENDROOT
BRANCH   1   2
ATOM      2  O   UNL A   1      35.507  21.406  25.595  1.00  0.00    -0.458 OA
BRANCH   2   3
ATOM      3  C   UNL A   1      34.780  22.179  24.751  1.00  0.00     0.338 C 
ATOM      4  O   UNL A   1      35.133  22.559  23.646  1.00  0.00    -0.246 OA
BRANCH   3   5
ATOM      5  C   UNL A   1      33.434  22.499  25.306  1.00  0.00     0.067 A 
ATOM      6  C   UNL A   1      32.304  21.664  25.152  1.00  0.00    -0.004 A 
ATOM      7  C   UNL A   1      31.097  22.075  25.757  1.00  0.00     0.009 A 
ATOM      8  C   UNL A   1      31.004  23.274  26.469  1.00  0.00     0.001 A 
ATOM      9  C   UNL A   1      33.336  23.682  26.062  1.00  0.00     0.016 A 
ATOM     10  C   UNL A   1      32.124  24.083  26.615  1.00  0.00     0.001 A 
BRANCH   6  11
ATOM     11  C   UNL A   1      32.330  20.407  24.383  1.00  0.00    -0.014 A 
ATOM     12  C   UNL A   1      32.849  18.027  24.223  1.00  0.00     0.063 A 
ATOM     13  C   UNL A   1      32.678  18.073  22.838  1.00  0.00     0.055 A 
ATOM     14  C   UNL A   1      32.629  19.178  24.995  1.00  0.00     0.024 A 
ATOM     15  C   UNL A   1      32.312  19.272  22.241  1.00  0.00     0.124 A 
ATOM     16  F   UNL A   1      32.150  19.320  20.913  1.00  0.00    -0.207 F 
ATOM     17  C   UNL A   1      32.150  20.431  22.991  1.00  0.00     0.048 A 
BRANCH  12  18
ATOM     18  C   UNL A   1      33.337  16.808  24.911  1.00  0.00     0.337 C 
ATOM     19  O   UNL A   1      34.490  16.424  24.881  1.00  0.00    -0.246 OA
BRANCH  18  20
ATOM     20  O   UNL A   1      32.289  16.158  25.480  1.00  0.00    -0.465 OA
ATOM     21  C   UNL A   1      32.542  14.780  25.749  1.00  0.00     0.282 C 
ENDBRANCH  18  20
ENDBRANCH  12  18
ENDBRANCH   6  11
ENDBRANCH   3   5
ENDBRANCH   2   3
ENDBRANCH   1   2
BRANCH   1  22
ATOM     22  C   UNL A   1      37.667  20.642  24.726  1.00  0.00     0.275 C 
BRANCH  22  23
ATOM     23  O   UNL A   1      38.084  21.723  25.576  1.00  0.00    -0.458 OA
BRANCH  23  24
ATOM     24  C   UNL A   1      39.263  21.516  26.203  1.00  0.00     0.338 C 
ATOM     25  O   UNL A   1      39.967  20.522  26.155  1.00  0.00    -0.246 OA
BRANCH  24  26
ATOM     26  C   UNL A   1      39.669  22.740  26.899  1.00  0.00     0.060 A 
ATOM     27  C   UNL A   1      39.099  23.938  26.480  1.00  0.00     0.016 A 
ATOM     28  C   UNL A   1      40.722  22.737  27.808  1.00  0.00     0.016 A 
ATOM     29  C   UNL A   1      39.655  25.149  26.870  1.00  0.00     0.010 A 
ATOM     30  C   UNL A   1      41.219  23.959  28.275  1.00  0.00     0.010 A 
ATOM     31  C   UNL A   1      40.728  25.179  27.771  1.00  0.00    -0.014 A 
BRANCH  31  32
ATOM     32  C   UNL A   1      41.390  26.473  28.108  1.00  0.00     0.031 A 
ATOM     33  C   UNL A   1      40.635  27.516  28.894  1.00  0.00     0.074 A 
ATOM     34  C   UNL A   1      42.671  26.706  27.755  1.00  0.00     0.049 A 
ATOM     35  N   UNL A   1      40.946  28.766  29.126  1.00  0.00    -0.248 NA
ATOM     36  C   UNL A   1      39.351  27.104  29.485  1.00  0.00     0.031 C 
ATOM     37  C   UNL A   1      43.546  25.758  27.060  1.00  0.00     0.029 A 
ATOM     38  N   UNL A   1      43.470  27.806  27.946  1.00  0.00    -0.354 N 
ATOM     39  C   UNL A   1      39.875  29.302  29.833  1.00  0.00     0.074 A 
ATOM     40  C   UNL A   1      38.899  28.245  29.985  1.00  0.00     0.031 C 
ATOM     41  C   UNL A   1      44.767  26.297  26.929  1.00  0.00     0.029 A 
ATOM     42  C   UNL A   1      44.739  27.666  27.433  1.00  0.00     0.049 A 
ATOM     43  H   UNL A   1      43.164  28.621  28.408  1.00  0.00     0.167 HD
ATOM     44  C   UNL A   1      39.724  30.561  30.309  1.00  0.00     0.034 A 
ATOM     45  C   UNL A   1      45.753  28.549  27.328  1.00  0.00     0.034 A 
ATOM     46  C   UNL A   1      40.734  31.583  30.208  1.00  0.00     0.049 A 
ATOM     47  C   UNL A   1      45.540  29.959  27.806  1.00  0.00     0.074 A 
ATOM     48  C   UNL A   1      40.692  32.883  30.681  1.00  0.00     0.029 A 
ATOM     49  N   UNL A   1      41.976  31.416  29.612  1.00  0.00    -0.354 N 
ATOM     50  N   UNL A   1      44.484  30.480  28.385  1.00  0.00    -0.248 NA
ATOM     51  C   UNL A   1      46.641  30.909  27.590  1.00  0.00     0.031 C 
ATOM     52  C   UNL A   1      41.883  33.519  30.319  1.00  0.00     0.029 A 
ATOM     53  C   UNL A   1      42.695  32.597  29.678  1.00  0.00     0.049 A 
ATOM     54  H   UNL A   1      42.298  30.581  29.201  1.00  0.00     0.167 HD
ATOM     55  C   UNL A   1      44.793  31.817  28.604  1.00  0.00     0.074 A 
ATOM     56  C   UNL A   1      46.139  32.022  28.109  1.00  0.00     0.031 C 
ATOM     57  C   UNL A   1      44.030  32.787  29.165  1.00  0.00     0.034 A 
BRANCH  44  58
ATOM     58  C   UNL A   1      38.404  30.926  30.940  1.00  0.00     0.023 A 
ATOM     59  C   UNL A   1      37.385  31.574  30.222  1.00  0.00     0.031 A 
ATOM     60  C   UNL A   1      38.155  30.587  32.283  1.00  0.00     0.131 A 
ATOM     61  C   UNL A   1      36.179  31.898  30.862  1.00  0.00     0.055 A 
ATOM     62  C   UNL A   1      36.930  30.855  32.895  1.00  0.00     0.041 A 
ATOM     63  F   UNL A   1      39.100  29.982  33.019  1.00  0.00    -0.206 F 
ATOM     64  C   UNL A   1      35.936  31.521  32.186  1.00  0.00     0.022 A 
BRANCH  61  65
ATOM     65  S   UNL A   1      34.953  32.886  29.964  1.00  0.00     0.124 S 
ATOM     66  O   UNL A   1      34.031  33.256  31.036  1.00  0.00    -0.237 OA
ATOM     67  O   UNL A   1      35.758  33.969  29.414  1.00  0.00    -0.237 OA
ATOM     68  O   UNL A   1      34.412  31.950  28.980  1.00  0.00    -0.744 OA
ENDBRANCH  61  65
ENDBRANCH  44  58
BRANCH  45  69
ATOM     69  C   UNL A   1      47.027  28.140  26.672  1.00  0.00     0.023 A 
ATOM     70  C   UNL A   1      47.125  28.039  25.277  1.00  0.00     0.031 A 
ATOM     71  C   UNL A   1      48.174  27.860  27.439  1.00  0.00     0.131 A 
ATOM     72  C   UNL A   1      48.344  27.662  24.688  1.00  0.00     0.055 A 
ATOM     73  C   UNL A   1      49.394  27.529  26.848  1.00  0.00     0.041 A 
ATOM     74  F   UNL A   1      48.132  27.942  28.778  1.00  0.00    -0.206 F 
ATOM     75  C   UNL A   1      49.482  27.424  25.463  1.00  0.00     0.022 A 
BRANCH  72  76
ATOM     76  S   UNL A   1      48.420  27.463  22.887  1.00  0.00     0.124 S 
ATOM     77  O   UNL A   1      49.733  28.020  22.584  1.00  0.00    -0.237 OA
ATOM     78  O   UNL A   1      48.285  26.018  22.732  1.00  0.00    -0.237 OA
ATOM     79  O   UNL A   1      47.283  28.246  22.409  1.00  0.00    -0.744 OA
ENDBRANCH  72  76
ENDBRANCH  45  69
BRANCH  57  80
ATOM     80  C   UNL A   1      44.633  34.159  29.295  1.00  0.00     0.023 A 
ATOM     81  C   UNL A   1      44.301  35.187  28.400  1.00  0.00     0.031 A 
ATOM     82  C   UNL A   1      45.493  34.453  30.367  1.00  0.00     0.131 A 
ATOM     83  C   UNL A   1      44.841  36.468  28.584  1.00  0.00     0.055 A 
ATOM     84  C   UNL A   1      45.994  35.738  30.569  1.00  0.00     0.041 A 
ATOM     85  F   UNL A   1      45.834  33.501  31.250  1.00  0.00    -0.206 F 
ATOM     86  C   UNL A   1      45.670  36.754  29.674  1.00  0.00     0.022 A 
BRANCH  83  87
ATOM     87  S   UNL A   1      44.454  37.763  27.375  1.00  0.00     0.124 S 
ATOM     88  O   UNL A   1      43.945  38.830  28.231  1.00  0.00    -0.237 OA
ATOM     89  O   UNL A   1      45.748  38.011  26.749  1.00  0.00    -0.237 OA
ATOM     90  O   UNL A   1      43.458  37.135  26.507  1.00  0.00    -0.744 OA
ENDBRANCH  83  87
ENDBRANCH  57  80
ENDBRANCH  31  32
ENDBRANCH  24  26
ENDBRANCH  23  24
ENDBRANCH  22  23
ENDBRANCH   1  22
TORSDOF 17
ENDMDL
MODEL 3
REMARK VINA RESULT:     -11.4      5.613      8.257
REMARK SMILES COC(=O)c1cc(F)cc(-c2ccccc2C(=O)OCCOC(=O)c2ccc(-c3c4nc(c(-c5cc(S(=O)(=O)[O-])ccc5F)c5ccc([nH]5)c(-c5cc(S(=O)(=O)[O-])ccc5F)c5nc(c(-c6cc(S(=O)(=O)[O-])ccc6F)c6ccc3[nH]6)C=C5)C=C4)cc2)c1
REMARK SMILES IDX 20 1 19 2 17 3 18 4 16 5 11 6 12 7 13 8 15 9 14 10 10 11
REMARK SMILES IDX 5 12 6 13 88 14 7 15 8 16 9 17 3 18 4 19 2 20 1 21 21 22
REMARK SMILES IDX 22 23 23 24 24 25 25 26 26 27 87 28 27 29 86 30 28 31 29 32
REMARK SMILES IDX 30 33 80 34 31 35 85 36 79 37 81 38 32 39 84 40 78 41 77 42
REMARK SMILES IDX 33 44 65 45 45 46 64 47 46 48 49 49 63 50 82 51 47 52 48 53
REMARK SMILES IDX 62 55 83 56 50 57 34 58 35 59 43 60 36 61 42 62 44 63 41 64
REMARK SMILES IDX 37 65 38 66 39 67 40 68 66 69 67 70 75 71 68 72 74 73 76 74
REMARK SMILES IDX 73 75 69 76 70 77 71 78 72 79 51 80 52 81 60 82 53 83 59 84
REMARK SMILES IDX 61 85 58 86 54 87 55 88 56 89 57 90
REMARK H PARENT 81 43 49 54
REMARK Flexibility Score: inf
ROOT
ATOM      1  C   UNL A   1      31.569  28.969  27.069  1.00  0.00     0.275 C 
ENDROOT
BRANCH   1   2
ATOM      2  O   UNL A   1      31.940  28.177  25.922  1.00  0.00    -0.458 OA
BRANCH   2   3
ATOM      3  C   UNL A   1      31.855  26.830  26.057  1.00  0.00     0.338 C 
ATOM      4  O   UNL A   1      31.387  26.236  27.015  1.00  0.00    -0.246 OA
BRANCH   3   5
ATOM      5  C   UNL A   1      32.372  26.115  24.856  1.00  0.00     0.067 A 
ATOM      6  C   UNL A   1      31.696  26.078  23.615  1.00  0.00    -0.004 A 
ATOM      7  C   UNL A   1      32.315  25.389  22.550  1.00  0.00     0.009 A 
ATOM      8  C   UNL A   1      33.544  24.743  22.711  1.00  0.00     0.001 A 
ATOM      9  C   UNL A   1      33.629  25.497  24.990  1.00  0.00     0.016 A 
ATOM     10  C   UNL A   1      34.199  24.791  23.934  1.00  0.00     0.001 A 
BRANCH   6  11
ATOM     11  C   UNL A   1      30.381  26.707  23.394  1.00  0.00    -0.014 A 
ATOM     12  C   UNL A   1      29.032  28.588  22.617  1.00  0.00     0.063 A 
ATOM     13  C   UNL A   1      27.908  28.055  23.251  1.00  0.00     0.055 A 
ATOM     14  C   UNL A   1      30.250  27.892  22.649  1.00  0.00     0.024 A 
ATOM     15  C   UNL A   1      28.020  26.849  23.927  1.00  0.00     0.124 A 
ATOM     16  F   UNL A   1      26.945  26.337  24.539  1.00  0.00    -0.207 F 
ATOM     17  C   UNL A   1      29.237  26.182  24.014  1.00  0.00     0.048 A 
BRANCH  12  18
ATOM     18  C   UNL A   1      29.007  29.919  21.966  1.00  0.00     0.337 C 
ATOM     19  O   UNL A   1      29.871  30.327  21.214  1.00  0.00    -0.246 OA
BRANCH  18  20
ATOM     20  O   UNL A   1      27.937  30.625  22.417  1.00  0.00    -0.465 OA
ATOM     21  C   UNL A   1      28.260  31.942  22.860  1.00  0.00     0.282 C 
ENDBRANCH  18  20
ENDBRANCH  12  18
ENDBRANCH   6  11
ENDBRANCH   3   5
ENDBRANCH   2   3
ENDBRANCH   1   2
BRANCH   1  22
ATOM     22  C   UNL A   1      31.739  30.460  26.790  1.00  0.00     0.275 C 
BRANCH  22  23
ATOM     23  O   UNL A   1      33.122  30.755  26.537  1.00  0.00    -0.458 OA
BRANCH  23  24
ATOM     24  C   UNL A   1      33.633  31.735  27.316  1.00  0.00     0.338 C 
ATOM     25  O   UNL A   1      33.063  32.728  27.732  1.00  0.00    -0.246 OA
BRANCH  24  26
ATOM     26  C   UNL A   1      35.000  31.383  27.710  1.00  0.00     0.060 A 
ATOM     27  C   UNL A   1      35.266  30.046  27.989  1.00  0.00     0.016 A 
ATOM     28  C   UNL A   1      35.947  32.365  27.985  1.00  0.00     0.016 A 
ATOM     29  C   UNL A   1      36.430  29.691  28.657  1.00  0.00     0.010 A 
ATOM     30  C   UNL A   1      37.161  31.992  28.571  1.00  0.00     0.010 A 
ATOM     31  C   UNL A   1      37.396  30.659  28.964  1.00  0.00    -0.014 A 
BRANCH  31  32
ATOM     32  C   UNL A   1      38.595  30.295  29.772  1.00  0.00     0.031 A 
ATOM     33  C   UNL A   1      39.650  29.394  29.178  1.00  0.00     0.074 A 
ATOM     34  C   UNL A   1      38.770  30.794  31.013  1.00  0.00     0.049 A 
ATOM     35  N   UNL A   1      40.661  28.805  29.763  1.00  0.00    -0.248 NA
ATOM     36  C   UNL A   1      39.546  29.105  27.738  1.00  0.00     0.031 C 
ATOM     37  C   UNL A   1      37.870  31.736  31.683  1.00  0.00     0.029 A 
ATOM     38  N   UNL A   1      39.774  30.595  31.928  1.00  0.00    -0.354 N 
ATOM     39  C   UNL A   1      41.274  28.031  28.782  1.00  0.00     0.074 A 
ATOM     40  C   UNL A   1      40.515  28.219  27.564  1.00  0.00     0.031 C 
ATOM     41  C   UNL A   1      38.387  32.068  32.876  1.00  0.00     0.029 A 
ATOM     42  C   UNL A   1      39.597  31.287  33.104  1.00  0.00     0.049 A 
ATOM     43  H   UNL A   1      40.550  30.011  31.760  1.00  0.00     0.167 HD
ATOM     44  C   UNL A   1      42.367  27.240  28.891  1.00  0.00     0.034 A 
ATOM     45  C   UNL A   1      40.294  31.262  34.259  1.00  0.00     0.034 A 
ATOM     46  C   UNL A   1      43.152  27.118  30.093  1.00  0.00     0.049 A 
ATOM     47  C   UNL A   1      41.467  30.328  34.378  1.00  0.00     0.074 A 
ATOM     48  C   UNL A   1      44.293  26.364  30.302  1.00  0.00     0.029 A 
ATOM     49  N   UNL A   1      42.889  27.781  31.283  1.00  0.00    -0.354 N 
ATOM     50  N   UNL A   1      41.976  29.528  33.472  1.00  0.00    -0.248 NA
ATOM     51  C   UNL A   1      42.142  30.269  35.683  1.00  0.00     0.031 C 
ATOM     52  C   UNL A   1      44.686  26.525  31.633  1.00  0.00     0.029 A 
ATOM     53  C   UNL A   1      43.829  27.430  32.238  1.00  0.00     0.049 A 
ATOM     54  H   UNL A   1      42.143  28.408  31.428  1.00  0.00     0.167 HD
ATOM     55  C   UNL A   1      43.031  28.872  34.095  1.00  0.00     0.074 A 
ATOM     56  C   UNL A   1      43.097  29.378  35.450  1.00  0.00     0.031 C 
ATOM     57  C   UNL A   1      43.869  27.934  33.589  1.00  0.00     0.034 A 
BRANCH  44  58
ATOM     58  C   UNL A   1      42.759  26.404  27.699  1.00  0.00     0.023 A 
ATOM     59  C   UNL A   1      42.288  25.093  27.518  1.00  0.00     0.031 A 
ATOM     60  C   UNL A   1      43.598  26.949  26.709  1.00  0.00     0.131 A 
ATOM     61  C   UNL A   1      42.692  24.357  26.393  1.00  0.00     0.055 A 
ATOM     62  C   UNL A   1      43.944  26.234  25.562  1.00  0.00     0.041 A 
ATOM     63  F   UNL A   1      44.088  28.192  26.841  1.00  0.00    -0.206 F 
ATOM     64  C   UNL A   1      43.497  24.928  25.403  1.00  0.00     0.022 A 
BRANCH  61  65
ATOM     65  S   UNL A   1      42.211  22.613  26.273  1.00  0.00     0.124 S 
ATOM     66  O   UNL A   1      42.977  22.021  27.367  1.00  0.00    -0.237 OA
ATOM     67  O   UNL A   1      40.767  22.668  26.462  1.00  0.00    -0.237 OA
ATOM     68  O   UNL A   1      42.649  22.228  24.933  1.00  0.00    -0.744 OA
ENDBRANCH  61  65
ENDBRANCH  44  58
BRANCH  45  69
ATOM     69  C   UNL A   1      39.846  32.091  35.414  1.00  0.00     0.023 A 
ATOM     70  C   UNL A   1      40.367  33.375  35.630  1.00  0.00     0.031 A 
ATOM     71  C   UNL A   1      38.874  31.610  36.311  1.00  0.00     0.131 A 
ATOM     72  C   UNL A   1      39.916  34.135  36.722  1.00  0.00     0.055 A 
ATOM     73  C   UNL A   1      38.398  32.386  37.368  1.00  0.00     0.041 A 
ATOM     74  F   UNL A   1      38.345  30.387  36.148  1.00  0.00    -0.206 F 
ATOM     75  C   UNL A   1      38.923  33.657  37.581  1.00  0.00     0.022 A 
BRANCH  72  76
ATOM     76  S   UNL A   1      40.664  35.760  37.023  1.00  0.00     0.124 S 
ATOM     77  O   UNL A   1      41.939  35.632  36.327  1.00  0.00    -0.237 OA
ATOM     78  O   UNL A   1      39.690  36.663  36.418  1.00  0.00    -0.237 OA
ATOM     79  O   UNL A   1      40.751  35.830  38.480  1.00  0.00    -0.744 OA
ENDBRANCH  72  76
ENDBRANCH  45  69
BRANCH  57  80
ATOM     80  C   UNL A   1      44.946  27.402  34.494  1.00  0.00     0.023 A 
ATOM     81  C   UNL A   1      44.707  26.315  35.348  1.00  0.00     0.031 A 
ATOM     82  C   UNL A   1      46.241  27.947  34.447  1.00  0.00     0.131 A 
ATOM     83  C   UNL A   1      45.750  25.812  36.139  1.00  0.00     0.055 A 
ATOM     84  C   UNL A   1      47.284  27.416  35.204  1.00  0.00     0.041 A 
ATOM     85  F   UNL A   1      46.515  28.985  33.639  1.00  0.00    -0.206 F 
ATOM     86  C   UNL A   1      47.042  26.343  36.057  1.00  0.00     0.022 A 
BRANCH  83  87
ATOM     87  S   UNL A   1      45.401  24.453  37.287  1.00  0.00     0.124 S 
ATOM     88  O   UNL A   1      45.317  23.310  36.383  1.00  0.00    -0.237 OA
ATOM     89  O   UNL A   1      46.560  24.480  38.174  1.00  0.00    -0.237 OA
ATOM     90  O   UNL A   1      44.138  24.846  37.909  1.00  0.00    -0.744 OA
ENDBRANCH  83  87
ENDBRANCH  57  80
ENDBRANCH  31  32
ENDBRANCH  24  26
ENDBRANCH  23  24
ENDBRANCH  22  23
ENDBRANCH   1  22
TORSDOF 17
ENDMDL
