MODEL 1
REMARK VINA RESULT:     -10.9      0.000      0.000
REMARK SMILES N#CCc1nc(-c2ccccc2)c(CC(=O)OCCOC(=O)c2ccc(-c3c4nc(c(-c5cc(S(=O)(=O)[O-])ccc5F)c5ccc([nH]5)c(-c5cc(S(=O)(=O)[O-])ccc5F)c5nc(c(-c6cc(S(=O)(=O)[O-])ccc6F)c6ccc3[nH]6)C=C5)C=C4)cc2)s1
REMARK SMILES IDX 18 1 17 2 15 3 16 4 14 5 13 6 4 7 5 8 86 9 6 10 3 11 2 12
REMARK SMILES IDX 1 13 7 14 8 15 12 16 9 17 11 18 10 19 19 20 20 21 21 22
REMARK SMILES IDX 22 23 23 24 24 25 85 26 25 27 84 28 26 29 27 30 28 31 78 32
REMARK SMILES IDX 29 33 83 34 77 35 79 36 30 37 82 38 76 39 75 40 31 42 63 43
REMARK SMILES IDX 43 44 62 45 44 46 47 47 61 48 80 49 45 50 46 51 60 53 81 54
REMARK SMILES IDX 48 55 32 56 33 57 41 58 34 59 40 60 42 61 39 62 35 63 36 64
REMARK SMILES IDX 37 65 38 66 64 67 65 68 73 69 66 70 72 71 74 72 71 73 67 74
REMARK SMILES IDX 68 75 69 76 70 77 49 78 50 79 58 80 51 81 57 82 59 83 56 84
REMARK SMILES IDX 52 85 53 86 54 87 55 88
REMARK H PARENT 79 41 47 52
REMARK Flexibility Score: inf
ROOT
ATOM      1  C   UNL A   1      36.589  20.291  24.786  1.00  0.00     0.274 C 
ENDROOT
BRANCH   1   2
ATOM      2  O   UNL A   1      36.046  21.554  25.216  1.00  0.00    -0.462 OA
BRANCH   2   3
ATOM      3  C   UNL A   1      35.746  22.426  24.218  1.00  0.00     0.311 C 
ATOM      4  O   UNL A   1      36.477  23.352  23.870  1.00  0.00    -0.252 OA
BRANCH   3   5
ATOM      5  C   UNL A   1      34.421  22.190  23.537  1.00  0.00     0.171 C 
BRANCH   5   6
ATOM      6  C   UNL A   1      33.215  22.179  24.425  1.00  0.00     0.044 A 
ATOM      7  C   UNL A   1      31.369  22.711  25.927  1.00  0.00     0.108 A 
ATOM      8  N   UNL A   1      31.356  21.424  25.633  1.00  0.00    -0.240 NA
ATOM      9  S   UNL A   1      32.683  23.595  25.247  1.00  0.00    -0.121 S 
ATOM     10  C   UNL A   1      32.404  21.116  24.783  1.00  0.00     0.085 A 
BRANCH   7  11
ATOM     11  C   UNL A   1      30.291  23.415  26.714  1.00  0.00     0.187 C 
BRANCH  11  12
ATOM     12  C   UNL A   1      30.146  24.777  26.054  1.00  0.00     0.069 C 
ATOM     13  N   UNL A   1      30.026  25.906  25.505  1.00  0.00    -0.198 NA
ENDBRANCH  11  12
ENDBRANCH   7  11
BRANCH  10  14
ATOM     14  C   UNL A   1      32.604  19.777  24.253  1.00  0.00     0.001 A 
ATOM     15  C   UNL A   1      33.392  18.848  24.948  1.00  0.00     0.010 A 
ATOM     16  C   UNL A   1      32.118  19.452  22.982  1.00  0.00     0.010 A 
ATOM     17  C   UNL A   1      33.746  17.637  24.351  1.00  0.00     0.001 A 
ATOM     18  C   UNL A   1      32.463  18.233  22.392  1.00  0.00     0.001 A 
ATOM     19  C   UNL A   1      33.290  17.336  23.070  1.00  0.00     0.000 A 
ENDBRANCH  10  14
ENDBRANCH   5   6
ENDBRANCH   3   5
ENDBRANCH   2   3
ENDBRANCH   1   2
BRANCH   1  20
ATOM     20  C   UNL A   1      38.102  20.262  24.989  1.00  0.00     0.275 C 
BRANCH  20  21
ATOM     21  O   UNL A   1      38.495  21.304  25.900  1.00  0.00    -0.458 OA
BRANCH  21  22
ATOM     22  C   UNL A   1      39.730  21.178  26.439  1.00  0.00     0.338 C 
ATOM     23  O   UNL A   1      40.398  20.162  26.527  1.00  0.00    -0.246 OA
BRANCH  22  24
ATOM     24  C   UNL A   1      40.180  22.484  26.953  1.00  0.00     0.060 A 
ATOM     25  C   UNL A   1      39.685  23.670  26.409  1.00  0.00     0.016 A 
ATOM     26  C   UNL A   1      41.180  22.523  27.922  1.00  0.00     0.016 A 
ATOM     27  C   UNL A   1      40.229  24.897  26.783  1.00  0.00     0.010 A 
ATOM     28  C   UNL A   1      41.674  23.757  28.351  1.00  0.00     0.010 A 
ATOM     29  C   UNL A   1      41.225  24.954  27.765  1.00  0.00    -0.014 A 
BRANCH  29  30
ATOM     30  C   UNL A   1      41.840  26.250  28.156  1.00  0.00     0.031 A 
ATOM     31  C   UNL A   1      41.015  27.272  28.890  1.00  0.00     0.074 A 
ATOM     32  C   UNL A   1      43.120  26.520  27.835  1.00  0.00     0.049 A 
ATOM     33  N   UNL A   1      41.285  28.525  29.153  1.00  0.00    -0.248 NA
ATOM     34  C   UNL A   1      39.703  26.823  29.377  1.00  0.00     0.031 C 
ATOM     35  C   UNL A   1      44.040  25.595  27.171  1.00  0.00     0.029 A 
ATOM     36  N   UNL A   1      43.866  27.658  28.014  1.00  0.00    -0.354 N 
ATOM     37  C   UNL A   1      40.160  29.028  29.799  1.00  0.00     0.074 A 
ATOM     38  C   UNL A   1      39.200  27.945  29.871  1.00  0.00     0.031 C 
ATOM     39  C   UNL A   1      45.226  26.200  27.005  1.00  0.00     0.029 A 
ATOM     40  C   UNL A   1      45.130  27.576  27.480  1.00  0.00     0.049 A 
ATOM     41  H   UNL A   1      43.527  28.458  28.480  1.00  0.00     0.167 HD
ATOM     42  C   UNL A   1      39.950  30.277  30.283  1.00  0.00     0.034 A 
ATOM     43  C   UNL A   1      46.087  28.515  27.345  1.00  0.00     0.034 A 
ATOM     44  C   UNL A   1      40.929  31.337  30.222  1.00  0.00     0.049 A 
ATOM     45  C   UNL A   1      45.809  29.914  27.832  1.00  0.00     0.074 A 
ATOM     46  C   UNL A   1      40.831  32.632  30.701  1.00  0.00     0.029 A 
ATOM     47  N   UNL A   1      42.186  31.224  29.641  1.00  0.00    -0.354 N 
ATOM     48  N   UNL A   1      44.727  30.390  28.404  1.00  0.00    -0.248 NA
ATOM     49  C   UNL A   1      46.876  30.903  27.642  1.00  0.00     0.031 C 
ATOM     50  C   UNL A   1      42.005  33.317  30.359  1.00  0.00     0.029 A 
ATOM     51  C   UNL A   1      42.862  32.432  29.726  1.00  0.00     0.049 A 
ATOM     52  H   UNL A   1      42.545  30.404  29.229  1.00  0.00     0.167 HD
ATOM     53  C   UNL A   1      44.995  31.731  28.663  1.00  0.00     0.074 A 
ATOM     54  C   UNL A   1      46.342  31.983  28.196  1.00  0.00     0.031 C 
ATOM     55  C   UNL A   1      44.200  32.669  29.239  1.00  0.00     0.034 A 
BRANCH  42  56
ATOM     56  C   UNL A   1      38.587  30.576  30.859  1.00  0.00     0.023 A 
ATOM     57  C   UNL A   1      37.563  31.158  30.092  1.00  0.00     0.031 A 
ATOM     58  C   UNL A   1      38.323  30.307  32.215  1.00  0.00     0.131 A 
ATOM     59  C   UNL A   1      36.353  31.522  30.703  1.00  0.00     0.055 A 
ATOM     60  C   UNL A   1      37.088  30.600  32.798  1.00  0.00     0.041 A 
ATOM     61  F   UNL A   1      39.269  29.772  33.003  1.00  0.00    -0.206 F 
ATOM     62  C   UNL A   1      36.099  31.226  32.044  1.00  0.00     0.022 A 
BRANCH  59  63
ATOM     63  S   UNL A   1      35.168  32.518  29.755  1.00  0.00     0.124 S 
ATOM     64  O   UNL A   1      34.190  32.871  30.782  1.00  0.00    -0.237 OA
ATOM     65  O   UNL A   1      35.997  33.610  29.260  1.00  0.00    -0.237 OA
ATOM     66  O   UNL A   1      34.680  31.592  28.735  1.00  0.00    -0.744 OA
ENDBRANCH  59  63
ENDBRANCH  42  56
BRANCH  43  67
ATOM     67  C   UNL A   1      47.374  28.187  26.671  1.00  0.00     0.023 A 
ATOM     68  C   UNL A   1      47.439  28.019  25.280  1.00  0.00     0.031 A 
ATOM     69  C   UNL A   1      48.554  28.002  27.416  1.00  0.00     0.131 A 
ATOM     70  C   UNL A   1      48.650  27.645  24.677  1.00  0.00     0.055 A 
ATOM     71  C   UNL A   1      49.766  27.677  26.806  1.00  0.00     0.041 A 
ATOM     72  F   UNL A   1      48.545  28.151  28.750  1.00  0.00    -0.206 F 
ATOM     73  C   UNL A   1      49.816  27.486  25.429  1.00  0.00     0.022 A 
BRANCH  70  74
ATOM     74  S   UNL A   1      48.664  27.302  22.896  1.00  0.00     0.124 S 
ATOM     75  O   UNL A   1      48.397  25.869  22.867  1.00  0.00    -0.237 OA
ATOM     76  O   UNL A   1      47.590  28.165  22.414  1.00  0.00    -0.237 OA
ATOM     77  O   UNL A   1      50.010  27.697  22.485  1.00  0.00    -0.744 OA
ENDBRANCH  70  74
ENDBRANCH  43  67
BRANCH  55  78
ATOM     78  C   UNL A   1      44.800  34.039  29.429  1.00  0.00     0.023 A 
ATOM     79  C   UNL A   1      44.618  35.063  28.483  1.00  0.00     0.031 A 
ATOM     80  C   UNL A   1      45.584  34.313  30.563  1.00  0.00     0.131 A 
ATOM     81  C   UNL A   1      45.258  36.298  28.662  1.00  0.00     0.055 A 
ATOM     82  C   UNL A   1      46.174  35.562  30.761  1.00  0.00     0.041 A 
ATOM     83  F   UNL A   1      45.791  33.370  31.495  1.00  0.00    -0.206 F 
ATOM     84  C   UNL A   1      46.023  36.558  29.802  1.00  0.00     0.022 A 
BRANCH  81  85
ATOM     85  S   UNL A   1      45.145  37.537  27.341  1.00  0.00     0.124 S 
ATOM     86  O   UNL A   1      43.789  37.328  26.843  1.00  0.00    -0.237 OA
ATOM     87  O   UNL A   1      45.375  38.784  28.061  1.00  0.00    -0.237 OA
ATOM     88  O   UNL A   1      46.210  37.150  26.417  1.00  0.00    -0.744 OA
ENDBRANCH  81  85
ENDBRANCH  55  78
ENDBRANCH  29  30
ENDBRANCH  22  24
ENDBRANCH  21  22
ENDBRANCH  20  21
ENDBRANCH   1  20
TORSDOF 18
ENDMDL
MODEL 2
REMARK VINA RESULT:     -10.8      6.126     11.017
REMARK SMILES N#CCc1nc(-c2ccccc2)c(CC(=O)OCCOC(=O)c2ccc(-c3c4nc(c(-c5cc(S(=O)(=O)[O-])ccc5F)c5ccc([nH]5)c(-c5cc(S(=O)(=O)[O-])ccc5F)c5nc(c(-c6cc(S(=O)(=O)[O-])ccc6F)c6ccc3[nH]6)C=C5)C=C4)cc2)s1
REMARK SMILES IDX 18 1 17 2 15 3 16 4 14 5 13 6 4 7 5 8 86 9 6 10 3 11 2 12
REMARK SMILES IDX 1 13 7 14 8 15 12 16 9 17 11 18 10 19 19 20 20 21 21 22
REMARK SMILES IDX 22 23 23 24 24 25 85 26 25 27 84 28 26 29 27 30 28 31 78 32
REMARK SMILES IDX 29 33 83 34 77 35 79 36 30 37 82 38 76 39 75 40 31 42 63 43
REMARK SMILES IDX 43 44 62 45 44 46 47 47 61 48 80 49 45 50 46 51 60 53 81 54
REMARK SMILES IDX 48 55 32 56 33 57 41 58 34 59 40 60 42 61 39 62 35 63 36 64
REMARK SMILES IDX 37 65 38 66 64 67 65 68 73 69 66 70 72 71 74 72 71 73 67 74
REMARK SMILES IDX 68 75 69 76 70 77 49 78 50 79 58 80 51 81 57 82 59 83 56 84
REMARK SMILES IDX 52 85 53 86 54 87 55 88
REMARK H PARENT 79 41 47 52
REMARK Flexibility Score: inf
ROOT
ATOM      1  C   UNL A   1      31.758  30.983  26.839  1.00  0.00     0.274 C 
ENDROOT
BRANCH   1   2
ATOM      2  O   UNL A   1      32.881  30.466  26.099  1.00  0.00    -0.462 OA
BRANCH   2   3
ATOM      3  C   UNL A   1      32.564  29.628  25.077  1.00  0.00     0.311 C 
ATOM      4  O   UNL A   1      33.330  29.341  24.159  1.00  0.00    -0.252 OA
BRANCH   3   5
ATOM      5  C   UNL A   1      31.171  29.051  25.130  1.00  0.00     0.171 C 
BRANCH   5   6
ATOM      6  C   UNL A   1      30.324  29.260  23.912  1.00  0.00     0.044 A 
ATOM      7  C   UNL A   1      28.877  30.120  22.148  1.00  0.00     0.108 A 
ATOM      8  N   UNL A   1      29.191  28.861  21.902  1.00  0.00    -0.240 NA
ATOM      9  S   UNL A   1      29.499  30.744  23.629  1.00  0.00    -0.121 S 
ATOM     10  C   UNL A   1      30.010  28.367  22.902  1.00  0.00     0.085 A 
BRANCH   7  11
ATOM     11  C   UNL A   1      28.115  31.009  21.195  1.00  0.00     0.187 C 
BRANCH  11  12
ATOM     12  C   UNL A   1      28.185  32.397  21.810  1.00  0.00     0.069 C 
ATOM     13  N   UNL A   1      28.244  33.549  22.321  1.00  0.00    -0.198 NA
ENDBRANCH  11  12
ENDBRANCH   7  11
BRANCH  10  14
ATOM     14  C   UNL A   1      30.553  27.019  22.865  1.00  0.00     0.001 A 
ATOM     15  C   UNL A   1      29.978  25.999  23.637  1.00  0.00     0.010 A 
ATOM     16  C   UNL A   1      31.732  26.765  22.157  1.00  0.00     0.010 A 
ATOM     17  C   UNL A   1      30.612  24.761  23.755  1.00  0.00     0.001 A 
ATOM     18  C   UNL A   1      32.359  25.520  22.267  1.00  0.00     0.001 A 
ATOM     19  C   UNL A   1      31.807  24.527  23.078  1.00  0.00     0.000 A 
ENDBRANCH  10  14
ENDBRANCH   5   6
ENDBRANCH   3   5
ENDBRANCH   2   3
ENDBRANCH   1   2
BRANCH   1  20
ATOM     20  C   UNL A   1      31.887  32.494  27.022  1.00  0.00     0.275 C 
BRANCH  20  21
ATOM     21  O   UNL A   1      33.244  32.833  27.358  1.00  0.00    -0.458 OA
BRANCH  21  22
ATOM     22  C   UNL A   1      33.394  33.744  28.347  1.00  0.00     0.338 C 
ATOM     23  O   UNL A   1      32.693  34.716  28.568  1.00  0.00    -0.246 OA
BRANCH  22  24
ATOM     24  C   UNL A   1      34.584  33.411  29.151  1.00  0.00     0.060 A 
ATOM     25  C   UNL A   1      35.809  34.027  28.893  1.00  0.00     0.016 A 
ATOM     26  C   UNL A   1      34.496  32.401  30.106  1.00  0.00     0.016 A 
ATOM     27  C   UNL A   1      36.964  33.596  29.542  1.00  0.00     0.010 A 
ATOM     28  C   UNL A   1      35.640  32.019  30.810  1.00  0.00     0.010 A 
ATOM     29  C   UNL A   1      36.891  32.592  30.516  1.00  0.00    -0.014 A 
BRANCH  29  30
ATOM     30  C   UNL A   1      38.115  32.097  31.197  1.00  0.00     0.031 A 
ATOM     31  C   UNL A   1      38.929  31.003  30.560  1.00  0.00     0.074 A 
ATOM     32  C   UNL A   1      38.484  32.605  32.389  1.00  0.00     0.049 A 
ATOM     33  N   UNL A   1      39.909  30.296  31.061  1.00  0.00    -0.248 NA
ATOM     34  C   UNL A   1      38.576  30.650  29.177  1.00  0.00     0.031 C 
ATOM     35  C   UNL A   1      37.810  33.702  33.087  1.00  0.00     0.029 A 
ATOM     36  N   UNL A   1      39.510  32.256  33.231  1.00  0.00    -0.354 N 
ATOM     37  C   UNL A   1      40.264  29.385  30.072  1.00  0.00     0.074 A 
ATOM     38  C   UNL A   1      39.380  29.621  28.949  1.00  0.00     0.031 C 
ATOM     39  C   UNL A   1      38.445  33.939  34.246  1.00  0.00     0.029 A 
ATOM     40  C   UNL A   1      39.520  32.966  34.409  1.00  0.00     0.049 A 
ATOM     41  H   UNL A   1      40.175  31.563  33.013  1.00  0.00     0.167 HD
ATOM     42  C   UNL A   1      41.236  28.439  30.102  1.00  0.00     0.034 A 
ATOM     43  C   UNL A   1      40.277  32.820  35.514  1.00  0.00     0.034 A 
ATOM     44  C   UNL A   1      42.122  28.234  31.223  1.00  0.00     0.049 A 
ATOM     45  C   UNL A   1      41.306  31.720  35.551  1.00  0.00     0.074 A 
ATOM     46  C   UNL A   1      43.155  27.322  31.353  1.00  0.00     0.029 A 
ATOM     47  N   UNL A   1      42.077  28.951  32.413  1.00  0.00    -0.354 N 
ATOM     48  N   UNL A   1      41.607  30.838  34.626  1.00  0.00    -0.248 NA
ATOM     49  C   UNL A   1      42.090  31.592  36.786  1.00  0.00     0.031 C 
ATOM     50  C   UNL A   1      43.696  27.449  32.639  1.00  0.00     0.029 A 
ATOM     51  C   UNL A   1      43.045  28.485  33.289  1.00  0.00     0.049 A 
ATOM     52  H   UNL A   1      41.448  29.685  32.605  1.00  0.00     0.167 HD
ATOM     53  C   UNL A   1      42.631  30.063  35.162  1.00  0.00     0.074 A 
ATOM     54  C   UNL A   1      42.903  30.590  36.483  1.00  0.00     0.031 C 
ATOM     55  C   UNL A   1      43.290  29.012  34.611  1.00  0.00     0.034 A 
BRANCH  42  56
ATOM     56  C   UNL A   1      41.341  27.517  28.912  1.00  0.00     0.023 A 
ATOM     57  C   UNL A   1      42.329  27.681  27.925  1.00  0.00     0.031 A 
ATOM     58  C   UNL A   1      40.407  26.478  28.742  1.00  0.00     0.131 A 
ATOM     59  C   UNL A   1      42.314  26.871  26.779  1.00  0.00     0.055 A 
ATOM     60  C   UNL A   1      40.446  25.624  27.638  1.00  0.00     0.041 A 
ATOM     61  F   UNL A   1      39.428  26.285  29.640  1.00  0.00    -0.206 F 
ATOM     62  C   UNL A   1      41.395  25.828  26.639  1.00  0.00     0.022 A 
BRANCH  59  63
ATOM     63  S   UNL A   1      43.425  27.290  25.406  1.00  0.00     0.124 S 
ATOM     64  O   UNL A   1      42.538  28.055  24.531  1.00  0.00    -0.237 OA
ATOM     65  O   UNL A   1      44.476  28.050  26.072  1.00  0.00    -0.237 OA
ATOM     66  O   UNL A   1      43.831  25.987  24.883  1.00  0.00    -0.744 OA
ENDBRANCH  59  63
ENDBRANCH  42  56
BRANCH  43  67
ATOM     67  C   UNL A   1      40.054  33.694  36.700  1.00  0.00     0.023 A 
ATOM     68  C   UNL A   1      39.394  33.210  37.839  1.00  0.00     0.031 A 
ATOM     69  C   UNL A   1      40.470  35.038  36.695  1.00  0.00     0.131 A 
ATOM     70  C   UNL A   1      39.138  34.073  38.917  1.00  0.00     0.055 A 
ATOM     71  C   UNL A   1      40.256  35.879  37.789  1.00  0.00     0.041 A 
ATOM     72  F   UNL A   1      41.106  35.549  35.629  1.00  0.00    -0.206 F 
ATOM     73  C   UNL A   1      39.576  35.400  38.904  1.00  0.00     0.022 A 
BRANCH  70  74
ATOM     74  S   UNL A   1      38.161  33.453  40.313  1.00  0.00     0.124 S 
ATOM     75  O   UNL A   1      38.162  34.603  41.211  1.00  0.00    -0.237 OA
ATOM     76  O   UNL A   1      36.888  33.139  39.674  1.00  0.00    -0.237 OA
ATOM     77  O   UNL A   1      38.926  32.297  40.776  1.00  0.00    -0.744 OA
ENDBRANCH  70  74
ENDBRANCH  43  67
BRANCH  55  78
ATOM     78  C   UNL A   1      44.399  28.403  35.431  1.00  0.00     0.023 A 
ATOM     79  C   UNL A   1      44.141  27.440  36.422  1.00  0.00     0.031 A 
ATOM     80  C   UNL A   1      45.729  28.812  35.232  1.00  0.00     0.131 A 
ATOM     81  C   UNL A   1      45.192  26.956  37.214  1.00  0.00     0.055 A 
ATOM     82  C   UNL A   1      46.777  28.287  35.988  1.00  0.00     0.041 A 
ATOM     83  F   UNL A   1      46.029  29.730  34.300  1.00  0.00    -0.206 F 
ATOM     84  C   UNL A   1      46.510  27.364  36.994  1.00  0.00     0.022 A 
BRANCH  81  85
ATOM     85  S   UNL A   1      44.803  25.848  38.597  1.00  0.00     0.124 S 
ATOM     86  O   UNL A   1      46.082  25.771  39.295  1.00  0.00    -0.237 OA
ATOM     87  O   UNL A   1      43.741  26.570  39.288  1.00  0.00    -0.237 OA
ATOM     88  O   UNL A   1      44.383  24.612  37.937  1.00  0.00    -0.744 OA
ENDBRANCH  81  85
ENDBRANCH  55  78
ENDBRANCH  29  30
ENDBRANCH  22  24
ENDBRANCH  21  22
ENDBRANCH  20  21
ENDBRANCH   1  20
TORSDOF 18
ENDMDL
MODEL 3
REMARK VINA RESULT:     -10.8      1.572      7.816
REMARK SMILES N#CCc1nc(-c2ccccc2)c(CC(=O)OCCOC(=O)c2ccc(-c3c4nc(c(-c5cc(S(=O)(=O)[O-])ccc5F)c5ccc([nH]5)c(-c5cc(S(=O)(=O)[O-])ccc5F)c5nc(c(-c6cc(S(=O)(=O)[O-])ccc6F)c6ccc3[nH]6)C=C5)C=C4)cc2)s1
REMARK SMILES IDX 18 1 17 2 15 3 16 4 14 5 13 6 4 7 5 8 86 9 6 10 3 11 2 12
REMARK SMILES IDX 1 13 7 14 8 15 12 16 9 17 11 18 10 19 19 20 20 21 21 22
REMARK SMILES IDX 22 23 23 24 24 25 85 26 25 27 84 28 26 29 27 30 28 31 78 32
REMARK SMILES IDX 29 33 83 34 77 35 79 36 30 37 82 38 76 39 75 40 31 42 63 43
REMARK SMILES IDX 43 44 62 45 44 46 47 47 61 48 80 49 45 50 46 51 60 53 81 54
REMARK SMILES IDX 48 55 32 56 33 57 41 58 34 59 40 60 42 61 39 62 35 63 36 64
REMARK SMILES IDX 37 65 38 66 64 67 65 68 73 69 66 70 72 71 74 72 71 73 67 74
REMARK SMILES IDX 68 75 69 76 70 77 49 78 50 79 58 80 51 81 57 82 59 83 56 84
REMARK SMILES IDX 52 85 53 86 54 87 55 88
REMARK H PARENT 79 41 47 52
REMARK Flexibility Score: inf
ROOT
ATOM      1  C   UNL A   1      37.620  19.720  24.716  1.00  0.00     0.274 C 
ENDROOT
BRANCH   1   2
ATOM      2  O   UNL A   1      37.363  21.103  24.404  1.00  0.00    -0.462 OA
BRANCH   2   3
ATOM      3  C   UNL A   1      36.324  21.664  25.075  1.00  0.00     0.311 C 
ATOM      4  O   UNL A   1      36.294  21.818  26.295  1.00  0.00    -0.252 OA
BRANCH   3   5
ATOM      5  C   UNL A   1      35.165  22.102  24.213  1.00  0.00     0.171 C 
BRANCH   5   6
ATOM      6  C   UNL A   1      33.810  22.037  24.848  1.00  0.00     0.044 A 
ATOM      7  C   UNL A   1      31.730  22.456  26.050  1.00  0.00     0.108 A 
ATOM      8  N   UNL A   1      31.721  21.236  25.543  1.00  0.00    -0.240 NA
ATOM      9  S   UNL A   1      33.187  23.338  25.786  1.00  0.00    -0.121 S 
ATOM     10  C   UNL A   1      32.901  20.992  24.862  1.00  0.00     0.085 A 
BRANCH   7  11
ATOM     11  C   UNL A   1      30.549  23.102  26.733  1.00  0.00     0.187 C 
BRANCH  11  12
ATOM     12  C   UNL A   1      30.398  24.456  26.059  1.00  0.00     0.069 C 
ATOM     13  N   UNL A   1      30.272  25.580  25.500  1.00  0.00    -0.198 NA
ENDBRANCH  11  12
ENDBRANCH   7  11
BRANCH  10  14
ATOM     14  C   UNL A   1      33.146  19.744  24.157  1.00  0.00     0.001 A 
ATOM     15  C   UNL A   1      32.364  19.390  23.048  1.00  0.00     0.010 A 
ATOM     16  C   UNL A   1      34.077  18.831  24.662  1.00  0.00     0.010 A 
ATOM     17  C   UNL A   1      32.464  18.113  22.493  1.00  0.00     0.001 A 
ATOM     18  C   UNL A   1      34.184  17.557  24.097  1.00  0.00     0.001 A 
ATOM     19  C   UNL A   1      33.367  17.195  23.025  1.00  0.00     0.000 A 
ENDBRANCH  10  14
ENDBRANCH   5   6
ENDBRANCH   3   5
ENDBRANCH   2   3
ENDBRANCH   1   2
BRANCH   1  20
ATOM     20  C   UNL A   1      39.036  19.548  25.263  1.00  0.00     0.275 C 
BRANCH  20  21
ATOM     21  O   UNL A   1      39.174  20.272  26.499  1.00  0.00    -0.458 OA
BRANCH  21  22
ATOM     22  C   UNL A   1      40.442  20.442  26.941  1.00  0.00     0.338 C 
ATOM     23  O   UNL A   1      41.284  19.579  27.118  1.00  0.00    -0.246 OA
BRANCH  22  24
ATOM     24  C   UNL A   1      40.683  21.870  27.216  1.00  0.00     0.060 A 
ATOM     25  C   UNL A   1      39.968  22.854  26.531  1.00  0.00     0.016 A 
ATOM     26  C   UNL A   1      41.701  22.229  28.097  1.00  0.00     0.016 A 
ATOM     27  C   UNL A   1      40.308  24.198  26.675  1.00  0.00     0.010 A 
ATOM     28  C   UNL A   1      41.992  23.580  28.296  1.00  0.00     0.010 A 
ATOM     29  C   UNL A   1      41.320  24.576  27.566  1.00  0.00    -0.014 A 
BRANCH  29  30
ATOM     30  C   UNL A   1      41.719  26.001  27.710  1.00  0.00     0.031 A 
ATOM     31  C   UNL A   1      43.040  26.463  27.157  1.00  0.00     0.074 A 
ATOM     32  C   UNL A   1      40.915  26.872  28.351  1.00  0.00     0.049 A 
ATOM     33  N   UNL A   1      43.666  27.597  27.336  1.00  0.00    -0.248 NA
ATOM     34  C   UNL A   1      43.757  25.506  26.301  1.00  0.00     0.031 C 
ATOM     35  C   UNL A   1      39.588  26.563  28.887  1.00  0.00     0.029 A 
ATOM     36  N   UNL A   1      41.103  28.193  28.673  1.00  0.00    -0.354 N 
ATOM     37  C   UNL A   1      44.871  27.478  26.650  1.00  0.00     0.074 A 
ATOM     38  C   UNL A   1      44.890  26.152  26.068  1.00  0.00     0.031 C 
ATOM     39  C   UNL A   1      39.081  27.663  29.464  1.00  0.00     0.029 A 
ATOM     40  C   UNL A   1      40.073  28.732  29.406  1.00  0.00     0.049 A 
ATOM     41  H   UNL A   1      41.901  28.705  28.404  1.00  0.00     0.167 HD
ATOM     42  C   UNL A   1      45.866  28.390  26.524  1.00  0.00     0.034 A 
ATOM     43  C   UNL A   1      39.958  29.934  30.005  1.00  0.00     0.034 A 
ATOM     44  C   UNL A   1      45.817  29.715  27.094  1.00  0.00     0.049 A 
ATOM     45  C   UNL A   1      41.103  30.908  29.906  1.00  0.00     0.074 A 
ATOM     46  C   UNL A   1      46.757  30.728  27.009  1.00  0.00     0.029 A 
ATOM     47  N   UNL A   1      44.770  30.212  27.861  1.00  0.00    -0.354 N 
ATOM     48  N   UNL A   1      42.254  30.771  29.290  1.00  0.00    -0.248 NA
ATOM     49  C   UNL A   1      40.936  32.194  30.594  1.00  0.00     0.031 C 
ATOM     50  C   UNL A   1      46.304  31.814  27.770  1.00  0.00     0.029 A 
ATOM     51  C   UNL A   1      45.052  31.505  28.276  1.00  0.00     0.049 A 
ATOM     52  H   UNL A   1      43.946  29.717  28.077  1.00  0.00     0.167 HD
ATOM     53  C   UNL A   1      42.940  31.964  29.499  1.00  0.00     0.074 A 
ATOM     54  C   UNL A   1      42.068  32.812  30.286  1.00  0.00     0.031 C 
ATOM     55  C   UNL A   1      44.177  32.329  29.075  1.00  0.00     0.034 A 
BRANCH  42  56
ATOM     56  C   UNL A   1      47.114  27.956  25.794  1.00  0.00     0.023 A 
ATOM     57  C   UNL A   1      47.278  28.153  24.412  1.00  0.00     0.031 A 
ATOM     58  C   UNL A   1      48.142  27.294  26.491  1.00  0.00     0.131 A 
ATOM     59  C   UNL A   1      48.404  27.629  23.759  1.00  0.00     0.055 A 
ATOM     60  C   UNL A   1      49.297  26.845  25.849  1.00  0.00     0.041 A 
ATOM     61  F   UNL A   1      48.033  27.058  27.808  1.00  0.00    -0.206 F 
ATOM     62  C   UNL A   1      49.427  26.997  24.471  1.00  0.00     0.022 A 
BRANCH  59  63
ATOM     63  S   UNL A   1      48.448  27.659  21.945  1.00  0.00     0.124 S 
ATOM     64  O   UNL A   1      47.118  28.174  21.626  1.00  0.00    -0.237 OA
ATOM     65  O   UNL A   1      49.563  28.558  21.671  1.00  0.00    -0.237 OA
ATOM     66  O   UNL A   1      48.668  26.260  21.583  1.00  0.00    -0.744 OA
ENDBRANCH  59  63
ENDBRANCH  42  56
BRANCH  43  67
ATOM     67  C   UNL A   1      38.744  30.266  30.802  1.00  0.00     0.023 A 
ATOM     68  C   UNL A   1      37.702  31.023  30.247  1.00  0.00     0.031 A 
ATOM     69  C   UNL A   1      38.626  29.858  32.143  1.00  0.00     0.131 A 
ATOM     70  C   UNL A   1      36.599  31.378  31.040  1.00  0.00     0.055 A 
ATOM     71  C   UNL A   1      37.505  30.173  32.912  1.00  0.00     0.041 A 
ATOM     72  F   UNL A   1      39.596  29.131  32.721  1.00  0.00    -0.206 F 
ATOM     73  C   UNL A   1      36.488  30.947  32.364  1.00  0.00     0.022 A 
BRANCH  70  74
ATOM     74  S   UNL A   1      35.338  32.473  30.333  1.00  0.00     0.124 S 
ATOM     75  O   UNL A   1      36.123  33.659  30.006  1.00  0.00    -0.237 OA
ATOM     76  O   UNL A   1      34.858  31.689  29.200  1.00  0.00    -0.237 OA
ATOM     77  O   UNL A   1      34.380  32.638  31.424  1.00  0.00    -0.744 OA
ENDBRANCH  70  74
ENDBRANCH  43  67
BRANCH  55  78
ATOM     78  C   UNL A   1      44.627  33.725  29.424  1.00  0.00     0.023 A 
ATOM     79  C   UNL A   1      45.357  33.994  30.595  1.00  0.00     0.031 A 
ATOM     80  C   UNL A   1      44.300  34.802  28.583  1.00  0.00     0.131 A 
ATOM     81  C   UNL A   1      45.689  35.318  30.920  1.00  0.00     0.055 A 
ATOM     82  C   UNL A   1      44.679  36.110  28.885  1.00  0.00     0.041 A 
ATOM     83  F   UNL A   1      43.603  34.599  27.454  1.00  0.00    -0.206 F 
ATOM     84  C   UNL A   1      45.367  36.375  30.065  1.00  0.00     0.022 A 
BRANCH  81  85
ATOM     85  S   UNL A   1      46.477  35.650  32.520  1.00  0.00     0.124 S 
ATOM     86  O   UNL A   1      47.875  35.824  32.141  1.00  0.00    -0.237 OA
ATOM     87  O   UNL A   1      45.783  36.853  32.967  1.00  0.00    -0.237 OA
ATOM     88  O   UNL A   1      46.191  34.446  33.300  1.00  0.00    -0.744 OA
ENDBRANCH  81  85
ENDBRANCH  55  78
ENDBRANCH  29  30
ENDBRANCH  22  24
ENDBRANCH  21  22
ENDBRANCH  20  21
ENDBRANCH   1  20
TORSDOF 18
ENDMDL
