MODEL 1
REMARK VINA RESULT:     -11.7      0.000      0.000
REMARK SMILES O=C(Cc1ccccc1Nc1c(F)cccc1C(F)(F)F)OCCOC(=O)c1ccc(-c2c3nc(c(-c4cc(S(=O)(=O)[O-])ccc4F)c4ccc([nH]4)c(-c4cc(S(=O)(=O)[O-])ccc4F)c4nc(c(-c5cc(S(=O)(=O)[O-])ccc5F)c5ccc2[nH]5)C=C4)C=C3)cc1
REMARK SMILES IDX 23 1 22 2 2 3 1 4 3 5 4 6 5 7 9 8 6 9 8 10 7 11 10 12 11 14
REMARK SMILES IDX 12 15 17 16 13 17 14 18 16 19 15 20 18 21 19 22 20 23 21 24
REMARK SMILES IDX 24 25 25 26 26 27 27 28 28 29 29 30 90 31 30 32 89 33 31 34
REMARK SMILES IDX 32 35 33 36 83 37 34 38 88 39 82 40 84 41 35 42 87 43 81 44
REMARK SMILES IDX 80 45 36 47 68 48 48 49 67 50 49 51 52 52 66 53 85 54 50 55
REMARK SMILES IDX 51 56 65 58 86 59 53 60 37 61 38 62 46 63 39 64 45 65 47 66
REMARK SMILES IDX 44 67 40 68 41 69 42 70 43 71 69 72 70 73 78 74 71 75 77 76
REMARK SMILES IDX 79 77 76 78 72 79 73 80 74 81 75 82 54 83 55 84 63 85 56 86
REMARK SMILES IDX 62 87 64 88 61 89 57 90 58 91 59 92 60 93
REMARK H PARENT 10 13 84 46 52 57
REMARK Flexibility Score: inf
ROOT
ATOM      1  C   UNL A   1      31.733  30.476  26.165  1.00  0.00     0.274 C 
ENDROOT
BRANCH   1   2
ATOM      2  O   UNL A   1      31.603  29.455  27.168  1.00  0.00    -0.462 OA
BRANCH   2   3
ATOM      3  C   UNL A   1      32.058  28.195  26.893  1.00  0.00     0.310 C 
ATOM      4  O   UNL A   1      31.451  27.211  27.302  1.00  0.00    -0.252 OA
BRANCH   3   5
ATOM      5  C   UNL A   1      33.455  28.125  26.308  1.00  0.00     0.160 C 
BRANCH   5   6
ATOM      6  C   UNL A   1      33.586  27.501  24.936  1.00  0.00    -0.013 A 
ATOM      7  C   UNL A   1      33.579  28.334  23.805  1.00  0.00     0.006 A 
ATOM      8  C   UNL A   1      33.649  26.103  24.764  1.00  0.00     0.042 A 
ATOM      9  C   UNL A   1      33.579  27.790  22.522  1.00  0.00     0.000 A 
ATOM     10  C   UNL A   1      33.627  25.573  23.467  1.00  0.00     0.026 A 
ATOM     11  C   UNL A   1      33.592  26.410  22.353  1.00  0.00     0.002 A 
BRANCH   8  12
ATOM     12  N   UNL A   1      33.538  25.242  25.872  1.00  0.00    -0.352 N 
ATOM     13  H   UNL A   1      33.332  25.695  26.722  1.00  0.00     0.167 HD
BRANCH  12  14
ATOM     14  C   UNL A   1      33.672  23.839  25.972  1.00  0.00     0.087 A 
ATOM     15  C   UNL A   1      34.990  23.334  26.034  1.00  0.00     0.147 A 
ATOM     16  C   UNL A   1      32.615  22.912  25.947  1.00  0.00     0.082 A 
ATOM     17  F   UNL A   1      36.017  24.198  25.984  1.00  0.00    -0.205 F 
ATOM     18  C   UNL A   1      35.273  21.978  26.132  1.00  0.00     0.041 A 
ATOM     19  C   UNL A   1      32.915  21.532  26.074  1.00  0.00     0.015 A 
ATOM     20  C   UNL A   1      34.227  21.069  26.169  1.00  0.00     0.004 A 
BRANCH  16  21
ATOM     21  C   UNL A   1      31.167  23.290  25.733  1.00  0.00     0.418 C 
ATOM     22  F   UNL A   1      30.319  22.251  26.019  1.00  0.00    -0.166 F 
ATOM     23  F   UNL A   1      30.755  24.304  26.540  1.00  0.00    -0.166 F 
ATOM     24  F   UNL A   1      30.871  23.633  24.457  1.00  0.00    -0.166 F 
ENDBRANCH  16  21
ENDBRANCH  12  14
ENDBRANCH   8  12
ENDBRANCH   5   6
ENDBRANCH   3   5
ENDBRANCH   2   3
ENDBRANCH   1   2
BRANCH   1  25
ATOM     25  C   UNL A   1      31.686  31.915  26.698  1.00  0.00     0.275 C 
BRANCH  25  26
ATOM     26  O   UNL A   1      32.419  32.064  27.920  1.00  0.00    -0.458 OA
BRANCH  26  27
ATOM     27  C   UNL A   1      33.352  33.049  27.861  1.00  0.00     0.338 C 
ATOM     28  O   UNL A   1      33.130  34.248  27.817  1.00  0.00    -0.246 OA
BRANCH  27  29
ATOM     29  C   UNL A   1      34.699  32.477  28.054  1.00  0.00     0.060 A 
ATOM     30  C   UNL A   1      34.775  31.111  28.348  1.00  0.00     0.016 A 
ATOM     31  C   UNL A   1      35.862  33.251  27.985  1.00  0.00     0.016 A 
ATOM     32  C   UNL A   1      36.001  30.534  28.666  1.00  0.00     0.010 A 
ATOM     33  C   UNL A   1      37.096  32.669  28.303  1.00  0.00     0.010 A 
ATOM     34  C   UNL A   1      37.159  31.322  28.705  1.00  0.00    -0.014 A 
BRANCH  34  35
ATOM     35  C   UNL A   1      38.352  30.790  29.410  1.00  0.00     0.031 A 
ATOM     36  C   UNL A   1      38.562  31.194  30.848  1.00  0.00     0.074 A 
ATOM     37  C   UNL A   1      39.183  29.910  28.826  1.00  0.00     0.049 A 
ATOM     38  N   UNL A   1      39.459  30.785  31.707  1.00  0.00    -0.248 NA
ATOM     39  C   UNL A   1      37.633  32.201  31.382  1.00  0.00     0.031 C 
ATOM     40  C   UNL A   1      39.070  29.421  27.453  1.00  0.00     0.029 A 
ATOM     41  N   UNL A   1      40.282  29.258  29.327  1.00  0.00    -0.354 N 
ATOM     42  C   UNL A   1      39.192  31.472  32.887  1.00  0.00     0.074 A 
ATOM     43  C   UNL A   1      38.091  32.370  32.611  1.00  0.00     0.031 C 
ATOM     44  C   UNL A   1      40.058  28.537  27.224  1.00  0.00     0.029 A 
ATOM     45  C   UNL A   1      40.879  28.408  28.428  1.00  0.00     0.049 A 
ATOM     46  H   UNL A   1      40.611  29.388  30.245  1.00  0.00     0.167 HD
ATOM     47  C   UNL A   1      39.793  31.354  34.097  1.00  0.00     0.034 A 
ATOM     48  C   UNL A   1      41.960  27.613  28.566  1.00  0.00     0.034 A 
ATOM     49  C   UNL A   1      40.902  30.471  34.357  1.00  0.00     0.049 A 
ATOM     50  C   UNL A   1      42.663  27.550  29.902  1.00  0.00     0.074 A 
ATOM     51  C   UNL A   1      41.581  30.262  35.545  1.00  0.00     0.029 A 
ATOM     52  N   UNL A   1      41.511  29.661  33.406  1.00  0.00    -0.354 N 
ATOM     53  N   UNL A   1      42.374  28.172  31.023  1.00  0.00    -0.248 NA
ATOM     54  C   UNL A   1      43.826  26.658  29.995  1.00  0.00     0.031 C 
ATOM     55  C   UNL A   1      42.640  29.382  35.296  1.00  0.00     0.029 A 
ATOM     56  C   UNL A   1      42.576  28.976  33.972  1.00  0.00     0.049 A 
ATOM     57  H   UNL A   1      41.227  29.583  32.465  1.00  0.00     0.167 HD
ATOM     58  C   UNL A   1      43.291  27.705  31.964  1.00  0.00     0.074 A 
ATOM     59  C   UNL A   1      44.138  26.751  31.279  1.00  0.00     0.031 C 
ATOM     60  C   UNL A   1      43.415  28.026  33.279  1.00  0.00     0.034 A 
BRANCH  47  61
ATOM     61  C   UNL A   1      39.286  32.246  35.204  1.00  0.00     0.023 A 
ATOM     62  C   UNL A   1      39.734  33.573  35.349  1.00  0.00     0.031 A 
ATOM     63  C   UNL A   1      38.390  31.746  36.165  1.00  0.00     0.131 A 
ATOM     64  C   UNL A   1      39.354  34.320  36.474  1.00  0.00     0.055 A 
ATOM     65  C   UNL A   1      37.948  32.525  37.235  1.00  0.00     0.041 A 
ATOM     66  F   UNL A   1      37.948  30.481  36.093  1.00  0.00    -0.206 F 
ATOM     67  C   UNL A   1      38.444  33.814  37.405  1.00  0.00     0.022 A 
BRANCH  64  68
ATOM     68  S   UNL A   1      40.194  35.897  36.792  1.00  0.00     0.124 S 
ATOM     69  O   UNL A   1      39.747  36.703  35.658  1.00  0.00    -0.237 OA
ATOM     70  O   UNL A   1      39.668  36.278  38.097  1.00  0.00    -0.237 OA
ATOM     71  O   UNL A   1      41.612  35.541  36.770  1.00  0.00    -0.744 OA
ENDBRANCH  64  68
ENDBRANCH  47  61
BRANCH  48  72
ATOM     72  C   UNL A   1      42.459  26.806  27.416  1.00  0.00     0.023 A 
ATOM     73  C   UNL A   1      42.118  25.450  27.276  1.00  0.00     0.031 A 
ATOM     74  C   UNL A   1      43.345  27.363  26.478  1.00  0.00     0.131 A 
ATOM     75  C   UNL A   1      42.700  24.684  26.253  1.00  0.00     0.055 A 
ATOM     76  C   UNL A   1      43.882  26.610  25.431  1.00  0.00     0.041 A 
ATOM     77  F   UNL A   1      43.703  28.654  26.566  1.00  0.00    -0.206 F 
ATOM     78  C   UNL A   1      43.571  25.258  25.324  1.00  0.00     0.022 A 
BRANCH  75  79
ATOM     79  S   UNL A   1      42.369  22.901  26.205  1.00  0.00     0.124 S 
ATOM     80  O   UNL A   1      42.878  22.540  24.887  1.00  0.00    -0.237 OA
ATOM     81  O   UNL A   1      43.141  22.419  27.346  1.00  0.00    -0.237 OA
ATOM     82  O   UNL A   1      40.918  22.821  26.358  1.00  0.00    -0.744 OA
ENDBRANCH  75  79
ENDBRANCH  48  72
BRANCH  60  83
ATOM     83  C   UNL A   1      44.463  27.286  34.076  1.00  0.00     0.023 A 
ATOM     84  C   UNL A   1      44.172  26.103  34.778  1.00  0.00     0.031 A 
ATOM     85  C   UNL A   1      45.775  27.787  34.144  1.00  0.00     0.131 A 
ATOM     86  C   UNL A   1      45.162  25.495  35.565  1.00  0.00     0.055 A 
ATOM     87  C   UNL A   1      46.772  27.143  34.880  1.00  0.00     0.041 A 
ATOM     88  F   UNL A   1      46.113  28.913  33.495  1.00  0.00    -0.206 F 
ATOM     89  C   UNL A   1      46.464  25.999  35.608  1.00  0.00     0.022 A 
BRANCH  86  90
ATOM     90  S   UNL A   1      44.699  24.092  36.620  1.00  0.00     0.124 S 
ATOM     91  O   UNL A   1      43.725  24.697  37.523  1.00  0.00    -0.237 OA
ATOM     92  O   UNL A   1      44.167  23.139  35.653  1.00  0.00    -0.237 OA
ATOM     93  O   UNL A   1      45.962  23.701  37.244  1.00  0.00    -0.744 OA
ENDBRANCH  86  90
ENDBRANCH  60  83
ENDBRANCH  34  35
ENDBRANCH  27  29
ENDBRANCH  26  27
ENDBRANCH  25  26
ENDBRANCH   1  25
TORSDOF 18
ENDMDL
MODEL 2
REMARK VINA RESULT:     -11.5      4.470      9.954
REMARK SMILES O=C(Cc1ccccc1Nc1c(F)cccc1C(F)(F)F)OCCOC(=O)c1ccc(-c2c3nc(c(-c4cc(S(=O)(=O)[O-])ccc4F)c4ccc([nH]4)c(-c4cc(S(=O)(=O)[O-])ccc4F)c4nc(c(-c5cc(S(=O)(=O)[O-])ccc5F)c5ccc2[nH]5)C=C4)C=C3)cc1
REMARK SMILES IDX 23 1 22 2 2 3 1 4 3 5 4 6 5 7 9 8 6 9 8 10 7 11 10 12 11 14
REMARK SMILES IDX 12 15 17 16 13 17 14 18 16 19 15 20 18 21 19 22 20 23 21 24
REMARK SMILES IDX 24 25 25 26 26 27 27 28 28 29 29 30 90 31 30 32 89 33 31 34
REMARK SMILES IDX 32 35 33 36 83 37 34 38 88 39 82 40 84 41 35 42 87 43 81 44
REMARK SMILES IDX 80 45 36 47 68 48 48 49 67 50 49 51 52 52 66 53 85 54 50 55
REMARK SMILES IDX 51 56 65 58 86 59 53 60 37 61 38 62 46 63 39 64 45 65 47 66
REMARK SMILES IDX 44 67 40 68 41 69 42 70 43 71 69 72 70 73 78 74 71 75 77 76
REMARK SMILES IDX 79 77 76 78 72 79 73 80 74 81 75 82 54 83 55 84 63 85 56 86
REMARK SMILES IDX 62 87 64 88 61 89 57 90 58 91 59 92 60 93
REMARK H PARENT 10 13 84 46 52 57
REMARK Flexibility Score: inf
ROOT
ATOM      1  C   UNL A   1      36.080  20.626  25.103  1.00  0.00     0.274 C 
ENDROOT
BRANCH   1   2
ATOM      2  O   UNL A   1      35.858  21.558  26.173  1.00  0.00    -0.462 OA
BRANCH   2   3
ATOM      3  C   UNL A   1      34.576  21.810  26.577  1.00  0.00     0.310 C 
ATOM      4  O   UNL A   1      34.203  21.490  27.700  1.00  0.00    -0.252 OA
BRANCH   3   5
ATOM      5  C   UNL A   1      33.625  22.244  25.478  1.00  0.00     0.160 C 
BRANCH   5   6
ATOM      6  C   UNL A   1      32.428  23.065  25.902  1.00  0.00    -0.013 A 
ATOM      7  C   UNL A   1      31.266  22.403  26.334  1.00  0.00     0.006 A 
ATOM      8  C   UNL A   1      32.429  24.472  25.815  1.00  0.00     0.042 A 
ATOM      9  C   UNL A   1      30.106  23.119  26.620  1.00  0.00     0.000 A 
ATOM     10  C   UNL A   1      31.247  25.175  26.087  1.00  0.00     0.026 A 
ATOM     11  C   UNL A   1      30.093  24.504  26.487  1.00  0.00     0.002 A 
BRANCH   8  12
ATOM     12  N   UNL A   1      33.537  25.152  25.275  1.00  0.00    -0.352 N 
ATOM     13  H   UNL A   1      34.405  24.891  25.661  1.00  0.00     0.167 HD
BRANCH  12  14
ATOM     14  C   UNL A   1      33.616  26.145  24.273  1.00  0.00     0.087 A 
ATOM     15  C   UNL A   1      33.823  27.471  24.714  1.00  0.00     0.147 A 
ATOM     16  C   UNL A   1      33.440  25.933  22.894  1.00  0.00     0.082 A 
ATOM     17  F   UNL A   1      33.920  27.707  26.033  1.00  0.00    -0.205 F 
ATOM     18  C   UNL A   1      33.919  28.549  23.843  1.00  0.00     0.041 A 
ATOM     19  C   UNL A   1      33.566  27.036  22.013  1.00  0.00     0.015 A 
ATOM     20  C   UNL A   1      33.806  28.328  22.479  1.00  0.00     0.004 A 
BRANCH  16  21
ATOM     21  C   UNL A   1      33.063  24.600  22.288  1.00  0.00     0.418 C 
ATOM     22  F   UNL A   1      32.972  24.667  20.922  1.00  0.00    -0.166 F 
ATOM     23  F   UNL A   1      33.982  23.627  22.526  1.00  0.00    -0.166 F 
ATOM     24  F   UNL A   1      31.856  24.135  22.690  1.00  0.00    -0.166 F 
ENDBRANCH  16  21
ENDBRANCH  12  14
ENDBRANCH   8  12
ENDBRANCH   5   6
ENDBRANCH   3   5
ENDBRANCH   2   3
ENDBRANCH   1   2
BRANCH   1  25
ATOM     25  C   UNL A   1      37.525  20.123  24.974  1.00  0.00     0.275 C 
BRANCH  25  26
ATOM     26  O   UNL A   1      38.482  21.180  25.109  1.00  0.00    -0.458 OA
BRANCH  26  27
ATOM     27  C   UNL A   1      39.466  20.893  25.999  1.00  0.00     0.338 C 
ATOM     28  O   UNL A   1      40.091  19.848  26.068  1.00  0.00    -0.246 OA
BRANCH  27  29
ATOM     29  C   UNL A   1      39.821  22.106  26.764  1.00  0.00     0.060 A 
ATOM     30  C   UNL A   1      39.123  23.279  26.458  1.00  0.00     0.016 A 
ATOM     31  C   UNL A   1      40.830  22.115  27.733  1.00  0.00     0.016 A 
ATOM     32  C   UNL A   1      39.492  24.483  27.049  1.00  0.00     0.010 A 
ATOM     33  C   UNL A   1      41.200  23.327  28.329  1.00  0.00     0.010 A 
ATOM     34  C   UNL A   1      40.571  24.525  27.942  1.00  0.00    -0.014 A 
BRANCH  34  35
ATOM     35  C   UNL A   1      41.183  25.843  28.248  1.00  0.00     0.031 A 
ATOM     36  C   UNL A   1      42.574  26.113  27.732  1.00  0.00     0.074 A 
ATOM     37  C   UNL A   1      40.501  26.805  28.893  1.00  0.00     0.049 A 
ATOM     38  N   UNL A   1      43.279  27.213  27.772  1.00  0.00    -0.248 NA
ATOM     39  C   UNL A   1      43.258  24.983  27.086  1.00  0.00     0.031 C 
ATOM     40  C   UNL A   1      39.142  26.676  29.415  1.00  0.00     0.029 A 
ATOM     41  N   UNL A   1      40.860  28.093  29.202  1.00  0.00    -0.354 N 
ATOM     42  C   UNL A   1      44.484  26.912  27.144  1.00  0.00     0.074 A 
ATOM     43  C   UNL A   1      44.435  25.510  26.791  1.00  0.00     0.031 C 
ATOM     44  C   UNL A   1      38.778  27.843  29.974  1.00  0.00     0.029 A 
ATOM     45  C   UNL A   1      39.881  28.798  29.861  1.00  0.00     0.049 A 
ATOM     46  H   UNL A   1      41.737  28.476  28.974  1.00  0.00     0.167 HD
ATOM     47  C   UNL A   1      45.529  27.731  26.867  1.00  0.00     0.034 A 
ATOM     48  C   UNL A   1      39.877  30.068  30.313  1.00  0.00     0.034 A 
ATOM     49  C   UNL A   1      45.576  29.123  27.240  1.00  0.00     0.049 A 
ATOM     50  C   UNL A   1      41.081  30.945  30.059  1.00  0.00     0.074 A 
ATOM     51  C   UNL A   1      46.577  30.048  27.001  1.00  0.00     0.029 A 
ATOM     52  N   UNL A   1      44.584  29.788  27.951  1.00  0.00    -0.354 N 
ATOM     53  N   UNL A   1      42.197  30.661  29.426  1.00  0.00    -0.248 NA
ATOM     54  C   UNL A   1      41.013  32.323  30.564  1.00  0.00     0.031 C 
ATOM     55  C   UNL A   1      46.223  31.249  27.626  1.00  0.00     0.029 A 
ATOM     56  C   UNL A   1      44.964  31.101  28.187  1.00  0.00     0.049 A 
ATOM     57  H   UNL A   1      43.734  29.385  28.244  1.00  0.00     0.167 HD
ATOM     58  C   UNL A   1      42.939  31.842  29.415  1.00  0.00     0.074 A 
ATOM     59  C   UNL A   1      42.143  32.837  30.103  1.00  0.00     0.031 C 
ATOM     60  C   UNL A   1      44.162  32.085  28.875  1.00  0.00     0.034 A 
BRANCH  47  61
ATOM     61  C   UNL A   1      46.718  27.113  26.172  1.00  0.00     0.023 A 
ATOM     62  C   UNL A   1      47.751  26.484  26.893  1.00  0.00     0.031 A 
ATOM     63  C   UNL A   1      46.854  27.209  24.777  1.00  0.00     0.131 A 
ATOM     64  C   UNL A   1      48.908  26.054  26.225  1.00  0.00     0.055 A 
ATOM     65  C   UNL A   1      47.969  26.701  24.110  1.00  0.00     0.041 A 
ATOM     66  F   UNL A   1      45.914  27.820  24.040  1.00  0.00    -0.206 F 
ATOM     67  C   UNL A   1      49.013  26.136  24.835  1.00  0.00     0.022 A 
BRANCH  64  68
ATOM     68  S   UNL A   1      50.341  25.542  27.215  1.00  0.00     0.124 S 
ATOM     69  O   UNL A   1      49.907  24.236  27.707  1.00  0.00    -0.237 OA
ATOM     70  O   UNL A   1      51.416  25.532  26.231  1.00  0.00    -0.237 OA
ATOM     71  O   UNL A   1      50.440  26.582  28.237  1.00  0.00    -0.744 OA
ENDBRANCH  64  68
ENDBRANCH  47  61
BRANCH  48  72
ATOM     72  C   UNL A   1      38.700  30.605  31.055  1.00  0.00     0.023 A 
ATOM     73  C   UNL A   1      37.605  31.166  30.376  1.00  0.00     0.031 A 
ATOM     74  C   UNL A   1      38.687  30.628  32.461  1.00  0.00     0.131 A 
ATOM     75  C   UNL A   1      36.568  31.773  31.104  1.00  0.00     0.055 A 
ATOM     76  C   UNL A   1      37.629  31.187  33.180  1.00  0.00     0.041 A 
ATOM     77  F   UNL A   1      39.708  30.105  33.158  1.00  0.00    -0.206 F 
ATOM     78  C   UNL A   1      36.568  31.778  32.500  1.00  0.00     0.022 A 
BRANCH  75  79
ATOM     79  S   UNL A   1      35.258  32.635  30.193  1.00  0.00     0.124 S 
ATOM     80  O   UNL A   1      34.280  32.886  31.246  1.00  0.00    -0.237 OA
ATOM     81  O   UNL A   1      35.964  33.806  29.681  1.00  0.00    -0.237 OA
ATOM     82  O   UNL A   1      34.851  31.664  29.181  1.00  0.00    -0.744 OA
ENDBRANCH  75  79
ENDBRANCH  48  72
BRANCH  60  83
ATOM     83  C   UNL A   1      44.680  33.502  28.948  1.00  0.00     0.023 A 
ATOM     84  C   UNL A   1      45.470  33.956  30.019  1.00  0.00     0.031 A 
ATOM     85  C   UNL A   1      44.362  34.419  27.929  1.00  0.00     0.131 A 
ATOM     86  C   UNL A   1      45.864  35.302  30.077  1.00  0.00     0.055 A 
ATOM     87  C   UNL A   1      44.809  35.741  27.962  1.00  0.00     0.041 A 
ATOM     88  F   UNL A   1      43.612  34.043  26.881  1.00  0.00    -0.206 F 
ATOM     89  C   UNL A   1      45.551  36.193  29.047  1.00  0.00     0.022 A 
BRANCH  86  90
ATOM     90  S   UNL A   1      46.703  35.903  31.570  1.00  0.00     0.124 S 
ATOM     91  O   UNL A   1      45.933  35.262  32.632  1.00  0.00    -0.237 OA
ATOM     92  O   UNL A   1      48.062  35.409  31.382  1.00  0.00    -0.237 OA
ATOM     93  O   UNL A   1      46.553  37.355  31.487  1.00  0.00    -0.744 OA
ENDBRANCH  86  90
ENDBRANCH  60  83
ENDBRANCH  34  35
ENDBRANCH  27  29
ENDBRANCH  26  27
ENDBRANCH  25  26
ENDBRANCH   1  25
TORSDOF 18
ENDMDL
MODEL 3
REMARK VINA RESULT:     -11.3      4.729     10.144
REMARK SMILES O=C(Cc1ccccc1Nc1c(F)cccc1C(F)(F)F)OCCOC(=O)c1ccc(-c2c3nc(c(-c4cc(S(=O)(=O)[O-])ccc4F)c4ccc([nH]4)c(-c4cc(S(=O)(=O)[O-])ccc4F)c4nc(c(-c5cc(S(=O)(=O)[O-])ccc5F)c5ccc2[nH]5)C=C4)C=C3)cc1
REMARK SMILES IDX 23 1 22 2 2 3 1 4 3 5 4 6 5 7 9 8 6 9 8 10 7 11 10 12 11 14
REMARK SMILES IDX 12 15 17 16 13 17 14 18 16 19 15 20 18 21 19 22 20 23 21 24
REMARK SMILES IDX 24 25 25 26 26 27 27 28 28 29 29 30 90 31 30 32 89 33 31 34
REMARK SMILES IDX 32 35 33 36 83 37 34 38 88 39 82 40 84 41 35 42 87 43 81 44
REMARK SMILES IDX 80 45 36 47 68 48 48 49 67 50 49 51 52 52 66 53 85 54 50 55
REMARK SMILES IDX 51 56 65 58 86 59 53 60 37 61 38 62 46 63 39 64 45 65 47 66
REMARK SMILES IDX 44 67 40 68 41 69 42 70 43 71 69 72 70 73 78 74 71 75 77 76
REMARK SMILES IDX 79 77 76 78 72 79 73 80 74 81 75 82 54 83 55 84 63 85 56 86
REMARK SMILES IDX 62 87 64 88 61 89 57 90 58 91 59 92 60 93
REMARK H PARENT 10 13 84 46 52 57
REMARK Flexibility Score: inf
ROOT
ATOM      1  C   UNL A   1      36.651  21.374  24.406  1.00  0.00     0.274 C 
ENDROOT
BRANCH   1   2
ATOM      2  O   UNL A   1      36.596  22.559  23.596  1.00  0.00    -0.462 OA
BRANCH   2   3
ATOM      3  C   UNL A   1      35.533  23.408  23.736  1.00  0.00     0.310 C 
ATOM      4  O   UNL A   1      34.847  23.713  22.766  1.00  0.00    -0.252 OA
BRANCH   3   5
ATOM      5  C   UNL A   1      35.448  24.123  25.070  1.00  0.00     0.160 C 
BRANCH   5   6
ATOM      6  C   UNL A   1      34.188  23.905  25.877  1.00  0.00    -0.013 A 
ATOM      7  C   UNL A   1      34.163  22.882  26.839  1.00  0.00     0.006 A 
ATOM      8  C   UNL A   1      33.020  24.660  25.643  1.00  0.00     0.042 A 
ATOM      9  C   UNL A   1      32.987  22.573  27.519  1.00  0.00     0.000 A 
ATOM     10  C   UNL A   1      31.841  24.323  26.320  1.00  0.00     0.026 A 
ATOM     11  C   UNL A   1      31.823  23.287  27.252  1.00  0.00     0.002 A 
BRANCH   8  12
ATOM     12  N   UNL A   1      32.982  25.610  24.604  1.00  0.00    -0.352 N 
ATOM     13  H   UNL A   1      33.610  25.434  23.866  1.00  0.00     0.167 HD
BRANCH  12  14
ATOM     14  C   UNL A   1      32.196  26.772  24.440  1.00  0.00     0.087 A 
ATOM     15  C   UNL A   1      31.253  26.752  23.388  1.00  0.00     0.147 A 
ATOM     16  C   UNL A   1      32.321  27.958  25.186  1.00  0.00     0.082 A 
ATOM     17  F   UNL A   1      31.169  25.657  22.615  1.00  0.00    -0.205 F 
ATOM     18  C   UNL A   1      30.414  27.824  23.108  1.00  0.00     0.041 A 
ATOM     19  C   UNL A   1      31.442  29.035  24.908  1.00  0.00     0.015 A 
ATOM     20  C   UNL A   1      30.498  28.969  23.884  1.00  0.00     0.004 A 
BRANCH  16  21
ATOM     21  C   UNL A   1      33.382  28.183  26.239  1.00  0.00     0.418 C 
ATOM     22  F   UNL A   1      33.979  29.410  26.109  1.00  0.00    -0.166 F 
ATOM     23  F   UNL A   1      32.889  28.172  27.506  1.00  0.00    -0.166 F 
ATOM     24  F   UNL A   1      34.406  27.297  26.187  1.00  0.00    -0.166 F 
ENDBRANCH  16  21
ENDBRANCH  12  14
ENDBRANCH   8  12
ENDBRANCH   5   6
ENDBRANCH   3   5
ENDBRANCH   2   3
ENDBRANCH   1   2
BRANCH   1  25
ATOM     25  C   UNL A   1      38.031  21.064  25.004  1.00  0.00     0.275 C 
BRANCH  25  26
ATOM     26  O   UNL A   1      38.335  21.901  26.126  1.00  0.00    -0.458 OA
BRANCH  26  27
ATOM     27  C   UNL A   1      39.669  22.090  26.299  1.00  0.00     0.338 C 
ATOM     28  O   UNL A   1      40.561  21.463  25.751  1.00  0.00    -0.246 OA
BRANCH  27  29
ATOM     29  C   UNL A   1      39.904  23.303  27.106  1.00  0.00     0.060 A 
ATOM     30  C   UNL A   1      39.048  24.389  26.889  1.00  0.00     0.016 A 
ATOM     31  C   UNL A   1      40.950  23.401  28.030  1.00  0.00     0.016 A 
ATOM     32  C   UNL A   1      39.290  25.604  27.522  1.00  0.00     0.010 A 
ATOM     33  C   UNL A   1      41.192  24.623  28.669  1.00  0.00     0.010 A 
ATOM     34  C   UNL A   1      40.397  25.746  28.369  1.00  0.00    -0.014 A 
BRANCH  34  35
ATOM     35  C   UNL A   1      40.852  27.117  28.713  1.00  0.00     0.031 A 
ATOM     36  C   UNL A   1      42.269  27.499  28.369  1.00  0.00     0.074 A 
ATOM     37  C   UNL A   1      40.013  28.026  29.240  1.00  0.00     0.049 A 
ATOM     38  N   UNL A   1      42.868  28.657  28.467  1.00  0.00    -0.248 NA
ATOM     39  C   UNL A   1      43.124  26.423  27.845  1.00  0.00     0.031 C 
ATOM     40  C   UNL A   1      38.615  27.787  29.591  1.00  0.00     0.029 A 
ATOM     41  N   UNL A   1      40.220  29.346  29.556  1.00  0.00    -0.354 N 
ATOM     42  C   UNL A   1      44.164  28.452  28.004  1.00  0.00     0.074 A 
ATOM     43  C   UNL A   1      44.279  27.046  27.687  1.00  0.00     0.031 C 
ATOM     44  C   UNL A   1      38.085  28.928  30.067  1.00  0.00     0.029 A 
ATOM     45  C   UNL A   1      39.109  29.973  30.067  1.00  0.00     0.049 A 
ATOM     46  H   UNL A   1      41.084  29.800  29.429  1.00  0.00     0.167 HD
ATOM     47  C   UNL A   1      45.162  29.355  27.838  1.00  0.00     0.034 A 
ATOM     48  C   UNL A   1      38.939  31.245  30.479  1.00  0.00     0.034 A 
ATOM     49  C   UNL A   1      45.044  30.752  28.175  1.00  0.00     0.049 A 
ATOM     50  C   UNL A   1      40.088  32.220  30.355  1.00  0.00     0.074 A 
ATOM     51  C   UNL A   1      45.985  31.757  28.039  1.00  0.00     0.029 A 
ATOM     52  N   UNL A   1      43.916  31.339  28.737  1.00  0.00    -0.354 N 
ATOM     53  N   UNL A   1      41.296  32.025  29.875  1.00  0.00    -0.248 NA
ATOM     54  C   UNL A   1      39.839  33.595  30.809  1.00  0.00     0.031 C 
ATOM     55  C   UNL A   1      45.454  32.932  28.581  1.00  0.00     0.029 A 
ATOM     56  C   UNL A   1      44.150  32.684  28.983  1.00  0.00     0.049 A 
ATOM     57  H   UNL A   1      43.073  30.869  28.932  1.00  0.00     0.167 HD
ATOM     58  C   UNL A   1      41.930  33.266  29.925  1.00  0.00     0.074 A 
ATOM     59  C   UNL A   1      40.971  34.199  30.479  1.00  0.00     0.031 C 
ATOM     60  C   UNL A   1      43.186  33.606  29.536  1.00  0.00     0.034 A 
BRANCH  47  61
ATOM     61  C   UNL A   1      46.479  28.832  27.316  1.00  0.00     0.023 A 
ATOM     62  C   UNL A   1      46.697  28.616  25.942  1.00  0.00     0.031 A 
ATOM     63  C   UNL A   1      47.508  28.483  28.207  1.00  0.00     0.131 A 
ATOM     64  C   UNL A   1      47.876  27.990  25.510  1.00  0.00     0.055 A 
ATOM     65  C   UNL A   1      48.714  27.940  27.762  1.00  0.00     0.041 A 
ATOM     66  F   UNL A   1      47.348  28.642  29.530  1.00  0.00    -0.206 F 
ATOM     67  C   UNL A   1      48.897  27.673  26.409  1.00  0.00     0.022 A 
BRANCH  64  68
ATOM     68  S   UNL A   1      47.986  27.443  23.783  1.00  0.00     0.124 S 
ATOM     69  O   UNL A   1      46.924  28.228  23.157  1.00  0.00    -0.237 OA
ATOM     70  O   UNL A   1      49.351  27.807  23.423  1.00  0.00    -0.237 OA
ATOM     71  O   UNL A   1      47.723  26.007  23.862  1.00  0.00    -0.744 OA
ENDBRANCH  64  68
ENDBRANCH  47  61
BRANCH  48  72
ATOM     72  C   UNL A   1      37.636  31.689  31.053  1.00  0.00     0.023 A 
ATOM     73  C   UNL A   1      36.673  32.333  30.258  1.00  0.00     0.031 A 
ATOM     74  C   UNL A   1      37.366  31.539  32.424  1.00  0.00     0.131 A 
ATOM     75  C   UNL A   1      35.509  32.849  30.851  1.00  0.00     0.055 A 
ATOM     76  C   UNL A   1      36.184  32.008  32.999  1.00  0.00     0.041 A 
ATOM     77  F   UNL A   1      38.253  30.930  33.227  1.00  0.00    -0.206 F 
ATOM     78  C   UNL A   1      35.253  32.681  32.213  1.00  0.00     0.022 A 
BRANCH  75  79
ATOM     79  S   UNL A   1      34.369  33.821  29.827  1.00  0.00     0.124 S 
ATOM     80  O   UNL A   1      35.293  34.626  29.037  1.00  0.00    -0.237 OA
ATOM     81  O   UNL A   1      33.646  32.778  29.105  1.00  0.00    -0.237 OA
ATOM     82  O   UNL A   1      33.577  34.559  30.808  1.00  0.00    -0.744 OA
ENDBRANCH  75  79
ENDBRANCH  48  72
BRANCH  60  83
ATOM     83  C   UNL A   1      43.570  35.064  29.635  1.00  0.00     0.023 A 
ATOM     84  C   UNL A   1      43.395  35.957  28.563  1.00  0.00     0.031 A 
ATOM     85  C   UNL A   1      44.135  35.562  30.823  1.00  0.00     0.131 A 
ATOM     86  C   UNL A   1      43.838  37.285  28.680  1.00  0.00     0.055 A 
ATOM     87  C   UNL A   1      44.516  36.898  30.954  1.00  0.00     0.041 A 
ATOM     88  F   UNL A   1      44.325  34.756  31.880  1.00  0.00    -0.206 F 
ATOM     89  C   UNL A   1      44.382  37.764  29.873  1.00  0.00     0.022 A 
BRANCH  86  90
ATOM     90  S   UNL A   1      43.789  38.353  27.213  1.00  0.00     0.124 S 
ATOM     91  O   UNL A   1      42.588  37.882  26.531  1.00  0.00    -0.237 OA
ATOM     92  O   UNL A   1      43.707  39.685  27.802  1.00  0.00    -0.237 OA
ATOM     93  O   UNL A   1      45.047  38.054  26.530  1.00  0.00    -0.744 OA
ENDBRANCH  86  90
ENDBRANCH  60  83
ENDBRANCH  34  35
ENDBRANCH  27  29
ENDBRANCH  26  27
ENDBRANCH  25  26
ENDBRANCH   1  25
TORSDOF 18
ENDMDL
