MODEL 1
REMARK VINA RESULT:     -12.5      0.000      0.000
REMARK SMILES O=C(OCCOC(=O)c1c(-c2ccc(Cl)cc2)noc1CO[C@@H]1CCCCO1)c1ccc(-c2c3nc(c(-c4cc(S(=O)(=O)[O-])ccc4F)c4ccc([nH]4)c(-c4cc(S(=O)(=O)[O-])ccc4F)c4nc(c(-c5cc(S(=O)(=O)[O-])ccc5F)c5ccc2[nH]5)C=C4)C=C3)cc1
REMARK SMILES IDX 4 1 3 2 2 3 1 4 29 5 30 6 91 7 31 8 90 9 32 10 33 11 34 12
REMARK SMILES IDX 84 13 35 14 89 15 83 16 85 17 36 18 88 19 82 20 81 21 37 23
REMARK SMILES IDX 69 24 49 25 68 26 50 27 53 28 67 29 86 30 51 31 52 32 66 34
REMARK SMILES IDX 87 35 54 36 38 37 39 38 47 39 40 40 46 41 48 42 45 43 41 44
REMARK SMILES IDX 42 45 43 46 44 47 70 48 71 49 79 50 72 51 78 52 80 53 77 54
REMARK SMILES IDX 73 55 74 56 75 57 76 58 55 59 56 60 64 61 57 62 63 63 65 64
REMARK SMILES IDX 62 65 58 66 59 67 60 68 61 69 5 70 6 71 7 72 8 73 9 74 10 75
REMARK SMILES IDX 20 76 18 77 19 78 11 79 12 80 17 81 13 82 16 83 14 84 15 85
REMARK SMILES IDX 21 86 22 87 23 88 24 89 28 90 25 91 27 92 26 93
REMARK H PARENT 85 22 53 33
REMARK Flexibility Score: inf
ROOT
ATOM      1  C   UNL A   1      36.941  21.603  24.631  1.00  0.00     0.275 C 
ENDROOT
BRANCH   1   2
ATOM      2  O   UNL A   1      37.559  21.535  25.911  1.00  0.00    -0.458 OA
BRANCH   2   3
ATOM      3  C   UNL A   1      38.902  21.375  25.923  1.00  0.00     0.338 C 
ATOM      4  O   UNL A   1      39.502  20.333  25.732  1.00  0.00    -0.246 OA
BRANCH   3   5
ATOM      5  C   UNL A   1      39.477  22.610  26.520  1.00  0.00     0.060 A 
ATOM      6  C   UNL A   1      38.863  23.849  26.270  1.00  0.00     0.016 A 
ATOM      7  C   UNL A   1      40.517  22.525  27.451  1.00  0.00     0.016 A 
ATOM      8  C   UNL A   1      39.304  24.995  26.905  1.00  0.00     0.010 A 
ATOM      9  C   UNL A   1      40.920  23.667  28.141  1.00  0.00     0.010 A 
ATOM     10  C   UNL A   1      40.350  24.910  27.823  1.00  0.00    -0.014 A 
BRANCH  10  11
ATOM     11  C   UNL A   1      41.042  26.163  28.175  1.00  0.00     0.031 A 
ATOM     12  C   UNL A   1      42.405  26.358  27.591  1.00  0.00     0.074 A 
ATOM     13  C   UNL A   1      40.429  27.109  28.905  1.00  0.00     0.049 A 
ATOM     14  N   UNL A   1      43.252  27.330  27.767  1.00  0.00    -0.248 NA
ATOM     15  C   UNL A   1      42.901  25.272  26.729  1.00  0.00     0.031 C 
ATOM     16  C   UNL A   1      39.107  26.969  29.504  1.00  0.00     0.029 A 
ATOM     17  N   UNL A   1      40.819  28.369  29.260  1.00  0.00    -0.354 N 
ATOM     18  C   UNL A   1      44.401  26.941  27.088  1.00  0.00     0.074 A 
ATOM     19  C   UNL A   1      44.163  25.618  26.564  1.00  0.00     0.031 C 
ATOM     20  C   UNL A   1      38.770  28.110  30.123  1.00  0.00     0.029 A 
ATOM     21  C   UNL A   1      39.885  29.042  30.015  1.00  0.00     0.049 A 
ATOM     22  H   UNL A   1      41.685  28.758  29.002  1.00  0.00     0.167 HD
ATOM     23  C   UNL A   1      45.542  27.646  26.907  1.00  0.00     0.034 A 
ATOM     24  C   UNL A   1      39.949  30.264  30.575  1.00  0.00     0.034 A 
ATOM     25  C   UNL A   1      45.704  28.973  27.444  1.00  0.00     0.049 A 
ATOM     26  C   UNL A   1      41.215  31.047  30.352  1.00  0.00     0.074 A 
ATOM     27  C   UNL A   1      46.789  29.821  27.355  1.00  0.00     0.029 A 
ATOM     28  N   UNL A   1      44.727  29.643  28.180  1.00  0.00    -0.354 N 
ATOM     29  N   UNL A   1      42.306  30.677  29.715  1.00  0.00    -0.248 NA
ATOM     30  C   UNL A   1      41.268  32.400  30.909  1.00  0.00     0.031 C 
ATOM     31  C   UNL A   1      46.487  30.982  28.078  1.00  0.00     0.029 A 
ATOM     32  C   UNL A   1      45.185  30.892  28.555  1.00  0.00     0.049 A 
ATOM     33  H   UNL A   1      43.840  29.279  28.400  1.00  0.00     0.167 HD
ATOM     34  C   UNL A   1      43.172  31.761  29.777  1.00  0.00     0.074 A 
ATOM     35  C   UNL A   1      42.468  32.801  30.507  1.00  0.00     0.031 C 
ATOM     36  C   UNL A   1      44.429  31.892  29.279  1.00  0.00     0.034 A 
BRANCH  23  37
ATOM     37  C   UNL A   1      46.662  26.945  26.175  1.00  0.00     0.023 A 
ATOM     38  C   UNL A   1      47.651  26.212  26.862  1.00  0.00     0.031 A 
ATOM     39  C   UNL A   1      46.845  27.148  24.796  1.00  0.00     0.131 A 
ATOM     40  C   UNL A   1      48.838  25.849  26.208  1.00  0.00     0.055 A 
ATOM     41  C   UNL A   1      47.977  26.678  24.126  1.00  0.00     0.041 A 
ATOM     42  F   UNL A   1      45.955  27.858  24.085  1.00  0.00    -0.206 F 
ATOM     43  C   UNL A   1      48.996  26.052  24.836  1.00  0.00     0.022 A 
BRANCH  40  44
ATOM     44  S   UNL A   1      50.257  25.334  27.220  1.00  0.00     0.124 S 
ATOM     45  O   UNL A   1      49.723  24.151  27.893  1.00  0.00    -0.237 OA
ATOM     46  O   UNL A   1      51.287  25.086  26.220  1.00  0.00    -0.237 OA
ATOM     47  O   UNL A   1      50.494  26.483  28.091  1.00  0.00    -0.744 OA
ENDBRANCH  40  44
ENDBRANCH  23  37
BRANCH  24  48
ATOM     48  C   UNL A   1      38.812  30.778  31.393  1.00  0.00     0.023 A 
ATOM     49  C   UNL A   1      37.689  31.381  30.804  1.00  0.00     0.031 A 
ATOM     50  C   UNL A   1      38.814  30.628  32.793  1.00  0.00     0.131 A 
ATOM     51  C   UNL A   1      36.622  31.818  31.609  1.00  0.00     0.055 A 
ATOM     52  C   UNL A   1      37.735  31.025  33.586  1.00  0.00     0.041 A 
ATOM     53  F   UNL A   1      39.860  30.056  33.413  1.00  0.00    -0.206 F 
ATOM     54  C   UNL A   1      36.632  31.630  32.993  1.00  0.00     0.022 A 
BRANCH  51  55
ATOM     55  S   UNL A   1      35.225  32.673  30.827  1.00  0.00     0.124 S 
ATOM     56  O   UNL A   1      34.192  32.559  31.850  1.00  0.00    -0.237 OA
ATOM     57  O   UNL A   1      35.769  34.009  30.610  1.00  0.00    -0.237 OA
ATOM     58  O   UNL A   1      34.985  31.898  29.611  1.00  0.00    -0.744 OA
ENDBRANCH  51  55
ENDBRANCH  24  48
BRANCH  36  59
ATOM     59  C   UNL A   1      45.083  33.234  29.455  1.00  0.00     0.023 A 
ATOM     60  C   UNL A   1      44.855  34.290  28.559  1.00  0.00     0.031 A 
ATOM     61  C   UNL A   1      45.917  33.459  30.563  1.00  0.00     0.131 A 
ATOM     62  C   UNL A   1      45.490  35.520  28.768  1.00  0.00     0.055 A 
ATOM     63  C   UNL A   1      46.499  34.703  30.797  1.00  0.00     0.041 A 
ATOM     64  F   UNL A   1      46.162  32.477  31.445  1.00  0.00    -0.206 F 
ATOM     65  C   UNL A   1      46.293  35.740  29.892  1.00  0.00     0.022 A 
BRANCH  62  66
ATOM     66  S   UNL A   1      45.303  36.817  27.516  1.00  0.00     0.124 S 
ATOM     67  O   UNL A   1      46.447  36.563  26.648  1.00  0.00    -0.237 OA
ATOM     68  O   UNL A   1      43.992  36.520  26.949  1.00  0.00    -0.237 OA
ATOM     69  O   UNL A   1      45.375  38.053  28.292  1.00  0.00    -0.744 OA
ENDBRANCH  62  66
ENDBRANCH  36  59
ENDBRANCH  10  11
ENDBRANCH   3   5
ENDBRANCH   2   3
ENDBRANCH   1   2
BRANCH   1  70
ATOM     70  C   UNL A   1      35.737  22.567  24.535  1.00  0.00     0.275 C 
BRANCH  70  71
ATOM     71  O   UNL A   1      35.009  22.511  23.293  1.00  0.00    -0.458 OA
BRANCH  71  72
ATOM     72  C   UNL A   1      33.873  23.269  23.183  1.00  0.00     0.344 C 
ATOM     73  O   UNL A   1      33.714  24.160  22.364  1.00  0.00    -0.246 OA
BRANCH  72  74
ATOM     74  C   UNL A   1      32.881  22.913  24.174  1.00  0.00     0.133 A 
ATOM     75  C   UNL A   1      32.335  23.688  25.244  1.00  0.00     0.128 A 
ATOM     76  C   UNL A   1      32.275  21.678  24.310  1.00  0.00     0.177 A 
ATOM     77  N   UNL A   1      31.458  22.955  25.949  1.00  0.00    -0.079 NA
ATOM     78  O   UNL A   1      31.400  21.722  25.346  1.00  0.00    -0.357 OA
BRANCH  75  79
ATOM     79  C   UNL A   1      32.541  25.088  25.612  1.00  0.00     0.005 A 
ATOM     80  C   UNL A   1      31.497  25.855  26.140  1.00  0.00     0.012 A 
ATOM     81  C   UNL A   1      33.819  25.657  25.545  1.00  0.00     0.012 A 
ATOM     82  C   UNL A   1      31.721  27.142  26.634  1.00  0.00     0.021 A 
ATOM     83  C   UNL A   1      34.043  26.961  26.005  1.00  0.00     0.021 A 
ATOM     84  C   UNL A   1      32.995  27.693  26.562  1.00  0.00     0.041 A 
ATOM     85  Cl  UNL A   1      33.275  29.280  27.162  1.00  0.00    -0.084 Cl
ENDBRANCH  75  79
BRANCH  76  86
ATOM     86  C   UNL A   1      32.429  20.370  23.625  1.00  0.00     0.242 C 
BRANCH  86  87
ATOM     87  O   UNL A   1      32.156  19.278  24.506  1.00  0.00    -0.345 OA
BRANCH  87  88
ATOM     88  C   UNL A   1      33.267  18.741  25.223  1.00  0.00     0.250 C 
ATOM     89  C   UNL A   1      34.400  18.232  24.325  1.00  0.00     0.062 C 
ATOM     90  O   UNL A   1      32.838  17.682  26.089  1.00  0.00    -0.353 OA
ATOM     91  C   UNL A   1      33.956  17.006  23.535  1.00  0.00     0.008 C 
ATOM     92  C   UNL A   1      32.339  16.546  25.387  1.00  0.00     0.163 C 
ATOM     93  C   UNL A   1      33.417  15.950  24.492  1.00  0.00     0.029 C 
ENDBRANCH  87  88
ENDBRANCH  86  87
ENDBRANCH  76  86
ENDBRANCH  72  74
ENDBRANCH  71  72
ENDBRANCH  70  71
ENDBRANCH   1  70
TORSDOF 18
ENDMDL
MODEL 2
REMARK VINA RESULT:     -12.3      2.308      4.225
REMARK SMILES O=C(OCCOC(=O)c1c(-c2ccc(Cl)cc2)noc1CO[C@@H]1CCCCO1)c1ccc(-c2c3nc(c(-c4cc(S(=O)(=O)[O-])ccc4F)c4ccc([nH]4)c(-c4cc(S(=O)(=O)[O-])ccc4F)c4nc(c(-c5cc(S(=O)(=O)[O-])ccc5F)c5ccc2[nH]5)C=C4)C=C3)cc1
REMARK SMILES IDX 4 1 3 2 2 3 1 4 29 5 30 6 91 7 31 8 90 9 32 10 33 11 34 12
REMARK SMILES IDX 84 13 35 14 89 15 83 16 85 17 36 18 88 19 82 20 81 21 37 23
REMARK SMILES IDX 69 24 49 25 68 26 50 27 53 28 67 29 86 30 51 31 52 32 66 34
REMARK SMILES IDX 87 35 54 36 38 37 39 38 47 39 40 40 46 41 48 42 45 43 41 44
REMARK SMILES IDX 42 45 43 46 44 47 70 48 71 49 79 50 72 51 78 52 80 53 77 54
REMARK SMILES IDX 73 55 74 56 75 57 76 58 55 59 56 60 64 61 57 62 63 63 65 64
REMARK SMILES IDX 62 65 58 66 59 67 60 68 61 69 5 70 6 71 7 72 8 73 9 74 10 75
REMARK SMILES IDX 20 76 18 77 19 78 11 79 12 80 17 81 13 82 16 83 14 84 15 85
REMARK SMILES IDX 21 86 22 87 23 88 24 89 28 90 25 91 27 92 26 93
REMARK H PARENT 85 22 53 33
REMARK Flexibility Score: inf
ROOT
ATOM      1  C   UNL A   1      37.868  20.759  24.998  1.00  0.00     0.275 C 
ENDROOT
BRANCH   1   2
ATOM      2  O   UNL A   1      38.404  21.840  25.754  1.00  0.00    -0.458 OA
BRANCH   2   3
ATOM      3  C   UNL A   1      39.662  21.679  26.224  1.00  0.00     0.338 C 
ATOM      4  O   UNL A   1      40.238  20.619  26.383  1.00  0.00    -0.246 OA
BRANCH   3   5
ATOM      5  C   UNL A   1      40.075  22.986  26.801  1.00  0.00     0.060 A 
ATOM      6  C   UNL A   1      39.366  24.150  26.456  1.00  0.00     0.016 A 
ATOM      7  C   UNL A   1      41.051  23.039  27.800  1.00  0.00     0.016 A 
ATOM      8  C   UNL A   1      39.652  25.356  27.066  1.00  0.00     0.010 A 
ATOM      9  C   UNL A   1      41.297  24.240  28.463  1.00  0.00     0.010 A 
ATOM     10  C   UNL A   1      40.636  25.409  28.052  1.00  0.00    -0.014 A 
BRANCH  10  11
ATOM     11  C   UNL A   1      41.180  26.736  28.393  1.00  0.00     0.031 A 
ATOM     12  C   UNL A   1      42.576  27.019  27.934  1.00  0.00     0.074 A 
ATOM     13  C   UNL A   1      40.419  27.661  28.998  1.00  0.00     0.049 A 
ATOM     14  N   UNL A   1      43.317  28.072  28.132  1.00  0.00    -0.248 NA
ATOM     15  C   UNL A   1      43.248  25.937  27.196  1.00  0.00     0.031 C 
ATOM     16  C   UNL A   1      39.058  27.437  29.470  1.00  0.00     0.029 A 
ATOM     17  N   UNL A   1      40.664  28.969  29.310  1.00  0.00    -0.354 N 
ATOM     18  C   UNL A   1      44.558  27.750  27.596  1.00  0.00     0.074 A 
ATOM     19  C   UNL A   1      44.487  26.385  27.135  1.00  0.00     0.031 C 
ATOM     20  C   UNL A   1      38.565  28.575  29.980  1.00  0.00     0.029 A 
ATOM     21  C   UNL A   1      39.603  29.595  29.924  1.00  0.00     0.049 A 
ATOM     22  H   UNL A   1      41.517  29.419  29.115  1.00  0.00     0.167 HD
ATOM     23  C   UNL A   1      45.649  28.543  27.485  1.00  0.00     0.034 A 
ATOM     24  C   UNL A   1      39.507  30.846  30.410  1.00  0.00     0.034 A 
ATOM     25  C   UNL A   1      45.644  29.906  27.951  1.00  0.00     0.049 A 
ATOM     26  C   UNL A   1      40.721  31.726  30.265  1.00  0.00     0.074 A 
ATOM     27  C   UNL A   1      46.658  30.841  27.917  1.00  0.00     0.029 A 
ATOM     28  N   UNL A   1      44.543  30.525  28.543  1.00  0.00    -0.354 N 
ATOM     29  N   UNL A   1      41.899  31.421  29.764  1.00  0.00    -0.248 NA
ATOM     30  C   UNL A   1      40.603  33.106  30.739  1.00  0.00     0.031 C 
ATOM     31  C   UNL A   1      46.187  32.008  28.532  1.00  0.00     0.029 A 
ATOM     32  C   UNL A   1      44.855  31.829  28.883  1.00  0.00     0.049 A 
ATOM     33  H   UNL A   1      43.671  30.096  28.697  1.00  0.00     0.167 HD
ATOM     34  C   UNL A   1      42.660  32.579  29.843  1.00  0.00     0.074 A 
ATOM     35  C   UNL A   1      41.800  33.590  30.433  1.00  0.00     0.031 C 
ATOM     36  C   UNL A   1      43.947  32.794  29.464  1.00  0.00     0.034 A 
BRANCH  23  37
ATOM     37  C   UNL A   1      46.894  27.906  26.912  1.00  0.00     0.023 A 
ATOM     38  C   UNL A   1      47.295  28.132  25.580  1.00  0.00     0.031 A 
ATOM     39  C   UNL A   1      47.594  26.932  27.645  1.00  0.00     0.131 A 
ATOM     40  C   UNL A   1      48.249  27.295  24.982  1.00  0.00     0.055 A 
ATOM     41  C   UNL A   1      48.627  26.182  27.076  1.00  0.00     0.041 A 
ATOM     42  F   UNL A   1      47.248  26.648  28.910  1.00  0.00    -0.206 F 
ATOM     43  C   UNL A   1      48.939  26.339  25.729  1.00  0.00     0.022 A 
BRANCH  40  44
ATOM     44  S   UNL A   1      48.396  27.312  23.171  1.00  0.00     0.124 S 
ATOM     45  O   UNL A   1      49.716  27.912  22.989  1.00  0.00    -0.237 OA
ATOM     46  O   UNL A   1      48.286  25.899  22.830  1.00  0.00    -0.237 OA
ATOM     47  O   UNL A   1      47.276  28.147  22.742  1.00  0.00    -0.744 OA
ENDBRANCH  40  44
ENDBRANCH  23  37
BRANCH  24  48
ATOM     48  C   UNL A   1      38.252  31.300  31.079  1.00  0.00     0.023 A 
ATOM     49  C   UNL A   1      37.227  31.944  30.368  1.00  0.00     0.031 A 
ATOM     50  C   UNL A   1      38.042  31.051  32.449  1.00  0.00     0.131 A 
ATOM     51  C   UNL A   1      36.044  32.322  31.028  1.00  0.00     0.055 A 
ATOM     52  C   UNL A   1      36.850  31.389  33.091  1.00  0.00     0.041 A 
ATOM     53  F   UNL A   1      38.987  30.435  33.179  1.00  0.00    -0.206 F 
ATOM     54  C   UNL A   1      35.844  32.035  32.381  1.00  0.00     0.022 A 
BRANCH  51  55
ATOM     55  S   UNL A   1      34.774  33.231  30.103  1.00  0.00     0.124 S 
ATOM     56  O   UNL A   1      34.190  32.178  29.280  1.00  0.00    -0.237 OA
ATOM     57  O   UNL A   1      33.930  33.750  31.175  1.00  0.00    -0.237 OA
ATOM     58  O   UNL A   1      35.539  34.241  29.373  1.00  0.00    -0.744 OA
ENDBRANCH  51  55
ENDBRANCH  24  48
BRANCH  36  59
ATOM     59  C   UNL A   1      44.465  34.197  29.619  1.00  0.00     0.023 A 
ATOM     60  C   UNL A   1      44.346  35.146  28.593  1.00  0.00     0.031 A 
ATOM     61  C   UNL A   1      45.053  34.589  30.835  1.00  0.00     0.131 A 
ATOM     62  C   UNL A   1      44.846  36.439  28.788  1.00  0.00     0.055 A 
ATOM     63  C   UNL A   1      45.495  35.893  31.043  1.00  0.00     0.041 A 
ATOM     64  F   UNL A   1      45.186  33.713  31.843  1.00  0.00    -0.206 F 
ATOM     65  C   UNL A   1      45.401  36.825  30.013  1.00  0.00     0.022 A 
BRANCH  62  66
ATOM     66  S   UNL A   1      44.821  37.600  27.397  1.00  0.00     0.124 S 
ATOM     67  O   UNL A   1      45.066  38.874  28.064  1.00  0.00    -0.237 OA
ATOM     68  O   UNL A   1      45.902  37.102  26.553  1.00  0.00    -0.237 OA
ATOM     69  O   UNL A   1      43.479  37.438  26.842  1.00  0.00    -0.744 OA
ENDBRANCH  62  66
ENDBRANCH  36  59
ENDBRANCH  10  11
ENDBRANCH   3   5
ENDBRANCH   2   3
ENDBRANCH   1   2
BRANCH   1  70
ATOM     70  C   UNL A   1      36.336  20.583  25.102  1.00  0.00     0.275 C 
BRANCH  70  71
ATOM     71  O   UNL A   1      35.587  21.809  25.212  1.00  0.00    -0.458 OA
BRANCH  71  72
ATOM     72  C   UNL A   1      34.264  21.722  25.554  1.00  0.00     0.344 C 
ATOM     73  O   UNL A   1      33.842  21.769  26.699  1.00  0.00    -0.246 OA
BRANCH  72  74
ATOM     74  C   UNL A   1      33.412  21.538  24.399  1.00  0.00     0.133 A 
ATOM     75  C   UNL A   1      32.905  20.335  23.816  1.00  0.00     0.128 A 
ATOM     76  C   UNL A   1      32.941  22.538  23.570  1.00  0.00     0.177 A 
ATOM     77  N   UNL A   1      32.175  20.619  22.726  1.00  0.00    -0.079 NA
ATOM     78  O   UNL A   1      32.172  21.987  22.597  1.00  0.00    -0.357 OA
BRANCH  75  79
ATOM     79  C   UNL A   1      33.015  18.943  24.250  1.00  0.00     0.005 A 
ATOM     80  C   UNL A   1      32.660  18.563  25.548  1.00  0.00     0.012 A 
ATOM     81  C   UNL A   1      33.375  17.943  23.337  1.00  0.00     0.012 A 
ATOM     82  C   UNL A   1      32.617  17.218  25.924  1.00  0.00     0.021 A 
ATOM     83  C   UNL A   1      33.369  16.595  23.719  1.00  0.00     0.021 A 
ATOM     84  C   UNL A   1      32.975  16.238  25.007  1.00  0.00     0.041 A 
ATOM     85  Cl  UNL A   1      32.931  14.581  25.466  1.00  0.00    -0.084 Cl
ENDBRANCH  75  79
BRANCH  76  86
ATOM     86  C   UNL A   1      33.147  24.007  23.501  1.00  0.00     0.242 C 
BRANCH  86  87
ATOM     87  O   UNL A   1      32.072  24.719  24.118  1.00  0.00    -0.345 OA
BRANCH  87  88
ATOM     88  C   UNL A   1      31.995  24.656  25.542  1.00  0.00     0.250 C 
ATOM     89  C   UNL A   1      30.847  25.475  26.139  1.00  0.00     0.062 C 
ATOM     90  O   UNL A   1      33.233  25.078  26.128  1.00  0.00    -0.353 OA
ATOM     91  C   UNL A   1      31.083  26.967  25.937  1.00  0.00     0.008 C 
ATOM     92  C   UNL A   1      33.531  26.452  25.892  1.00  0.00     0.163 C 
ATOM     93  C   UNL A   1      32.452  27.346  26.488  1.00  0.00     0.029 C 
ENDBRANCH  87  88
ENDBRANCH  86  87
ENDBRANCH  76  86
ENDBRANCH  72  74
ENDBRANCH  71  72
ENDBRANCH  70  71
ENDBRANCH   1  70
TORSDOF 18
ENDMDL
MODEL 3
REMARK VINA RESULT:     -12.3      4.820     10.381
REMARK SMILES O=C(OCCOC(=O)c1c(-c2ccc(Cl)cc2)noc1CO[C@@H]1CCCCO1)c1ccc(-c2c3nc(c(-c4cc(S(=O)(=O)[O-])ccc4F)c4ccc([nH]4)c(-c4cc(S(=O)(=O)[O-])ccc4F)c4nc(c(-c5cc(S(=O)(=O)[O-])ccc5F)c5ccc2[nH]5)C=C4)C=C3)cc1
REMARK SMILES IDX 4 1 3 2 2 3 1 4 29 5 30 6 91 7 31 8 90 9 32 10 33 11 34 12
REMARK SMILES IDX 84 13 35 14 89 15 83 16 85 17 36 18 88 19 82 20 81 21 37 23
REMARK SMILES IDX 69 24 49 25 68 26 50 27 53 28 67 29 86 30 51 31 52 32 66 34
REMARK SMILES IDX 87 35 54 36 38 37 39 38 47 39 40 40 46 41 48 42 45 43 41 44
REMARK SMILES IDX 42 45 43 46 44 47 70 48 71 49 79 50 72 51 78 52 80 53 77 54
REMARK SMILES IDX 73 55 74 56 75 57 76 58 55 59 56 60 64 61 57 62 63 63 65 64
REMARK SMILES IDX 62 65 58 66 59 67 60 68 61 69 5 70 6 71 7 72 8 73 9 74 10 75
REMARK SMILES IDX 20 76 18 77 19 78 11 79 12 80 17 81 13 82 16 83 14 84 15 85
REMARK SMILES IDX 21 86 22 87 23 88 24 89 28 90 25 91 27 92 26 93
REMARK H PARENT 85 22 53 33
REMARK Flexibility Score: inf
ROOT
ATOM      1  C   UNL A   1      31.873  29.963  26.803  1.00  0.00     0.275 C 
ENDROOT
BRANCH   1   2
ATOM      2  O   UNL A   1      33.191  30.460  26.599  1.00  0.00    -0.458 OA
BRANCH   2   3
ATOM      3  C   UNL A   1      33.587  31.467  27.410  1.00  0.00     0.338 C 
ATOM      4  O   UNL A   1      33.092  32.578  27.467  1.00  0.00    -0.246 OA
BRANCH   3   5
ATOM      5  C   UNL A   1      34.909  31.077  27.966  1.00  0.00     0.060 A 
ATOM      6  C   UNL A   1      35.224  29.715  28.110  1.00  0.00     0.016 A 
ATOM      7  C   UNL A   1      35.893  32.044  28.191  1.00  0.00     0.016 A 
ATOM      8  C   UNL A   1      36.486  29.322  28.513  1.00  0.00     0.010 A 
ATOM      9  C   UNL A   1      37.185  31.649  28.534  1.00  0.00     0.010 A 
ATOM     10  C   UNL A   1      37.462  30.289  28.751  1.00  0.00    -0.014 A 
BRANCH  10  11
ATOM     11  C   UNL A   1      38.640  29.881  29.536  1.00  0.00     0.031 A 
ATOM     12  C   UNL A   1      38.693  30.359  30.953  1.00  0.00     0.074 A 
ATOM     13  C   UNL A   1      39.559  29.049  29.022  1.00  0.00     0.049 A 
ATOM     14  N   UNL A   1      39.622  30.196  31.850  1.00  0.00    -0.248 NA
ATOM     15  C   UNL A   1      37.560  31.186  31.401  1.00  0.00     0.031 C 
ATOM     16  C   UNL A   1      39.560  28.559  27.649  1.00  0.00     0.029 A 
ATOM     17  N   UNL A   1      40.656  28.457  29.583  1.00  0.00    -0.354 N 
ATOM     18  C   UNL A   1      39.212  30.950  32.943  1.00  0.00     0.074 A 
ATOM     19  C   UNL A   1      37.993  31.624  32.567  1.00  0.00     0.031 C 
ATOM     20  C   UNL A   1      40.583  27.709  27.475  1.00  0.00     0.029 A 
ATOM     21  C   UNL A   1      41.347  27.644  28.713  1.00  0.00     0.049 A 
ATOM     22  H   UNL A   1      40.926  28.600  30.518  1.00  0.00     0.167 HD
ATOM     23  C   UNL A   1      39.800  31.045  34.158  1.00  0.00     0.034 A 
ATOM     24  C   UNL A   1      42.486  26.953  28.903  1.00  0.00     0.034 A 
ATOM     25  C   UNL A   1      41.008  30.327  34.473  1.00  0.00     0.049 A 
ATOM     26  C   UNL A   1      43.122  27.052  30.264  1.00  0.00     0.074 A 
ATOM     27  C   UNL A   1      41.731  30.313  35.647  1.00  0.00     0.029 A 
ATOM     28  N   UNL A   1      41.671  29.485  33.580  1.00  0.00    -0.354 N 
ATOM     29  N   UNL A   1      42.738  27.770  31.298  1.00  0.00    -0.248 NA
ATOM     30  C   UNL A   1      44.329  26.256  30.494  1.00  0.00     0.031 C 
ATOM     31  C   UNL A   1      42.856  29.502  35.450  1.00  0.00     0.029 A 
ATOM     32  C   UNL A   1      42.797  28.948  34.177  1.00  0.00     0.049 A 
ATOM     33  H   UNL A   1      41.379  29.299  32.659  1.00  0.00     0.167 HD
ATOM     34  C   UNL A   1      43.646  27.499  32.312  1.00  0.00     0.074 A 
ATOM     35  C   UNL A   1      44.592  26.542  31.763  1.00  0.00     0.031 C 
ATOM     36  C   UNL A   1      43.699  27.989  33.578  1.00  0.00     0.034 A 
BRANCH  23  37
ATOM     37  C   UNL A   1      39.163  31.997  35.145  1.00  0.00     0.023 A 
ATOM     38  C   UNL A   1      39.556  33.348  35.229  1.00  0.00     0.031 A 
ATOM     39  C   UNL A   1      38.279  31.516  36.125  1.00  0.00     0.131 A 
ATOM     40  C   UNL A   1      39.194  34.116  36.345  1.00  0.00     0.055 A 
ATOM     41  C   UNL A   1      37.827  32.325  37.171  1.00  0.00     0.041 A 
ATOM     42  F   UNL A   1      37.884  30.233  36.120  1.00  0.00    -0.206 F 
ATOM     43  C   UNL A   1      38.308  33.623  37.304  1.00  0.00     0.022 A 
BRANCH  40  44
ATOM     44  S   UNL A   1      40.086  35.671  36.647  1.00  0.00     0.124 S 
ATOM     45  O   UNL A   1      39.557  36.065  37.951  1.00  0.00    -0.237 OA
ATOM     46  O   UNL A   1      41.481  35.247  36.627  1.00  0.00    -0.237 OA
ATOM     47  O   UNL A   1      39.677  36.525  35.534  1.00  0.00    -0.744 OA
ENDBRANCH  40  44
ENDBRANCH  23  37
BRANCH  24  48
ATOM     48  C   UNL A   1      43.078  26.158  27.787  1.00  0.00     0.023 A 
ATOM     49  C   UNL A   1      42.816  24.786  27.636  1.00  0.00     0.031 A 
ATOM     50  C   UNL A   1      43.890  26.780  26.819  1.00  0.00     0.131 A 
ATOM     51  C   UNL A   1      43.364  24.082  26.550  1.00  0.00     0.055 A 
ATOM     52  C   UNL A   1      44.398  26.086  25.718  1.00  0.00     0.041 A 
ATOM     53  F   UNL A   1      44.172  28.090  26.910  1.00  0.00    -0.206 F 
ATOM     54  C   UNL A   1      44.140  24.726  25.582  1.00  0.00     0.022 A 
BRANCH  51  55
ATOM     55  S   UNL A   1      43.081  22.293  26.430  1.00  0.00     0.124 S 
ATOM     56  O   UNL A   1      42.649  21.966  27.784  1.00  0.00    -0.237 OA
ATOM     57  O   UNL A   1      42.057  22.216  25.394  1.00  0.00    -0.237 OA
ATOM     58  O   UNL A   1      44.389  21.763  26.048  1.00  0.00    -0.744 OA
ENDBRANCH  51  55
ENDBRANCH  24  48
BRANCH  36  59
ATOM     59  C   UNL A   1      44.780  27.436  34.465  1.00  0.00     0.023 A 
ATOM     60  C   UNL A   1      44.565  26.315  35.280  1.00  0.00     0.031 A 
ATOM     61  C   UNL A   1      46.054  28.030  34.457  1.00  0.00     0.131 A 
ATOM     62  C   UNL A   1      45.605  25.841  36.089  1.00  0.00     0.055 A 
ATOM     63  C   UNL A   1      47.101  27.517  35.219  1.00  0.00     0.041 A 
ATOM     64  F   UNL A   1      46.303  29.104  33.691  1.00  0.00    -0.206 F 
ATOM     65  C   UNL A   1      46.877  26.421  36.048  1.00  0.00     0.022 A 
BRANCH  62  66
ATOM     66  S   UNL A   1      45.259  24.490  37.246  1.00  0.00     0.124 S 
ATOM     67  O   UNL A   1      46.348  24.630  38.206  1.00  0.00    -0.237 OA
ATOM     68  O   UNL A   1      43.928  24.829  37.736  1.00  0.00    -0.237 OA
ATOM     69  O   UNL A   1      45.322  23.296  36.405  1.00  0.00    -0.744 OA
ENDBRANCH  62  66
ENDBRANCH  36  59
ENDBRANCH  10  11
ENDBRANCH   3   5
ENDBRANCH   2   3
ENDBRANCH   1   2
BRANCH   1  70
ATOM     70  C   UNL A   1      31.791  28.482  27.236  1.00  0.00     0.275 C 
BRANCH  70  71
ATOM     71  O   UNL A   1      32.458  27.552  26.360  1.00  0.00    -0.458 OA
BRANCH  71  72
ATOM     72  C   UNL A   1      31.804  26.392  26.040  1.00  0.00     0.344 C 
ATOM     73  O   UNL A   1      31.334  25.616  26.857  1.00  0.00    -0.246 OA
BRANCH  72  74
ATOM     74  C   UNL A   1      31.754  26.170  24.611  1.00  0.00     0.133 A 
ATOM     75  C   UNL A   1      32.619  25.400  23.772  1.00  0.00     0.128 A 
ATOM     76  C   UNL A   1      30.842  26.726  23.733  1.00  0.00     0.177 A 
ATOM     77  N   UNL A   1      32.226  25.491  22.491  1.00  0.00    -0.079 NA
ATOM     78  O   UNL A   1      31.106  26.287  22.477  1.00  0.00    -0.357 OA
BRANCH  75  79
ATOM     79  C   UNL A   1      33.753  24.539  24.104  1.00  0.00     0.005 A 
ATOM     80  C   UNL A   1      34.110  23.469  23.277  1.00  0.00     0.012 A 
ATOM     81  C   UNL A   1      34.573  24.838  25.200  1.00  0.00     0.012 A 
ATOM     82  C   UNL A   1      35.278  22.737  23.502  1.00  0.00     0.021 A 
ATOM     83  C   UNL A   1      35.726  24.084  25.452  1.00  0.00     0.021 A 
ATOM     84  C   UNL A   1      36.081  23.046  24.593  1.00  0.00     0.041 A 
ATOM     85  Cl  UNL A   1      37.518  22.143  24.880  1.00  0.00    -0.084 Cl
ENDBRANCH  75  79
BRANCH  76  86
ATOM     86  C   UNL A   1      29.732  27.702  23.877  1.00  0.00     0.242 C 
BRANCH  86  87
ATOM     87  O   UNL A   1      29.448  28.362  22.641  1.00  0.00    -0.345 OA
BRANCH  87  88
ATOM     88  C   UNL A   1      29.959  29.686  22.489  1.00  0.00     0.250 C 
ATOM     89  C   UNL A   1      29.588  30.631  23.637  1.00  0.00     0.062 C 
ATOM     90  O   UNL A   1      29.518  30.252  21.249  1.00  0.00    -0.353 OA
ATOM     91  C   UNL A   1      28.089  30.907  23.649  1.00  0.00     0.008 C 
ATOM     92  C   UNL A   1      28.107  30.452  21.189  1.00  0.00     0.163 C 
ATOM     93  C   UNL A   1      27.653  31.413  22.279  1.00  0.00     0.029 C 
ENDBRANCH  87  88
ENDBRANCH  86  87
ENDBRANCH  76  86
ENDBRANCH  72  74
ENDBRANCH  71  72
ENDBRANCH  70  71
ENDBRANCH   1  70
TORSDOF 18
ENDMDL
