MODEL 1
REMARK VINA RESULT:     -11.2      0.000      0.000
REMARK SMILES C[C@@H]1CN([C@@H](CCS(C)(=O)=O)C(=O)OCCOC(=O)c2ccc(-c3c4nc(c(-c5cc(S(=O)(=O)[O-])ccc5F)c5ccc([nH]5)c(-c5cc(S(=O)(=O)[O-])ccc5F)c5nc(c(-c6cc(S(=O)(=O)[O-])ccc6F)c6ccc3[nH]6)C=C5)C=C4)cc2)S(=O)(=O)C1
REMARK SMILES IDX 15 1 14 2 12 3 13 4 5 5 4 6 1 7 2 8 3 9 86 10 83 11 84 12
REMARK SMILES IDX 85 13 6 14 7 15 8 16 9 17 10 18 11 19 16 20 17 21 18 22
REMARK SMILES IDX 19 23 20 24 21 25 82 26 22 27 81 28 23 29 24 30 25 31 75 32
REMARK SMILES IDX 26 33 80 34 74 35 76 36 27 37 79 38 73 39 72 40 28 42 60 43
REMARK SMILES IDX 40 44 59 45 41 46 44 47 58 48 77 49 42 50 43 51 57 53 78 54
REMARK SMILES IDX 45 55 29 56 30 57 38 58 31 59 37 60 39 61 36 62 32 63 33 64
REMARK SMILES IDX 34 65 35 66 61 67 62 68 70 69 63 70 69 71 71 72 68 73 64 74
REMARK SMILES IDX 65 75 66 76 67 77 46 78 47 79 55 80 48 81 54 82 56 83 53 84
REMARK SMILES IDX 49 85 50 86 51 87 52 88
REMARK H PARENT 76 41 44 52
REMARK Flexibility Score: inf
ROOT
ATOM      1  C   UNL A   1      35.228  21.364  25.299  1.00  0.00     0.274 C 
ENDROOT
BRANCH   1   2
ATOM      2  O   UNL A   1      34.512  21.604  24.075  1.00  0.00    -0.461 OA
BRANCH   2   3
ATOM      3  C   UNL A   1      34.543  22.860  23.596  1.00  0.00     0.324 C 
ATOM      4  O   UNL A   1      35.363  23.268  22.773  1.00  0.00    -0.250 OA
BRANCH   3   5
ATOM      5  C   UNL A   1      33.516  23.791  24.189  1.00  0.00     0.183 C 
BRANCH   5   6
ATOM      6  N   UNL A   1      33.469  25.233  23.963  1.00  0.00    -0.187 NA
ATOM      7  C   UNL A   1      33.518  28.528  25.749  1.00  0.00     0.010 C 
ATOM      8  C   UNL A   1      33.062  27.336  24.929  1.00  0.00     0.017 C 
ATOM      9  C   UNL A   1      34.034  26.152  24.966  1.00  0.00     0.107 C 
ATOM     10  C   UNL A   1      32.894  27.652  23.440  1.00  0.00     0.159 C 
ATOM     11  S   UNL A   1      32.801  26.045  22.652  1.00  0.00     0.215 S 
ATOM     12  O   UNL A   1      33.707  26.045  21.526  1.00  0.00    -0.212 OA
ATOM     13  O   UNL A   1      31.412  25.688  22.544  1.00  0.00    -0.212 OA
ENDBRANCH   5   6
BRANCH   5  14
ATOM     14  C   UNL A   1      32.107  23.158  24.144  1.00  0.00     0.048 C 
BRANCH  14  15
ATOM     15  C   UNL A   1      31.573  22.394  25.350  1.00  0.00     0.139 C 
BRANCH  15  16
ATOM     16  S   UNL A   1      31.090  23.297  26.817  1.00  0.00     0.147 S 
ATOM     17  C   UNL A   1      29.450  22.759  27.237  1.00  0.00     0.158 C 
ATOM     18  O   UNL A   1      31.954  22.850  27.896  1.00  0.00    -0.229 OA
ATOM     19  O   UNL A   1      30.994  24.708  26.516  1.00  0.00    -0.229 OA
ENDBRANCH  15  16
ENDBRANCH  14  15
ENDBRANCH   5  14
ENDBRANCH   3   5
ENDBRANCH   2   3
ENDBRANCH   1   2
BRANCH   1  20
ATOM     20  C   UNL A   1      36.527  20.609  25.022  1.00  0.00     0.275 C 
BRANCH  20  21
ATOM     21  O   UNL A   1      37.657  21.500  24.999  1.00  0.00    -0.458 OA
BRANCH  21  22
ATOM     22  C   UNL A   1      38.698  21.122  25.774  1.00  0.00     0.338 C 
ATOM     23  O   UNL A   1      39.176  20.006  25.898  1.00  0.00    -0.246 OA
BRANCH  22  24
ATOM     24  C   UNL A   1      39.332  22.300  26.369  1.00  0.00     0.060 A 
ATOM     25  C   UNL A   1      38.826  23.554  26.010  1.00  0.00     0.016 A 
ATOM     26  C   UNL A   1      40.454  22.183  27.186  1.00  0.00     0.016 A 
ATOM     27  C   UNL A   1      39.450  24.707  26.458  1.00  0.00     0.010 A 
ATOM     28  C   UNL A   1      41.080  23.342  27.638  1.00  0.00     0.010 A 
ATOM     29  C   UNL A   1      40.589  24.605  27.262  1.00  0.00    -0.014 A 
BRANCH  29  30
ATOM     30  C   UNL A   1      41.321  25.830  27.640  1.00  0.00     0.031 A 
ATOM     31  C   UNL A   1      40.621  26.875  28.454  1.00  0.00     0.074 A 
ATOM     32  C   UNL A   1      42.600  25.981  27.257  1.00  0.00     0.049 A 
ATOM     33  N   UNL A   1      41.027  28.067  28.798  1.00  0.00    -0.248 NA
ATOM     34  C   UNL A   1      39.274  26.529  28.933  1.00  0.00     0.031 C 
ATOM     35  C   UNL A   1      43.377  24.988  26.512  1.00  0.00     0.029 A 
ATOM     36  N   UNL A   1      43.466  27.027  27.430  1.00  0.00    -0.354 N 
ATOM     37  C   UNL A   1      39.977  28.628  29.517  1.00  0.00     0.074 A 
ATOM     38  C   UNL A   1      38.906  27.653  29.528  1.00  0.00     0.031 C 
ATOM     39  C   UNL A   1      44.605  25.480  26.284  1.00  0.00     0.029 A 
ATOM     40  C   UNL A   1      44.678  26.839  26.811  1.00  0.00     0.049 A 
ATOM     41  H   UNL A   1      43.243  27.834  27.947  1.00  0.00     0.167 HD
ATOM     42  C   UNL A   1      39.923  29.847  30.110  1.00  0.00     0.034 A 
ATOM     43  C   UNL A   1      45.710  27.689  26.650  1.00  0.00     0.034 A 
ATOM     44  C   UNL A   1      41.009  30.796  30.059  1.00  0.00     0.049 A 
ATOM     45  C   UNL A   1      45.596  29.070  27.241  1.00  0.00     0.074 A 
ATOM     46  C   UNL A   1      41.082  32.058  30.620  1.00  0.00     0.029 A 
ATOM     47  N   UNL A   1      42.213  30.591  29.391  1.00  0.00    -0.354 N 
ATOM     48  N   UNL A   1      44.598  29.602  27.910  1.00  0.00    -0.248 NA
ATOM     49  C   UNL A   1      46.746  29.962  27.058  1.00  0.00     0.031 C 
ATOM     50  C   UNL A   1      42.290  32.643  30.225  1.00  0.00     0.029 A 
ATOM     51  C   UNL A   1      43.016  31.715  29.495  1.00  0.00     0.049 A 
ATOM     52  H   UNL A   1      42.458  29.766  28.913  1.00  0.00     0.167 HD
ATOM     53  C   UNL A   1      45.011  30.886  28.254  1.00  0.00     0.074 A 
ATOM     54  C   UNL A   1      46.355  31.038  27.726  1.00  0.00     0.031 C 
ATOM     55  C   UNL A   1      44.348  31.850  28.944  1.00  0.00     0.034 A 
BRANCH  42  56
ATOM     56  C   UNL A   1      38.627  30.227  30.787  1.00  0.00     0.023 A 
ATOM     57  C   UNL A   1      37.602  30.908  30.104  1.00  0.00     0.031 A 
ATOM     58  C   UNL A   1      38.439  29.965  32.156  1.00  0.00     0.131 A 
ATOM     59  C   UNL A   1      36.487  31.386  30.810  1.00  0.00     0.055 A 
ATOM     60  C   UNL A   1      37.283  30.364  32.832  1.00  0.00     0.041 A 
ATOM     61  F   UNL A   1      39.389  29.343  32.871  1.00  0.00    -0.206 F 
ATOM     62  C   UNL A   1      36.307  31.096  32.164  1.00  0.00     0.022 A 
BRANCH  59  63
ATOM     63  S   UNL A   1      35.367  32.544  29.974  1.00  0.00     0.124 S 
ATOM     64  O   UNL A   1      36.260  33.665  29.688  1.00  0.00    -0.237 OA
ATOM     65  O   UNL A   1      34.922  31.773  28.819  1.00  0.00    -0.237 OA
ATOM     66  O   UNL A   1      34.341  32.815  30.978  1.00  0.00    -0.744 OA
ENDBRANCH  59  63
ENDBRANCH  42  56
BRANCH  43  67
ATOM     67  C   UNL A   1      46.905  27.272  25.864  1.00  0.00     0.023 A 
ATOM     68  C   UNL A   1      47.092  27.705  24.543  1.00  0.00     0.031 A 
ATOM     69  C   UNL A   1      47.878  26.426  26.426  1.00  0.00     0.131 A 
ATOM     70  C   UNL A   1      48.212  27.269  23.817  1.00  0.00     0.055 A 
ATOM     71  C   UNL A   1      49.016  26.036  25.718  1.00  0.00     0.041 A 
ATOM     72  F   UNL A   1      47.749  25.985  27.687  1.00  0.00    -0.206 F 
ATOM     73  C   UNL A   1      49.183  26.450  24.401  1.00  0.00     0.022 A 
BRANCH  70  74
ATOM     74  S   UNL A   1      48.352  27.739  22.072  1.00  0.00     0.124 S 
ATOM     75  O   UNL A   1      47.128  28.507  21.872  1.00  0.00    -0.237 OA
ATOM     76  O   UNL A   1      49.597  28.499  22.063  1.00  0.00    -0.237 OA
ATOM     77  O   UNL A   1      48.404  26.454  21.377  1.00  0.00    -0.744 OA
ENDBRANCH  70  74
ENDBRANCH  43  67
BRANCH  55  78
ATOM     78  C   UNL A   1      45.094  33.137  29.205  1.00  0.00     0.023 A 
ATOM     79  C   UNL A   1      44.992  34.240  28.341  1.00  0.00     0.031 A 
ATOM     80  C   UNL A   1      45.926  33.252  30.332  1.00  0.00     0.131 A 
ATOM     81  C   UNL A   1      45.758  35.390  28.585  1.00  0.00     0.055 A 
ATOM     82  C   UNL A   1      46.631  34.424  30.608  1.00  0.00     0.041 A 
ATOM     83  F   UNL A   1      46.065  32.227  31.188  1.00  0.00    -0.206 F 
ATOM     84  C   UNL A   1      46.561  35.497  29.724  1.00  0.00     0.022 A 
BRANCH  81  85
ATOM     85  S   UNL A   1      45.775  36.706  27.337  1.00  0.00     0.124 S 
ATOM     86  O   UNL A   1      46.395  37.806  28.069  1.00  0.00    -0.237 OA
ATOM     87  O   UNL A   1      46.576  36.116  26.271  1.00  0.00    -0.237 OA
ATOM     88  O   UNL A   1      44.360  36.894  27.019  1.00  0.00    -0.744 OA
ENDBRANCH  81  85
ENDBRANCH  55  78
ENDBRANCH  29  30
ENDBRANCH  22  24
ENDBRANCH  21  22
ENDBRANCH  20  21
ENDBRANCH   1  20
TORSDOF 18
ENDMDL
MODEL 2
REMARK VINA RESULT:     -10.8      2.020      2.714
REMARK SMILES C[C@@H]1CN([C@@H](CCS(C)(=O)=O)C(=O)OCCOC(=O)c2ccc(-c3c4nc(c(-c5cc(S(=O)(=O)[O-])ccc5F)c5ccc([nH]5)c(-c5cc(S(=O)(=O)[O-])ccc5F)c5nc(c(-c6cc(S(=O)(=O)[O-])ccc6F)c6ccc3[nH]6)C=C5)C=C4)cc2)S(=O)(=O)C1
REMARK SMILES IDX 15 1 14 2 12 3 13 4 5 5 4 6 1 7 2 8 3 9 86 10 83 11 84 12
REMARK SMILES IDX 85 13 6 14 7 15 8 16 9 17 10 18 11 19 16 20 17 21 18 22
REMARK SMILES IDX 19 23 20 24 21 25 82 26 22 27 81 28 23 29 24 30 25 31 75 32
REMARK SMILES IDX 26 33 80 34 74 35 76 36 27 37 79 38 73 39 72 40 28 42 60 43
REMARK SMILES IDX 40 44 59 45 41 46 44 47 58 48 77 49 42 50 43 51 57 53 78 54
REMARK SMILES IDX 45 55 29 56 30 57 38 58 31 59 37 60 39 61 36 62 32 63 33 64
REMARK SMILES IDX 34 65 35 66 61 67 62 68 70 69 63 70 69 71 71 72 68 73 64 74
REMARK SMILES IDX 65 75 66 76 67 77 46 78 47 79 55 80 48 81 54 82 56 83 53 84
REMARK SMILES IDX 49 85 50 86 51 87 52 88
REMARK H PARENT 76 41 44 52
REMARK Flexibility Score: inf
ROOT
ATOM      1  C   UNL A   1      35.857  21.562  24.405  1.00  0.00     0.274 C 
ENDROOT
BRANCH   1   2
ATOM      2  O   UNL A   1      35.494  22.869  23.928  1.00  0.00    -0.461 OA
BRANCH   2   3
ATOM      3  C   UNL A   1      34.275  22.990  23.374  1.00  0.00     0.324 C 
ATOM      4  O   UNL A   1      34.066  23.453  22.253  1.00  0.00    -0.250 OA
BRANCH   3   5
ATOM      5  C   UNL A   1      33.131  22.564  24.259  1.00  0.00     0.183 C 
BRANCH   5   6
ATOM      6  N   UNL A   1      32.125  23.465  24.814  1.00  0.00    -0.187 NA
ATOM      7  C   UNL A   1      29.519  25.976  23.841  1.00  0.00     0.010 C 
ATOM      8  C   UNL A   1      30.772  25.343  24.416  1.00  0.00     0.017 C 
ATOM      9  C   UNL A   1      30.982  23.888  23.987  1.00  0.00     0.107 C 
ATOM     10  C   UNL A   1      30.783  25.301  25.946  1.00  0.00     0.159 C 
ATOM     11  S   UNL A   1      32.094  24.147  26.350  1.00  0.00     0.215 S 
ATOM     12  O   UNL A   1      31.581  23.210  27.323  1.00  0.00    -0.212 OA
ATOM     13  O   UNL A   1      33.302  24.904  26.545  1.00  0.00    -0.212 OA
ENDBRANCH   5   6
BRANCH   5  14
ATOM     14  C   UNL A   1      32.502  21.247  23.750  1.00  0.00     0.048 C 
BRANCH  14  15
ATOM     15  C   UNL A   1      32.199  20.117  24.727  1.00  0.00     0.139 C 
BRANCH  15  16
ATOM     16  S   UNL A   1      32.584  18.432  24.264  1.00  0.00     0.147 S 
ATOM     17  C   UNL A   1      34.349  18.262  24.357  1.00  0.00     0.158 C 
ATOM     18  O   UNL A   1      32.037  17.571  25.299  1.00  0.00    -0.229 OA
ATOM     19  O   UNL A   1      32.222  18.206  22.882  1.00  0.00    -0.229 OA
ENDBRANCH  15  16
ENDBRANCH  14  15
ENDBRANCH   5  14
ENDBRANCH   3   5
ENDBRANCH   2   3
ENDBRANCH   1   2
BRANCH   1  20
ATOM     20  C   UNL A   1      36.806  21.670  25.597  1.00  0.00     0.275 C 
BRANCH  20  21
ATOM     21  O   UNL A   1      38.164  21.881  25.168  1.00  0.00    -0.458 OA
BRANCH  21  22
ATOM     22  C   UNL A   1      39.107  21.565  26.085  1.00  0.00     0.338 C 
ATOM     23  O   UNL A   1      39.590  20.470  26.319  1.00  0.00    -0.246 OA
BRANCH  22  24
ATOM     24  C   UNL A   1      39.634  22.785  26.699  1.00  0.00     0.060 A 
ATOM     25  C   UNL A   1      39.199  24.008  26.179  1.00  0.00     0.016 A 
ATOM     26  C   UNL A   1      40.601  22.730  27.701  1.00  0.00     0.016 A 
ATOM     27  C   UNL A   1      39.741  25.194  26.649  1.00  0.00     0.010 A 
ATOM     28  C   UNL A   1      41.144  23.922  28.175  1.00  0.00     0.010 A 
ATOM     29  C   UNL A   1      40.727  25.154  27.640  1.00  0.00    -0.014 A 
BRANCH  29  30
ATOM     30  C   UNL A   1      41.388  26.407  28.055  1.00  0.00     0.031 A 
ATOM     31  C   UNL A   1      40.590  27.442  28.788  1.00  0.00     0.074 A 
ATOM     32  C   UNL A   1      42.690  26.592  27.778  1.00  0.00     0.049 A 
ATOM     33  N   UNL A   1      40.930  28.652  29.142  1.00  0.00    -0.248 NA
ATOM     34  C   UNL A   1      39.219  27.062  29.159  1.00  0.00     0.031 C 
ATOM     35  C   UNL A   1      43.556  25.613  27.119  1.00  0.00     0.029 A 
ATOM     36  N   UNL A   1      43.506  27.667  28.003  1.00  0.00    -0.354 N 
ATOM     37  C   UNL A   1      39.807  29.191  29.760  1.00  0.00     0.074 A 
ATOM     38  C   UNL A   1      38.769  28.183  29.700  1.00  0.00     0.031 C 
ATOM     39  C   UNL A   1      44.784  26.139  26.985  1.00  0.00     0.029 A 
ATOM     40  C   UNL A   1      44.771  27.508  27.491  1.00  0.00     0.049 A 
ATOM     41  H   UNL A   1      43.215  28.475  28.485  1.00  0.00     0.167 HD
ATOM     42  C   UNL A   1      39.666  30.416  30.324  1.00  0.00     0.034 A 
ATOM     43  C   UNL A   1      45.786  28.387  27.402  1.00  0.00     0.034 A 
ATOM     44  C   UNL A   1      40.723  31.399  30.347  1.00  0.00     0.049 A 
ATOM     45  C   UNL A   1      45.582  29.773  27.955  1.00  0.00     0.074 A 
ATOM     46  C   UNL A   1      40.711  32.671  30.889  1.00  0.00     0.029 A 
ATOM     47  N   UNL A   1      41.985  31.221  29.786  1.00  0.00    -0.354 N 
ATOM     48  N   UNL A   1      44.516  30.284  28.529  1.00  0.00    -0.248 NA
ATOM     49  C   UNL A   1      46.716  30.698  27.853  1.00  0.00     0.031 C 
ATOM     50  C   UNL A   1      41.930  33.287  30.586  1.00  0.00     0.029 A 
ATOM     51  C   UNL A   1      42.743  32.372  29.936  1.00  0.00     0.049 A 
ATOM     52  H   UNL A   1      42.294  30.396  29.345  1.00  0.00     0.167 HD
ATOM     53  C   UNL A   1      44.860  31.586  28.882  1.00  0.00     0.074 A 
ATOM     54  C   UNL A   1      46.238  31.771  28.466  1.00  0.00     0.031 C 
ATOM     55  C   UNL A   1      44.112  32.539  29.496  1.00  0.00     0.034 A 
BRANCH  42  56
ATOM     56  C   UNL A   1      38.307  30.767  30.883  1.00  0.00     0.023 A 
ATOM     57  C   UNL A   1      37.320  31.395  30.102  1.00  0.00     0.031 A 
ATOM     58  C   UNL A   1      38.015  30.530  32.239  1.00  0.00     0.131 A 
ATOM     59  C   UNL A   1      36.135  31.850  30.701  1.00  0.00     0.055 A 
ATOM     60  C   UNL A   1      36.796  30.903  32.807  1.00  0.00     0.041 A 
ATOM     61  F   UNL A   1      38.924  29.958  33.044  1.00  0.00    -0.206 F 
ATOM     62  C   UNL A   1      35.854  31.585  32.043  1.00  0.00     0.022 A 
BRANCH  59  63
ATOM     63  S   UNL A   1      35.051  32.949  29.747  1.00  0.00     0.124 S 
ATOM     64  O   UNL A   1      36.016  33.864  29.141  1.00  0.00    -0.237 OA
ATOM     65  O   UNL A   1      34.389  32.024  28.834  1.00  0.00    -0.237 OA
ATOM     66  O   UNL A   1      34.189  33.548  30.763  1.00  0.00    -0.744 OA
ENDBRANCH  59  63
ENDBRANCH  42  56
BRANCH  43  67
ATOM     67  C   UNL A   1      47.055  27.995  26.726  1.00  0.00     0.023 A 
ATOM     68  C   UNL A   1      47.173  28.025  25.329  1.00  0.00     0.031 A 
ATOM     69  C   UNL A   1      48.172  27.580  27.475  1.00  0.00     0.131 A 
ATOM     70  C   UNL A   1      48.372  27.619  24.721  1.00  0.00     0.055 A 
ATOM     71  C   UNL A   1      49.379  27.227  26.868  1.00  0.00     0.041 A 
ATOM     72  F   UNL A   1      48.114  27.537  28.816  1.00  0.00    -0.206 F 
ATOM     73  C   UNL A   1      49.480  27.235  25.482  1.00  0.00     0.022 A 
BRANCH  70  74
ATOM     74  S   UNL A   1      48.443  27.541  22.911  1.00  0.00     0.124 S 
ATOM     75  O   UNL A   1      48.426  26.101  22.675  1.00  0.00    -0.237 OA
ATOM     76  O   UNL A   1      47.239  28.269  22.529  1.00  0.00    -0.237 OA
ATOM     77  O   UNL A   1      49.702  28.211  22.591  1.00  0.00    -0.744 OA
ENDBRANCH  70  74
ENDBRANCH  43  67
BRANCH  55  78
ATOM     78  C   UNL A   1      44.794  33.853  29.795  1.00  0.00     0.023 A 
ATOM     79  C   UNL A   1      45.493  34.069  30.995  1.00  0.00     0.031 A 
ATOM     80  C   UNL A   1      44.732  34.906  28.865  1.00  0.00     0.131 A 
ATOM     81  C   UNL A   1      46.050  35.329  31.259  1.00  0.00     0.055 A 
ATOM     82  C   UNL A   1      45.349  36.134  29.104  1.00  0.00     0.041 A 
ATOM     83  F   UNL A   1      44.072  34.756  27.705  1.00  0.00    -0.206 F 
ATOM     84  C   UNL A   1      46.001  36.356  30.312  1.00  0.00     0.022 A 
BRANCH  81  85
ATOM     85  S   UNL A   1      46.750  35.643  32.903  1.00  0.00     0.124 S 
ATOM     86  O   UNL A   1      47.208  37.023  32.776  1.00  0.00    -0.237 OA
ATOM     87  O   UNL A   1      45.603  35.428  33.777  1.00  0.00    -0.237 OA
ATOM     88  O   UNL A   1      47.814  34.646  33.018  1.00  0.00    -0.744 OA
ENDBRANCH  81  85
ENDBRANCH  55  78
ENDBRANCH  29  30
ENDBRANCH  22  24
ENDBRANCH  21  22
ENDBRANCH  20  21
ENDBRANCH   1  20
TORSDOF 18
ENDMDL
MODEL 3
REMARK VINA RESULT:     -10.7      1.967      2.644
REMARK SMILES C[C@@H]1CN([C@@H](CCS(C)(=O)=O)C(=O)OCCOC(=O)c2ccc(-c3c4nc(c(-c5cc(S(=O)(=O)[O-])ccc5F)c5ccc([nH]5)c(-c5cc(S(=O)(=O)[O-])ccc5F)c5nc(c(-c6cc(S(=O)(=O)[O-])ccc6F)c6ccc3[nH]6)C=C5)C=C4)cc2)S(=O)(=O)C1
REMARK SMILES IDX 15 1 14 2 12 3 13 4 5 5 4 6 1 7 2 8 3 9 86 10 83 11 84 12
REMARK SMILES IDX 85 13 6 14 7 15 8 16 9 17 10 18 11 19 16 20 17 21 18 22
REMARK SMILES IDX 19 23 20 24 21 25 82 26 22 27 81 28 23 29 24 30 25 31 75 32
REMARK SMILES IDX 26 33 80 34 74 35 76 36 27 37 79 38 73 39 72 40 28 42 60 43
REMARK SMILES IDX 40 44 59 45 41 46 44 47 58 48 77 49 42 50 43 51 57 53 78 54
REMARK SMILES IDX 45 55 29 56 30 57 38 58 31 59 37 60 39 61 36 62 32 63 33 64
REMARK SMILES IDX 34 65 35 66 61 67 62 68 70 69 63 70 69 71 71 72 68 73 64 74
REMARK SMILES IDX 65 75 66 76 67 77 46 78 47 79 55 80 48 81 54 82 56 83 53 84
REMARK SMILES IDX 49 85 50 86 51 87 52 88
REMARK H PARENT 76 41 44 52
REMARK Flexibility Score: inf
ROOT
ATOM      1  C   UNL A   1      36.131  22.842  24.474  1.00  0.00     0.274 C 
ENDROOT
BRANCH   1   2
ATOM      2  O   UNL A   1      35.640  23.013  23.132  1.00  0.00    -0.461 OA
BRANCH   2   3
ATOM      3  C   UNL A   1      34.307  22.967  22.969  1.00  0.00     0.324 C 
ATOM      4  O   UNL A   1      33.724  23.270  21.928  1.00  0.00    -0.250 OA
BRANCH   3   5
ATOM      5  C   UNL A   1      33.531  22.562  24.198  1.00  0.00     0.183 C 
BRANCH   5   6
ATOM      6  N   UNL A   1      32.602  23.426  24.921  1.00  0.00    -0.187 NA
ATOM      7  C   UNL A   1      31.808  27.023  25.610  1.00  0.00     0.010 C 
ATOM      8  C   UNL A   1      32.228  25.576  25.789  1.00  0.00     0.017 C 
ATOM      9  C   UNL A   1      32.388  24.812  24.471  1.00  0.00     0.107 C 
ATOM     10  C   UNL A   1      31.226  24.748  26.598  1.00  0.00     0.159 C 
ATOM     11  S   UNL A   1      31.702  23.048  26.289  1.00  0.00     0.215 S 
ATOM     12  O   UNL A   1      30.512  22.307  25.939  1.00  0.00    -0.212 OA
ATOM     13  O   UNL A   1      32.601  22.646  27.338  1.00  0.00    -0.212 OA
ENDBRANCH   5   6
BRANCH   5  14
ATOM     14  C   UNL A   1      32.981  21.125  24.053  1.00  0.00     0.048 C 
BRANCH  14  15
ATOM     15  C   UNL A   1      33.727  19.954  24.682  1.00  0.00     0.139 C 
BRANCH  15  16
ATOM     16  S   UNL A   1      33.117  18.290  24.433  1.00  0.00     0.147 S 
ATOM     17  C   UNL A   1      32.398  18.243  22.810  1.00  0.00     0.158 C 
ATOM     18  O   UNL A   1      34.277  17.414  24.390  1.00  0.00    -0.229 OA
ATOM     19  O   UNL A   1      32.047  18.013  25.364  1.00  0.00    -0.229 OA
ENDBRANCH  15  16
ENDBRANCH  14  15
ENDBRANCH   5  14
ENDBRANCH   3   5
ENDBRANCH   2   3
ENDBRANCH   1   2
BRANCH   1  20
ATOM     20  C   UNL A   1      37.083  21.650  24.549  1.00  0.00     0.275 C 
BRANCH  20  21
ATOM     21  O   UNL A   1      37.514  21.408  25.901  1.00  0.00    -0.458 OA
BRANCH  21  22
ATOM     22  C   UNL A   1      38.843  21.206  26.049  1.00  0.00     0.338 C 
ATOM     23  O   UNL A   1      39.506  20.259  25.661  1.00  0.00    -0.246 OA
BRANCH  22  24
ATOM     24  C   UNL A   1      39.467  22.398  26.625  1.00  0.00     0.060 A 
ATOM     25  C   UNL A   1      39.051  23.642  26.139  1.00  0.00     0.016 A 
ATOM     26  C   UNL A   1      40.501  22.295  27.554  1.00  0.00     0.016 A 
ATOM     27  C   UNL A   1      39.679  24.800  26.571  1.00  0.00     0.010 A 
ATOM     28  C   UNL A   1      41.131  23.459  27.989  1.00  0.00     0.010 A 
ATOM     29  C   UNL A   1      40.732  24.711  27.487  1.00  0.00    -0.014 A 
BRANCH  29  30
ATOM     30  C   UNL A   1      41.477  25.931  27.855  1.00  0.00     0.031 A 
ATOM     31  C   UNL A   1      40.773  27.011  28.620  1.00  0.00     0.074 A 
ATOM     32  C   UNL A   1      42.770  26.048  27.507  1.00  0.00     0.049 A 
ATOM     33  N   UNL A   1      41.193  28.203  28.945  1.00  0.00    -0.248 NA
ATOM     34  C   UNL A   1      39.407  26.704  29.067  1.00  0.00     0.031 C 
ATOM     35  C   UNL A   1      43.548  25.021  26.812  1.00  0.00     0.029 A 
ATOM     36  N   UNL A   1      43.650  27.080  27.679  1.00  0.00    -0.354 N 
ATOM     37  C   UNL A   1      40.133  28.804  29.617  1.00  0.00     0.074 A 
ATOM     38  C   UNL A   1      39.044  27.849  29.621  1.00  0.00     0.031 C 
ATOM     39  C   UNL A   1      44.792  25.482  26.609  1.00  0.00     0.029 A 
ATOM     40  C   UNL A   1      44.876  26.853  27.102  1.00  0.00     0.049 A 
ATOM     41  H   UNL A   1      43.428  27.905  28.168  1.00  0.00     0.167 HD
ATOM     42  C   UNL A   1      40.086  30.038  30.176  1.00  0.00     0.034 A 
ATOM     43  C   UNL A   1      45.929  27.678  26.950  1.00  0.00     0.034 A 
ATOM     44  C   UNL A   1      41.191  30.965  30.134  1.00  0.00     0.049 A 
ATOM     45  C   UNL A   1      45.826  29.076  27.501  1.00  0.00     0.074 A 
ATOM     46  C   UNL A   1      41.273  32.240  30.664  1.00  0.00     0.029 A 
ATOM     47  N   UNL A   1      42.411  30.719  29.507  1.00  0.00    -0.354 N 
ATOM     48  N   UNL A   1      44.819  29.646  28.126  1.00  0.00    -0.248 NA
ATOM     49  C   UNL A   1      46.998  29.941  27.331  1.00  0.00     0.031 C 
ATOM     50  C   UNL A   1      42.504  32.791  30.290  1.00  0.00     0.029 A 
ATOM     51  C   UNL A   1      43.233  31.830  29.607  1.00  0.00     0.049 A 
ATOM     52  H   UNL A   1      42.653  29.877  29.059  1.00  0.00     0.167 HD
ATOM     53  C   UNL A   1      45.247  30.930  28.449  1.00  0.00     0.074 A 
ATOM     54  C   UNL A   1      46.609  31.042  27.958  1.00  0.00     0.031 C 
ATOM     55  C   UNL A   1      44.583  31.924  29.093  1.00  0.00     0.034 A 
BRANCH  42  56
ATOM     56  C   UNL A   1      38.778  30.461  30.803  1.00  0.00     0.023 A 
ATOM     57  C   UNL A   1      37.831  31.230  30.103  1.00  0.00     0.031 A 
ATOM     58  C   UNL A   1      38.503  30.149  32.147  1.00  0.00     0.131 A 
ATOM     59  C   UNL A   1      36.707  31.739  30.772  1.00  0.00     0.055 A 
ATOM     60  C   UNL A   1      37.336  30.582  32.781  1.00  0.00     0.041 A 
ATOM     61  F   UNL A   1      39.377  29.441  32.878  1.00  0.00    -0.206 F 
ATOM     62  C   UNL A   1      36.439  31.399  32.099  1.00  0.00     0.022 A 
BRANCH  59  63
ATOM     63  S   UNL A   1      35.699  32.996  29.937  1.00  0.00     0.124 S 
ATOM     64  O   UNL A   1      36.636  33.513  28.942  1.00  0.00    -0.237 OA
ATOM     65  O   UNL A   1      34.585  32.212  29.416  1.00  0.00    -0.237 OA
ATOM     66  O   UNL A   1      35.359  33.930  31.007  1.00  0.00    -0.744 OA
ENDBRANCH  59  63
ENDBRANCH  42  56
BRANCH  43  67
ATOM     67  C   UNL A   1      47.138  27.218  26.212  1.00  0.00     0.023 A 
ATOM     68  C   UNL A   1      48.168  26.524  26.865  1.00  0.00     0.031 A 
ATOM     69  C   UNL A   1      47.283  27.472  24.835  1.00  0.00     0.131 A 
ATOM     70  C   UNL A   1      49.310  26.133  26.149  1.00  0.00     0.055 A 
ATOM     71  C   UNL A   1      48.397  27.035  24.116  1.00  0.00     0.041 A 
ATOM     72  F   UNL A   1      46.326  28.129  24.161  1.00  0.00    -0.206 F 
ATOM     73  C   UNL A   1      49.424  26.369  24.776  1.00  0.00     0.022 A 
BRANCH  70  74
ATOM     74  S   UNL A   1      50.678  25.359  27.052  1.00  0.00     0.124 S 
ATOM     75  O   UNL A   1      49.989  24.306  27.790  1.00  0.00    -0.237 OA
ATOM     76  O   UNL A   1      51.548  24.921  25.966  1.00  0.00    -0.237 OA
ATOM     77  O   UNL A   1      51.207  26.450  27.868  1.00  0.00    -0.744 OA
ENDBRANCH  70  74
ENDBRANCH  43  67
BRANCH  55  78
ATOM     78  C   UNL A   1      45.346  33.203  29.343  1.00  0.00     0.023 A 
ATOM     79  C   UNL A   1      45.287  34.288  28.451  1.00  0.00     0.031 A 
ATOM     80  C   UNL A   1      46.152  33.330  30.488  1.00  0.00     0.131 A 
ATOM     81  C   UNL A   1      46.069  35.428  28.688  1.00  0.00     0.055 A 
ATOM     82  C   UNL A   1      46.872  34.495  30.754  1.00  0.00     0.041 A 
ATOM     83  F   UNL A   1      46.250  32.323  31.371  1.00  0.00    -0.206 F 
ATOM     84  C   UNL A   1      46.844  35.548  29.845  1.00  0.00     0.022 A 
BRANCH  81  85
ATOM     85  S   UNL A   1      46.141  36.714  27.411  1.00  0.00     0.124 S 
ATOM     86  O   UNL A   1      46.840  36.025  26.330  1.00  0.00    -0.237 OA
ATOM     87  O   UNL A   1      44.731  37.003  27.177  1.00  0.00    -0.237 OA
ATOM     88  O   UNL A   1      46.897  37.789  28.050  1.00  0.00    -0.744 OA
ENDBRANCH  81  85
ENDBRANCH  55  78
ENDBRANCH  29  30
ENDBRANCH  22  24
ENDBRANCH  21  22
ENDBRANCH  20  21
ENDBRANCH   1  20
TORSDOF 18
ENDMDL
