MODEL 1
REMARK VINA RESULT:     -10.5      0.000      0.000
REMARK SMILES CCOc1ccccc1[C@@H](O)[C@@H](C)[C@@H](C)C(=O)OCCOC(=O)c1ccc(-c2c3nc(c(-c4cc(S(=O)(=O)[O-])ccc4F)c4ccc([nH]4)c(-c4cc(S(=O)(=O)[O-])ccc4F)c4nc(c(-c5cc(S(=O)(=O)[O-])ccc5F)c5ccc2[nH]5)C=C4)C=C3)cc1
REMARK SMILES IDX 19 1 18 2 16 3 17 4 14 5 15 6 12 7 13 8 10 9 9 10 4 11 5 12
REMARK SMILES IDX 6 13 8 14 7 15 3 16 2 17 1 18 11 19 20 21 21 22 22 23 23 24
REMARK SMILES IDX 24 25 25 26 86 27 26 28 85 29 27 30 28 31 29 32 79 33 30 34
REMARK SMILES IDX 84 35 78 36 80 37 31 38 83 39 77 40 76 41 32 43 64 44 44 45
REMARK SMILES IDX 63 46 45 47 48 48 62 49 81 50 46 51 47 52 61 54 82 55 49 56
REMARK SMILES IDX 33 57 34 58 42 59 35 60 41 61 43 62 40 63 36 64 37 65 38 66
REMARK SMILES IDX 39 67 65 68 66 69 74 70 67 71 73 72 75 73 72 74 68 75 69 76
REMARK SMILES IDX 70 77 71 78 50 79 51 80 59 81 52 82 58 83 60 84 57 85 53 86
REMARK SMILES IDX 54 87 55 88 56 89
REMARK H PARENT 11 20 80 42 48 53
REMARK Flexibility Score: inf
ROOT
ATOM      1  C   UNL A   1      34.931  20.653  25.009  1.00  0.00     0.274 C 
ENDROOT
BRANCH   1   2
ATOM      2  O   UNL A   1      34.662  21.959  25.557  1.00  0.00    -0.462 OA
BRANCH   2   3
ATOM      3  C   UNL A   1      33.728  22.681  24.884  1.00  0.00     0.309 C 
ATOM      4  O   UNL A   1      32.828  22.192  24.209  1.00  0.00    -0.252 OA
BRANCH   3   5
ATOM      5  C   UNL A   1      33.917  24.185  25.002  1.00  0.00     0.102 C 
ATOM      6  C   UNL A   1      35.410  24.412  25.243  1.00  0.00     0.020 C 
BRANCH   5   7
ATOM      7  C   UNL A   1      32.965  24.925  25.997  1.00  0.00     0.033 C 
ATOM      8  C   UNL A   1      32.125  23.893  26.778  1.00  0.00     0.011 C 
BRANCH   7   9
ATOM      9  C   UNL A   1      32.063  25.947  25.240  1.00  0.00     0.152 C 
BRANCH   9  10
ATOM     10  C   UNL A   1      32.201  27.392  25.669  1.00  0.00     0.023 A 
ATOM     11  C   UNL A   1      31.439  28.402  25.059  1.00  0.00     0.125 A 
ATOM     12  C   UNL A   1      31.539  29.729  25.478  1.00  0.00     0.047 A 
ATOM     13  C   UNL A   1      32.398  30.062  26.526  1.00  0.00     0.004 A 
ATOM     14  C   UNL A   1      33.071  27.748  26.712  1.00  0.00     0.010 A 
ATOM     15  C   UNL A   1      33.167  29.073  27.139  1.00  0.00     0.001 A 
BRANCH  11  16
ATOM     16  O   UNL A   1      30.670  28.081  23.975  1.00  0.00    -0.493 OA
BRANCH  16  17
ATOM     17  C   UNL A   1      30.153  29.236  23.300  1.00  0.00     0.226 C 
ATOM     18  C   UNL A   1      28.731  28.910  22.875  1.00  0.00     0.049 C 
ENDBRANCH  16  17
ENDBRANCH  11  16
ENDBRANCH   9  10
BRANCH   9  19
ATOM     19  O   UNL A   1      32.371  25.899  23.841  1.00  0.00    -0.388 OA
ATOM     20  H   UNL A   1      32.825  26.716  23.581  1.00  0.00     0.211 HD
ENDBRANCH   9  19
ENDBRANCH   7   9
ENDBRANCH   5   7
ENDBRANCH   3   5
ENDBRANCH   2   3
ENDBRANCH   1   2
BRANCH   1  21
ATOM     21  C   UNL A   1      36.435  20.383  24.957  1.00  0.00     0.275 C 
BRANCH  21  22
ATOM     22  O   UNL A   1      37.143  21.384  25.708  1.00  0.00    -0.458 OA
BRANCH  22  23
ATOM     23  C   UNL A   1      38.471  21.182  25.848  1.00  0.00     0.338 C 
ATOM     24  O   UNL A   1      39.086  20.153  25.603  1.00  0.00    -0.246 OA
BRANCH  23  25
ATOM     25  C   UNL A   1      39.107  22.387  26.409  1.00  0.00     0.060 A 
ATOM     26  C   UNL A   1      38.656  23.669  26.082  1.00  0.00     0.016 A 
ATOM     27  C   UNL A   1      40.232  22.225  27.220  1.00  0.00     0.016 A 
ATOM     28  C   UNL A   1      39.355  24.793  26.534  1.00  0.00     0.010 A 
ATOM     29  C   UNL A   1      40.895  23.348  27.715  1.00  0.00     0.010 A 
ATOM     30  C   UNL A   1      40.480  24.643  27.359  1.00  0.00    -0.014 A 
BRANCH  30  31
ATOM     31  C   UNL A   1      41.261  25.817  27.833  1.00  0.00     0.031 A 
ATOM     32  C   UNL A   1      40.571  26.904  28.615  1.00  0.00     0.074 A 
ATOM     33  C   UNL A   1      42.565  25.939  27.523  1.00  0.00     0.049 A 
ATOM     34  N   UNL A   1      41.002  28.096  28.941  1.00  0.00    -0.248 NA
ATOM     35  C   UNL A   1      39.207  26.609  29.077  1.00  0.00     0.031 C 
ATOM     36  C   UNL A   1      43.358  24.944  26.799  1.00  0.00     0.029 A 
ATOM     37  N   UNL A   1      43.449  26.964  27.755  1.00  0.00    -0.354 N 
ATOM     38  C   UNL A   1      39.956  28.705  29.627  1.00  0.00     0.074 A 
ATOM     39  C   UNL A   1      38.861  27.756  29.643  1.00  0.00     0.031 C 
ATOM     40  C   UNL A   1      44.606  25.413  26.635  1.00  0.00     0.029 A 
ATOM     41  C   UNL A   1      44.684  26.764  27.183  1.00  0.00     0.049 A 
ATOM     42  H   UNL A   1      43.221  27.766  28.280  1.00  0.00     0.167 HD
ATOM     43  C   UNL A   1      39.914  29.938  30.191  1.00  0.00     0.034 A 
ATOM     44  C   UNL A   1      45.743  27.590  27.067  1.00  0.00     0.034 A 
ATOM     45  C   UNL A   1      41.014  30.873  30.166  1.00  0.00     0.049 A 
ATOM     46  C   UNL A   1      45.655  28.979  27.645  1.00  0.00     0.074 A 
ATOM     47  C   UNL A   1      41.077  32.150  30.698  1.00  0.00     0.029 A 
ATOM     48  N   UNL A   1      42.247  30.633  29.573  1.00  0.00    -0.354 N 
ATOM     49  N   UNL A   1      44.647  29.557  28.258  1.00  0.00    -0.248 NA
ATOM     50  C   UNL A   1      46.848  29.826  27.518  1.00  0.00     0.031 C 
ATOM     51  C   UNL A   1      42.327  32.699  30.384  1.00  0.00     0.029 A 
ATOM     52  C   UNL A   1      43.069  31.741  29.712  1.00  0.00     0.049 A 
ATOM     53  H   UNL A   1      42.501  29.797  29.119  1.00  0.00     0.167 HD
ATOM     54  C   UNL A   1      45.093  30.829  28.602  1.00  0.00     0.074 A 
ATOM     55  C   UNL A   1      46.465  30.928  28.147  1.00  0.00     0.031 C 
ATOM     56  C   UNL A   1      44.431  31.829  29.239  1.00  0.00     0.034 A 
BRANCH  43  57
ATOM     57  C   UNL A   1      38.618  30.357  30.841  1.00  0.00     0.023 A 
ATOM     58  C   UNL A   1      37.617  31.035  30.123  1.00  0.00     0.031 A 
ATOM     59  C   UNL A   1      38.391  30.102  32.205  1.00  0.00     0.131 A 
ATOM     60  C   UNL A   1      36.468  31.494  30.786  1.00  0.00     0.055 A 
ATOM     61  C   UNL A   1      37.213  30.495  32.843  1.00  0.00     0.041 A 
ATOM     62  F   UNL A   1      39.319  29.477  32.947  1.00  0.00    -0.206 F 
ATOM     63  C   UNL A   1      36.248  31.209  32.136  1.00  0.00     0.022 A 
BRANCH  60  64
ATOM     64  S   UNL A   1      35.328  32.584  29.891  1.00  0.00     0.124 S 
ATOM     65  O   UNL A   1      34.704  31.654  28.951  1.00  0.00    -0.237 OA
ATOM     66  O   UNL A   1      34.467  33.085  30.955  1.00  0.00    -0.237 OA
ATOM     67  O   UNL A   1      36.209  33.576  29.281  1.00  0.00    -0.744 OA
ENDBRANCH  60  64
ENDBRANCH  43  57
BRANCH  44  68
ATOM     68  C   UNL A   1      46.954  27.157  26.315  1.00  0.00     0.023 A 
ATOM     69  C   UNL A   1      48.010  26.493  26.957  1.00  0.00     0.031 A 
ATOM     70  C   UNL A   1      47.087  27.439  24.943  1.00  0.00     0.131 A 
ATOM     71  C   UNL A   1      49.171  26.168  26.237  1.00  0.00     0.055 A 
ATOM     72  C   UNL A   1      48.222  27.067  24.220  1.00  0.00     0.041 A 
ATOM     73  F   UNL A   1      46.106  28.072  24.281  1.00  0.00    -0.206 F 
ATOM     74  C   UNL A   1      49.278  26.437  24.870  1.00  0.00     0.022 A 
BRANCH  71  75
ATOM     75  S   UNL A   1      50.578  25.456  27.134  1.00  0.00     0.124 S 
ATOM     76  O   UNL A   1      51.523  25.203  26.052  1.00  0.00    -0.237 OA
ATOM     77  O   UNL A   1      50.928  26.536  28.051  1.00  0.00    -0.237 OA
ATOM     78  O   UNL A   1      50.013  24.264  27.762  1.00  0.00    -0.744 OA
ENDBRANCH  71  75
ENDBRANCH  44  68
BRANCH  56  79
ATOM     79  C   UNL A   1      45.207  33.091  29.516  1.00  0.00     0.023 A 
ATOM     80  C   UNL A   1      45.162  34.192  28.643  1.00  0.00     0.031 A 
ATOM     81  C   UNL A   1      46.022  33.180  30.658  1.00  0.00     0.131 A 
ATOM     82  C   UNL A   1      45.960  35.317  28.898  1.00  0.00     0.055 A 
ATOM     83  C   UNL A   1      46.775  34.323  30.933  1.00  0.00     0.041 A 
ATOM     84  F   UNL A   1      46.101  32.157  31.523  1.00  0.00    -0.206 F 
ATOM     85  C   UNL A   1      46.757  35.394  30.044  1.00  0.00     0.022 A 
BRANCH  82  86
ATOM     86  S   UNL A   1      46.010  36.649  27.668  1.00  0.00     0.124 S 
ATOM     87  O   UNL A   1      44.591  36.921  27.456  1.00  0.00    -0.237 OA
ATOM     88  O   UNL A   1      46.761  37.688  28.363  1.00  0.00    -0.237 OA
ATOM     89  O   UNL A   1      46.701  36.041  26.532  1.00  0.00    -0.744 OA
ENDBRANCH  82  86
ENDBRANCH  56  79
ENDBRANCH  30  31
ENDBRANCH  23  25
ENDBRANCH  22  23
ENDBRANCH  21  22
ENDBRANCH   1  21
TORSDOF 20
ENDMDL
MODEL 2
REMARK VINA RESULT:     -10.4      3.493     10.340
REMARK SMILES CCOc1ccccc1[C@@H](O)[C@@H](C)[C@@H](C)C(=O)OCCOC(=O)c1ccc(-c2c3nc(c(-c4cc(S(=O)(=O)[O-])ccc4F)c4ccc([nH]4)c(-c4cc(S(=O)(=O)[O-])ccc4F)c4nc(c(-c5cc(S(=O)(=O)[O-])ccc5F)c5ccc2[nH]5)C=C4)C=C3)cc1
REMARK SMILES IDX 19 1 18 2 16 3 17 4 14 5 15 6 12 7 13 8 10 9 9 10 4 11 5 12
REMARK SMILES IDX 6 13 8 14 7 15 3 16 2 17 1 18 11 19 20 21 21 22 22 23 23 24
REMARK SMILES IDX 24 25 25 26 86 27 26 28 85 29 27 30 28 31 29 32 79 33 30 34
REMARK SMILES IDX 84 35 78 36 80 37 31 38 83 39 77 40 76 41 32 43 64 44 44 45
REMARK SMILES IDX 63 46 45 47 48 48 62 49 81 50 46 51 47 52 61 54 82 55 49 56
REMARK SMILES IDX 33 57 34 58 42 59 35 60 41 61 43 62 40 63 36 64 37 65 38 66
REMARK SMILES IDX 39 67 65 68 66 69 74 70 67 71 73 72 75 73 72 74 68 75 69 76
REMARK SMILES IDX 70 77 71 78 50 79 51 80 59 81 52 82 58 83 60 84 57 85 53 86
REMARK SMILES IDX 54 87 55 88 56 89
REMARK H PARENT 11 20 80 42 48 53
REMARK Flexibility Score: inf
ROOT
ATOM      1  C   UNL A   1      42.074  19.181  26.335  1.00  0.00     0.274 C 
ENDROOT
BRANCH   1   2
ATOM      2  O   UNL A   1      42.537  19.376  24.985  1.00  0.00    -0.462 OA
BRANCH   2   3
ATOM      3  C   UNL A   1      43.814  18.974  24.754  1.00  0.00     0.309 C 
ATOM      4  O   UNL A   1      44.383  18.083  25.375  1.00  0.00    -0.252 OA
BRANCH   3   5
ATOM      5  C   UNL A   1      44.517  19.766  23.662  1.00  0.00     0.102 C 
ATOM      6  C   UNL A   1      45.035  18.738  22.654  1.00  0.00     0.020 C 
BRANCH   5   7
ATOM      7  C   UNL A   1      45.572  20.815  24.140  1.00  0.00     0.033 C 
ATOM      8  C   UNL A   1      46.778  20.089  24.773  1.00  0.00     0.011 C 
BRANCH   7   9
ATOM      9  C   UNL A   1      44.927  21.831  25.132  1.00  0.00     0.152 C 
BRANCH   9  10
ATOM     10  C   UNL A   1      45.769  23.040  25.479  1.00  0.00     0.023 A 
ATOM     11  C   UNL A   1      45.853  23.507  26.800  1.00  0.00     0.125 A 
ATOM     12  C   UNL A   1      46.657  24.599  27.127  1.00  0.00     0.047 A 
ATOM     13  C   UNL A   1      47.401  25.234  26.131  1.00  0.00     0.004 A 
ATOM     14  C   UNL A   1      46.513  23.700  24.487  1.00  0.00     0.010 A 
ATOM     15  C   UNL A   1      47.325  24.788  24.812  1.00  0.00     0.001 A 
BRANCH  11  16
ATOM     16  O   UNL A   1      45.051  22.937  27.750  1.00  0.00    -0.493 OA
BRANCH  16  17
ATOM     17  C   UNL A   1      44.989  23.707  28.958  1.00  0.00     0.226 C 
ATOM     18  C   UNL A   1      43.995  23.020  29.880  1.00  0.00     0.049 C 
ENDBRANCH  16  17
ENDBRANCH  11  16
ENDBRANCH   9  10
BRANCH   9  19
ATOM     19  O   UNL A   1      43.705  22.325  24.569  1.00  0.00    -0.388 OA
ATOM     20  H   UNL A   1      43.156  21.579  24.280  1.00  0.00     0.211 HD
ENDBRANCH   9  19
ENDBRANCH   7   9
ENDBRANCH   5   7
ENDBRANCH   3   5
ENDBRANCH   2   3
ENDBRANCH   1   2
BRANCH   1  21
ATOM     21  C   UNL A   1      40.637  19.677  26.496  1.00  0.00     0.275 C 
BRANCH  21  22
ATOM     22  O   UNL A   1      40.633  21.029  26.985  1.00  0.00    -0.458 OA
BRANCH  22  23
ATOM     23  C   UNL A   1      39.648  21.822  26.510  1.00  0.00     0.338 C 
ATOM     24  O   UNL A   1      38.699  21.478  25.819  1.00  0.00    -0.246 OA
BRANCH  23  25
ATOM     25  C   UNL A   1      39.897  23.222  26.898  1.00  0.00     0.060 A 
ATOM     26  C   UNL A   1      39.404  24.288  26.138  1.00  0.00     0.016 A 
ATOM     27  C   UNL A   1      40.709  23.467  28.005  1.00  0.00     0.016 A 
ATOM     28  C   UNL A   1      39.758  25.601  26.464  1.00  0.00     0.010 A 
ATOM     29  C   UNL A   1      41.016  24.782  28.361  1.00  0.00     0.010 A 
ATOM     30  C   UNL A   1      40.564  25.861  27.581  1.00  0.00    -0.014 A 
BRANCH  30  31
ATOM     31  C   UNL A   1      40.981  27.244  27.937  1.00  0.00     0.031 A 
ATOM     32  C   UNL A   1      42.442  27.607  27.931  1.00  0.00     0.074 A 
ATOM     33  C   UNL A   1      40.065  28.156  28.314  1.00  0.00     0.049 A 
ATOM     34  N   UNL A   1      43.037  28.674  28.400  1.00  0.00    -0.248 NA
ATOM     35  C   UNL A   1      43.355  26.625  27.325  1.00  0.00     0.031 C 
ATOM     36  C   UNL A   1      38.617  27.943  28.333  1.00  0.00     0.029 A 
ATOM     37  N   UNL A   1      40.218  29.440  28.778  1.00  0.00    -0.354 N 
ATOM     38  C   UNL A   1      44.396  28.485  28.170  1.00  0.00     0.074 A 
ATOM     39  C   UNL A   1      44.536  27.186  27.543  1.00  0.00     0.031 C 
ATOM     40  C   UNL A   1      38.017  29.050  28.798  1.00  0.00     0.029 A 
ATOM     41  C   UNL A   1      39.037  30.026  29.170  1.00  0.00     0.049 A 
ATOM     42  H   UNL A   1      41.090  29.896  28.827  1.00  0.00     0.167 HD
ATOM     43  C   UNL A   1      45.430  29.317  28.453  1.00  0.00     0.034 A 
ATOM     44  C   UNL A   1      38.803  31.193  29.802  1.00  0.00     0.034 A 
ATOM     45  C   UNL A   1      45.275  30.609  29.080  1.00  0.00     0.049 A 
ATOM     46  C   UNL A   1      39.969  32.077  30.165  1.00  0.00     0.074 A 
ATOM     47  C   UNL A   1      46.252  31.529  29.419  1.00  0.00     0.029 A 
ATOM     48  N   UNL A   1      44.061  31.165  29.464  1.00  0.00    -0.354 N 
ATOM     49  N   UNL A   1      41.252  31.870  29.977  1.00  0.00    -0.248 NA
ATOM     50  C   UNL A   1      39.654  33.351  30.824  1.00  0.00     0.031 C 
ATOM     51  C   UNL A   1      45.635  32.616  30.052  1.00  0.00     0.029 A 
ATOM     52  C   UNL A   1      44.266  32.405  30.050  1.00  0.00     0.049 A 
ATOM     53  H   UNL A   1      43.181  30.740  29.338  1.00  0.00     0.167 HD
ATOM     54  C   UNL A   1      41.895  32.997  30.480  1.00  0.00     0.074 A 
ATOM     55  C   UNL A   1      40.859  33.887  30.962  1.00  0.00     0.031 C 
ATOM     56  C   UNL A   1      43.222  33.274  30.539  1.00  0.00     0.034 A 
BRANCH  43  57
ATOM     57  C   UNL A   1      46.820  28.829  28.128  1.00  0.00     0.023 A 
ATOM     58  C   UNL A   1      47.575  28.080  29.048  1.00  0.00     0.031 A 
ATOM     59  C   UNL A   1      47.412  29.141  26.891  1.00  0.00     0.131 A 
ATOM     60  C   UNL A   1      48.899  27.728  28.746  1.00  0.00     0.055 A 
ATOM     61  C   UNL A   1      48.704  28.723  26.566  1.00  0.00     0.041 A 
ATOM     62  F   UNL A   1      46.748  29.870  25.980  1.00  0.00    -0.206 F 
ATOM     63  C   UNL A   1      49.462  28.025  27.502  1.00  0.00     0.022 A 
BRANCH  60  64
ATOM     64  S   UNL A   1      49.920  26.994  30.053  1.00  0.00     0.124 S 
ATOM     65  O   UNL A   1      50.971  26.338  29.277  1.00  0.00    -0.237 OA
ATOM     66  O   UNL A   1      50.334  28.160  30.824  1.00  0.00    -0.237 OA
ATOM     67  O   UNL A   1      49.003  26.086  30.737  1.00  0.00    -0.744 OA
ENDBRANCH  60  64
ENDBRANCH  43  57
BRANCH  44  68
ATOM     68  C   UNL A   1      37.416  31.568  30.197  1.00  0.00     0.023 A 
ATOM     69  C   UNL A   1      36.521  32.125  29.271  1.00  0.00     0.031 A 
ATOM     70  C   UNL A   1      36.979  31.408  31.525  1.00  0.00     0.131 A 
ATOM     71  C   UNL A   1      35.248  32.539  29.694  1.00  0.00     0.055 A 
ATOM     72  C   UNL A   1      35.694  31.774  31.928  1.00  0.00     0.041 A 
ATOM     73  F   UNL A   1      37.796  30.880  32.450  1.00  0.00    -0.206 F 
ATOM     74  C   UNL A   1      34.823  32.354  31.012  1.00  0.00     0.022 A 
BRANCH  71  75
ATOM     75  S   UNL A   1      34.177  33.401  28.508  1.00  0.00     0.124 S 
ATOM     76  O   UNL A   1      33.510  32.286  27.845  1.00  0.00    -0.237 OA
ATOM     77  O   UNL A   1      33.346  34.214  29.390  1.00  0.00    -0.237 OA
ATOM     78  O   UNL A   1      35.121  34.147  27.679  1.00  0.00    -0.744 OA
ENDBRANCH  71  75
ENDBRANCH  44  68
BRANCH  56  79
ATOM     79  C   UNL A   1      43.612  34.616  31.105  1.00  0.00     0.023 A 
ATOM     80  C   UNL A   1      43.648  35.772  30.305  1.00  0.00     0.031 A 
ATOM     81  C   UNL A   1      43.976  34.731  32.458  1.00  0.00     0.131 A 
ATOM     82  C   UNL A   1      44.092  36.985  30.853  1.00  0.00     0.055 A 
ATOM     83  C   UNL A   1      44.368  35.952  33.010  1.00  0.00     0.041 A 
ATOM     84  F   UNL A   1      43.960  33.658  33.263  1.00  0.00    -0.206 F 
ATOM     85  C   UNL A   1      44.440  37.085  32.203  1.00  0.00     0.022 A 
BRANCH  82  86
ATOM     86  S   UNL A   1      44.288  38.417  29.758  1.00  0.00     0.124 S 
ATOM     87  O   UNL A   1      45.627  38.204  29.216  1.00  0.00    -0.237 OA
ATOM     88  O   UNL A   1      43.186  38.246  28.819  1.00  0.00    -0.237 OA
ATOM     89  O   UNL A   1      44.160  39.560  30.660  1.00  0.00    -0.744 OA
ENDBRANCH  82  86
ENDBRANCH  56  79
ENDBRANCH  30  31
ENDBRANCH  23  25
ENDBRANCH  22  23
ENDBRANCH  21  22
ENDBRANCH   1  21
TORSDOF 20
ENDMDL
MODEL 3
REMARK VINA RESULT:     -10.3      3.864      6.868
REMARK SMILES CCOc1ccccc1[C@@H](O)[C@@H](C)[C@@H](C)C(=O)OCCOC(=O)c1ccc(-c2c3nc(c(-c4cc(S(=O)(=O)[O-])ccc4F)c4ccc([nH]4)c(-c4cc(S(=O)(=O)[O-])ccc4F)c4nc(c(-c5cc(S(=O)(=O)[O-])ccc5F)c5ccc2[nH]5)C=C4)C=C3)cc1
REMARK SMILES IDX 19 1 18 2 16 3 17 4 14 5 15 6 12 7 13 8 10 9 9 10 4 11 5 12
REMARK SMILES IDX 6 13 8 14 7 15 3 16 2 17 1 18 11 19 20 21 21 22 22 23 23 24
REMARK SMILES IDX 24 25 25 26 86 27 26 28 85 29 27 30 28 31 29 32 79 33 30 34
REMARK SMILES IDX 84 35 78 36 80 37 31 38 83 39 77 40 76 41 32 43 64 44 44 45
REMARK SMILES IDX 63 46 45 47 48 48 62 49 81 50 46 51 47 52 61 54 82 55 49 56
REMARK SMILES IDX 33 57 34 58 42 59 35 60 41 61 43 62 40 63 36 64 37 65 38 66
REMARK SMILES IDX 39 67 65 68 66 69 74 70 67 71 73 72 75 73 72 74 68 75 69 76
REMARK SMILES IDX 70 77 71 78 50 79 51 80 59 81 52 82 58 83 60 84 57 85 53 86
REMARK SMILES IDX 54 87 55 88 56 89
REMARK H PARENT 11 20 80 42 48 53
REMARK Flexibility Score: inf
ROOT
ATOM      1  C   UNL A   1      42.110  19.194  26.438  1.00  0.00     0.274 C 
ENDROOT
BRANCH   1   2
ATOM      2  O   UNL A   1      42.715  19.342  25.139  1.00  0.00    -0.462 OA
BRANCH   2   3
ATOM      3  C   UNL A   1      44.048  19.079  25.096  1.00  0.00     0.309 C 
ATOM      4  O   UNL A   1      44.565  18.049  25.515  1.00  0.00    -0.252 OA
BRANCH   3   5
ATOM      5  C   UNL A   1      44.876  20.212  24.510  1.00  0.00     0.102 C 
ATOM      6  C   UNL A   1      46.228  20.168  25.225  1.00  0.00     0.020 C 
BRANCH   5   7
ATOM      7  C   UNL A   1      44.193  21.618  24.471  1.00  0.00     0.033 C 
ATOM      8  C   UNL A   1      44.478  22.297  23.115  1.00  0.00     0.011 C 
BRANCH   7   9
ATOM      9  C   UNL A   1      44.673  22.496  25.667  1.00  0.00     0.152 C 
BRANCH   9  10
ATOM     10  C   UNL A   1      44.517  23.992  25.492  1.00  0.00     0.023 A 
ATOM     11  C   UNL A   1      45.640  24.832  25.422  1.00  0.00     0.125 A 
ATOM     12  C   UNL A   1      45.498  26.206  25.225  1.00  0.00     0.047 A 
ATOM     13  C   UNL A   1      44.224  26.757  25.083  1.00  0.00     0.004 A 
ATOM     14  C   UNL A   1      43.242  24.566  25.362  1.00  0.00     0.010 A 
ATOM     15  C   UNL A   1      43.097  25.939  25.157  1.00  0.00     0.001 A 
BRANCH  11  16
ATOM     16  O   UNL A   1      46.877  24.296  25.653  1.00  0.00    -0.493 OA
BRANCH  16  17
ATOM     17  C   UNL A   1      47.540  24.894  26.775  1.00  0.00     0.226 C 
ATOM     18  C   UNL A   1      48.811  25.543  26.254  1.00  0.00     0.049 C 
ENDBRANCH  16  17
ENDBRANCH  11  16
ENDBRANCH   9  10
BRANCH   9  19
ATOM     19  O   UNL A   1      43.933  22.137  26.841  1.00  0.00    -0.388 OA
ATOM     20  H   UNL A   1      43.827  22.916  27.408  1.00  0.00     0.211 HD
ENDBRANCH   9  19
ENDBRANCH   7   9
ENDBRANCH   5   7
ENDBRANCH   3   5
ENDBRANCH   2   3
ENDBRANCH   1   2
BRANCH   1  21
ATOM     21  C   UNL A   1      40.777  19.939  26.506  1.00  0.00     0.275 C 
BRANCH  21  22
ATOM     22  O   UNL A   1      40.992  21.302  26.911  1.00  0.00    -0.458 OA
BRANCH  22  23
ATOM     23  C   UNL A   1      39.964  22.149  26.692  1.00  0.00     0.338 C 
ATOM     24  O   UNL A   1      38.937  21.911  26.071  1.00  0.00    -0.246 OA
BRANCH  23  25
ATOM     25  C   UNL A   1      40.267  23.470  27.271  1.00  0.00     0.060 A 
ATOM     26  C   UNL A   1      39.655  24.633  26.795  1.00  0.00     0.016 A 
ATOM     27  C   UNL A   1      41.247  23.549  28.262  1.00  0.00     0.016 A 
ATOM     28  C   UNL A   1      40.051  25.882  27.282  1.00  0.00     0.010 A 
ATOM     29  C   UNL A   1      41.602  24.793  28.786  1.00  0.00     0.010 A 
ATOM     30  C   UNL A   1      41.027  25.974  28.286  1.00  0.00    -0.014 A 
BRANCH  30  31
ATOM     31  C   UNL A   1      41.490  27.289  28.804  1.00  0.00     0.031 A 
ATOM     32  C   UNL A   1      40.479  28.318  29.235  1.00  0.00     0.074 A 
ATOM     33  C   UNL A   1      42.804  27.583  28.841  1.00  0.00     0.049 A 
ATOM     34  N   UNL A   1      40.649  29.585  29.518  1.00  0.00    -0.248 NA
ATOM     35  C   UNL A   1      39.087  27.857  29.349  1.00  0.00     0.031 C 
ATOM     36  C   UNL A   1      43.886  26.665  28.483  1.00  0.00     0.029 A 
ATOM     37  N   UNL A   1      43.452  28.747  29.175  1.00  0.00    -0.354 N 
ATOM     38  C   UNL A   1      39.385  30.081  29.819  1.00  0.00     0.074 A 
ATOM     39  C   UNL A   1      38.456  28.980  29.657  1.00  0.00     0.031 C 
ATOM     40  C   UNL A   1      45.060  27.304  28.602  1.00  0.00     0.029 A 
ATOM     41  C   UNL A   1      44.813  28.692  28.983  1.00  0.00     0.049 A 
ATOM     42  H   UNL A   1      42.987  29.545  29.519  1.00  0.00     0.167 HD
ATOM     43  C   UNL A   1      39.032  31.336  30.197  1.00  0.00     0.034 A 
ATOM     44  C   UNL A   1      45.750  29.658  29.054  1.00  0.00     0.034 A 
ATOM     45  C   UNL A   1      39.970  32.423  30.353  1.00  0.00     0.049 A 
ATOM     46  C   UNL A   1      45.331  31.060  29.414  1.00  0.00     0.074 A 
ATOM     47  C   UNL A   1      39.721  33.733  30.723  1.00  0.00     0.029 A 
ATOM     48  N   UNL A   1      41.340  32.326  30.145  1.00  0.00    -0.354 N 
ATOM     49  N   UNL A   1      44.128  31.525  29.660  1.00  0.00    -0.248 NA
ATOM     50  C   UNL A   1      46.397  32.066  29.508  1.00  0.00     0.031 C 
ATOM     51  C   UNL A   1      40.931  34.440  30.690  1.00  0.00     0.029 A 
ATOM     52  C   UNL A   1      41.946  33.555  30.362  1.00  0.00     0.049 A 
ATOM     53  H   UNL A   1      41.813  31.504  29.881  1.00  0.00     0.167 HD
ATOM     54  C   UNL A   1      44.297  32.875  29.954  1.00  0.00     0.074 A 
ATOM     55  C   UNL A   1      45.718  33.144  29.873  1.00  0.00     0.031 C 
ATOM     56  C   UNL A   1      43.363  33.810  30.264  1.00  0.00     0.034 A 
BRANCH  43  57
ATOM     57  C   UNL A   1      37.564  31.604  30.421  1.00  0.00     0.023 A 
ATOM     58  C   UNL A   1      36.719  32.011  29.374  1.00  0.00     0.031 A 
ATOM     59  C   UNL A   1      37.006  31.479  31.706  1.00  0.00     0.131 A 
ATOM     60  C   UNL A   1      35.382  32.344  29.641  1.00  0.00     0.055 A 
ATOM     61  C   UNL A   1      35.657  31.740  31.952  1.00  0.00     0.041 A 
ATOM     62  F   UNL A   1      37.768  31.113  32.749  1.00  0.00    -0.206 F 
ATOM     63  C   UNL A   1      34.839  32.190  30.919  1.00  0.00     0.022 A 
BRANCH  60  64
ATOM     64  S   UNL A   1      34.400  33.110  28.323  1.00  0.00     0.124 S 
ATOM     65  O   UNL A   1      33.570  34.048  29.077  1.00  0.00    -0.237 OA
ATOM     66  O   UNL A   1      35.422  33.707  27.472  1.00  0.00    -0.237 OA
ATOM     67  O   UNL A   1      33.677  31.985  27.735  1.00  0.00    -0.744 OA
ENDBRANCH  60  64
ENDBRANCH  43  57
BRANCH  44  68
ATOM     68  C   UNL A   1      47.169  29.354  28.712  1.00  0.00     0.023 A 
ATOM     69  C   UNL A   1      48.102  29.025  29.705  1.00  0.00     0.031 A 
ATOM     70  C   UNL A   1      47.618  29.429  27.380  1.00  0.00     0.131 A 
ATOM     71  C   UNL A   1      49.447  28.821  29.359  1.00  0.00     0.055 A 
ATOM     72  C   UNL A   1      48.946  29.175  27.035  1.00  0.00     0.041 A 
ATOM     73  F   UNL A   1      46.765  29.740  26.391  1.00  0.00    -0.206 F 
ATOM     74  C   UNL A   1      49.873  28.880  28.029  1.00  0.00     0.022 A 
BRANCH  71  75
ATOM     75  S   UNL A   1      50.656  28.556  30.687  1.00  0.00     0.124 S 
ATOM     76  O   UNL A   1      50.338  27.197  31.111  1.00  0.00    -0.237 OA
ATOM     77  O   UNL A   1      51.921  28.729  29.981  1.00  0.00    -0.237 OA
ATOM     78  O   UNL A   1      50.334  29.604  31.653  1.00  0.00    -0.744 OA
ENDBRANCH  71  75
ENDBRANCH  44  68
BRANCH  56  79
ATOM     79  C   UNL A   1      43.867  35.195  30.582  1.00  0.00     0.023 A 
ATOM     80  C   UNL A   1      44.126  35.600  31.903  1.00  0.00     0.031 A 
ATOM     81  C   UNL A   1      44.065  36.127  29.549  1.00  0.00     0.131 A 
ATOM     82  C   UNL A   1      44.519  36.922  32.162  1.00  0.00     0.055 A 
ATOM     83  C   UNL A   1      44.505  37.426  29.809  1.00  0.00     0.041 A 
ATOM     84  F   UNL A   1      43.831  35.791  28.271  1.00  0.00    -0.206 F 
ATOM     85  C   UNL A   1      44.722  37.833  31.123  1.00  0.00     0.022 A 
BRANCH  82  86
ATOM     86  S   UNL A   1      44.682  37.461  33.887  1.00  0.00     0.124 S 
ATOM     87  O   UNL A   1      43.833  38.648  33.915  1.00  0.00    -0.237 OA
ATOM     88  O   UNL A   1      44.186  36.305  34.624  1.00  0.00    -0.237 OA
ATOM     89  O   UNL A   1      46.113  37.720  34.032  1.00  0.00    -0.744 OA
ENDBRANCH  82  86
ENDBRANCH  56  79
ENDBRANCH  30  31
ENDBRANCH  23  25
ENDBRANCH  22  23
ENDBRANCH  21  22
ENDBRANCH   1  21
TORSDOF 20
ENDMDL
