MODEL 1
REMARK VINA RESULT:     -11.7      0.000      0.000
REMARK SMILES O=C(C[C@H]1CC[C@@H](C(=O)OCCOC(=O)c2ccc(-c3c4nc(c(-c5cc(S(=O)(=O)[O-])ccc5F)c5ccc([nH]5)c(-c5cc(S(=O)(=O)[O-])ccc5F)c5nc(c(-c6cc(S(=O)(=O)[O-])ccc6F)c6ccc3[nH]6)C=C5)C=C4)cc2)C1)c1ccc(Cl)cc1
REMARK SMILES IDX 11 1 10 2 8 3 9 4 7 5 4 6 5 7 79 8 6 9 3 10 2 11 1 12 80 13
REMARK SMILES IDX 81 14 86 15 82 16 85 17 83 18 84 19 12 20 13 21 14 22 15 23
REMARK SMILES IDX 16 24 17 25 78 26 18 27 77 28 19 29 20 30 21 31 71 32 22 33
REMARK SMILES IDX 76 34 70 35 72 36 23 37 75 38 69 39 68 40 24 42 56 43 36 44
REMARK SMILES IDX 55 45 37 46 40 47 54 48 73 49 38 50 39 51 53 53 74 54 41 55
REMARK SMILES IDX 25 56 26 57 34 58 27 59 33 60 35 61 32 62 28 63 29 64 30 65
REMARK SMILES IDX 31 66 57 67 58 68 66 69 59 70 65 71 67 72 64 73 60 74 61 75
REMARK SMILES IDX 62 76 63 77 42 78 43 79 51 80 44 81 50 82 52 83 49 84 45 85
REMARK SMILES IDX 46 86 47 87 48 88
REMARK H PARENT 72 41 40 52
REMARK Flexibility Score: inf
ROOT
ATOM      1  C   UNL A   1      35.571  22.069  25.759  1.00  0.00     0.274 C 
ENDROOT
BRANCH   1   2
ATOM      2  O   UNL A   1      34.280  21.504  26.067  1.00  0.00    -0.462 OA
BRANCH   2   3
ATOM      3  C   UNL A   1      33.144  22.253  26.152  1.00  0.00     0.309 C 
ATOM      4  O   UNL A   1      33.003  23.214  26.892  1.00  0.00    -0.252 OA
BRANCH   3   5
ATOM      5  C   UNL A   1      32.075  21.766  25.151  1.00  0.00     0.099 C 
ATOM      6  C   UNL A   1      32.130  23.218  23.227  1.00  0.00    -0.003 C 
ATOM      7  C   UNL A   1      32.257  21.805  22.687  1.00  0.00     0.005 C 
ATOM      8  C   UNL A   1      31.339  22.940  24.519  1.00  0.00     0.019 C 
ATOM      9  C   UNL A   1      32.509  20.939  23.927  1.00  0.00     0.015 C 
BRANCH   6  10
ATOM     10  C   UNL A   1      33.474  24.008  23.336  1.00  0.00     0.084 C 
BRANCH  10  11
ATOM     11  C   UNL A   1      33.651  25.527  23.020  1.00  0.00     0.163 C 
ATOM     12  O   UNL A   1      33.886  25.906  21.871  1.00  0.00    -0.294 OA
BRANCH  11  13
ATOM     13  C   UNL A   1      33.410  26.614  24.021  1.00  0.00     0.018 A 
ATOM     14  C   UNL A   1      33.101  26.296  25.346  1.00  0.00     0.013 A 
ATOM     15  C   UNL A   1      33.625  27.959  23.705  1.00  0.00     0.013 A 
ATOM     16  C   UNL A   1      32.713  27.294  26.255  1.00  0.00     0.021 A 
ATOM     17  C   UNL A   1      33.297  28.969  24.631  1.00  0.00     0.021 A 
ATOM     18  C   UNL A   1      32.775  28.629  25.878  1.00  0.00     0.041 A 
ATOM     19  Cl  UNL A   1      32.211  29.858  26.943  1.00  0.00    -0.084 Cl
ENDBRANCH  11  13
ENDBRANCH  10  11
ENDBRANCH   6  10
ENDBRANCH   3   5
ENDBRANCH   2   3
ENDBRANCH   1   2
BRANCH   1  20
ATOM     20  C   UNL A   1      36.564  21.005  25.303  1.00  0.00     0.275 C 
BRANCH  20  21
ATOM     21  O   UNL A   1      37.811  21.631  25.004  1.00  0.00    -0.458 OA
BRANCH  21  22
ATOM     22  C   UNL A   1      38.830  21.172  25.772  1.00  0.00     0.338 C 
ATOM     23  O   UNL A   1      39.344  20.075  25.736  1.00  0.00    -0.246 OA
BRANCH  22  24
ATOM     24  C   UNL A   1      39.405  22.330  26.466  1.00  0.00     0.060 A 
ATOM     25  C   UNL A   1      38.906  23.585  26.114  1.00  0.00     0.016 A 
ATOM     26  C   UNL A   1      40.407  22.196  27.423  1.00  0.00     0.016 A 
ATOM     27  C   UNL A   1      39.396  24.729  26.711  1.00  0.00     0.010 A 
ATOM     28  C   UNL A   1      40.951  23.347  27.983  1.00  0.00     0.010 A 
ATOM     29  C   UNL A   1      40.464  24.610  27.599  1.00  0.00    -0.014 A 
BRANCH  29  30
ATOM     30  C   UNL A   1      41.244  25.822  27.893  1.00  0.00     0.031 A 
ATOM     31  C   UNL A   1      40.558  26.905  28.669  1.00  0.00     0.074 A 
ATOM     32  C   UNL A   1      42.534  25.900  27.537  1.00  0.00     0.049 A 
ATOM     33  N   UNL A   1      40.981  28.100  28.977  1.00  0.00    -0.248 NA
ATOM     34  C   UNL A   1      39.204  26.596  29.163  1.00  0.00     0.031 C 
ATOM     35  C   UNL A   1      43.295  24.838  26.879  1.00  0.00     0.029 A 
ATOM     36  N   UNL A   1      43.428  26.924  27.680  1.00  0.00    -0.354 N 
ATOM     37  C   UNL A   1      39.938  28.693  29.682  1.00  0.00     0.074 A 
ATOM     38  C   UNL A   1      38.856  27.736  29.734  1.00  0.00     0.031 C 
ATOM     39  C   UNL A   1      44.544  25.278  26.656  1.00  0.00     0.029 A 
ATOM     40  C   UNL A   1      44.648  26.664  27.106  1.00  0.00     0.049 A 
ATOM     41  H   UNL A   1      43.218  27.764  28.148  1.00  0.00     0.167 HD
ATOM     42  C   UNL A   1      39.901  29.929  30.232  1.00  0.00     0.034 A 
ATOM     43  C   UNL A   1      45.704  27.480  26.935  1.00  0.00     0.034 A 
ATOM     44  C   UNL A   1      41.001  30.856  30.137  1.00  0.00     0.049 A 
ATOM     45  C   UNL A   1      45.600  28.891  27.462  1.00  0.00     0.074 A 
ATOM     46  C   UNL A   1      41.087  32.147  30.620  1.00  0.00     0.029 A 
ATOM     47  N   UNL A   1      42.209  30.585  29.503  1.00  0.00    -0.354 N 
ATOM     48  N   UNL A   1      44.599  29.470  28.092  1.00  0.00    -0.248 NA
ATOM     49  C   UNL A   1      46.767  29.756  27.263  1.00  0.00     0.031 C 
ATOM     50  C   UNL A   1      42.313  32.682  30.211  1.00  0.00     0.029 A 
ATOM     51  C   UNL A   1      43.035  31.695  29.556  1.00  0.00     0.049 A 
ATOM     52  H   UNL A   1      42.443  29.728  29.077  1.00  0.00     0.167 HD
ATOM     53  C   UNL A   1      45.035  30.757  28.397  1.00  0.00     0.074 A 
ATOM     54  C   UNL A   1      46.392  30.858  27.895  1.00  0.00     0.031 C 
ATOM     55  C   UNL A   1      44.383  31.763  29.037  1.00  0.00     0.034 A 
BRANCH  42  56
ATOM     56  C   UNL A   1      38.613  30.353  30.893  1.00  0.00     0.023 A 
ATOM     57  C   UNL A   1      37.573  30.971  30.176  1.00  0.00     0.031 A 
ATOM     58  C   UNL A   1      38.448  30.193  32.280  1.00  0.00     0.131 A 
ATOM     59  C   UNL A   1      36.453  31.472  30.857  1.00  0.00     0.055 A 
ATOM     60  C   UNL A   1      37.291  30.616  32.940  1.00  0.00     0.041 A 
ATOM     61  F   UNL A   1      39.420  29.643  33.026  1.00  0.00    -0.206 F 
ATOM     62  C   UNL A   1      36.292  31.274  32.230  1.00  0.00     0.022 A 
BRANCH  59  63
ATOM     63  S   UNL A   1      35.284  32.525  29.952  1.00  0.00     0.124 S 
ATOM     64  O   UNL A   1      34.312  32.849  30.994  1.00  0.00    -0.237 OA
ATOM     65  O   UNL A   1      36.130  33.624  29.503  1.00  0.00    -0.237 OA
ATOM     66  O   UNL A   1      34.782  31.650  28.894  1.00  0.00    -0.744 OA
ENDBRANCH  59  63
ENDBRANCH  42  56
BRANCH  43  67
ATOM     67  C   UNL A   1      46.915  27.012  26.204  1.00  0.00     0.023 A 
ATOM     68  C   UNL A   1      47.959  26.356  26.873  1.00  0.00     0.031 A 
ATOM     69  C   UNL A   1      47.069  27.259  24.826  1.00  0.00     0.131 A 
ATOM     70  C   UNL A   1      49.130  26.015  26.178  1.00  0.00     0.055 A 
ATOM     71  C   UNL A   1      48.210  26.862  24.127  1.00  0.00     0.041 A 
ATOM     72  F   UNL A   1      46.104  27.887  24.135  1.00  0.00    -0.206 F 
ATOM     73  C   UNL A   1      49.256  26.248  24.808  1.00  0.00     0.022 A 
BRANCH  70  74
ATOM     74  S   UNL A   1      50.531  25.349  27.118  1.00  0.00     0.124 S 
ATOM     75  O   UNL A   1      51.436  24.940  26.050  1.00  0.00    -0.237 OA
ATOM     76  O   UNL A   1      50.946  26.507  27.903  1.00  0.00    -0.237 OA
ATOM     77  O   UNL A   1      49.937  24.258  27.887  1.00  0.00    -0.744 OA
ENDBRANCH  70  74
ENDBRANCH  43  67
BRANCH  55  78
ATOM     78  C   UNL A   1      45.163  33.033  29.276  1.00  0.00     0.023 A 
ATOM     79  C   UNL A   1      45.230  34.056  28.316  1.00  0.00     0.031 A 
ATOM     80  C   UNL A   1      45.869  33.208  30.481  1.00  0.00     0.131 A 
ATOM     81  C   UNL A   1      46.049  35.172  28.542  1.00  0.00     0.055 A 
ATOM     82  C   UNL A   1      46.617  34.358  30.734  1.00  0.00     0.041 A 
ATOM     83  F   UNL A   1      45.842  32.262  31.434  1.00  0.00    -0.206 F 
ATOM     84  C   UNL A   1      46.725  35.339  29.754  1.00  0.00     0.022 A 
BRANCH  81  85
ATOM     85  S   UNL A   1      46.320  36.338  27.181  1.00  0.00     0.124 S 
ATOM     86  O   UNL A   1      47.775  36.454  27.170  1.00  0.00    -0.237 OA
ATOM     87  O   UNL A   1      45.727  35.637  26.047  1.00  0.00    -0.237 OA
ATOM     88  O   UNL A   1      45.606  37.538  27.611  1.00  0.00    -0.744 OA
ENDBRANCH  81  85
ENDBRANCH  55  78
ENDBRANCH  29  30
ENDBRANCH  22  24
ENDBRANCH  21  22
ENDBRANCH  20  21
ENDBRANCH   1  20
TORSDOF 17
ENDMDL
MODEL 2
REMARK VINA RESULT:     -11.6      1.971      8.578
REMARK SMILES O=C(C[C@H]1CC[C@@H](C(=O)OCCOC(=O)c2ccc(-c3c4nc(c(-c5cc(S(=O)(=O)[O-])ccc5F)c5ccc([nH]5)c(-c5cc(S(=O)(=O)[O-])ccc5F)c5nc(c(-c6cc(S(=O)(=O)[O-])ccc6F)c6ccc3[nH]6)C=C5)C=C4)cc2)C1)c1ccc(Cl)cc1
REMARK SMILES IDX 11 1 10 2 8 3 9 4 7 5 4 6 5 7 79 8 6 9 3 10 2 11 1 12 80 13
REMARK SMILES IDX 81 14 86 15 82 16 85 17 83 18 84 19 12 20 13 21 14 22 15 23
REMARK SMILES IDX 16 24 17 25 78 26 18 27 77 28 19 29 20 30 21 31 71 32 22 33
REMARK SMILES IDX 76 34 70 35 72 36 23 37 75 38 69 39 68 40 24 42 56 43 36 44
REMARK SMILES IDX 55 45 37 46 40 47 54 48 73 49 38 50 39 51 53 53 74 54 41 55
REMARK SMILES IDX 25 56 26 57 34 58 27 59 33 60 35 61 32 62 28 63 29 64 30 65
REMARK SMILES IDX 31 66 57 67 58 68 66 69 59 70 65 71 67 72 64 73 60 74 61 75
REMARK SMILES IDX 62 76 63 77 42 78 43 79 51 80 44 81 50 82 52 83 49 84 45 85
REMARK SMILES IDX 46 86 47 87 48 88
REMARK H PARENT 72 41 40 52
REMARK Flexibility Score: inf
ROOT
ATOM      1  C   UNL A   1      36.283  20.625  25.012  1.00  0.00     0.274 C 
ENDROOT
BRANCH   1   2
ATOM      2  O   UNL A   1      36.240  22.061  25.135  1.00  0.00    -0.462 OA
BRANCH   2   3
ATOM      3  C   UNL A   1      35.271  22.716  25.836  1.00  0.00     0.309 C 
ATOM      4  O   UNL A   1      34.781  22.313  26.879  1.00  0.00    -0.252 OA
BRANCH   3   5
ATOM      5  C   UNL A   1      34.911  24.062  25.172  1.00  0.00     0.099 C 
ATOM      6  C   UNL A   1      32.944  23.730  23.818  1.00  0.00    -0.003 C 
ATOM      7  C   UNL A   1      32.632  24.905  24.725  1.00  0.00     0.005 C 
ATOM      8  C   UNL A   1      34.477  23.863  23.727  1.00  0.00     0.019 C 
ATOM      9  C   UNL A   1      33.767  24.909  25.757  1.00  0.00     0.015 C 
BRANCH   6  10
ATOM     10  C   UNL A   1      32.346  22.361  24.277  1.00  0.00     0.084 C 
BRANCH  10  11
ATOM     11  C   UNL A   1      32.248  21.081  23.389  1.00  0.00     0.163 C 
ATOM     12  O   UNL A   1      32.041  21.170  22.178  1.00  0.00    -0.294 OA
BRANCH  11  13
ATOM     13  C   UNL A   1      32.537  19.701  23.894  1.00  0.00     0.018 A 
ATOM     14  C   UNL A   1      32.760  18.654  22.994  1.00  0.00     0.013 A 
ATOM     15  C   UNL A   1      32.735  19.445  25.254  1.00  0.00     0.013 A 
ATOM     16  C   UNL A   1      32.870  17.328  23.444  1.00  0.00     0.021 A 
ATOM     17  C   UNL A   1      32.906  18.124  25.713  1.00  0.00     0.021 A 
ATOM     18  C   UNL A   1      32.902  17.065  24.807  1.00  0.00     0.041 A 
ATOM     19  Cl  UNL A   1      32.937  15.441  25.376  1.00  0.00    -0.084 Cl
ENDBRANCH  11  13
ENDBRANCH  10  11
ENDBRANCH   6  10
ENDBRANCH   3   5
ENDBRANCH   2   3
ENDBRANCH   1   2
BRANCH   1  20
ATOM     20  C   UNL A   1      37.712  20.093  25.045  1.00  0.00     0.275 C 
BRANCH  20  21
ATOM     21  O   UNL A   1      38.611  21.186  25.232  1.00  0.00    -0.458 OA
BRANCH  21  22
ATOM     22  C   UNL A   1      39.595  20.915  26.124  1.00  0.00     0.338 C 
ATOM     23  O   UNL A   1      40.228  19.887  26.233  1.00  0.00    -0.246 OA
BRANCH  22  24
ATOM     24  C   UNL A   1      39.968  22.185  26.758  1.00  0.00     0.060 A 
ATOM     25  C   UNL A   1      39.239  23.314  26.379  1.00  0.00     0.016 A 
ATOM     26  C   UNL A   1      41.002  22.273  27.684  1.00  0.00     0.016 A 
ATOM     27  C   UNL A   1      39.529  24.551  26.918  1.00  0.00     0.010 A 
ATOM     28  C   UNL A   1      41.343  23.525  28.184  1.00  0.00     0.010 A 
ATOM     29  C   UNL A   1      40.624  24.663  27.773  1.00  0.00    -0.014 A 
BRANCH  29  30
ATOM     30  C   UNL A   1      41.178  26.006  27.998  1.00  0.00     0.031 A 
ATOM     31  C   UNL A   1      42.555  26.275  27.471  1.00  0.00     0.074 A 
ATOM     32  C   UNL A   1      40.436  26.956  28.584  1.00  0.00     0.049 A 
ATOM     33  N   UNL A   1      43.307  27.331  27.613  1.00  0.00    -0.248 NA
ATOM     34  C   UNL A   1      43.170  25.197  26.675  1.00  0.00     0.031 C 
ATOM     35  C   UNL A   1      39.049  26.796  29.020  1.00  0.00     0.029 A 
ATOM     36  N   UNL A   1      40.752  28.244  28.914  1.00  0.00    -0.354 N 
ATOM     37  C   UNL A   1      44.490  27.038  26.943  1.00  0.00     0.074 A 
ATOM     38  C   UNL A   1      44.366  25.698  26.418  1.00  0.00     0.031 C 
ATOM     39  C   UNL A   1      38.639  27.945  29.582  1.00  0.00     0.029 A 
ATOM     40  C   UNL A   1      39.749  28.894  29.591  1.00  0.00     0.049 A 
ATOM     41  H   UNL A   1      41.614  28.665  28.688  1.00  0.00     0.167 HD
ATOM     42  C   UNL A   1      45.578  27.828  26.789  1.00  0.00     0.034 A 
ATOM     43  C   UNL A   1      39.761  30.103  30.182  1.00  0.00     0.034 A 
ATOM     44  C   UNL A   1      45.663  29.153  27.349  1.00  0.00     0.049 A 
ATOM     45  C   UNL A   1      41.024  30.924  30.090  1.00  0.00     0.074 A 
ATOM     46  C   UNL A   1      46.713  30.049  27.297  1.00  0.00     0.029 A 
ATOM     47  N   UNL A   1      44.650  29.768  28.078  1.00  0.00    -0.354 N 
ATOM     48  N   UNL A   1      42.161  30.633  29.494  1.00  0.00    -0.248 NA
ATOM     49  C   UNL A   1      41.005  32.237  30.742  1.00  0.00     0.031 C 
ATOM     50  C   UNL A   1      46.366  31.170  28.057  1.00  0.00     0.029 A 
ATOM     51  C   UNL A   1      45.062  31.019  28.506  1.00  0.00     0.049 A 
ATOM     52  H   UNL A   1      43.767  29.371  28.264  1.00  0.00     0.167 HD
ATOM     53  C   UNL A   1      42.978  31.746  29.668  1.00  0.00     0.074 A 
ATOM     54  C   UNL A   1      42.195  32.715  30.411  1.00  0.00     0.031 C 
ATOM     55  C   UNL A   1      44.254  31.958  29.252  1.00  0.00     0.034 A 
BRANCH  42  56
ATOM     56  C   UNL A   1      46.764  27.238  26.066  1.00  0.00     0.023 A 
ATOM     57  C   UNL A   1      47.806  26.585  26.749  1.00  0.00     0.031 A 
ATOM     58  C   UNL A   1      46.887  27.390  24.674  1.00  0.00     0.131 A 
ATOM     59  C   UNL A   1      48.952  26.174  26.051  1.00  0.00     0.055 A 
ATOM     60  C   UNL A   1      47.991  26.901  23.972  1.00  0.00     0.041 A 
ATOM     61  F   UNL A   1      45.944  28.037  23.971  1.00  0.00    -0.206 F 
ATOM     62  C   UNL A   1      49.040  26.303  24.664  1.00  0.00     0.022 A 
BRANCH  59  63
ATOM     63  S   UNL A   1      50.395  25.615  27.001  1.00  0.00     0.124 S 
ATOM     64  O   UNL A   1      50.660  26.776  27.846  1.00  0.00    -0.237 OA
ATOM     65  O   UNL A   1      49.884  24.431  27.683  1.00  0.00    -0.237 OA
ATOM     66  O   UNL A   1      51.402  25.357  25.973  1.00  0.00    -0.744 OA
ENDBRANCH  59  63
ENDBRANCH  42  56
BRANCH  43  67
ATOM     67  C   UNL A   1      38.574  30.586  30.944  1.00  0.00     0.023 A 
ATOM     68  C   UNL A   1      37.516  31.242  30.299  1.00  0.00     0.031 A 
ATOM     69  C   UNL A   1      38.504  30.442  32.343  1.00  0.00     0.131 A 
ATOM     70  C   UNL A   1      36.458  31.773  31.054  1.00  0.00     0.055 A 
ATOM     71  C   UNL A   1      37.421  30.918  33.082  1.00  0.00     0.041 A 
ATOM     72  F   UNL A   1      39.492  29.827  33.014  1.00  0.00    -0.206 F 
ATOM     73  C   UNL A   1      36.395  31.603  32.438  1.00  0.00     0.022 A 
BRANCH  70  74
ATOM     74  S   UNL A   1      35.212  32.783  30.206  1.00  0.00     0.124 S 
ATOM     75  O   UNL A   1      34.813  31.904  29.113  1.00  0.00    -0.237 OA
ATOM     76  O   UNL A   1      34.222  32.988  31.259  1.00  0.00    -0.237 OA
ATOM     77  O   UNL A   1      35.954  33.978  29.810  1.00  0.00    -0.744 OA
ENDBRANCH  70  74
ENDBRANCH  43  67
BRANCH  55  78
ATOM     78  C   UNL A   1      44.848  33.315  29.545  1.00  0.00     0.023 A 
ATOM     79  C   UNL A   1      44.619  34.422  28.712  1.00  0.00     0.031 A 
ATOM     80  C   UNL A   1      45.678  33.491  30.668  1.00  0.00     0.131 A 
ATOM     81  C   UNL A   1      45.273  35.636  28.970  1.00  0.00     0.055 A 
ATOM     82  C   UNL A   1      46.262  34.722  30.964  1.00  0.00     0.041 A 
ATOM     83  F   UNL A   1      45.934  32.467  31.497  1.00  0.00    -0.206 F 
ATOM     84  C   UNL A   1      46.076  35.799  30.102  1.00  0.00     0.022 A 
BRANCH  81  85
ATOM     85  S   UNL A   1      45.165  36.958  27.734  1.00  0.00     0.124 S 
ATOM     86  O   UNL A   1      45.051  38.146  28.574  1.00  0.00    -0.237 OA
ATOM     87  O   UNL A   1      46.422  36.809  27.007  1.00  0.00    -0.237 OA
ATOM     88  O   UNL A   1      43.964  36.618  26.973  1.00  0.00    -0.744 OA
ENDBRANCH  81  85
ENDBRANCH  55  78
ENDBRANCH  29  30
ENDBRANCH  22  24
ENDBRANCH  21  22
ENDBRANCH  20  21
ENDBRANCH   1  20
TORSDOF 17
ENDMDL
MODEL 3
REMARK VINA RESULT:     -11.5      1.880      3.198
REMARK SMILES O=C(C[C@H]1CC[C@@H](C(=O)OCCOC(=O)c2ccc(-c3c4nc(c(-c5cc(S(=O)(=O)[O-])ccc5F)c5ccc([nH]5)c(-c5cc(S(=O)(=O)[O-])ccc5F)c5nc(c(-c6cc(S(=O)(=O)[O-])ccc6F)c6ccc3[nH]6)C=C5)C=C4)cc2)C1)c1ccc(Cl)cc1
REMARK SMILES IDX 11 1 10 2 8 3 9 4 7 5 4 6 5 7 79 8 6 9 3 10 2 11 1 12 80 13
REMARK SMILES IDX 81 14 86 15 82 16 85 17 83 18 84 19 12 20 13 21 14 22 15 23
REMARK SMILES IDX 16 24 17 25 78 26 18 27 77 28 19 29 20 30 21 31 71 32 22 33
REMARK SMILES IDX 76 34 70 35 72 36 23 37 75 38 69 39 68 40 24 42 56 43 36 44
REMARK SMILES IDX 55 45 37 46 40 47 54 48 73 49 38 50 39 51 53 53 74 54 41 55
REMARK SMILES IDX 25 56 26 57 34 58 27 59 33 60 35 61 32 62 28 63 29 64 30 65
REMARK SMILES IDX 31 66 57 67 58 68 66 69 59 70 65 71 67 72 64 73 60 74 61 75
REMARK SMILES IDX 62 76 63 77 42 78 43 79 51 80 44 81 50 82 52 83 49 84 45 85
REMARK SMILES IDX 46 86 47 87 48 88
REMARK H PARENT 72 41 40 52
REMARK Flexibility Score: inf
ROOT
ATOM      1  C   UNL A   1      35.933  20.928  24.778  1.00  0.00     0.274 C 
ENDROOT
BRANCH   1   2
ATOM      2  O   UNL A   1      35.900  22.340  25.068  1.00  0.00    -0.462 OA
BRANCH   2   3
ATOM      3  C   UNL A   1      34.961  22.909  25.876  1.00  0.00     0.309 C 
ATOM      4  O   UNL A   1      34.518  22.392  26.890  1.00  0.00    -0.252 OA
BRANCH   3   5
ATOM      5  C   UNL A   1      34.569  24.316  25.378  1.00  0.00     0.099 C 
ATOM      6  C   UNL A   1      32.640  24.097  23.949  1.00  0.00    -0.003 C 
ATOM      7  C   UNL A   1      32.273  25.139  24.989  1.00  0.00     0.005 C 
ATOM      8  C   UNL A   1      34.168  24.286  23.910  1.00  0.00     0.019 C 
ATOM      9  C   UNL A   1      33.387  25.047  26.038  1.00  0.00     0.015 C 
BRANCH   6  10
ATOM     10  C   UNL A   1      32.078  22.664  24.220  1.00  0.00     0.084 C 
BRANCH  10  11
ATOM     11  C   UNL A   1      32.214  21.448  23.251  1.00  0.00     0.163 C 
ATOM     12  O   UNL A   1      32.280  21.619  22.032  1.00  0.00    -0.294 OA
BRANCH  11  13
ATOM     13  C   UNL A   1      32.419  20.039  23.715  1.00  0.00     0.018 A 
ATOM     14  C   UNL A   1      32.447  19.744  25.081  1.00  0.00     0.013 A 
ATOM     15  C   UNL A   1      32.444  18.968  22.816  1.00  0.00     0.013 A 
ATOM     16  C   UNL A   1      32.800  18.462  25.534  1.00  0.00     0.021 A 
ATOM     17  C   UNL A   1      32.738  17.667  23.266  1.00  0.00     0.021 A 
ATOM     18  C   UNL A   1      32.983  17.435  24.618  1.00  0.00     0.041 A 
ATOM     19  Cl  UNL A   1      33.510  15.885  25.148  1.00  0.00    -0.084 Cl
ENDBRANCH  11  13
ENDBRANCH  10  11
ENDBRANCH   6  10
ENDBRANCH   3   5
ENDBRANCH   2   3
ENDBRANCH   1   2
BRANCH   1  20
ATOM     20  C   UNL A   1      37.324  20.337  24.979  1.00  0.00     0.275 C 
BRANCH  20  21
ATOM     21  O   UNL A   1      38.247  21.396  25.232  1.00  0.00    -0.458 OA
BRANCH  21  22
ATOM     22  C   UNL A   1      39.284  21.017  26.018  1.00  0.00     0.338 C 
ATOM     23  O   UNL A   1      39.849  19.945  26.027  1.00  0.00    -0.246 OA
BRANCH  22  24
ATOM     24  C   UNL A   1      39.803  22.228  26.666  1.00  0.00     0.060 A 
ATOM     25  C   UNL A   1      39.314  23.449  26.197  1.00  0.00     0.016 A 
ATOM     26  C   UNL A   1      40.742  22.173  27.691  1.00  0.00     0.016 A 
ATOM     27  C   UNL A   1      39.754  24.638  26.743  1.00  0.00     0.010 A 
ATOM     28  C   UNL A   1      41.239  23.368  28.202  1.00  0.00     0.010 A 
ATOM     29  C   UNL A   1      40.765  24.595  27.703  1.00  0.00    -0.014 A 
BRANCH  29  30
ATOM     30  C   UNL A   1      41.513  25.835  27.960  1.00  0.00     0.031 A 
ATOM     31  C   UNL A   1      40.801  26.920  28.710  1.00  0.00     0.074 A 
ATOM     32  C   UNL A   1      42.798  25.938  27.596  1.00  0.00     0.049 A 
ATOM     33  N   UNL A   1      41.192  28.133  28.984  1.00  0.00    -0.248 NA
ATOM     34  C   UNL A   1      39.458  26.587  29.218  1.00  0.00     0.031 C 
ATOM     35  C   UNL A   1      43.586  24.880  26.963  1.00  0.00     0.029 A 
ATOM     36  N   UNL A   1      43.665  26.989  27.707  1.00  0.00    -0.354 N 
ATOM     37  C   UNL A   1      40.137  28.716  29.678  1.00  0.00     0.074 A 
ATOM     38  C   UNL A   1      39.081  27.733  29.760  1.00  0.00     0.031 C 
ATOM     39  C   UNL A   1      44.822  25.348  26.722  1.00  0.00     0.029 A 
ATOM     40  C   UNL A   1      44.890  26.747  27.135  1.00  0.00     0.049 A 
ATOM     41  H   UNL A   1      43.434  27.836  28.154  1.00  0.00     0.167 HD
ATOM     42  C   UNL A   1      40.068  29.965  30.195  1.00  0.00     0.034 A 
ATOM     43  C   UNL A   1      45.922  27.587  26.937  1.00  0.00     0.034 A 
ATOM     44  C   UNL A   1      41.142  30.919  30.070  1.00  0.00     0.049 A 
ATOM     45  C   UNL A   1      45.782  29.009  27.427  1.00  0.00     0.074 A 
ATOM     46  C   UNL A   1      41.195  32.225  30.518  1.00  0.00     0.029 A 
ATOM     47  N   UNL A   1      42.354  30.664  29.437  1.00  0.00    -0.354 N 
ATOM     48  N   UNL A   1      44.768  29.577  28.046  1.00  0.00    -0.248 NA
ATOM     49  C   UNL A   1      46.924  29.899  27.199  1.00  0.00     0.031 C 
ATOM     50  C   UNL A   1      42.404  32.782  30.089  1.00  0.00     0.029 A 
ATOM     51  C   UNL A   1      43.150  31.797  29.457  1.00  0.00     0.049 A 
ATOM     52  H   UNL A   1      42.610  29.802  29.033  1.00  0.00     0.167 HD
ATOM     53  C   UNL A   1      45.170  30.882  28.315  1.00  0.00     0.074 A 
ATOM     54  C   UNL A   1      46.522  31.007  27.803  1.00  0.00     0.031 C 
ATOM     55  C   UNL A   1      44.493  31.887  28.931  1.00  0.00     0.034 A 
BRANCH  42  56
ATOM     56  C   UNL A   1      38.771  30.372  30.850  1.00  0.00     0.023 A 
ATOM     57  C   UNL A   1      37.789  31.112  30.168  1.00  0.00     0.031 A 
ATOM     58  C   UNL A   1      38.541  30.068  32.204  1.00  0.00     0.131 A 
ATOM     59  C   UNL A   1      36.663  31.585  30.858  1.00  0.00     0.055 A 
ATOM     60  C   UNL A   1      37.376  30.467  32.862  1.00  0.00     0.041 A 
ATOM     61  F   UNL A   1      39.457  29.395  32.919  1.00  0.00    -0.206 F 
ATOM     62  C   UNL A   1      36.435  31.244  32.193  1.00  0.00     0.022 A 
BRANCH  59  63
ATOM     63  S   UNL A   1      35.577  32.784  30.034  1.00  0.00     0.124 S 
ATOM     64  O   UNL A   1      36.519  33.488  29.168  1.00  0.00    -0.237 OA
ATOM     65  O   UNL A   1      34.610  31.924  29.361  1.00  0.00    -0.237 OA
ATOM     66  O   UNL A   1      35.043  33.579  31.138  1.00  0.00    -0.744 OA
ENDBRANCH  59  63
ENDBRANCH  42  56
BRANCH  43  67
ATOM     67  C   UNL A   1      47.143  27.133  26.213  1.00  0.00     0.023 A 
ATOM     68  C   UNL A   1      48.160  26.430  26.875  1.00  0.00     0.031 A 
ATOM     69  C   UNL A   1      47.333  27.439  24.852  1.00  0.00     0.131 A 
ATOM     70  C   UNL A   1      49.341  26.101  26.192  1.00  0.00     0.055 A 
ATOM     71  C   UNL A   1      48.483  27.055  24.161  1.00  0.00     0.041 A 
ATOM     72  F   UNL A   1      46.394  28.114  24.169  1.00  0.00    -0.206 F 
ATOM     73  C   UNL A   1      49.504  26.394  24.837  1.00  0.00     0.022 A 
BRANCH  70  74
ATOM     74  S   UNL A   1      50.710  25.369  27.133  1.00  0.00     0.124 S 
ATOM     75  O   UNL A   1      51.222  26.526  27.858  1.00  0.00    -0.237 OA
ATOM     76  O   UNL A   1      50.021  24.363  27.935  1.00  0.00    -0.237 OA
ATOM     77  O   UNL A   1      51.591  24.841  26.095  1.00  0.00    -0.744 OA
ENDBRANCH  70  74
ENDBRANCH  43  67
BRANCH  55  78
ATOM     78  C   UNL A   1      45.239  33.185  29.132  1.00  0.00     0.023 A 
ATOM     79  C   UNL A   1      45.045  34.292  28.290  1.00  0.00     0.031 A 
ATOM     80  C   UNL A   1      46.178  33.301  30.174  1.00  0.00     0.131 A 
ATOM     81  C   UNL A   1      45.834  35.439  28.455  1.00  0.00     0.055 A 
ATOM     82  C   UNL A   1      46.902  34.474  30.383  1.00  0.00     0.041 A 
ATOM     83  F   UNL A   1      46.406  32.273  31.007  1.00  0.00    -0.206 F 
ATOM     84  C   UNL A   1      46.746  35.546  29.509  1.00  0.00     0.022 A 
BRANCH  81  85
ATOM     85  S   UNL A   1      45.745  36.741  27.195  1.00  0.00     0.124 S 
ATOM     86  O   UNL A   1      46.828  36.361  26.294  1.00  0.00    -0.237 OA
ATOM     87  O   UNL A   1      44.393  36.577  26.672  1.00  0.00    -0.237 OA
ATOM     88  O   UNL A   1      45.972  37.968  27.956  1.00  0.00    -0.744 OA
ENDBRANCH  81  85
ENDBRANCH  55  78
ENDBRANCH  29  30
ENDBRANCH  22  24
ENDBRANCH  21  22
ENDBRANCH  20  21
ENDBRANCH   1  20
TORSDOF 17
ENDMDL
