MODEL 1
REMARK VINA RESULT:     -11.3      0.000      0.000
REMARK SMILES Cc1nsc(N[C@H](C)c2cccs2)c1C(=O)OCCOC(=O)c1ccc(-c2c3nc(c(-c4cc(S(=O)(=O)[O-])ccc4F)c4ccc([nH]4)c(-c4cc(S(=O)(=O)[O-])ccc4F)c4nc(c(-c5cc(S(=O)(=O)[O-])ccc5F)c5ccc2[nH]5)C=C4)C=C3)cc1
REMARK SMILES IDX 18 1 17 2 15 3 16 4 14 5 1 6 2 7 3 8 4 9 5 10 6 11 7 13 8 14
REMARK SMILES IDX 9 15 10 16 13 17 11 18 12 19 19 20 20 21 21 22 22 23 23 24
REMARK SMILES IDX 24 25 85 26 25 27 84 28 26 29 27 30 28 31 78 32 29 33 83 34
REMARK SMILES IDX 77 35 79 36 30 37 82 38 76 39 75 40 31 42 63 43 43 44 62 45
REMARK SMILES IDX 44 46 47 47 61 48 80 49 45 50 46 51 60 53 81 54 48 55 32 56
REMARK SMILES IDX 33 57 41 58 34 59 40 60 42 61 39 62 35 63 36 64 37 65 38 66
REMARK SMILES IDX 64 67 65 68 73 69 66 70 72 71 74 72 71 73 67 74 68 75 69 76
REMARK SMILES IDX 70 77 49 78 50 79 58 80 51 81 57 82 59 83 56 84 52 85 53 86
REMARK SMILES IDX 54 87 55 88
REMARK H PARENT 6 12 79 41 47 52
REMARK Flexibility Score: inf
ROOT
ATOM      1  C   UNL A   1      32.910  29.169  26.913  1.00  0.00     0.275 C 
ENDROOT
BRANCH   1   2
ATOM      2  O   UNL A   1      31.811  29.044  25.995  1.00  0.00    -0.458 OA
BRANCH   2   3
ATOM      3  C   UNL A   1      31.294  27.797  25.793  1.00  0.00     0.343 C 
ATOM      4  O   UNL A   1      30.962  27.049  26.713  1.00  0.00    -0.246 OA
BRANCH   3   5
ATOM      5  C   UNL A   1      31.160  27.439  24.382  1.00  0.00     0.117 A 
ATOM      6  C   UNL A   1      29.536  29.346  23.465  1.00  0.00     0.069 C 
ATOM      7  C   UNL A   1      30.428  28.155  23.348  1.00  0.00     0.068 A 
ATOM      8  N   UNL A   1      30.583  27.690  22.109  1.00  0.00    -0.195 NA
ATOM      9  S   UNL A   1      31.502  26.336  22.151  1.00  0.00    -0.018 S 
ATOM     10  C   UNL A   1      31.691  26.247  23.856  1.00  0.00     0.124 A 
BRANCH  10  11
ATOM     11  N   UNL A   1      32.260  25.221  24.566  1.00  0.00    -0.368 N 
ATOM     12  H   UNL A   1      32.372  25.388  25.530  1.00  0.00     0.162 HD
BRANCH  11  13
ATOM     13  C   UNL A   1      32.730  23.903  24.095  1.00  0.00     0.117 C 
ATOM     14  C   UNL A   1      31.573  23.022  23.581  1.00  0.00     0.037 C 
BRANCH  13  15
ATOM     15  C   UNL A   1      33.544  23.123  25.150  1.00  0.00     0.027 A 
ATOM     16  C   UNL A   1      33.423  23.088  26.532  1.00  0.00     0.017 A 
ATOM     17  S   UNL A   1      34.877  22.133  24.658  1.00  0.00    -0.147 S 
ATOM     18  C   UNL A   1      34.306  22.147  27.146  1.00  0.00     0.012 A 
ATOM     19  C   UNL A   1      35.103  21.509  26.227  1.00  0.00     0.065 A 
ENDBRANCH  13  15
ENDBRANCH  11  13
ENDBRANCH  10  11
ENDBRANCH   3   5
ENDBRANCH   2   3
ENDBRANCH   1   2
BRANCH   1  20
ATOM     20  C   UNL A   1      33.271  30.629  27.139  1.00  0.00     0.275 C 
BRANCH  20  21
ATOM     21  O   UNL A   1      34.686  30.789  27.176  1.00  0.00    -0.458 OA
BRANCH  21  22
ATOM     22  C   UNL A   1      35.147  31.713  28.051  1.00  0.00     0.338 C 
ATOM     23  O   UNL A   1      34.809  32.881  28.124  1.00  0.00    -0.246 OA
BRANCH  22  24
ATOM     24  C   UNL A   1      36.261  31.118  28.795  1.00  0.00     0.060 A 
ATOM     25  C   UNL A   1      37.411  31.890  28.975  1.00  0.00     0.016 A 
ATOM     26  C   UNL A   1      36.245  29.739  29.059  1.00  0.00     0.016 A 
ATOM     27  C   UNL A   1      38.598  31.240  29.245  1.00  0.00     0.010 A 
ATOM     28  C   UNL A   1      37.428  29.093  29.310  1.00  0.00     0.010 A 
ATOM     29  C   UNL A   1      38.599  29.843  29.319  1.00  0.00    -0.014 A 
BRANCH  29  30
ATOM     30  C   UNL A   1      39.859  29.154  29.483  1.00  0.00     0.031 A 
ATOM     31  C   UNL A   1      40.220  28.924  30.901  1.00  0.00     0.074 A 
ATOM     32  C   UNL A   1      40.532  28.629  28.443  1.00  0.00     0.049 A 
ATOM     33  N   UNL A   1      41.182  29.458  31.574  1.00  0.00    -0.248 NA
ATOM     34  C   UNL A   1      39.281  28.141  31.720  1.00  0.00     0.031 C 
ATOM     35  C   UNL A   1      40.118  28.499  27.044  1.00  0.00     0.029 A 
ATOM     36  N   UNL A   1      41.728  27.991  28.462  1.00  0.00    -0.354 N 
ATOM     37  C   UNL A   1      41.094  28.925  32.856  1.00  0.00     0.074 A 
ATOM     38  C   UNL A   1      39.802  28.299  32.936  1.00  0.00     0.031 C 
ATOM     39  C   UNL A   1      40.937  27.619  26.417  1.00  0.00     0.029 A 
ATOM     40  C   UNL A   1      42.008  27.242  27.328  1.00  0.00     0.049 A 
ATOM     41  H   UNL A   1      42.349  28.054  29.223  1.00  0.00     0.167 HD
ATOM     42  C   UNL A   1      42.178  28.859  33.675  1.00  0.00     0.034 A 
ATOM     43  C   UNL A   1      43.000  26.319  27.205  1.00  0.00     0.034 A 
ATOM     44  C   UNL A   1      43.235  29.722  33.199  1.00  0.00     0.049 A 
ATOM     45  C   UNL A   1      43.991  26.623  28.276  1.00  0.00     0.074 A 
ATOM     46  C   UNL A   1      43.346  31.087  33.000  1.00  0.00     0.029 A 
ATOM     47  N   UNL A   1      44.246  29.160  32.449  1.00  0.00    -0.354 N 
ATOM     48  N   UNL A   1      44.681  27.733  28.315  1.00  0.00    -0.248 NA
ATOM     49  C   UNL A   1      43.832  25.954  29.562  1.00  0.00     0.031 C 
ATOM     50  C   UNL A   1      44.049  31.219  31.766  1.00  0.00     0.029 A 
ATOM     51  C   UNL A   1      44.401  29.940  31.327  1.00  0.00     0.049 A 
ATOM     52  H   UNL A   1      44.760  28.352  32.675  1.00  0.00     0.167 HD
ATOM     53  C   UNL A   1      44.684  28.117  29.650  1.00  0.00     0.074 A 
ATOM     54  C   UNL A   1      44.211  26.941  30.382  1.00  0.00     0.031 C 
ATOM     55  C   UNL A   1      44.783  29.430  30.021  1.00  0.00     0.034 A 
BRANCH  42  56
ATOM     56  C   UNL A   1      42.418  27.788  34.715  1.00  0.00     0.023 A 
ATOM     57  C   UNL A   1      43.149  26.652  34.318  1.00  0.00     0.031 A 
ATOM     58  C   UNL A   1      41.764  27.686  35.966  1.00  0.00     0.131 A 
ATOM     59  C   UNL A   1      43.136  25.475  35.087  1.00  0.00     0.055 A 
ATOM     60  C   UNL A   1      41.810  26.536  36.759  1.00  0.00     0.041 A 
ATOM     61  F   UNL A   1      40.970  28.644  36.455  1.00  0.00    -0.206 F 
ATOM     62  C   UNL A   1      42.472  25.410  36.308  1.00  0.00     0.022 A 
BRANCH  59  63
ATOM     63  S   UNL A   1      43.855  23.972  34.376  1.00  0.00     0.124 S 
ATOM     64  O   UNL A   1      44.249  24.428  33.048  1.00  0.00    -0.237 OA
ATOM     65  O   UNL A   1      44.938  23.689  35.310  1.00  0.00    -0.237 OA
ATOM     66  O   UNL A   1      42.744  23.022  34.404  1.00  0.00    -0.744 OA
ENDBRANCH  59  63
ENDBRANCH  42  56
BRANCH  43  67
ATOM     67  C   UNL A   1      42.879  24.994  26.529  1.00  0.00     0.023 A 
ATOM     68  C   UNL A   1      43.802  24.519  25.572  1.00  0.00     0.031 A 
ATOM     69  C   UNL A   1      41.928  24.059  27.004  1.00  0.00     0.131 A 
ATOM     70  C   UNL A   1      43.739  23.175  25.124  1.00  0.00     0.055 A 
ATOM     71  C   UNL A   1      41.870  22.737  26.558  1.00  0.00     0.041 A 
ATOM     72  F   UNL A   1      41.068  24.381  27.983  1.00  0.00    -0.206 F 
ATOM     73  C   UNL A   1      42.780  22.287  25.618  1.00  0.00     0.022 A 
BRANCH  70  74
ATOM     74  S   UNL A   1      44.958  22.533  23.929  1.00  0.00     0.124 S 
ATOM     75  O   UNL A   1      45.914  23.630  23.840  1.00  0.00    -0.237 OA
ATOM     76  O   UNL A   1      45.426  21.316  24.582  1.00  0.00    -0.237 OA
ATOM     77  O   UNL A   1      44.166  22.310  22.718  1.00  0.00    -0.744 OA
ENDBRANCH  70  74
ENDBRANCH  43  67
BRANCH  55  78
ATOM     78  C   UNL A   1      45.109  30.464  28.958  1.00  0.00     0.023 A 
ATOM     79  C   UNL A   1      46.416  30.853  28.580  1.00  0.00     0.031 A 
ATOM     80  C   UNL A   1      44.038  30.953  28.190  1.00  0.00     0.131 A 
ATOM     81  C   UNL A   1      46.606  31.702  27.468  1.00  0.00     0.055 A 
ATOM     82  C   UNL A   1      44.231  31.772  27.079  1.00  0.00     0.041 A 
ATOM     83  F   UNL A   1      42.775  30.597  28.481  1.00  0.00    -0.206 F 
ATOM     84  C   UNL A   1      45.518  32.152  26.715  1.00  0.00     0.022 A 
BRANCH  81  85
ATOM     85  S   UNL A   1      48.278  32.243  26.977  1.00  0.00     0.124 S 
ATOM     86  O   UNL A   1      48.828  32.807  28.204  1.00  0.00    -0.237 OA
ATOM     87  O   UNL A   1      48.891  31.001  26.513  1.00  0.00    -0.237 OA
ATOM     88  O   UNL A   1      48.023  33.224  25.919  1.00  0.00    -0.744 OA
ENDBRANCH  81  85
ENDBRANCH  55  78
ENDBRANCH  29  30
ENDBRANCH  22  24
ENDBRANCH  21  22
ENDBRANCH  20  21
ENDBRANCH   1  20
TORSDOF 17
ENDMDL
MODEL 2
REMARK VINA RESULT:     -11.0      3.403      9.081
REMARK SMILES Cc1nsc(N[C@H](C)c2cccs2)c1C(=O)OCCOC(=O)c1ccc(-c2c3nc(c(-c4cc(S(=O)(=O)[O-])ccc4F)c4ccc([nH]4)c(-c4cc(S(=O)(=O)[O-])ccc4F)c4nc(c(-c5cc(S(=O)(=O)[O-])ccc5F)c5ccc2[nH]5)C=C4)C=C3)cc1
REMARK SMILES IDX 18 1 17 2 15 3 16 4 14 5 1 6 2 7 3 8 4 9 5 10 6 11 7 13 8 14
REMARK SMILES IDX 9 15 10 16 13 17 11 18 12 19 19 20 20 21 21 22 22 23 23 24
REMARK SMILES IDX 24 25 85 26 25 27 84 28 26 29 27 30 28 31 78 32 29 33 83 34
REMARK SMILES IDX 77 35 79 36 30 37 82 38 76 39 75 40 31 42 63 43 43 44 62 45
REMARK SMILES IDX 44 46 47 47 61 48 80 49 45 50 46 51 60 53 81 54 48 55 32 56
REMARK SMILES IDX 33 57 41 58 34 59 40 60 42 61 39 62 35 63 36 64 37 65 38 66
REMARK SMILES IDX 64 67 65 68 73 69 66 70 72 71 74 72 71 73 67 74 68 75 69 76
REMARK SMILES IDX 70 77 49 78 50 79 58 80 51 81 57 82 59 83 56 84 52 85 53 86
REMARK SMILES IDX 54 87 55 88
REMARK H PARENT 6 12 79 41 47 52
REMARK Flexibility Score: inf
ROOT
ATOM      1  C   UNL A   1      37.665  21.845  25.028  1.00  0.00     0.275 C 
ENDROOT
BRANCH   1   2
ATOM      2  O   UNL A   1      36.595  20.930  25.320  1.00  0.00    -0.458 OA
BRANCH   2   3
ATOM      3  C   UNL A   1      35.429  21.453  25.797  1.00  0.00     0.343 C 
ATOM      4  O   UNL A   1      35.317  21.929  26.927  1.00  0.00    -0.246 OA
BRANCH   3   5
ATOM      5  C   UNL A   1      34.327  21.406  24.836  1.00  0.00     0.117 A 
ATOM      6  C   UNL A   1      33.857  18.787  24.643  1.00  0.00     0.069 C 
ATOM      7  C   UNL A   1      33.602  20.233  24.372  1.00  0.00     0.068 A 
ATOM      8  N   UNL A   1      32.545  20.481  23.600  1.00  0.00    -0.195 NA
ATOM      9  S   UNL A   1      32.451  22.091  23.314  1.00  0.00    -0.018 S 
ATOM     10  C   UNL A   1      33.875  22.550  24.156  1.00  0.00     0.124 A 
BRANCH  10  11
ATOM     11  N   UNL A   1      34.453  23.795  24.174  1.00  0.00    -0.368 N 
ATOM     12  H   UNL A   1      35.178  23.931  23.522  1.00  0.00     0.162 HD
BRANCH  11  13
ATOM     13  C   UNL A   1      34.144  24.959  25.027  1.00  0.00     0.117 C 
ATOM     14  C   UNL A   1      32.995  24.669  26.015  1.00  0.00     0.037 C 
BRANCH  13  15
ATOM     15  C   UNL A   1      33.828  26.243  24.231  1.00  0.00     0.027 A 
ATOM     16  C   UNL A   1      33.746  27.563  24.650  1.00  0.00     0.017 A 
ATOM     17  S   UNL A   1      33.453  26.146  22.542  1.00  0.00    -0.147 S 
ATOM     18  C   UNL A   1      33.537  28.480  23.573  1.00  0.00     0.012 A 
ATOM     19  C   UNL A   1      33.429  27.840  22.363  1.00  0.00     0.065 A 
ENDBRANCH  13  15
ENDBRANCH  11  13
ENDBRANCH  10  11
ENDBRANCH   3   5
ENDBRANCH   2   3
ENDBRANCH   1   2
BRANCH   1  20
ATOM     20  C   UNL A   1      38.809  21.683  26.016  1.00  0.00     0.275 C 
BRANCH  20  21
ATOM     21  O   UNL A   1      39.118  22.931  26.627  1.00  0.00    -0.458 OA
BRANCH  21  22
ATOM     22  C   UNL A   1      40.231  22.947  27.397  1.00  0.00     0.338 C 
ATOM     23  O   UNL A   1      40.718  22.003  27.994  1.00  0.00    -0.246 OA
BRANCH  22  24
ATOM     24  C   UNL A   1      40.665  24.340  27.541  1.00  0.00     0.060 A 
ATOM     25  C   UNL A   1      41.714  24.608  28.424  1.00  0.00     0.016 A 
ATOM     26  C   UNL A   1      39.862  25.361  27.011  1.00  0.00     0.016 A 
ATOM     27  C   UNL A   1      41.837  25.890  28.920  1.00  0.00     0.010 A 
ATOM     28  C   UNL A   1      39.974  26.630  27.518  1.00  0.00     0.010 A 
ATOM     29  C   UNL A   1      40.906  26.858  28.525  1.00  0.00    -0.014 A 
BRANCH  29  30
ATOM     30  C   UNL A   1      40.961  28.168  29.133  1.00  0.00     0.031 A 
ATOM     31  C   UNL A   1      42.015  29.036  28.560  1.00  0.00     0.074 A 
ATOM     32  C   UNL A   1      40.029  28.595  30.005  1.00  0.00     0.049 A 
ATOM     33  N   UNL A   1      43.095  29.456  29.126  1.00  0.00    -0.248 NA
ATOM     34  C   UNL A   1      41.947  29.320  27.117  1.00  0.00     0.031 C 
ATOM     35  C   UNL A   1      38.767  27.961  30.393  1.00  0.00     0.029 A 
ATOM     36  N   UNL A   1      39.984  29.780  30.661  1.00  0.00    -0.354 N 
ATOM     37  C   UNL A   1      43.751  30.228  28.172  1.00  0.00     0.074 A 
ATOM     38  C   UNL A   1      43.113  29.934  26.918  1.00  0.00     0.031 C 
ATOM     39  C   UNL A   1      37.986  28.874  31.021  1.00  0.00     0.029 A 
ATOM     40  C   UNL A   1      38.748  30.101  31.202  1.00  0.00     0.049 A 
ATOM     41  H   UNL A   1      40.769  30.367  30.747  1.00  0.00     0.167 HD
ATOM     42  C   UNL A   1      44.627  31.206  28.529  1.00  0.00     0.034 A 
ATOM     43  C   UNL A   1      38.375  31.321  31.675  1.00  0.00     0.034 A 
ATOM     44  C   UNL A   1      45.036  31.052  29.907  1.00  0.00     0.049 A 
ATOM     45  C   UNL A   1      39.635  32.063  31.963  1.00  0.00     0.074 A 
ATOM     46  C   UNL A   1      45.704  30.064  30.606  1.00  0.00     0.029 A 
ATOM     47  N   UNL A   1      44.394  31.808  30.864  1.00  0.00    -0.354 N 
ATOM     48  N   UNL A   1      40.490  31.687  32.879  1.00  0.00    -0.248 NA
ATOM     49  C   UNL A   1      40.198  32.891  30.903  1.00  0.00     0.031 C 
ATOM     50  C   UNL A   1      45.012  29.967  31.850  1.00  0.00     0.029 A 
ATOM     51  C   UNL A   1      44.022  30.953  31.875  1.00  0.00     0.049 A 
ATOM     52  H   UNL A   1      44.233  32.779  30.831  1.00  0.00     0.167 HD
ATOM     53  C   UNL A   1      41.744  31.867  32.308  1.00  0.00     0.074 A 
ATOM     54  C   UNL A   1      41.502  32.685  31.119  1.00  0.00     0.031 C 
ATOM     55  C   UNL A   1      42.818  31.104  32.674  1.00  0.00     0.034 A 
BRANCH  42  56
ATOM     56  C   UNL A   1      44.870  32.481  27.752  1.00  0.00     0.023 A 
ATOM     57  C   UNL A   1      44.172  33.633  28.164  1.00  0.00     0.031 A 
ATOM     58  C   UNL A   1      45.520  32.577  26.500  1.00  0.00     0.131 A 
ATOM     59  C   UNL A   1      44.065  34.756  27.326  1.00  0.00     0.055 A 
ATOM     60  C   UNL A   1      45.468  33.721  25.699  1.00  0.00     0.041 A 
ATOM     61  F   UNL A   1      46.163  31.552  25.930  1.00  0.00    -0.206 F 
ATOM     62  C   UNL A   1      44.711  34.809  26.094  1.00  0.00     0.022 A 
BRANCH  59  63
ATOM     63  S   UNL A   1      42.919  36.078  27.794  1.00  0.00     0.124 S 
ATOM     64  O   UNL A   1      43.614  36.690  28.922  1.00  0.00    -0.237 OA
ATOM     65  O   UNL A   1      42.858  36.866  26.569  1.00  0.00    -0.237 OA
ATOM     66  O   UNL A   1      41.695  35.357  28.134  1.00  0.00    -0.744 OA
ENDBRANCH  59  63
ENDBRANCH  42  56
BRANCH  43  67
ATOM     67  C   UNL A   1      37.052  31.977  31.451  1.00  0.00     0.023 A 
ATOM     68  C   UNL A   1      36.509  32.218  30.170  1.00  0.00     0.031 A 
ATOM     69  C   UNL A   1      36.187  32.181  32.551  1.00  0.00     0.131 A 
ATOM     70  C   UNL A   1      35.167  32.655  30.035  1.00  0.00     0.055 A 
ATOM     71  C   UNL A   1      34.865  32.613  32.412  1.00  0.00     0.041 A 
ATOM     72  F   UNL A   1      36.574  31.890  33.803  1.00  0.00    -0.206 F 
ATOM     73  C   UNL A   1      34.347  32.847  31.151  1.00  0.00     0.022 A 
BRANCH  70  74
ATOM     74  S   UNL A   1      34.433  32.918  28.386  1.00  0.00     0.124 S 
ATOM     75  O   UNL A   1      33.444  33.957  28.649  1.00  0.00    -0.237 OA
ATOM     76  O   UNL A   1      35.589  33.309  27.588  1.00  0.00    -0.237 OA
ATOM     77  O   UNL A   1      33.871  31.609  28.048  1.00  0.00    -0.744 OA
ENDBRANCH  70  74
ENDBRANCH  43  67
BRANCH  55  78
ATOM     78  C   UNL A   1      42.684  30.187  33.877  1.00  0.00     0.023 A 
ATOM     79  C   UNL A   1      42.580  28.778  33.816  1.00  0.00     0.031 A 
ATOM     80  C   UNL A   1      42.831  30.773  35.147  1.00  0.00     0.131 A 
ATOM     81  C   UNL A   1      42.626  28.014  35.003  1.00  0.00     0.055 A 
ATOM     82  C   UNL A   1      42.898  30.014  36.314  1.00  0.00     0.041 A 
ATOM     83  F   UNL A   1      42.963  32.106  35.269  1.00  0.00    -0.206 F 
ATOM     84  C   UNL A   1      42.794  28.630  36.247  1.00  0.00     0.022 A 
BRANCH  81  85
ATOM     85  S   UNL A   1      42.465  26.197  34.954  1.00  0.00     0.124 S 
ATOM     86  O   UNL A   1      43.175  25.761  36.152  1.00  0.00    -0.237 OA
ATOM     87  O   UNL A   1      41.018  26.004  34.963  1.00  0.00    -0.237 OA
ATOM     88  O   UNL A   1      43.118  25.830  33.695  1.00  0.00    -0.744 OA
ENDBRANCH  81  85
ENDBRANCH  55  78
ENDBRANCH  29  30
ENDBRANCH  22  24
ENDBRANCH  21  22
ENDBRANCH  20  21
ENDBRANCH   1  20
TORSDOF 17
ENDMDL
MODEL 3
REMARK VINA RESULT:     -10.9      4.264      6.760
REMARK SMILES Cc1nsc(N[C@H](C)c2cccs2)c1C(=O)OCCOC(=O)c1ccc(-c2c3nc(c(-c4cc(S(=O)(=O)[O-])ccc4F)c4ccc([nH]4)c(-c4cc(S(=O)(=O)[O-])ccc4F)c4nc(c(-c5cc(S(=O)(=O)[O-])ccc5F)c5ccc2[nH]5)C=C4)C=C3)cc1
REMARK SMILES IDX 18 1 17 2 15 3 16 4 14 5 1 6 2 7 3 8 4 9 5 10 6 11 7 13 8 14
REMARK SMILES IDX 9 15 10 16 13 17 11 18 12 19 19 20 20 21 21 22 22 23 23 24
REMARK SMILES IDX 24 25 85 26 25 27 84 28 26 29 27 30 28 31 78 32 29 33 83 34
REMARK SMILES IDX 77 35 79 36 30 37 82 38 76 39 75 40 31 42 63 43 43 44 62 45
REMARK SMILES IDX 44 46 47 47 61 48 80 49 45 50 46 51 60 53 81 54 48 55 32 56
REMARK SMILES IDX 33 57 41 58 34 59 40 60 42 61 39 62 35 63 36 64 37 65 38 66
REMARK SMILES IDX 64 67 65 68 73 69 66 70 72 71 74 72 71 73 67 74 68 75 69 76
REMARK SMILES IDX 70 77 49 78 50 79 58 80 51 81 57 82 59 83 56 84 52 85 53 86
REMARK SMILES IDX 54 87 55 88
REMARK H PARENT 6 12 79 41 47 52
REMARK Flexibility Score: inf
ROOT
ATOM      1  C   UNL A   1      35.115  32.831  32.306  1.00  0.00     0.275 C 
ENDROOT
BRANCH   1   2
ATOM      2  O   UNL A   1      36.530  32.970  32.515  1.00  0.00    -0.458 OA
BRANCH   2   3
ATOM      3  C   UNL A   1      37.149  32.037  33.294  1.00  0.00     0.343 C 
ATOM      4  O   UNL A   1      37.564  30.963  32.857  1.00  0.00    -0.246 OA
BRANCH   3   5
ATOM      5  C   UNL A   1      37.286  32.437  34.694  1.00  0.00     0.117 A 
ATOM      6  C   UNL A   1      35.505  34.413  34.893  1.00  0.00     0.069 C 
ATOM      7  C   UNL A   1      36.521  33.448  35.408  1.00  0.00     0.068 A 
ATOM      8  N   UNL A   1      36.747  33.519  36.719  1.00  0.00    -0.195 NA
ATOM      9  S   UNL A   1      37.945  32.476  37.117  1.00  0.00    -0.018 S 
ATOM     10  C   UNL A   1      38.285  31.911  35.531  1.00  0.00     0.124 A 
BRANCH  10  11
ATOM     11  N   UNL A   1      39.322  31.096  35.156  1.00  0.00    -0.368 N 
ATOM     12  H   UNL A   1      39.088  30.148  35.033  1.00  0.00     0.162 HD
BRANCH  11  13
ATOM     13  C   UNL A   1      40.738  31.434  34.908  1.00  0.00     0.117 C 
ATOM     14  C   UNL A   1      41.461  31.891  36.191  1.00  0.00     0.037 C 
BRANCH  13  15
ATOM     15  C   UNL A   1      40.937  32.489  33.799  1.00  0.00     0.027 A 
ATOM     16  C   UNL A   1      40.789  32.386  32.423  1.00  0.00     0.017 A 
ATOM     17  S   UNL A   1      41.477  34.084  34.208  1.00  0.00    -0.147 S 
ATOM     18  C   UNL A   1      40.963  33.634  31.748  1.00  0.00     0.012 A 
ATOM     19  C   UNL A   1      41.272  34.653  32.614  1.00  0.00     0.065 A 
ENDBRANCH  13  15
ENDBRANCH  11  13
ENDBRANCH  10  11
ENDBRANCH   3   5
ENDBRANCH   2   3
ENDBRANCH   1   2
BRANCH   1  20
ATOM     20  C   UNL A   1      34.794  32.650  30.830  1.00  0.00     0.275 C 
BRANCH  20  21
ATOM     21  O   UNL A   1      35.510  31.540  30.300  1.00  0.00    -0.458 OA
BRANCH  21  22
ATOM     22  C   UNL A   1      35.747  31.580  28.968  1.00  0.00     0.338 C 
ATOM     23  O   UNL A   1      34.962  31.910  28.097  1.00  0.00    -0.246 OA
BRANCH  22  24
ATOM     24  C   UNL A   1      37.065  30.987  28.723  1.00  0.00     0.060 A 
ATOM     25  C   UNL A   1      37.112  29.707  28.165  1.00  0.00     0.016 A 
ATOM     26  C   UNL A   1      38.199  31.592  29.288  1.00  0.00     0.016 A 
ATOM     27  C   UNL A   1      38.258  28.959  28.343  1.00  0.00     0.010 A 
ATOM     28  C   UNL A   1      39.331  30.841  29.480  1.00  0.00     0.010 A 
ATOM     29  C   UNL A   1      39.315  29.510  29.077  1.00  0.00    -0.014 A 
BRANCH  29  30
ATOM     30  C   UNL A   1      40.467  28.687  29.366  1.00  0.00     0.031 A 
ATOM     31  C   UNL A   1      40.749  28.563  30.815  1.00  0.00     0.074 A 
ATOM     32  C   UNL A   1      41.099  27.975  28.415  1.00  0.00     0.049 A 
ATOM     33  N   UNL A   1      41.751  29.038  31.474  1.00  0.00    -0.248 NA
ATOM     34  C   UNL A   1      39.689  27.996  31.664  1.00  0.00     0.031 C 
ATOM     35  C   UNL A   1      40.716  27.752  27.019  1.00  0.00     0.029 A 
ATOM     36  N   UNL A   1      42.198  27.195  28.553  1.00  0.00    -0.354 N 
ATOM     37  C   UNL A   1      41.552  28.658  32.797  1.00  0.00     0.074 A 
ATOM     38  C   UNL A   1      40.187  28.214  32.881  1.00  0.00     0.031 C 
ATOM     39  C   UNL A   1      41.432  26.715  26.521  1.00  0.00     0.029 A 
ATOM     40  C   UNL A   1      42.414  26.301  27.513  1.00  0.00     0.049 A 
ATOM     41  H   UNL A   1      42.798  27.258  29.330  1.00  0.00     0.167 HD
ATOM     42  C   UNL A   1      42.591  28.541  33.668  1.00  0.00     0.034 A 
ATOM     43  C   UNL A   1      43.280  25.252  27.528  1.00  0.00     0.034 A 
ATOM     44  C   UNL A   1      43.767  29.207  33.156  1.00  0.00     0.049 A 
ATOM     45  C   UNL A   1      44.267  25.537  28.607  1.00  0.00     0.074 A 
ATOM     46  C   UNL A   1      44.063  30.518  32.827  1.00  0.00     0.029 A 
ATOM     47  N   UNL A   1      44.719  28.446  32.513  1.00  0.00    -0.354 N 
ATOM     48  N   UNL A   1      45.096  26.548  28.567  1.00  0.00    -0.248 NA
ATOM     49  C   UNL A   1      43.981  25.034  29.945  1.00  0.00     0.031 C 
ATOM     50  C   UNL A   1      44.816  30.430  31.620  1.00  0.00     0.029 A 
ATOM     51  C   UNL A   1      45.011  29.077  31.327  1.00  0.00     0.049 A 
ATOM     52  H   UNL A   1      45.115  27.606  32.842  1.00  0.00     0.167 HD
ATOM     53  C   UNL A   1      45.106  27.067  29.855  1.00  0.00     0.074 A 
ATOM     54  C   UNL A   1      44.459  26.045  30.679  1.00  0.00     0.031 C 
ATOM     55  C   UNL A   1      45.364  28.388  30.097  1.00  0.00     0.034 A 
BRANCH  42  56
ATOM     56  C   UNL A   1      42.654  27.563  34.820  1.00  0.00     0.023 A 
ATOM     57  C   UNL A   1      43.412  26.391  34.633  1.00  0.00     0.031 A 
ATOM     58  C   UNL A   1      41.824  27.577  35.965  1.00  0.00     0.131 A 
ATOM     59  C   UNL A   1      43.263  25.286  35.489  1.00  0.00     0.055 A 
ATOM     60  C   UNL A   1      41.729  26.500  36.852  1.00  0.00     0.041 A 
ATOM     61  F   UNL A   1      40.987  28.580  36.248  1.00  0.00    -0.206 F 
ATOM     62  C   UNL A   1      42.426  25.333  36.600  1.00  0.00     0.022 A 
BRANCH  59  63
ATOM     63  S   UNL A   1      44.046  23.720  35.023  1.00  0.00     0.124 S 
ATOM     64  O   UNL A   1      44.453  23.192  36.321  1.00  0.00    -0.237 OA
ATOM     65  O   UNL A   1      42.950  23.025  34.358  1.00  0.00    -0.237 OA
ATOM     66  O   UNL A   1      45.141  24.138  34.150  1.00  0.00    -0.744 OA
ENDBRANCH  59  63
ENDBRANCH  42  56
BRANCH  43  67
ATOM     67  C   UNL A   1      43.007  23.889  26.983  1.00  0.00     0.023 A 
ATOM     68  C   UNL A   1      43.931  23.165  26.197  1.00  0.00     0.031 A 
ATOM     69  C   UNL A   1      41.870  23.178  27.434  1.00  0.00     0.131 A 
ATOM     70  C   UNL A   1      43.688  21.802  25.886  1.00  0.00     0.055 A 
ATOM     71  C   UNL A   1      41.636  21.837  27.124  1.00  0.00     0.041 A 
ATOM     72  F   UNL A   1      40.981  23.746  28.264  1.00  0.00    -0.206 F 
ATOM     73  C   UNL A   1      42.549  21.140  26.351  1.00  0.00     0.022 A 
BRANCH  70  74
ATOM     74  S   UNL A   1      44.897  20.838  24.920  1.00  0.00     0.124 S 
ATOM     75  O   UNL A   1      44.624  21.276  23.556  1.00  0.00    -0.237 OA
ATOM     76  O   UNL A   1      46.168  21.261  25.495  1.00  0.00    -0.237 OA
ATOM     77  O   UNL A   1      44.531  19.448  25.201  1.00  0.00    -0.744 OA
ENDBRANCH  70  74
ENDBRANCH  43  67
BRANCH  55  78
ATOM     78  C   UNL A   1      45.858  29.255  28.953  1.00  0.00     0.023 A 
ATOM     79  C   UNL A   1      45.093  30.251  28.300  1.00  0.00     0.031 A 
ATOM     80  C   UNL A   1      47.223  29.167  28.626  1.00  0.00     0.131 A 
ATOM     81  C   UNL A   1      45.704  31.108  27.360  1.00  0.00     0.055 A 
ATOM     82  C   UNL A   1      47.828  30.030  27.714  1.00  0.00     0.041 A 
ATOM     83  F   UNL A   1      48.010  28.261  29.232  1.00  0.00    -0.206 F 
ATOM     84  C   UNL A   1      47.069  31.004  27.075  1.00  0.00     0.022 A 
BRANCH  81  85
ATOM     85  S   UNL A   1      44.734  32.380  26.482  1.00  0.00     0.124 S 
ATOM     86  O   UNL A   1      45.714  33.007  25.602  1.00  0.00    -0.237 OA
ATOM     87  O   UNL A   1      43.695  31.593  25.825  1.00  0.00    -0.237 OA
ATOM     88  O   UNL A   1      44.248  33.244  27.562  1.00  0.00    -0.744 OA
ENDBRANCH  81  85
ENDBRANCH  55  78
ENDBRANCH  29  30
ENDBRANCH  22  24
ENDBRANCH  21  22
ENDBRANCH  20  21
ENDBRANCH   1  20
TORSDOF 17
ENDMDL
