MODEL 1
REMARK VINA RESULT:     -12.3      0.000      0.000
REMARK SMILES C[C@@H](C(=O)OCCOC(=O)c1ccc(-c2c3nc(c(-c4cc(S(=O)(=O)[O-])ccc4F)c4ccc([nH]4)c(-c4cc(S(=O)(=O)[O-])ccc4F)c4nc(c(-c5cc(S(=O)(=O)[O-])ccc5F)c5ccc2[nH]5)C=C4)C=C3)cc1)c1ccc(-c2ccccc2)c(F)c1
REMARK SMILES IDX 7 1 6 2 5 3 3 4 4 5 2 6 1 7 74 8 75 9 86 10 76 11 84 12
REMARK SMILES IDX 77 13 85 14 78 15 79 16 83 17 80 18 82 19 81 20 8 21 9 22
REMARK SMILES IDX 10 23 11 24 12 25 73 26 13 27 72 28 14 29 15 30 16 31 66 32
REMARK SMILES IDX 17 33 71 34 65 35 67 36 18 37 70 38 64 39 63 40 19 42 51 43
REMARK SMILES IDX 31 44 50 45 32 46 35 47 49 48 68 49 33 50 34 51 48 53 69 54
REMARK SMILES IDX 36 55 20 56 21 57 29 58 22 59 28 60 30 61 27 62 23 63 24 64
REMARK SMILES IDX 25 65 26 66 52 67 53 68 61 69 54 70 60 71 62 72 59 73 55 74
REMARK SMILES IDX 56 75 57 76 58 77 37 78 38 79 46 80 39 81 45 82 47 83 44 84
REMARK SMILES IDX 40 85 41 86 42 87 43 88
REMARK H PARENT 67 41 35 52
REMARK Flexibility Score: inf
ROOT
ATOM      1  C   UNL A   1      36.130  21.018  24.625  1.00  0.00     0.275 C 
ENDROOT
BRANCH   1   2
ATOM      2  C   UNL A   1      34.641  20.957  24.945  1.00  0.00     0.274 C 
BRANCH   2   3
ATOM      3  O   UNL A   1      34.117  22.289  25.128  1.00  0.00    -0.462 OA
BRANCH   3   4
ATOM      4  C   UNL A   1      33.776  22.976  24.002  1.00  0.00     0.313 C 
ATOM      5  O   UNL A   1      33.260  22.456  23.019  1.00  0.00    -0.252 OA
BRANCH   4   6
ATOM      6  C   UNL A   1      34.174  24.459  24.070  1.00  0.00     0.126 C 
ATOM      7  C   UNL A   1      35.005  24.797  25.314  1.00  0.00     0.025 C 
BRANCH   6   8
ATOM      8  C   UNL A   1      32.973  25.382  23.868  1.00  0.00    -0.031 A 
ATOM      9  C   UNL A   1      32.403  25.636  22.614  1.00  0.00     0.005 A 
ATOM     10  C   UNL A   1      32.421  26.050  24.971  1.00  0.00     0.044 A 
ATOM     11  C   UNL A   1      31.334  26.536  22.473  1.00  0.00     0.012 A 
ATOM     12  C   UNL A   1      31.353  26.944  24.821  1.00  0.00     0.131 A 
ATOM     13  C   UNL A   1      30.785  27.228  23.570  1.00  0.00     0.017 A 
ATOM     14  F   UNL A   1      30.898  27.540  25.934  1.00  0.00    -0.206 F 
BRANCH  13  15
ATOM     15  C   UNL A   1      29.721  28.247  23.373  1.00  0.00    -0.015 A 
ATOM     16  C   UNL A   1      30.001  29.626  23.431  1.00  0.00     0.009 A 
ATOM     17  C   UNL A   1      28.375  27.883  23.178  1.00  0.00     0.009 A 
ATOM     18  C   UNL A   1      28.988  30.588  23.335  1.00  0.00     0.001 A 
ATOM     19  C   UNL A   1      27.364  28.842  23.062  1.00  0.00     0.001 A 
ATOM     20  C   UNL A   1      27.668  30.195  23.156  1.00  0.00     0.000 A 
ENDBRANCH  13  15
ENDBRANCH   6   8
ENDBRANCH   4   6
ENDBRANCH   3   4
ENDBRANCH   2   3
ENDBRANCH   1   2
BRANCH   1  21
ATOM     21  O   UNL A   1      36.844  21.499  25.775  1.00  0.00    -0.458 OA
BRANCH  21  22
ATOM     22  C   UNL A   1      38.185  21.332  25.757  1.00  0.00     0.338 C 
ATOM     23  O   UNL A   1      38.804  20.356  25.343  1.00  0.00    -0.246 OA
BRANCH  22  24
ATOM     24  C   UNL A   1      38.833  22.520  26.326  1.00  0.00     0.060 A 
ATOM     25  C   UNL A   1      38.280  23.779  26.107  1.00  0.00     0.016 A 
ATOM     26  C   UNL A   1      40.053  22.396  26.993  1.00  0.00     0.016 A 
ATOM     27  C   UNL A   1      38.994  24.918  26.470  1.00  0.00     0.010 A 
ATOM     28  C   UNL A   1      40.724  23.544  27.432  1.00  0.00     0.010 A 
ATOM     29  C   UNL A   1      40.228  24.825  27.131  1.00  0.00    -0.014 A 
BRANCH  29  30
ATOM     30  C   UNL A   1      41.019  26.059  27.426  1.00  0.00     0.031 A 
ATOM     31  C   UNL A   1      40.524  27.047  28.456  1.00  0.00     0.074 A 
ATOM     32  C   UNL A   1      42.208  26.274  26.827  1.00  0.00     0.049 A 
ATOM     33  N   UNL A   1      40.979  28.239  28.753  1.00  0.00    -0.248 NA
ATOM     34  C   UNL A   1      39.338  26.654  29.232  1.00  0.00     0.031 C 
ATOM     35  C   UNL A   1      42.849  25.369  25.871  1.00  0.00     0.029 A 
ATOM     36  N   UNL A   1      43.121  27.290  26.974  1.00  0.00    -0.354 N 
ATOM     37  C   UNL A   1      40.087  28.771  29.680  1.00  0.00     0.074 A 
ATOM     38  C   UNL A   1      39.072  27.764  29.905  1.00  0.00     0.031 C 
ATOM     39  C   UNL A   1      44.093  25.804  25.619  1.00  0.00     0.029 A 
ATOM     40  C   UNL A   1      44.304  27.075  26.303  1.00  0.00     0.049 A 
ATOM     41  H   UNL A   1      42.946  28.097  27.510  1.00  0.00     0.167 HD
ATOM     42  C   UNL A   1      40.107  29.993  30.270  1.00  0.00     0.034 A 
ATOM     43  C   UNL A   1      45.429  27.815  26.247  1.00  0.00     0.034 A 
ATOM     44  C   UNL A   1      41.177  30.946  30.102  1.00  0.00     0.049 A 
ATOM     45  C   UNL A   1      45.453  29.149  26.951  1.00  0.00     0.074 A 
ATOM     46  C   UNL A   1      41.289  32.224  30.627  1.00  0.00     0.029 A 
ATOM     47  N   UNL A   1      42.337  30.716  29.375  1.00  0.00    -0.354 N 
ATOM     48  N   UNL A   1      44.543  29.692  27.726  1.00  0.00    -0.248 NA
ATOM     49  C   UNL A   1      46.643  29.983  26.742  1.00  0.00     0.031 C 
ATOM     50  C   UNL A   1      42.495  32.779  30.181  1.00  0.00     0.029 A 
ATOM     51  C   UNL A   1      43.164  31.828  29.428  1.00  0.00     0.049 A 
ATOM     52  H   UNL A   1      42.544  29.883  28.893  1.00  0.00     0.167 HD
ATOM     53  C   UNL A   1      45.048  30.939  28.082  1.00  0.00     0.074 A 
ATOM     54  C   UNL A   1      46.363  31.042  27.486  1.00  0.00     0.031 C 
ATOM     55  C   UNL A   1      44.466  31.922  28.815  1.00  0.00     0.034 A 
BRANCH  42  56
ATOM     56  C   UNL A   1      38.894  30.399  31.072  1.00  0.00     0.023 A 
ATOM     57  C   UNL A   1      37.779  31.029  30.496  1.00  0.00     0.031 A 
ATOM     58  C   UNL A   1      38.877  30.174  32.461  1.00  0.00     0.131 A 
ATOM     59  C   UNL A   1      36.726  31.472  31.314  1.00  0.00     0.055 A 
ATOM     60  C   UNL A   1      37.794  30.548  33.260  1.00  0.00     0.041 A 
ATOM     61  F   UNL A   1      39.923  29.593  33.073  1.00  0.00    -0.206 F 
ATOM     62  C   UNL A   1      36.716  31.214  32.688  1.00  0.00     0.022 A 
BRANCH  59  63
ATOM     63  S   UNL A   1      35.433  32.513  30.581  1.00  0.00     0.124 S 
ATOM     64  O   UNL A   1      34.342  32.348  31.539  1.00  0.00    -0.237 OA
ATOM     65  O   UNL A   1      36.065  33.826  30.553  1.00  0.00    -0.237 OA
ATOM     66  O   UNL A   1      35.202  31.901  29.274  1.00  0.00    -0.744 OA
ENDBRANCH  59  63
ENDBRANCH  42  56
BRANCH  43  67
ATOM     67  C   UNL A   1      46.624  27.337  25.490  1.00  0.00     0.023 A 
ATOM     68  C   UNL A   1      46.890  27.820  24.198  1.00  0.00     0.031 A 
ATOM     69  C   UNL A   1      47.494  26.368  26.020  1.00  0.00     0.131 A 
ATOM     70  C   UNL A   1      47.975  27.311  23.468  1.00  0.00     0.055 A 
ATOM     71  C   UNL A   1      48.609  25.911  25.315  1.00  0.00     0.041 A 
ATOM     72  F   UNL A   1      47.282  25.859  27.244  1.00  0.00    -0.206 F 
ATOM     73  C   UNL A   1      48.848  26.375  24.025  1.00  0.00     0.022 A 
BRANCH  70  74
ATOM     74  S   UNL A   1      48.177  27.822  21.740  1.00  0.00     0.124 S 
ATOM     75  O   UNL A   1      49.291  28.760  21.834  1.00  0.00    -0.237 OA
ATOM     76  O   UNL A   1      48.461  26.552  21.079  1.00  0.00    -0.237 OA
ATOM     77  O   UNL A   1      46.885  28.420  21.409  1.00  0.00    -0.744 OA
ENDBRANCH  70  74
ENDBRANCH  43  67
BRANCH  55  78
ATOM     78  C   UNL A   1      45.259  33.189  29.005  1.00  0.00     0.023 A 
ATOM     79  C   UNL A   1      45.139  34.266  28.109  1.00  0.00     0.031 A 
ATOM     80  C   UNL A   1      46.149  33.318  30.085  1.00  0.00     0.131 A 
ATOM     81  C   UNL A   1      45.937  35.408  28.278  1.00  0.00     0.055 A 
ATOM     82  C   UNL A   1      46.904  34.477  30.277  1.00  0.00     0.041 A 
ATOM     83  F   UNL A   1      46.299  32.320  30.970  1.00  0.00    -0.206 F 
ATOM     84  C   UNL A   1      46.809  35.524  29.364  1.00  0.00     0.022 A 
BRANCH  81  85
ATOM     85  S   UNL A   1      45.874  36.710  27.017  1.00  0.00     0.124 S 
ATOM     86  O   UNL A   1      46.703  37.752  27.613  1.00  0.00    -0.237 OA
ATOM     87  O   UNL A   1      46.434  36.040  25.848  1.00  0.00    -0.237 OA
ATOM     88  O   UNL A   1      44.450  37.028  26.924  1.00  0.00    -0.744 OA
ENDBRANCH  81  85
ENDBRANCH  55  78
ENDBRANCH  29  30
ENDBRANCH  22  24
ENDBRANCH  21  22
ENDBRANCH   1  21
TORSDOF 16
ENDMDL
MODEL 2
REMARK VINA RESULT:     -12.2      1.501      2.067
REMARK SMILES C[C@@H](C(=O)OCCOC(=O)c1ccc(-c2c3nc(c(-c4cc(S(=O)(=O)[O-])ccc4F)c4ccc([nH]4)c(-c4cc(S(=O)(=O)[O-])ccc4F)c4nc(c(-c5cc(S(=O)(=O)[O-])ccc5F)c5ccc2[nH]5)C=C4)C=C3)cc1)c1ccc(-c2ccccc2)c(F)c1
REMARK SMILES IDX 7 1 6 2 5 3 3 4 4 5 2 6 1 7 74 8 75 9 86 10 76 11 84 12
REMARK SMILES IDX 77 13 85 14 78 15 79 16 83 17 80 18 82 19 81 20 8 21 9 22
REMARK SMILES IDX 10 23 11 24 12 25 73 26 13 27 72 28 14 29 15 30 16 31 66 32
REMARK SMILES IDX 17 33 71 34 65 35 67 36 18 37 70 38 64 39 63 40 19 42 51 43
REMARK SMILES IDX 31 44 50 45 32 46 35 47 49 48 68 49 33 50 34 51 48 53 69 54
REMARK SMILES IDX 36 55 20 56 21 57 29 58 22 59 28 60 30 61 27 62 23 63 24 64
REMARK SMILES IDX 25 65 26 66 52 67 53 68 61 69 54 70 60 71 62 72 59 73 55 74
REMARK SMILES IDX 56 75 57 76 58 77 37 78 38 79 46 80 39 81 45 82 47 83 44 84
REMARK SMILES IDX 40 85 41 86 42 87 43 88
REMARK H PARENT 67 41 35 52
REMARK Flexibility Score: inf
ROOT
ATOM      1  C   UNL A   1      36.179  20.203  25.085  1.00  0.00     0.275 C 
ENDROOT
BRANCH   1   2
ATOM      2  C   UNL A   1      34.729  20.494  25.455  1.00  0.00     0.274 C 
BRANCH   2   3
ATOM      3  O   UNL A   1      33.973  20.829  24.274  1.00  0.00    -0.462 OA
BRANCH   3   4
ATOM      4  C   UNL A   1      32.640  20.543  24.295  1.00  0.00     0.313 C 
ATOM      5  O   UNL A   1      32.167  19.544  24.825  1.00  0.00    -0.252 OA
BRANCH   4   6
ATOM      6  C   UNL A   1      31.802  21.573  23.519  1.00  0.00     0.126 C 
ATOM      7  C   UNL A   1      32.053  21.529  22.007  1.00  0.00     0.025 C 
BRANCH   6   8
ATOM      8  C   UNL A   1      31.923  22.974  24.117  1.00  0.00    -0.031 A 
ATOM      9  C   UNL A   1      32.205  24.112  23.353  1.00  0.00     0.005 A 
ATOM     10  C   UNL A   1      31.785  23.148  25.503  1.00  0.00     0.044 A 
ATOM     11  C   UNL A   1      32.360  25.371  23.957  1.00  0.00     0.012 A 
ATOM     12  C   UNL A   1      31.939  24.408  26.097  1.00  0.00     0.131 A 
ATOM     13  C   UNL A   1      32.245  25.555  25.348  1.00  0.00     0.017 A 
ATOM     14  F   UNL A   1      31.797  24.473  27.429  1.00  0.00    -0.206 F 
BRANCH  13  15
ATOM     15  C   UNL A   1      32.513  26.880  25.966  1.00  0.00    -0.015 A 
ATOM     16  C   UNL A   1      33.823  27.380  26.102  1.00  0.00     0.009 A 
ATOM     17  C   UNL A   1      31.477  27.671  26.498  1.00  0.00     0.009 A 
ATOM     18  C   UNL A   1      34.087  28.586  26.762  1.00  0.00     0.001 A 
ATOM     19  C   UNL A   1      31.736  28.886  27.141  1.00  0.00     0.001 A 
ATOM     20  C   UNL A   1      33.043  29.336  27.287  1.00  0.00     0.000 A 
ENDBRANCH  13  15
ENDBRANCH   6   8
ENDBRANCH   4   6
ENDBRANCH   3   4
ENDBRANCH   2   3
ENDBRANCH   1   2
BRANCH   1  21
ATOM     21  O   UNL A   1      36.991  21.339  25.415  1.00  0.00    -0.458 OA
BRANCH  21  22
ATOM     22  C   UNL A   1      38.309  21.099  25.591  1.00  0.00     0.338 C 
ATOM     23  O   UNL A   1      38.918  20.068  25.317  1.00  0.00    -0.246 OA
BRANCH  22  24
ATOM     24  C   UNL A   1      38.947  22.281  26.185  1.00  0.00     0.060 A 
ATOM     25  C   UNL A   1      38.320  23.521  26.094  1.00  0.00     0.016 A 
ATOM     26  C   UNL A   1      40.222  22.178  26.744  1.00  0.00     0.016 A 
ATOM     27  C   UNL A   1      39.008  24.670  26.475  1.00  0.00     0.010 A 
ATOM     28  C   UNL A   1      40.873  23.330  27.204  1.00  0.00     0.010 A 
ATOM     29  C   UNL A   1      40.295  24.600  27.029  1.00  0.00    -0.014 A 
BRANCH  29  30
ATOM     30  C   UNL A   1      41.050  25.852  27.341  1.00  0.00     0.031 A 
ATOM     31  C   UNL A   1      40.505  26.831  28.355  1.00  0.00     0.074 A 
ATOM     32  C   UNL A   1      42.250  26.093  26.774  1.00  0.00     0.049 A 
ATOM     33  N   UNL A   1      40.925  28.033  28.661  1.00  0.00    -0.248 NA
ATOM     34  C   UNL A   1      39.308  26.413  29.100  1.00  0.00     0.031 C 
ATOM     35  C   UNL A   1      42.936  25.200  25.838  1.00  0.00     0.029 A 
ATOM     36  N   UNL A   1      43.134  27.129  26.943  1.00  0.00    -0.354 N 
ATOM     37  C   UNL A   1      39.996  28.547  29.562  1.00  0.00     0.074 A 
ATOM     38  C   UNL A   1      38.998  27.518  29.763  1.00  0.00     0.031 C 
ATOM     39  C   UNL A   1      44.176  25.663  25.618  1.00  0.00     0.029 A 
ATOM     40  C   UNL A   1      44.340  26.940  26.304  1.00  0.00     0.049 A 
ATOM     41  H   UNL A   1      42.927  27.933  27.472  1.00  0.00     0.167 HD
ATOM     42  C   UNL A   1      39.973  29.770  30.150  1.00  0.00     0.034 A 
ATOM     43  C   UNL A   1      45.449  27.705  26.277  1.00  0.00     0.034 A 
ATOM     44  C   UNL A   1      41.025  30.747  30.008  1.00  0.00     0.049 A 
ATOM     45  C   UNL A   1      45.424  29.041  26.977  1.00  0.00     0.074 A 
ATOM     46  C   UNL A   1      41.095  32.028  30.532  1.00  0.00     0.029 A 
ATOM     47  N   UNL A   1      42.210  30.541  29.313  1.00  0.00    -0.354 N 
ATOM     48  N   UNL A   1      44.482  29.564  27.726  1.00  0.00    -0.248 NA
ATOM     49  C   UNL A   1      46.600  29.901  26.798  1.00  0.00     0.031 C 
ATOM     50  C   UNL A   1      42.299  32.610  30.117  1.00  0.00     0.029 A 
ATOM     51  C   UNL A   1      43.009  31.673  29.385  1.00  0.00     0.049 A 
ATOM     52  H   UNL A   1      42.448  29.712  28.838  1.00  0.00     0.167 HD
ATOM     53  C   UNL A   1      44.948  30.823  28.093  1.00  0.00     0.074 A 
ATOM     54  C   UNL A   1      46.277  30.955  27.532  1.00  0.00     0.031 C 
ATOM     55  C   UNL A   1      44.325  31.795  28.806  1.00  0.00     0.034 A 
BRANCH  42  56
ATOM     56  C   UNL A   1      38.730  30.150  30.918  1.00  0.00     0.023 A 
ATOM     57  C   UNL A   1      37.666  30.860  30.337  1.00  0.00     0.031 A 
ATOM     58  C   UNL A   1      38.632  29.817  32.281  1.00  0.00     0.131 A 
ATOM     59  C   UNL A   1      36.583  31.270  31.133  1.00  0.00     0.055 A 
ATOM     60  C   UNL A   1      37.518  30.161  33.050  1.00  0.00     0.041 A 
ATOM     61  F   UNL A   1      39.626  29.157  32.898  1.00  0.00    -0.206 F 
ATOM     62  C   UNL A   1      36.491  30.905  32.479  1.00  0.00     0.022 A 
BRANCH  59  63
ATOM     63  S   UNL A   1      35.361  32.405  30.420  1.00  0.00     0.124 S 
ATOM     64  O   UNL A   1      34.991  31.709  29.190  1.00  0.00    -0.237 OA
ATOM     65  O   UNL A   1      34.338  32.459  31.457  1.00  0.00    -0.237 OA
ATOM     66  O   UNL A   1      36.116  33.641  30.222  1.00  0.00    -0.744 OA
ENDBRANCH  59  63
ENDBRANCH  42  56
BRANCH  43  67
ATOM     67  C   UNL A   1      46.675  27.253  25.554  1.00  0.00     0.023 A 
ATOM     68  C   UNL A   1      46.961  27.735  24.266  1.00  0.00     0.031 A 
ATOM     69  C   UNL A   1      47.554  26.307  26.111  1.00  0.00     0.131 A 
ATOM     70  C   UNL A   1      48.078  27.249  23.567  1.00  0.00     0.055 A 
ATOM     71  C   UNL A   1      48.697  25.875  25.437  1.00  0.00     0.041 A 
ATOM     72  F   UNL A   1      47.323  25.800  27.332  1.00  0.00    -0.206 F 
ATOM     73  C   UNL A   1      48.958  26.338  24.151  1.00  0.00     0.022 A 
BRANCH  70  74
ATOM     74  S   UNL A   1      48.312  27.757  21.841  1.00  0.00     0.124 S 
ATOM     75  O   UNL A   1      48.616  26.484  21.195  1.00  0.00    -0.237 OA
ATOM     76  O   UNL A   1      47.017  28.347  21.520  1.00  0.00    -0.237 OA
ATOM     77  O   UNL A   1      49.425  28.701  21.912  1.00  0.00    -0.744 OA
ENDBRANCH  70  74
ENDBRANCH  43  67
BRANCH  55  78
ATOM     78  C   UNL A   1      45.084  33.079  29.015  1.00  0.00     0.023 A 
ATOM     79  C   UNL A   1      44.993  34.138  28.093  1.00  0.00     0.031 A 
ATOM     80  C   UNL A   1      45.912  33.245  30.138  1.00  0.00     0.131 A 
ATOM     81  C   UNL A   1      45.760  35.298  28.283  1.00  0.00     0.055 A 
ATOM     82  C   UNL A   1      46.634  34.421  30.347  1.00  0.00     0.041 A 
ATOM     83  F   UNL A   1      46.032  32.266  31.048  1.00  0.00    -0.206 F 
ATOM     84  C   UNL A   1      46.570  35.450  29.411  1.00  0.00     0.022 A 
BRANCH  81  85
ATOM     85  S   UNL A   1      45.741  36.575  26.995  1.00  0.00     0.124 S 
ATOM     86  O   UNL A   1      46.280  35.855  25.845  1.00  0.00    -0.237 OA
ATOM     87  O   UNL A   1      44.327  36.925  26.922  1.00  0.00    -0.237 OA
ATOM     88  O   UNL A   1      46.610  37.619  27.535  1.00  0.00    -0.744 OA
ENDBRANCH  81  85
ENDBRANCH  55  78
ENDBRANCH  29  30
ENDBRANCH  22  24
ENDBRANCH  21  22
ENDBRANCH   1  21
TORSDOF 16
ENDMDL
MODEL 3
REMARK VINA RESULT:     -12.2      5.186     10.531
REMARK SMILES C[C@@H](C(=O)OCCOC(=O)c1ccc(-c2c3nc(c(-c4cc(S(=O)(=O)[O-])ccc4F)c4ccc([nH]4)c(-c4cc(S(=O)(=O)[O-])ccc4F)c4nc(c(-c5cc(S(=O)(=O)[O-])ccc5F)c5ccc2[nH]5)C=C4)C=C3)cc1)c1ccc(-c2ccccc2)c(F)c1
REMARK SMILES IDX 7 1 6 2 5 3 3 4 4 5 2 6 1 7 74 8 75 9 86 10 76 11 84 12
REMARK SMILES IDX 77 13 85 14 78 15 79 16 83 17 80 18 82 19 81 20 8 21 9 22
REMARK SMILES IDX 10 23 11 24 12 25 73 26 13 27 72 28 14 29 15 30 16 31 66 32
REMARK SMILES IDX 17 33 71 34 65 35 67 36 18 37 70 38 64 39 63 40 19 42 51 43
REMARK SMILES IDX 31 44 50 45 32 46 35 47 49 48 68 49 33 50 34 51 48 53 69 54
REMARK SMILES IDX 36 55 20 56 21 57 29 58 22 59 28 60 30 61 27 62 23 63 24 64
REMARK SMILES IDX 25 65 26 66 52 67 53 68 61 69 54 70 60 71 62 72 59 73 55 74
REMARK SMILES IDX 56 75 57 76 58 77 37 78 38 79 46 80 39 81 45 82 47 83 44 84
REMARK SMILES IDX 40 85 41 86 42 87 43 88
REMARK H PARENT 67 41 35 52
REMARK Flexibility Score: inf
ROOT
ATOM      1  C   UNL A   1      31.385  30.118  25.311  1.00  0.00     0.275 C 
ENDROOT
BRANCH   1   2
ATOM      2  C   UNL A   1      31.333  28.862  24.449  1.00  0.00     0.274 C 
BRANCH   2   3
ATOM      3  O   UNL A   1      31.024  27.713  25.265  1.00  0.00    -0.462 OA
BRANCH   3   4
ATOM      4  C   UNL A   1      31.333  26.490  24.747  1.00  0.00     0.313 C 
ATOM      5  O   UNL A   1      30.875  26.063  23.694  1.00  0.00    -0.252 OA
BRANCH   4   6
ATOM      6  C   UNL A   1      32.261  25.677  25.665  1.00  0.00     0.126 C 
ATOM      7  C   UNL A   1      33.610  26.364  25.909  1.00  0.00     0.025 C 
BRANCH   6   8
ATOM      8  C   UNL A   1      32.389  24.226  25.205  1.00  0.00    -0.031 A 
ATOM      9  C   UNL A   1      31.481  23.223  25.568  1.00  0.00     0.005 A 
ATOM     10  C   UNL A   1      33.481  23.846  24.410  1.00  0.00     0.044 A 
ATOM     11  C   UNL A   1      31.673  21.891  25.165  1.00  0.00     0.012 A 
ATOM     12  C   UNL A   1      33.663  22.515  24.011  1.00  0.00     0.131 A 
ATOM     13  C   UNL A   1      32.776  21.494  24.386  1.00  0.00     0.017 A 
ATOM     14  F   UNL A   1      34.741  22.248  23.259  1.00  0.00    -0.206 F 
BRANCH  13  15
ATOM     15  C   UNL A   1      33.002  20.062  24.060  1.00  0.00    -0.015 A 
ATOM     16  C   UNL A   1      34.020  19.315  24.684  1.00  0.00     0.009 A 
ATOM     17  C   UNL A   1      32.250  19.401  23.069  1.00  0.00     0.009 A 
ATOM     18  C   UNL A   1      34.295  17.992  24.316  1.00  0.00     0.001 A 
ATOM     19  C   UNL A   1      32.510  18.073  22.714  1.00  0.00     0.001 A 
ATOM     20  C   UNL A   1      33.542  17.373  23.327  1.00  0.00     0.000 A 
ENDBRANCH  13  15
ENDBRANCH   6   8
ENDBRANCH   4   6
ENDBRANCH   3   4
ENDBRANCH   2   3
ENDBRANCH   1   2
BRANCH   1  21
ATOM     21  O   UNL A   1      32.342  29.932  26.366  1.00  0.00    -0.458 OA
BRANCH  21  22
ATOM     22  C   UNL A   1      32.807  31.056  26.954  1.00  0.00     0.338 C 
ATOM     23  O   UNL A   1      32.236  32.140  27.037  1.00  0.00    -0.246 OA
BRANCH  22  24
ATOM     24  C   UNL A   1      34.146  30.803  27.501  1.00  0.00     0.060 A 
ATOM     25  C   UNL A   1      34.609  29.495  27.613  1.00  0.00     0.016 A 
ATOM     26  C   UNL A   1      34.905  31.861  28.003  1.00  0.00     0.016 A 
ATOM     27  C   UNL A   1      35.786  29.237  28.311  1.00  0.00     0.010 A 
ATOM     28  C   UNL A   1      36.131  31.601  28.629  1.00  0.00     0.010 A 
ATOM     29  C   UNL A   1      36.564  30.280  28.837  1.00  0.00    -0.014 A 
BRANCH  29  30
ATOM     30  C   UNL A   1      37.772  29.974  29.663  1.00  0.00     0.031 A 
ATOM     31  C   UNL A   1      38.957  29.274  29.041  1.00  0.00     0.074 A 
ATOM     32  C   UNL A   1      37.846  30.373  30.950  1.00  0.00     0.049 A 
ATOM     33  N   UNL A   1      40.033  28.791  29.611  1.00  0.00    -0.248 NA
ATOM     34  C   UNL A   1      38.910  29.059  27.587  1.00  0.00     0.031 C 
ATOM     35  C   UNL A   1      36.812  31.127  31.661  1.00  0.00     0.029 A 
ATOM     36  N   UNL A   1      38.854  30.255  31.874  1.00  0.00    -0.354 N 
ATOM     37  C   UNL A   1      40.742  28.140  28.605  1.00  0.00     0.074 A 
ATOM     38  C   UNL A   1      39.979  28.303  27.386  1.00  0.00     0.031 C 
ATOM     39  C   UNL A   1      37.288  31.509  32.855  1.00  0.00     0.029 A 
ATOM     40  C   UNL A   1      38.617  30.937  33.046  1.00  0.00     0.049 A 
ATOM     41  H   UNL A   1      39.673  29.731  31.713  1.00  0.00     0.167 HD
ATOM     42  C   UNL A   1      41.910  27.455  28.699  1.00  0.00     0.034 A 
ATOM     43  C   UNL A   1      39.381  31.087  34.146  1.00  0.00     0.034 A 
ATOM     44  C   UNL A   1      42.702  27.382  29.904  1.00  0.00     0.049 A 
ATOM     45  C   UNL A   1      40.701  30.359  34.214  1.00  0.00     0.074 A 
ATOM     46  C   UNL A   1      43.885  26.695  30.123  1.00  0.00     0.029 A 
ATOM     47  N   UNL A   1      42.406  28.045  31.088  1.00  0.00    -0.354 N 
ATOM     48  N   UNL A   1      41.299  29.642  33.292  1.00  0.00    -0.248 NA
ATOM     49  C   UNL A   1      41.430  30.434  35.487  1.00  0.00     0.031 C 
ATOM     50  C   UNL A   1      44.278  26.907  31.450  1.00  0.00     0.029 A 
ATOM     51  C   UNL A   1      43.375  27.774  32.042  1.00  0.00     0.049 A 
ATOM     52  H   UNL A   1      41.622  28.623  31.229  1.00  0.00     0.167 HD
ATOM     53  C   UNL A   1      42.467  29.169  33.881  1.00  0.00     0.074 A 
ATOM     54  C   UNL A   1      42.517  29.727  35.216  1.00  0.00     0.031 C 
ATOM     55  C   UNL A   1      43.402  28.326  33.374  1.00  0.00     0.034 A 
BRANCH  42  56
ATOM     56  C   UNL A   1      42.348  26.657  27.495  1.00  0.00     0.023 A 
ATOM     57  C   UNL A   1      42.018  25.303  27.320  1.00  0.00     0.031 A 
ATOM     58  C   UNL A   1      43.149  27.271  26.514  1.00  0.00     0.131 A 
ATOM     59  C   UNL A   1      42.541  24.592  26.227  1.00  0.00     0.055 A 
ATOM     60  C   UNL A   1      43.605  26.579  25.390  1.00  0.00     0.041 A 
ATOM     61  F   UNL A   1      43.515  28.557  26.636  1.00  0.00    -0.206 F 
ATOM     62  C   UNL A   1      43.313  25.226  25.249  1.00  0.00     0.022 A 
BRANCH  59  63
ATOM     63  S   UNL A   1      42.317  22.792  26.173  1.00  0.00     0.124 S 
ATOM     64  O   UNL A   1      40.861  22.675  26.183  1.00  0.00    -0.237 OA
ATOM     65  O   UNL A   1      42.979  22.430  24.926  1.00  0.00    -0.237 OA
ATOM     66  O   UNL A   1      42.979  22.328  27.391  1.00  0.00    -0.744 OA
ENDBRANCH  59  63
ENDBRANCH  42  56
BRANCH  43  67
ATOM     67  C   UNL A   1      38.928  31.939  35.285  1.00  0.00     0.023 A 
ATOM     68  C   UNL A   1      38.362  31.356  36.431  1.00  0.00     0.031 A 
ATOM     69  C   UNL A   1      39.011  33.342  35.235  1.00  0.00     0.131 A 
ATOM     70  C   UNL A   1      37.874  32.171  37.465  1.00  0.00     0.055 A 
ATOM     71  C   UNL A   1      38.582  34.145  36.293  1.00  0.00     0.041 A 
ATOM     72  F   UNL A   1      39.528  33.955  34.159  1.00  0.00    -0.206 F 
ATOM     73  C   UNL A   1      37.998  33.560  37.413  1.00  0.00     0.022 A 
BRANCH  70  74
ATOM     74  S   UNL A   1      36.987  31.392  38.841  1.00  0.00     0.124 S 
ATOM     75  O   UNL A   1      35.768  32.191  38.902  1.00  0.00    -0.237 OA
ATOM     76  O   UNL A   1      36.833  30.021  38.366  1.00  0.00    -0.237 OA
ATOM     77  O   UNL A   1      37.898  31.559  39.972  1.00  0.00    -0.744 OA
ENDBRANCH  70  74
ENDBRANCH  43  67
BRANCH  55  78
ATOM     78  C   UNL A   1      44.554  27.966  34.277  1.00  0.00     0.023 A 
ATOM     79  C   UNL A   1      44.491  26.850  35.130  1.00  0.00     0.031 A 
ATOM     80  C   UNL A   1      45.720  28.749  34.292  1.00  0.00     0.131 A 
ATOM     81  C   UNL A   1      45.555  26.576  36.003  1.00  0.00     0.055 A 
ATOM     82  C   UNL A   1      46.797  28.443  35.127  1.00  0.00     0.041 A 
ATOM     83  F   UNL A   1      45.832  29.824  33.496  1.00  0.00    -0.206 F 
ATOM     84  C   UNL A   1      46.712  27.359  35.997  1.00  0.00     0.022 A 
BRANCH  81  85
ATOM     85  S   UNL A   1      45.374  25.226  37.201  1.00  0.00     0.124 S 
ATOM     86  O   UNL A   1      43.923  25.102  37.303  1.00  0.00    -0.237 OA
ATOM     87  O   UNL A   1      46.063  24.124  36.537  1.00  0.00    -0.237 OA
ATOM     88  O   UNL A   1      46.037  25.739  38.398  1.00  0.00    -0.744 OA
ENDBRANCH  81  85
ENDBRANCH  55  78
ENDBRANCH  29  30
ENDBRANCH  22  24
ENDBRANCH  21  22
ENDBRANCH   1  21
TORSDOF 16
ENDMDL
