MODEL 1
REMARK VINA RESULT:     -12.5      0.000      0.000
REMARK SMILES COc1cccc([C@H]2CC(c3ccc(S(C)(=O)=O)cc3)=NN2c2ccc(C(=O)OCCOC(=O)c3ccc(-c4c5nc(c(-c6cc(S(=O)(=O)[O-])ccc6F)c6ccc([nH]6)c(-c6cc(S(=O)(=O)[O-])ccc6F)c6nc(c(-c7cc(S(=O)(=O)[O-])ccc7F)c7ccc4[nH]7)C=C6)C=C5)cc3)cc2)c1
REMARK SMILES IDX 30 1 29 2 27 3 28 4 26 5 23 6 24 7 99 8 25 9 98 10 22 11
REMARK SMILES IDX 8 12 9 13 10 14 21 15 7 16 3 17 4 18 100 19 5 20 6 21 2 22
REMARK SMILES IDX 1 23 11 24 12 25 20 26 13 27 19 28 14 29 15 30 16 31 17 32
REMARK SMILES IDX 18 33 31 34 32 35 33 36 34 37 35 38 36 39 97 40 37 41 96 42
REMARK SMILES IDX 38 43 39 44 40 45 90 46 41 47 95 48 89 49 91 50 42 51 94 52
REMARK SMILES IDX 88 53 87 54 43 56 75 57 55 58 74 59 56 60 59 61 73 62 92 63
REMARK SMILES IDX 57 64 58 65 72 67 93 68 60 69 44 70 45 71 53 72 46 73 52 74
REMARK SMILES IDX 54 75 51 76 47 77 48 78 49 79 50 80 76 81 77 82 85 83 78 84
REMARK SMILES IDX 84 85 86 86 83 87 79 88 80 89 81 90 82 91 61 92 62 93 70 94
REMARK SMILES IDX 63 95 69 96 71 97 68 98 64 99 65 100 66 101 67 102
REMARK H PARENT 91 55 59 66
REMARK Flexibility Score: inf
ROOT
ATOM      1  C   UNL A   1      32.347  32.031  27.379  1.00  0.00     0.275 C 
ENDROOT
BRANCH   1   2
ATOM      2  O   UNL A   1      33.043  31.058  26.573  1.00  0.00    -0.458 OA
BRANCH   2   3
ATOM      3  C   UNL A   1      33.816  30.187  27.271  1.00  0.00     0.338 C 
ATOM      4  O   UNL A   1      34.763  30.466  27.986  1.00  0.00    -0.246 OA
BRANCH   3   5
ATOM      5  C   UNL A   1      33.336  28.803  27.087  1.00  0.00     0.060 A 
ATOM      6  C   UNL A   1      32.340  26.262  26.422  1.00  0.00     0.060 A 
ATOM      7  C   UNL A   1      33.625  26.646  26.032  1.00  0.00     0.029 A 
ATOM      8  C   UNL A   1      31.584  27.148  27.207  1.00  0.00     0.029 A 
ATOM      9  C   UNL A   1      34.102  27.920  26.325  1.00  0.00     0.018 A 
ATOM     10  C   UNL A   1      32.083  28.407  27.560  1.00  0.00     0.018 A 
BRANCH   6  11
ATOM     11  N   UNL A   1      31.798  25.065  25.960  1.00  0.00    -0.257 N 
ATOM     12  C   UNL A   1      30.598  25.043  25.114  1.00  0.00     0.144 C 
ATOM     13  C   UNL A   1      30.617  23.621  24.541  1.00  0.00     0.091 C 
ATOM     14  C   UNL A   1      31.962  23.154  25.027  1.00  0.00     0.071 C 
ATOM     15  N   UNL A   1      32.598  23.976  25.801  1.00  0.00    -0.176 NA
BRANCH  12  16
ATOM     16  C   UNL A   1      30.576  26.137  24.050  1.00  0.00    -0.019 A 
ATOM     17  C   UNL A   1      29.613  28.126  23.020  1.00  0.00     0.119 A 
ATOM     18  C   UNL A   1      30.555  28.054  21.994  1.00  0.00     0.046 A 
ATOM     19  C   UNL A   1      29.604  27.158  24.028  1.00  0.00     0.052 A 
ATOM     20  C   UNL A   1      31.511  27.043  21.990  1.00  0.00     0.004 A 
ATOM     21  C   UNL A   1      31.525  26.095  23.013  1.00  0.00     0.006 A 
BRANCH  17  22
ATOM     22  O   UNL A   1      28.716  29.151  22.907  1.00  0.00    -0.497 OA
ATOM     23  C   UNL A   1      29.168  30.418  23.375  1.00  0.00     0.278 C 
ENDBRANCH  17  22
ENDBRANCH  12  16
BRANCH  14  24
ATOM     24  C   UNL A   1      32.452  21.802  24.718  1.00  0.00    -0.002 A 
ATOM     25  C   UNL A   1      33.227  21.146  25.683  1.00  0.00     0.011 A 
ATOM     26  C   UNL A   1      32.110  21.160  23.525  1.00  0.00     0.011 A 
ATOM     27  C   UNL A   1      33.623  19.826  25.477  1.00  0.00     0.021 A 
ATOM     28  C   UNL A   1      32.527  19.844  23.305  1.00  0.00     0.021 A 
ATOM     29  C   UNL A   1      33.271  19.182  24.288  1.00  0.00     0.067 A 
BRANCH  29  30
ATOM     30  S   UNL A   1      33.721  17.475  24.067  1.00  0.00     0.175 S 
ATOM     31  C   UNL A   1      32.705  16.595  25.224  1.00  0.00     0.163 C 
ATOM     32  O   UNL A   1      33.314  17.113  22.722  1.00  0.00    -0.224 OA
ATOM     33  O   UNL A   1      35.104  17.328  24.481  1.00  0.00    -0.224 OA
ENDBRANCH  29  30
ENDBRANCH  14  24
ENDBRANCH   6  11
ENDBRANCH   3   5
ENDBRANCH   2   3
ENDBRANCH   1   2
BRANCH   1  34
ATOM     34  C   UNL A   1      33.212  33.266  27.623  1.00  0.00     0.275 C 
BRANCH  34  35
ATOM     35  O   UNL A   1      32.523  34.177  28.495  1.00  0.00    -0.458 OA
BRANCH  35  36
ATOM     36  C   UNL A   1      33.270  35.187  29.001  1.00  0.00     0.338 C 
ATOM     37  O   UNL A   1      33.075  36.381  28.852  1.00  0.00    -0.246 OA
BRANCH  36  38
ATOM     38  C   UNL A   1      34.403  34.642  29.779  1.00  0.00     0.060 A 
ATOM     39  C   UNL A   1      35.698  34.687  29.272  1.00  0.00     0.016 A 
ATOM     40  C   UNL A   1      34.157  33.970  30.975  1.00  0.00     0.016 A 
ATOM     41  C   UNL A   1      36.721  33.954  29.877  1.00  0.00     0.010 A 
ATOM     42  C   UNL A   1      35.212  33.339  31.649  1.00  0.00     0.010 A 
ATOM     43  C   UNL A   1      36.498  33.273  31.083  1.00  0.00    -0.014 A 
BRANCH  43  44
ATOM     44  C   UNL A   1      37.575  32.443  31.713  1.00  0.00     0.031 A 
ATOM     45  C   UNL A   1      37.975  32.691  33.150  1.00  0.00     0.074 A 
ATOM     46  C   UNL A   1      38.191  31.458  31.026  1.00  0.00     0.049 A 
ATOM     47  N   UNL A   1      39.006  32.236  33.818  1.00  0.00    -0.248 NA
ATOM     48  C   UNL A   1      37.111  33.591  33.929  1.00  0.00     0.031 C 
ATOM     49  C   UNL A   1      37.889  31.064  29.648  1.00  0.00     0.029 A 
ATOM     50  N   UNL A   1      39.197  30.597  31.398  1.00  0.00    -0.354 N 
ATOM     51  C   UNL A   1      38.956  32.852  35.067  1.00  0.00     0.074 A 
ATOM     52  C   UNL A   1      37.796  33.718  35.057  1.00  0.00     0.031 C 
ATOM     53  C   UNL A   1      38.649  30.011  29.313  1.00  0.00     0.029 A 
ATOM     54  C   UNL A   1      39.566  29.716  30.408  1.00  0.00     0.049 A 
ATOM     55  H   UNL A   1      39.614  30.609  32.290  1.00  0.00     0.167 HD
ATOM     56  C   UNL A   1      39.796  32.708  36.124  1.00  0.00     0.034 A 
ATOM     57  C   UNL A   1      40.558  28.802  30.359  1.00  0.00     0.034 A 
ATOM     58  C   UNL A   1      40.910  31.788  36.150  1.00  0.00     0.049 A 
ATOM     59  C   UNL A   1      41.487  28.666  31.536  1.00  0.00     0.074 A 
ATOM     60  C   UNL A   1      41.808  31.549  37.177  1.00  0.00     0.029 A 
ATOM     61  N   UNL A   1      41.266  30.940  35.110  1.00  0.00    -0.354 N 
ATOM     62  N   UNL A   1      41.476  29.318  32.675  1.00  0.00    -0.248 NA
ATOM     63  C   UNL A   1      42.571  27.685  31.412  1.00  0.00     0.031 C 
ATOM     64  C   UNL A   1      42.734  30.594  36.741  1.00  0.00     0.029 A 
ATOM     65  C   UNL A   1      42.378  30.189  35.465  1.00  0.00     0.049 A 
ATOM     66  H   UNL A   1      40.798  30.879  34.247  1.00  0.00     0.167 HD
ATOM     67  C   UNL A   1      42.554  28.823  33.404  1.00  0.00     0.074 A 
ATOM     68  C   UNL A   1      43.171  27.796  32.588  1.00  0.00     0.031 C 
ATOM     69  C   UNL A   1      42.998  29.188  34.632  1.00  0.00     0.034 A 
BRANCH  56  70
ATOM     70  C   UNL A   1      39.578  33.611  37.315  1.00  0.00     0.023 A 
ATOM     71  C   UNL A   1      40.315  34.793  37.506  1.00  0.00     0.031 A 
ATOM     72  C   UNL A   1      38.627  33.263  38.293  1.00  0.00     0.131 A 
ATOM     73  C   UNL A   1      40.141  35.543  38.681  1.00  0.00     0.055 A 
ATOM     74  C   UNL A   1      38.405  34.054  39.422  1.00  0.00     0.041 A 
ATOM     75  F   UNL A   1      37.905  32.138  38.173  1.00  0.00    -0.206 F 
ATOM     76  C   UNL A   1      39.175  35.194  39.629  1.00  0.00     0.022 A 
BRANCH  73  77
ATOM     77  S   UNL A   1      41.286  36.909  39.017  1.00  0.00     0.124 S 
ATOM     78  O   UNL A   1      40.366  37.981  39.389  1.00  0.00    -0.237 OA
ATOM     79  O   UNL A   1      42.110  36.374  40.095  1.00  0.00    -0.237 OA
ATOM     80  O   UNL A   1      41.975  37.102  37.743  1.00  0.00    -0.744 OA
ENDBRANCH  73  77
ENDBRANCH  56  70
BRANCH  57  81
ATOM     81  C   UNL A   1      40.777  27.993  29.124  1.00  0.00     0.023 A 
ATOM     82  C   UNL A   1      41.771  28.339  28.197  1.00  0.00     0.031 A 
ATOM     83  C   UNL A   1      39.967  26.879  28.840  1.00  0.00     0.131 A 
ATOM     84  C   UNL A   1      41.911  27.597  27.013  1.00  0.00     0.055 A 
ATOM     85  C   UNL A   1      40.146  26.111  27.689  1.00  0.00     0.041 A 
ATOM     86  F   UNL A   1      38.998  26.509  29.692  1.00  0.00    -0.206 F 
ATOM     87  C   UNL A   1      41.116  26.476  26.762  1.00  0.00     0.022 A 
BRANCH  84  88
ATOM     88  S   UNL A   1      43.104  28.161  25.767  1.00  0.00     0.124 S 
ATOM     89  O   UNL A   1      42.366  27.941  24.529  1.00  0.00    -0.237 OA
ATOM     90  O   UNL A   1      43.310  29.553  26.151  1.00  0.00    -0.237 OA
ATOM     91  O   UNL A   1      44.253  27.283  25.974  1.00  0.00    -0.744 OA
ENDBRANCH  84  88
ENDBRANCH  57  81
BRANCH  69  92
ATOM     92  C   UNL A   1      44.196  28.444  35.167  1.00  0.00     0.023 A 
ATOM     93  C   UNL A   1      44.054  27.252  35.899  1.00  0.00     0.031 A 
ATOM     94  C   UNL A   1      45.492  28.953  34.971  1.00  0.00     0.131 A 
ATOM     95  C   UNL A   1      45.184  26.639  36.460  1.00  0.00     0.055 A 
ATOM     96  C   UNL A   1      46.618  28.310  35.487  1.00  0.00     0.041 A 
ATOM     97  F   UNL A   1      45.683  30.088  34.281  1.00  0.00    -0.206 F 
ATOM     98  C   UNL A   1      46.465  27.152  36.248  1.00  0.00     0.022 A 
BRANCH  95  99
ATOM     99  S   UNL A   1      44.948  25.208  37.549  1.00  0.00     0.124 S 
ATOM    100  O   UNL A   1      43.866  24.492  36.881  1.00  0.00    -0.237 OA
ATOM    101  O   UNL A   1      46.258  24.565  37.510  1.00  0.00    -0.237 OA
ATOM    102  O   UNL A   1      44.593  25.809  38.833  1.00  0.00    -0.744 OA
ENDBRANCH  95  99
ENDBRANCH  69  92
ENDBRANCH  43  44
ENDBRANCH  36  38
ENDBRANCH  35  36
ENDBRANCH  34  35
ENDBRANCH   1  34
TORSDOF 19
ENDMDL
MODEL 2
REMARK VINA RESULT:     -12.4      1.913      2.217
REMARK SMILES COc1cccc([C@H]2CC(c3ccc(S(C)(=O)=O)cc3)=NN2c2ccc(C(=O)OCCOC(=O)c3ccc(-c4c5nc(c(-c6cc(S(=O)(=O)[O-])ccc6F)c6ccc([nH]6)c(-c6cc(S(=O)(=O)[O-])ccc6F)c6nc(c(-c7cc(S(=O)(=O)[O-])ccc7F)c7ccc4[nH]7)C=C6)C=C5)cc3)cc2)c1
REMARK SMILES IDX 30 1 29 2 27 3 28 4 26 5 23 6 24 7 99 8 25 9 98 10 22 11
REMARK SMILES IDX 8 12 9 13 10 14 21 15 7 16 3 17 4 18 100 19 5 20 6 21 2 22
REMARK SMILES IDX 1 23 11 24 12 25 20 26 13 27 19 28 14 29 15 30 16 31 17 32
REMARK SMILES IDX 18 33 31 34 32 35 33 36 34 37 35 38 36 39 97 40 37 41 96 42
REMARK SMILES IDX 38 43 39 44 40 45 90 46 41 47 95 48 89 49 91 50 42 51 94 52
REMARK SMILES IDX 88 53 87 54 43 56 75 57 55 58 74 59 56 60 59 61 73 62 92 63
REMARK SMILES IDX 57 64 58 65 72 67 93 68 60 69 44 70 45 71 53 72 46 73 52 74
REMARK SMILES IDX 54 75 51 76 47 77 48 78 49 79 50 80 76 81 77 82 85 83 78 84
REMARK SMILES IDX 84 85 86 86 83 87 79 88 80 89 81 90 82 91 61 92 62 93 70 94
REMARK SMILES IDX 63 95 69 96 71 97 68 98 64 99 65 100 66 101 67 102
REMARK H PARENT 91 55 59 66
REMARK Flexibility Score: inf
ROOT
ATOM      1  C   UNL A   1      31.940  31.938  27.112  1.00  0.00     0.275 C 
ENDROOT
BRANCH   1   2
ATOM      2  O   UNL A   1      32.984  31.187  26.458  1.00  0.00    -0.458 OA
BRANCH   2   3
ATOM      3  C   UNL A   1      33.669  30.339  27.267  1.00  0.00     0.338 C 
ATOM      4  O   UNL A   1      34.537  30.639  28.067  1.00  0.00    -0.246 OA
BRANCH   3   5
ATOM      5  C   UNL A   1      33.196  28.952  27.086  1.00  0.00     0.060 A 
ATOM      6  C   UNL A   1      32.211  26.405  26.426  1.00  0.00     0.060 A 
ATOM      7  C   UNL A   1      33.491  26.797  26.027  1.00  0.00     0.029 A 
ATOM      8  C   UNL A   1      31.456  27.285  27.217  1.00  0.00     0.029 A 
ATOM      9  C   UNL A   1      33.962  28.074  26.317  1.00  0.00     0.018 A 
ATOM     10  C   UNL A   1      31.950  28.547  27.567  1.00  0.00     0.018 A 
BRANCH   6  11
ATOM     11  N   UNL A   1      31.674  25.205  25.967  1.00  0.00    -0.257 N 
ATOM     12  C   UNL A   1      30.481  25.177  25.112  1.00  0.00     0.144 C 
ATOM     13  C   UNL A   1      30.505  23.751  24.548  1.00  0.00     0.091 C 
ATOM     14  C   UNL A   1      31.846  23.288  25.048  1.00  0.00     0.071 C 
ATOM     15  N   UNL A   1      32.475  24.115  25.823  1.00  0.00    -0.176 NA
BRANCH  12  16
ATOM     16  C   UNL A   1      30.467  26.264  24.040  1.00  0.00    -0.019 A 
ATOM     17  C   UNL A   1      29.526  28.259  23.003  1.00  0.00     0.119 A 
ATOM     18  C   UNL A   1      30.460  28.167  21.972  1.00  0.00     0.046 A 
ATOM     19  C   UNL A   1      29.510  27.298  24.017  1.00  0.00     0.052 A 
ATOM     20  C   UNL A   1      31.403  27.143  21.968  1.00  0.00     0.004 A 
ATOM     21  C   UNL A   1      31.409  26.202  22.998  1.00  0.00     0.006 A 
BRANCH  17  22
ATOM     22  O   UNL A   1      28.643  29.296  22.888  1.00  0.00    -0.497 OA
ATOM     23  C   UNL A   1      29.019  30.327  21.981  1.00  0.00     0.278 C 
ENDBRANCH  17  22
ENDBRANCH  12  16
BRANCH  14  24
ATOM     24  C   UNL A   1      32.339  21.934  24.752  1.00  0.00    -0.002 A 
ATOM     25  C   UNL A   1      32.793  21.150  25.821  1.00  0.00     0.011 A 
ATOM     26  C   UNL A   1      32.302  21.414  23.456  1.00  0.00     0.011 A 
ATOM     27  C   UNL A   1      33.170  19.827  25.602  1.00  0.00     0.021 A 
ATOM     28  C   UNL A   1      32.703  20.095  23.229  1.00  0.00     0.021 A 
ATOM     29  C   UNL A   1      33.123  19.305  24.306  1.00  0.00     0.067 A 
BRANCH  29  30
ATOM     30  S   UNL A   1      33.538  17.595  24.050  1.00  0.00     0.175 S 
ATOM     31  C   UNL A   1      32.717  16.738  25.368  1.00  0.00     0.163 C 
ATOM     32  O   UNL A   1      32.926  17.207  22.792  1.00  0.00    -0.224 OA
ATOM     33  O   UNL A   1      34.968  17.455  24.245  1.00  0.00    -0.224 OA
ENDBRANCH  29  30
ENDBRANCH  14  24
ENDBRANCH   6  11
ENDBRANCH   3   5
ENDBRANCH   2   3
ENDBRANCH   1   2
BRANCH   1  34
ATOM     34  C   UNL A   1      32.287  33.424  27.176  1.00  0.00     0.275 C 
BRANCH  34  35
ATOM     35  O   UNL A   1      32.559  33.800  28.536  1.00  0.00    -0.458 OA
BRANCH  35  36
ATOM     36  C   UNL A   1      33.550  34.708  28.709  1.00  0.00     0.338 C 
ATOM     37  O   UNL A   1      33.555  35.862  28.316  1.00  0.00    -0.246 OA
BRANCH  36  38
ATOM     38  C   UNL A   1      34.673  34.100  29.455  1.00  0.00     0.060 A 
ATOM     39  C   UNL A   1      35.989  34.424  29.140  1.00  0.00     0.016 A 
ATOM     40  C   UNL A   1      34.416  33.106  30.397  1.00  0.00     0.016 A 
ATOM     41  C   UNL A   1      37.046  33.672  29.658  1.00  0.00     0.010 A 
ATOM     42  C   UNL A   1      35.483  32.436  31.011  1.00  0.00     0.010 A 
ATOM     43  C   UNL A   1      36.813  32.668  30.610  1.00  0.00    -0.014 A 
BRANCH  43  44
ATOM     44  C   UNL A   1      37.933  31.823  31.134  1.00  0.00     0.031 A 
ATOM     45  C   UNL A   1      38.435  32.025  32.545  1.00  0.00     0.074 A 
ATOM     46  C   UNL A   1      38.499  30.863  30.372  1.00  0.00     0.049 A 
ATOM     47  N   UNL A   1      39.513  31.553  33.122  1.00  0.00    -0.248 NA
ATOM     48  C   UNL A   1      37.629  32.896  33.414  1.00  0.00     0.031 C 
ATOM     49  C   UNL A   1      38.099  30.512  29.008  1.00  0.00     0.029 A 
ATOM     50  N   UNL A   1      39.530  29.994  30.642  1.00  0.00    -0.354 N 
ATOM     51  C   UNL A   1      39.552  32.127  34.391  1.00  0.00     0.074 A 
ATOM     52  C   UNL A   1      38.393  32.989  34.493  1.00  0.00     0.031 C 
ATOM     53  C   UNL A   1      38.834  29.473  28.584  1.00  0.00     0.029 A 
ATOM     54  C   UNL A   1      39.828  29.146  29.600  1.00  0.00     0.049 A 
ATOM     55  H   UNL A   1      40.011  29.979  31.502  1.00  0.00     0.167 HD
ATOM     56  C   UNL A   1      40.467  31.952  35.379  1.00  0.00     0.034 A 
ATOM     57  C   UNL A   1      40.815  28.238  29.449  1.00  0.00     0.034 A 
ATOM     58  C   UNL A   1      41.581  31.036  35.295  1.00  0.00     0.049 A 
ATOM     59  C   UNL A   1      41.827  28.068  30.552  1.00  0.00     0.074 A 
ATOM     60  C   UNL A   1      42.551  30.768  36.245  1.00  0.00     0.029 A 
ATOM     61  N   UNL A   1      41.862  30.224  34.204  1.00  0.00    -0.354 N 
ATOM     62  N   UNL A   1      41.898  28.683  31.709  1.00  0.00    -0.248 NA
ATOM     63  C   UNL A   1      42.901  27.095  30.317  1.00  0.00     0.031 C 
ATOM     64  C   UNL A   1      43.445  29.831  35.712  1.00  0.00     0.029 A 
ATOM     65  C   UNL A   1      42.998  29.466  34.453  1.00  0.00     0.049 A 
ATOM     66  H   UNL A   1      41.333  30.189  33.376  1.00  0.00     0.167 HD
ATOM     67  C   UNL A   1      43.026  28.168  32.341  1.00  0.00     0.074 A 
ATOM     68  C   UNL A   1      43.584  27.171  31.450  1.00  0.00     0.031 C 
ATOM     69  C   UNL A   1      43.558  28.494  33.546  1.00  0.00     0.034 A 
BRANCH  56  70
ATOM     70  C   UNL A   1      40.334  32.816  36.612  1.00  0.00     0.023 A 
ATOM     71  C   UNL A   1      39.523  32.450  37.700  1.00  0.00     0.031 A 
ATOM     72  C   UNL A   1      41.016  34.045  36.682  1.00  0.00     0.131 A 
ATOM     73  C   UNL A   1      39.358  33.337  38.777  1.00  0.00     0.055 A 
ATOM     74  C   UNL A   1      40.907  34.887  37.791  1.00  0.00     0.041 A 
ATOM     75  F   UNL A   1      41.792  34.454  35.666  1.00  0.00    -0.206 F 
ATOM     76  C   UNL A   1      40.062  34.542  38.840  1.00  0.00     0.022 A 
BRANCH  73  77
ATOM     77  S   UNL A   1      38.108  32.952  40.034  1.00  0.00     0.124 S 
ATOM     78  O   UNL A   1      38.554  31.643  40.504  1.00  0.00    -0.237 OA
ATOM     79  O   UNL A   1      38.260  34.053  40.979  1.00  0.00    -0.237 OA
ATOM     80  O   UNL A   1      36.855  32.944  39.283  1.00  0.00    -0.744 OA
ENDBRANCH  73  77
ENDBRANCH  56  70
BRANCH  57  81
ATOM     81  C   UNL A   1      40.945  27.471  28.177  1.00  0.00     0.023 A 
ATOM     82  C   UNL A   1      40.581  26.118  28.105  1.00  0.00     0.031 A 
ATOM     83  C   UNL A   1      41.469  28.076  27.020  1.00  0.00     0.131 A 
ATOM     84  C   UNL A   1      40.773  25.405  26.911  1.00  0.00     0.055 A 
ATOM     85  C   UNL A   1      41.608  27.378  25.820  1.00  0.00     0.041 A 
ATOM     86  F   UNL A   1      41.838  29.367  27.037  1.00  0.00    -0.206 F 
ATOM     87  C   UNL A   1      41.268  26.030  25.764  1.00  0.00     0.022 A 
BRANCH  84  88
ATOM     88  S   UNL A   1      40.433  23.622  26.896  1.00  0.00     0.124 S 
ATOM     89  O   UNL A   1      39.039  23.590  26.470  1.00  0.00    -0.237 OA
ATOM     90  O   UNL A   1      41.409  23.134  25.929  1.00  0.00    -0.237 OA
ATOM     91  O   UNL A   1      40.673  23.218  28.279  1.00  0.00    -0.744 OA
ENDBRANCH  84  88
ENDBRANCH  57  81
BRANCH  69  92
ATOM     92  C   UNL A   1      44.792  27.738  33.968  1.00  0.00     0.023 A 
ATOM     93  C   UNL A   1      44.705  26.509  34.645  1.00  0.00     0.031 A 
ATOM     94  C   UNL A   1      46.069  28.271  33.720  1.00  0.00     0.131 A 
ATOM     95  C   UNL A   1      45.872  25.881  35.104  1.00  0.00     0.055 A 
ATOM     96  C   UNL A   1      47.230  27.615  34.133  1.00  0.00     0.041 A 
ATOM     97  F   UNL A   1      46.209  29.442  33.079  1.00  0.00    -0.206 F 
ATOM     98  C   UNL A   1      47.134  26.419  34.842  1.00  0.00     0.022 A 
BRANCH  95  99
ATOM     99  S   UNL A   1      45.715  24.394  36.131  1.00  0.00     0.124 S 
ATOM    100  O   UNL A   1      46.053  24.902  37.456  1.00  0.00    -0.237 OA
ATOM    101  O   UNL A   1      44.318  24.020  35.928  1.00  0.00    -0.237 OA
ATOM    102  O   UNL A   1      46.691  23.473  35.553  1.00  0.00    -0.744 OA
ENDBRANCH  95  99
ENDBRANCH  69  92
ENDBRANCH  43  44
ENDBRANCH  36  38
ENDBRANCH  35  36
ENDBRANCH  34  35
ENDBRANCH   1  34
TORSDOF 19
ENDMDL
MODEL 3
REMARK VINA RESULT:     -12.2      1.343      7.220
REMARK SMILES COc1cccc([C@H]2CC(c3ccc(S(C)(=O)=O)cc3)=NN2c2ccc(C(=O)OCCOC(=O)c3ccc(-c4c5nc(c(-c6cc(S(=O)(=O)[O-])ccc6F)c6ccc([nH]6)c(-c6cc(S(=O)(=O)[O-])ccc6F)c6nc(c(-c7cc(S(=O)(=O)[O-])ccc7F)c7ccc4[nH]7)C=C6)C=C5)cc3)cc2)c1
REMARK SMILES IDX 30 1 29 2 27 3 28 4 26 5 23 6 24 7 99 8 25 9 98 10 22 11
REMARK SMILES IDX 8 12 9 13 10 14 21 15 7 16 3 17 4 18 100 19 5 20 6 21 2 22
REMARK SMILES IDX 1 23 11 24 12 25 20 26 13 27 19 28 14 29 15 30 16 31 17 32
REMARK SMILES IDX 18 33 31 34 32 35 33 36 34 37 35 38 36 39 97 40 37 41 96 42
REMARK SMILES IDX 38 43 39 44 40 45 90 46 41 47 95 48 89 49 91 50 42 51 94 52
REMARK SMILES IDX 88 53 87 54 43 56 75 57 55 58 74 59 56 60 59 61 73 62 92 63
REMARK SMILES IDX 57 64 58 65 72 67 93 68 60 69 44 70 45 71 53 72 46 73 52 74
REMARK SMILES IDX 54 75 51 76 47 77 48 78 49 79 50 80 76 81 77 82 85 83 78 84
REMARK SMILES IDX 84 85 86 86 83 87 79 88 80 89 81 90 82 91 61 92 62 93 70 94
REMARK SMILES IDX 63 95 69 96 71 97 68 98 64 99 65 100 66 101 67 102
REMARK H PARENT 91 55 59 66
REMARK Flexibility Score: inf
ROOT
ATOM      1  C   UNL A   1      32.384  32.320  27.654  1.00  0.00     0.275 C 
ENDROOT
BRANCH   1   2
ATOM      2  O   UNL A   1      32.709  31.208  26.795  1.00  0.00    -0.458 OA
BRANCH   2   3
ATOM      3  C   UNL A   1      33.659  30.369  27.282  1.00  0.00     0.338 C 
ATOM      4  O   UNL A   1      34.707  30.688  27.816  1.00  0.00    -0.246 OA
BRANCH   3   5
ATOM      5  C   UNL A   1      33.245  28.962  27.117  1.00  0.00     0.060 A 
ATOM      6  C   UNL A   1      32.371  26.367  26.486  1.00  0.00     0.060 A 
ATOM      7  C   UNL A   1      33.638  26.806  26.094  1.00  0.00     0.029 A 
ATOM      8  C   UNL A   1      31.571  27.228  27.255  1.00  0.00     0.029 A 
ATOM      9  C   UNL A   1      34.054  28.104  26.370  1.00  0.00     0.018 A 
ATOM     10  C   UNL A   1      32.010  28.514  27.591  1.00  0.00     0.018 A 
BRANCH   6  11
ATOM     11  N   UNL A   1      31.887  25.140  26.039  1.00  0.00    -0.257 N 
ATOM     12  C   UNL A   1      30.690  25.049  25.194  1.00  0.00     0.144 C 
ATOM     13  C   UNL A   1      30.777  23.622  24.640  1.00  0.00     0.091 C 
ATOM     14  C   UNL A   1      32.143  23.227  25.132  1.00  0.00     0.071 C 
ATOM     15  N   UNL A   1      32.738  24.088  25.895  1.00  0.00    -0.176 NA
BRANCH  12  16
ATOM     16  C   UNL A   1      30.616  26.127  24.116  1.00  0.00    -0.019 A 
ATOM     17  C   UNL A   1      29.674  28.163  23.161  1.00  0.00     0.119 A 
ATOM     18  C   UNL A   1      30.482  28.011  22.034  1.00  0.00     0.046 A 
ATOM     19  C   UNL A   1      29.719  27.212  24.184  1.00  0.00     0.052 A 
ATOM     20  C   UNL A   1      31.361  26.936  21.941  1.00  0.00     0.004 A 
ATOM     21  C   UNL A   1      31.432  26.005  22.976  1.00  0.00     0.006 A 
BRANCH  17  22
ATOM     22  O   UNL A   1      28.841  29.246  23.129  1.00  0.00    -0.497 OA
ATOM     23  C   UNL A   1      27.467  28.959  22.890  1.00  0.00     0.278 C 
ENDBRANCH  17  22
ENDBRANCH  12  16
BRANCH  14  24
ATOM     24  C   UNL A   1      32.697  21.896  24.841  1.00  0.00    -0.002 A 
ATOM     25  C   UNL A   1      34.051  21.671  25.120  1.00  0.00     0.011 A 
ATOM     26  C   UNL A   1      31.890  20.863  24.357  1.00  0.00     0.011 A 
ATOM     27  C   UNL A   1      34.592  20.397  24.960  1.00  0.00     0.021 A 
ATOM     28  C   UNL A   1      32.437  19.590  24.171  1.00  0.00     0.021 A 
ATOM     29  C   UNL A   1      33.782  19.362  24.485  1.00  0.00     0.067 A 
BRANCH  29  30
ATOM     30  S   UNL A   1      34.465  17.726  24.352  1.00  0.00     0.175 S 
ATOM     31  C   UNL A   1      33.560  16.769  25.540  1.00  0.00     0.163 C 
ATOM     32  O   UNL A   1      34.133  17.248  23.022  1.00  0.00    -0.224 OA
ATOM     33  O   UNL A   1      35.848  17.789  24.785  1.00  0.00    -0.224 OA
ENDBRANCH  29  30
ENDBRANCH  14  24
ENDBRANCH   6  11
ENDBRANCH   3   5
ENDBRANCH   2   3
ENDBRANCH   1   2
BRANCH   1  34
ATOM     34  C   UNL A   1      33.480  33.385  27.616  1.00  0.00     0.275 C 
BRANCH  34  35
ATOM     35  O   UNL A   1      33.021  34.577  28.274  1.00  0.00    -0.458 OA
BRANCH  35  36
ATOM     36  C   UNL A   1      33.222  34.625  29.612  1.00  0.00     0.338 C 
ATOM     37  O   UNL A   1      32.523  35.193  30.433  1.00  0.00    -0.246 OA
BRANCH  36  38
ATOM     38  C   UNL A   1      34.448  33.879  29.969  1.00  0.00     0.060 A 
ATOM     39  C   UNL A   1      34.381  32.756  30.789  1.00  0.00     0.016 A 
ATOM     40  C   UNL A   1      35.693  34.374  29.582  1.00  0.00     0.016 A 
ATOM     41  C   UNL A   1      35.545  32.206  31.332  1.00  0.00     0.010 A 
ATOM     42  C   UNL A   1      36.862  33.743  30.029  1.00  0.00     0.010 A 
ATOM     43  C   UNL A   1      36.808  32.686  30.956  1.00  0.00    -0.014 A 
BRANCH  43  44
ATOM     44  C   UNL A   1      38.059  32.137  31.571  1.00  0.00     0.031 A 
ATOM     45  C   UNL A   1      38.854  31.075  30.845  1.00  0.00     0.074 A 
ATOM     46  C   UNL A   1      38.505  32.584  32.764  1.00  0.00     0.049 A 
ATOM     47  N   UNL A   1      39.837  30.326  31.281  1.00  0.00    -0.248 NA
ATOM     48  C   UNL A   1      38.474  30.805  29.450  1.00  0.00     0.031 C 
ATOM     49  C   UNL A   1      37.879  33.635  33.568  1.00  0.00     0.029 A 
ATOM     50  N   UNL A   1      39.604  32.218  33.506  1.00  0.00    -0.354 N 
ATOM     51  C   UNL A   1      40.141  29.449  30.243  1.00  0.00     0.074 A 
ATOM     52  C   UNL A   1      39.230  29.755  29.160  1.00  0.00     0.031 C 
ATOM     53  C   UNL A   1      38.628  33.865  34.656  1.00  0.00     0.029 A 
ATOM     54  C   UNL A   1      39.731  32.912  34.687  1.00  0.00     0.049 A 
ATOM     55  H   UNL A   1      40.241  31.524  33.219  1.00  0.00     0.167 HD
ATOM     56  C   UNL A   1      41.090  28.479  30.195  1.00  0.00     0.034 A 
ATOM     57  C   UNL A   1      40.603  32.774  35.708  1.00  0.00     0.034 A 
ATOM     58  C   UNL A   1      42.041  28.227  31.253  1.00  0.00     0.049 A 
ATOM     59  C   UNL A   1      41.640  31.685  35.641  1.00  0.00     0.074 A 
ATOM     60  C   UNL A   1      43.055  27.285  31.296  1.00  0.00     0.029 A 
ATOM     61  N   UNL A   1      42.108  28.933  32.447  1.00  0.00    -0.354 N 
ATOM     62  N   UNL A   1      41.857  30.808  34.688  1.00  0.00    -0.248 NA
ATOM     63  C   UNL A   1      42.538  31.556  36.796  1.00  0.00     0.031 C 
ATOM     64  C   UNL A   1      43.703  27.390  32.533  1.00  0.00     0.029 A 
ATOM     65  C   UNL A   1      43.136  28.439  33.237  1.00  0.00     0.049 A 
ATOM     66  H   UNL A   1      41.514  29.678  32.696  1.00  0.00     0.167 HD
ATOM     67  C   UNL A   1      42.918  30.024  35.132  1.00  0.00     0.074 A 
ATOM     68  C   UNL A   1      43.316  30.552  36.421  1.00  0.00     0.031 C 
ATOM     69  C   UNL A   1      43.506  28.958  34.531  1.00  0.00     0.034 A 
BRANCH  56  70
ATOM     70  C   UNL A   1      41.104  27.578  28.982  1.00  0.00     0.023 A 
ATOM     71  C   UNL A   1      42.084  27.686  27.979  1.00  0.00     0.031 A 
ATOM     72  C   UNL A   1      40.097  26.610  28.817  1.00  0.00     0.131 A 
ATOM     73  C   UNL A   1      41.993  26.890  26.825  1.00  0.00     0.055 A 
ATOM     74  C   UNL A   1      40.056  25.769  27.703  1.00  0.00     0.041 A 
ATOM     75  F   UNL A   1      39.126  26.472  29.733  1.00  0.00    -0.206 F 
ATOM     76  C   UNL A   1      40.998  25.917  26.691  1.00  0.00     0.022 A 
BRANCH  73  77
ATOM     77  S   UNL A   1      43.114  27.235  25.442  1.00  0.00     0.124 S 
ATOM     78  O   UNL A   1      42.331  28.186  24.656  1.00  0.00    -0.237 OA
ATOM     79  O   UNL A   1      44.289  27.779  26.114  1.00  0.00    -0.237 OA
ATOM     80  O   UNL A   1      43.303  25.927  24.818  1.00  0.00    -0.744 OA
ENDBRANCH  73  77
ENDBRANCH  56  70
BRANCH  57  81
ATOM     81  C   UNL A   1      40.490  33.640  36.917  1.00  0.00     0.023 A 
ATOM     82  C   UNL A   1      39.750  33.230  38.036  1.00  0.00     0.031 A 
ATOM     83  C   UNL A   1      41.097  34.909  36.955  1.00  0.00     0.131 A 
ATOM     84  C   UNL A   1      39.609  34.093  39.135  1.00  0.00     0.055 A 
ATOM     85  C   UNL A   1      40.999  35.741  38.070  1.00  0.00     0.041 A 
ATOM     86  F   UNL A   1      41.811  35.351  35.908  1.00  0.00    -0.206 F 
ATOM     87  C   UNL A   1      40.243  35.338  39.166  1.00  0.00     0.022 A 
BRANCH  84  88
ATOM     88  S   UNL A   1      38.524  33.594  40.501  1.00  0.00     0.124 S 
ATOM     89  O   UNL A   1      38.413  34.834  41.261  1.00  0.00    -0.237 OA
ATOM     90  O   UNL A   1      37.321  33.167  39.794  1.00  0.00    -0.237 OA
ATOM     91  O   UNL A   1      39.271  32.524  41.157  1.00  0.00    -0.744 OA
ENDBRANCH  84  88
ENDBRANCH  57  81
BRANCH  69  92
ATOM     92  C   UNL A   1      44.659  28.320  35.264  1.00  0.00     0.023 A 
ATOM     93  C   UNL A   1      44.472  27.204  36.098  1.00  0.00     0.031 A 
ATOM     94  C   UNL A   1      45.952  28.860  35.155  1.00  0.00     0.131 A 
ATOM     95  C   UNL A   1      45.551  26.695  36.835  1.00  0.00     0.055 A 
ATOM     96  C   UNL A   1      47.034  28.317  35.852  1.00  0.00     0.041 A 
ATOM     97  F   UNL A   1      46.185  29.926  34.375  1.00  0.00    -0.206 F 
ATOM     98  C   UNL A   1      46.833  27.237  36.708  1.00  0.00     0.022 A 
BRANCH  95  99
ATOM     99  S   UNL A   1      45.239  25.372  38.037  1.00  0.00     0.124 S 
ATOM    100  O   UNL A   1      43.821  25.101  37.828  1.00  0.00    -0.237 OA
ATOM    101  O   UNL A   1      46.161  24.329  37.598  1.00  0.00    -0.237 OA
ATOM    102  O   UNL A   1      45.570  25.989  39.320  1.00  0.00    -0.744 OA
ENDBRANCH  95  99
ENDBRANCH  69  92
ENDBRANCH  43  44
ENDBRANCH  36  38
ENDBRANCH  35  36
ENDBRANCH  34  35
ENDBRANCH   1  34
TORSDOF 19
ENDMDL
