MODEL 1
REMARK VINA RESULT:     -12.0      0.000      0.000
REMARK SMILES O=C(OCCOC(=O)c1cc(Br)ccc1OCc1ccc(O)cc1)c1ccc(-c2c3nc(c(-c4cc(S(=O)(=O)[O-])ccc4F)c4ccc([nH]4)c(-c4cc(S(=O)(=O)[O-])ccc4F)c4nc(c(-c5cc(S(=O)(=O)[O-])ccc5F)c5ccc2[nH]5)C=C4)C=C3)cc1
REMARK SMILES IDX 5 1 4 2 3 3 2 4 1 5 25 6 26 7 87 8 27 9 86 10 28 11 29 12
REMARK SMILES IDX 30 13 80 14 31 15 85 16 79 17 81 18 32 19 84 20 78 21 77 22
REMARK SMILES IDX 33 24 65 25 45 26 64 27 46 28 49 29 63 30 82 31 47 32 48 33
REMARK SMILES IDX 62 35 83 36 50 37 34 38 35 39 43 40 36 41 42 42 44 43 41 44
REMARK SMILES IDX 37 45 38 46 39 47 40 48 66 49 67 50 75 51 68 52 74 53 76 54
REMARK SMILES IDX 73 55 69 56 70 57 71 58 72 59 51 60 52 61 60 62 53 63 59 64
REMARK SMILES IDX 61 65 58 66 54 67 55 68 56 69 57 70 6 71 7 72 8 73 9 74
REMARK SMILES IDX 10 75 15 76 11 77 14 78 12 79 13 80 16 81 17 82 18 83 19 84
REMARK SMILES IDX 24 85 20 86 23 87 21 88 22 89
REMARK H PARENT 81 23 49 34 22 90
REMARK Flexibility Score: inf
ROOT
ATOM      1  C   UNL A   1      36.153  22.820  25.593  1.00  0.00     0.275 C 
ENDROOT
BRANCH   1   2
ATOM      2  C   UNL A   1      37.545  22.420  25.111  1.00  0.00     0.275 C 
BRANCH   2   3
ATOM      3  O   UNL A   1      38.396  21.833  26.109  1.00  0.00    -0.458 OA
BRANCH   3   4
ATOM      4  C   UNL A   1      39.591  22.318  26.540  1.00  0.00     0.338 C 
ATOM      5  O   UNL A   1      40.487  21.540  26.856  1.00  0.00    -0.246 OA
BRANCH   4   6
ATOM      6  C   UNL A   1      39.769  23.768  26.813  1.00  0.00     0.060 A 
ATOM      7  C   UNL A   1      40.277  24.687  25.891  1.00  0.00     0.016 A 
ATOM      8  C   UNL A   1      39.427  24.211  28.098  1.00  0.00     0.016 A 
ATOM      9  C   UNL A   1      40.362  26.045  26.217  1.00  0.00     0.010 A 
ATOM     10  C   UNL A   1      39.516  25.562  28.432  1.00  0.00     0.010 A 
ATOM     11  C   UNL A   1      40.001  26.484  27.496  1.00  0.00    -0.014 A 
BRANCH  11  12
ATOM     12  C   UNL A   1      40.420  27.829  27.950  1.00  0.00     0.031 A 
ATOM     13  C   UNL A   1      41.894  28.119  27.964  1.00  0.00     0.074 A 
ATOM     14  C   UNL A   1      39.537  28.766  28.336  1.00  0.00     0.049 A 
ATOM     15  N   UNL A   1      42.523  29.222  28.266  1.00  0.00    -0.248 NA
ATOM     16  C   UNL A   1      42.776  27.002  27.584  1.00  0.00     0.031 C 
ATOM     17  C   UNL A   1      38.085  28.605  28.371  1.00  0.00     0.029 A 
ATOM     18  N   UNL A   1      39.744  30.039  28.805  1.00  0.00    -0.354 N 
ATOM     19  C   UNL A   1      43.868  28.950  28.054  1.00  0.00     0.074 A 
ATOM     20  C   UNL A   1      43.971  27.548  27.716  1.00  0.00     0.031 C 
ATOM     21  C   UNL A   1      37.536  29.713  28.902  1.00  0.00     0.029 A 
ATOM     22  C   UNL A   1      38.596  30.661  29.235  1.00  0.00     0.049 A 
ATOM     23  H   UNL A   1      40.630  30.465  28.832  1.00  0.00     0.167 HD
ATOM     24  C   UNL A   1      44.919  29.803  28.078  1.00  0.00     0.034 A 
ATOM     25  C   UNL A   1      38.432  31.850  29.848  1.00  0.00     0.034 A 
ATOM     26  C   UNL A   1      44.809  31.179  28.480  1.00  0.00     0.049 A 
ATOM     27  C   UNL A   1      39.629  32.746  30.031  1.00  0.00     0.074 A 
ATOM     28  C   UNL A   1      45.790  32.151  28.532  1.00  0.00     0.029 A 
ATOM     29  N   UNL A   1      43.637  31.767  28.940  1.00  0.00    -0.354 N 
ATOM     30  N   UNL A   1      40.887  32.515  29.728  1.00  0.00    -0.248 NA
ATOM     31  C   UNL A   1      39.381  34.076  30.602  1.00  0.00     0.031 C 
ATOM     32  C   UNL A   1      45.224  33.308  29.083  1.00  0.00     0.029 A 
ATOM     33  C   UNL A   1      43.877  33.076  29.316  1.00  0.00     0.049 A 
ATOM     34  H   UNL A   1      42.763  31.316  28.992  1.00  0.00     0.167 HD
ATOM     35  C   UNL A   1      41.571  33.690  30.024  1.00  0.00     0.074 A 
ATOM     36  C   UNL A   1      40.591  34.618  30.552  1.00  0.00     0.031 C 
ATOM     37  C   UNL A   1      42.884  33.984  29.845  1.00  0.00     0.034 A 
BRANCH  24  38
ATOM     38  C   UNL A   1      46.252  29.223  27.676  1.00  0.00     0.023 A 
ATOM     39  C   UNL A   1      46.557  29.000  26.319  1.00  0.00     0.031 A 
ATOM     40  C   UNL A   1      47.163  28.769  28.641  1.00  0.00     0.131 A 
ATOM     41  C   UNL A   1      47.680  28.236  25.971  1.00  0.00     0.055 A 
ATOM     42  C   UNL A   1      48.328  28.087  28.281  1.00  0.00     0.041 A 
ATOM     43  F   UNL A   1      46.913  28.933  29.949  1.00  0.00    -0.206 F 
ATOM     44  C   UNL A   1      48.579  27.794  26.942  1.00  0.00     0.022 A 
BRANCH  41  45
ATOM     45  S   UNL A   1      47.828  27.657  24.257  1.00  0.00     0.124 S 
ATOM     46  O   UNL A   1      46.812  28.461  23.583  1.00  0.00    -0.237 OA
ATOM     47  O   UNL A   1      49.214  27.980  23.934  1.00  0.00    -0.237 OA
ATOM     48  O   UNL A   1      47.523  26.231  24.350  1.00  0.00    -0.744 OA
ENDBRANCH  41  45
ENDBRANCH  24  38
BRANCH  25  49
ATOM     49  C   UNL A   1      37.100  32.237  30.384  1.00  0.00     0.023 A 
ATOM     50  C   UNL A   1      36.167  32.960  29.626  1.00  0.00     0.031 A 
ATOM     51  C   UNL A   1      36.763  31.901  31.708  1.00  0.00     0.131 A 
ATOM     52  C   UNL A   1      34.945  33.341  30.206  1.00  0.00     0.055 A 
ATOM     53  C   UNL A   1      35.533  32.249  32.267  1.00  0.00     0.041 A 
ATOM     54  F   UNL A   1      37.635  31.230  32.476  1.00  0.00    -0.206 F 
ATOM     55  C   UNL A   1      34.618  32.979  31.516  1.00  0.00     0.022 A 
BRANCH  52  56
ATOM     56  S   UNL A   1      33.796  34.359  29.238  1.00  0.00     0.124 S 
ATOM     57  O   UNL A   1      32.875  34.828  30.268  1.00  0.00    -0.237 OA
ATOM     58  O   UNL A   1      34.686  35.363  28.667  1.00  0.00    -0.237 OA
ATOM     59  O   UNL A   1      33.229  33.415  28.278  1.00  0.00    -0.744 OA
ENDBRANCH  52  56
ENDBRANCH  25  49
BRANCH  37  60
ATOM     60  C   UNL A   1      43.321  35.389  30.157  1.00  0.00     0.023 A 
ATOM     61  C   UNL A   1      43.304  36.404  29.187  1.00  0.00     0.031 A 
ATOM     62  C   UNL A   1      43.734  35.715  31.460  1.00  0.00     0.131 A 
ATOM     63  C   UNL A   1      43.726  37.698  29.532  1.00  0.00     0.055 A 
ATOM     64  C   UNL A   1      44.107  37.012  31.808  1.00  0.00     0.041 A 
ATOM     65  F   UNL A   1      43.766  34.777  32.421  1.00  0.00    -0.206 F 
ATOM     66  C   UNL A   1      44.110  38.012  30.840  1.00  0.00     0.022 A 
BRANCH  63  67
ATOM     67  S   UNL A   1      43.807  38.965  28.237  1.00  0.00     0.124 S 
ATOM     68  O   UNL A   1      45.242  39.222  28.157  1.00  0.00    -0.237 OA
ATOM     69  O   UNL A   1      43.217  38.282  27.091  1.00  0.00    -0.237 OA
ATOM     70  O   UNL A   1      43.009  40.062  28.780  1.00  0.00    -0.744 OA
ENDBRANCH  63  67
ENDBRANCH  37  60
ENDBRANCH  11  12
ENDBRANCH   4   6
ENDBRANCH   3   4
ENDBRANCH   2   3
ENDBRANCH   1   2
BRANCH   1  71
ATOM     71  O   UNL A   1      35.418  21.730  26.165  1.00  0.00    -0.458 OA
BRANCH  71  72
ATOM     72  C   UNL A   1      34.287  22.134  26.800  1.00  0.00     0.342 C 
ATOM     73  O   UNL A   1      34.056  21.969  27.986  1.00  0.00    -0.246 OA
BRANCH  72  74
ATOM     74  C   UNL A   1      33.277  22.682  25.860  1.00  0.00     0.103 A 
ATOM     75  C   UNL A   1      32.796  23.952  26.243  1.00  0.00     0.035 A 
ATOM     76  C   UNL A   1      32.795  22.103  24.678  1.00  0.00     0.134 A 
ATOM     77  C   UNL A   1      31.802  24.597  25.511  1.00  0.00     0.019 A 
ATOM     78  C   UNL A   1      31.728  22.737  24.007  1.00  0.00     0.048 A 
ATOM     79  Br  UNL A   1      31.271  26.345  25.982  1.00  0.00    -0.051 Br
ATOM     80  C   UNL A   1      31.229  23.971  24.418  1.00  0.00     0.019 A 
BRANCH  76  81
ATOM     81  O   UNL A   1      33.190  20.999  23.983  1.00  0.00    -0.488 OA
BRANCH  81  82
ATOM     82  C   UNL A   1      32.349  19.900  23.627  1.00  0.00     0.265 C 
BRANCH  82  83
ATOM     83  C   UNL A   1      32.797  18.501  23.973  1.00  0.00    -0.010 A 
ATOM     84  C   UNL A   1      33.452  17.676  23.049  1.00  0.00     0.011 A 
ATOM     85  C   UNL A   1      32.594  18.033  25.281  1.00  0.00     0.011 A 
ATOM     86  C   UNL A   1      34.042  16.485  23.471  1.00  0.00     0.046 A 
ATOM     87  C   UNL A   1      33.171  16.838  25.700  1.00  0.00     0.046 A 
ATOM     88  C   UNL A   1      33.925  16.096  24.801  1.00  0.00     0.115 A 
BRANCH  88  89
ATOM     89  O   UNL A   1      34.568  14.988  25.267  1.00  0.00    -0.508 OA
ATOM     90  H   UNL A   1      35.503  14.981  25.329  1.00  0.00     0.293 HD
ENDBRANCH  88  89
ENDBRANCH  82  83
ENDBRANCH  81  82
ENDBRANCH  76  81
ENDBRANCH  72  74
ENDBRANCH  71  72
ENDBRANCH   1  71
TORSDOF 18
ENDMDL
MODEL 2
REMARK VINA RESULT:     -11.9      5.553     11.118
REMARK SMILES O=C(OCCOC(=O)c1cc(Br)ccc1OCc1ccc(O)cc1)c1ccc(-c2c3nc(c(-c4cc(S(=O)(=O)[O-])ccc4F)c4ccc([nH]4)c(-c4cc(S(=O)(=O)[O-])ccc4F)c4nc(c(-c5cc(S(=O)(=O)[O-])ccc5F)c5ccc2[nH]5)C=C4)C=C3)cc1
REMARK SMILES IDX 5 1 4 2 3 3 2 4 1 5 25 6 26 7 87 8 27 9 86 10 28 11 29 12
REMARK SMILES IDX 30 13 80 14 31 15 85 16 79 17 81 18 32 19 84 20 78 21 77 22
REMARK SMILES IDX 33 24 65 25 45 26 64 27 46 28 49 29 63 30 82 31 47 32 48 33
REMARK SMILES IDX 62 35 83 36 50 37 34 38 35 39 43 40 36 41 42 42 44 43 41 44
REMARK SMILES IDX 37 45 38 46 39 47 40 48 66 49 67 50 75 51 68 52 74 53 76 54
REMARK SMILES IDX 73 55 69 56 70 57 71 58 72 59 51 60 52 61 60 62 53 63 59 64
REMARK SMILES IDX 61 65 58 66 54 67 55 68 56 69 57 70 6 71 7 72 8 73 9 74
REMARK SMILES IDX 10 75 15 76 11 77 14 78 12 79 13 80 16 81 17 82 18 83 19 84
REMARK SMILES IDX 24 85 20 86 23 87 21 88 22 89
REMARK H PARENT 81 23 49 34 22 90
REMARK Flexibility Score: inf
ROOT
ATOM      1  C   UNL A   1      31.986  29.615  26.348  1.00  0.00     0.275 C 
ENDROOT
BRANCH   1   2
ATOM      2  C   UNL A   1      33.163  30.583  26.272  1.00  0.00     0.275 C 
BRANCH   2   3
ATOM      3  O   UNL A   1      33.534  31.198  27.517  1.00  0.00    -0.458 OA
BRANCH   3   4
ATOM      4  C   UNL A   1      34.757  31.699  27.837  1.00  0.00     0.338 C 
ATOM      5  O   UNL A   1      35.007  32.882  27.623  1.00  0.00    -0.246 OA
BRANCH   4   6
ATOM      6  C   UNL A   1      35.858  30.799  28.268  1.00  0.00     0.060 A 
ATOM      7  C   UNL A   1      35.736  29.825  29.263  1.00  0.00     0.016 A 
ATOM      8  C   UNL A   1      37.099  30.982  27.643  1.00  0.00     0.016 A 
ATOM      9  C   UNL A   1      36.814  28.986  29.568  1.00  0.00     0.010 A 
ATOM     10  C   UNL A   1      38.178  30.154  27.948  1.00  0.00     0.010 A 
ATOM     11  C   UNL A   1      38.045  29.161  28.927  1.00  0.00    -0.014 A 
BRANCH  11  12
ATOM     12  C   UNL A   1      39.258  28.529  29.491  1.00  0.00     0.031 A 
ATOM     13  C   UNL A   1      39.874  29.183  30.695  1.00  0.00     0.074 A 
ATOM     14  C   UNL A   1      39.801  27.417  28.966  1.00  0.00     0.049 A 
ATOM     15  N   UNL A   1      40.900  28.811  31.412  1.00  0.00    -0.248 NA
ATOM     16  C   UNL A   1      39.238  30.432  31.149  1.00  0.00     0.031 C 
ATOM     17  C   UNL A   1      39.300  26.693  27.801  1.00  0.00     0.029 A 
ATOM     18  N   UNL A   1      40.922  26.718  29.337  1.00  0.00    -0.354 N 
ATOM     19  C   UNL A   1      40.994  29.746  32.434  1.00  0.00     0.074 A 
ATOM     20  C   UNL A   1      40.000  30.763  32.175  1.00  0.00     0.031 C 
ATOM     21  C   UNL A   1      40.150  25.692  27.509  1.00  0.00     0.029 A 
ATOM     22  C   UNL A   1      41.248  25.700  28.474  1.00  0.00     0.049 A 
ATOM     23  H   UNL A   1      41.444  26.928  30.145  1.00  0.00     0.167 HD
ATOM     24  C   UNL A   1      41.796  29.730  33.525  1.00  0.00     0.034 A 
ATOM     25  C   UNL A   1      42.323  24.888  28.457  1.00  0.00     0.034 A 
ATOM     26  C   UNL A   1      42.824  28.747  33.734  1.00  0.00     0.049 A 
ATOM     27  C   UNL A   1      43.317  24.973  29.586  1.00  0.00     0.074 A 
ATOM     28  C   UNL A   1      43.691  28.608  34.801  1.00  0.00     0.029 A 
ATOM     29  N   UNL A   1      43.148  27.749  32.822  1.00  0.00    -0.354 N 
ATOM     30  N   UNL A   1      43.336  25.798  30.609  1.00  0.00    -0.248 NA
ATOM     31  C   UNL A   1      44.411  23.993  29.582  1.00  0.00     0.031 C 
ATOM     32  C   UNL A   1      44.579  27.566  34.506  1.00  0.00     0.029 A 
ATOM     33  C   UNL A   1      44.227  27.015  33.283  1.00  0.00     0.049 A 
ATOM     34  H   UNL A   1      42.678  27.589  31.971  1.00  0.00     0.167 HD
ATOM     35  C   UNL A   1      44.413  25.403  31.395  1.00  0.00     0.074 A 
ATOM     36  C   UNL A   1      45.034  24.282  30.717  1.00  0.00     0.031 C 
ATOM     37  C   UNL A   1      44.832  25.903  32.586  1.00  0.00     0.034 A 
BRANCH  24  38
ATOM     38  C   UNL A   1      41.571  30.833  34.528  1.00  0.00     0.023 A 
ATOM     39  C   UNL A   1      40.475  30.787  35.412  1.00  0.00     0.031 A 
ATOM     40  C   UNL A   1      42.363  31.991  34.518  1.00  0.00     0.131 A 
ATOM     41  C   UNL A   1      40.130  31.922  36.158  1.00  0.00     0.055 A 
ATOM     42  C   UNL A   1      42.066  33.085  35.334  1.00  0.00     0.041 A 
ATOM     43  F   UNL A   1      43.406  32.099  33.681  1.00  0.00    -0.206 F 
ATOM     44  C   UNL A   1      40.930  33.065  36.141  1.00  0.00     0.022 A 
BRANCH  41  45
ATOM     45  S   UNL A   1      38.514  31.950  36.984  1.00  0.00     0.124 S 
ATOM     46  O   UNL A   1      38.892  32.237  38.366  1.00  0.00    -0.237 OA
ATOM     47  O   UNL A   1      37.817  33.019  36.279  1.00  0.00    -0.237 OA
ATOM     48  O   UNL A   1      37.989  30.605  36.756  1.00  0.00    -0.744 OA
ENDBRANCH  41  45
ENDBRANCH  24  38
BRANCH  25  49
ATOM     49  C   UNL A   1      42.549  23.970  27.309  1.00  0.00     0.023 A 
ATOM     50  C   UNL A   1      42.069  22.652  27.297  1.00  0.00     0.031 A 
ATOM     51  C   UNL A   1      43.297  24.415  26.204  1.00  0.00     0.131 A 
ATOM     52  C   UNL A   1      42.359  21.816  26.205  1.00  0.00     0.055 A 
ATOM     53  C   UNL A   1      43.551  23.593  25.105  1.00  0.00     0.041 A 
ATOM     54  F   UNL A   1      43.796  25.661  26.184  1.00  0.00    -0.206 F 
ATOM     55  C   UNL A   1      43.085  22.283  25.105  1.00  0.00     0.022 A 
BRANCH  52  56
ATOM     56  S   UNL A   1      41.810  20.087  26.255  1.00  0.00     0.124 S 
ATOM     57  O   UNL A   1      42.279  19.664  27.570  1.00  0.00    -0.237 OA
ATOM     58  O   UNL A   1      40.366  20.222  26.102  1.00  0.00    -0.237 OA
ATOM     59  O   UNL A   1      42.500  19.476  25.121  1.00  0.00    -0.744 OA
ENDBRANCH  52  56
ENDBRANCH  25  49
BRANCH  37  60
ATOM     60  C   UNL A   1      45.971  25.194  33.265  1.00  0.00     0.023 A 
ATOM     61  C   UNL A   1      45.759  24.130  34.156  1.00  0.00     0.031 A 
ATOM     62  C   UNL A   1      47.294  25.580  32.987  1.00  0.00     0.131 A 
ATOM     63  C   UNL A   1      46.860  23.506  34.764  1.00  0.00     0.055 A 
ATOM     64  C   UNL A   1      48.385  24.925  33.558  1.00  0.00     0.041 A 
ATOM     65  F   UNL A   1      47.546  26.592  32.140  1.00  0.00    -0.206 F 
ATOM     66  C   UNL A   1      48.170  23.885  34.457  1.00  0.00     0.022 A 
BRANCH  63  67
ATOM     67  S   UNL A   1      46.558  22.212  35.999  1.00  0.00     0.124 S 
ATOM     68  O   UNL A   1      45.183  21.826  35.701  1.00  0.00    -0.237 OA
ATOM     69  O   UNL A   1      47.583  21.225  35.677  1.00  0.00    -0.237 OA
ATOM     70  O   UNL A   1      46.747  22.904  37.273  1.00  0.00    -0.744 OA
ENDBRANCH  63  67
ENDBRANCH  37  60
ENDBRANCH  11  12
ENDBRANCH   4   6
ENDBRANCH   3   4
ENDBRANCH   2   3
ENDBRANCH   1   2
BRANCH   1  71
ATOM     71  O   UNL A   1      32.366  28.245  26.160  1.00  0.00    -0.458 OA
BRANCH  71  72
ATOM     72  C   UNL A   1      31.422  27.372  26.597  1.00  0.00     0.342 C 
ATOM     73  O   UNL A   1      31.006  27.310  27.741  1.00  0.00    -0.246 OA
BRANCH  72  74
ATOM     74  C   UNL A   1      31.041  26.385  25.555  1.00  0.00     0.103 A 
ATOM     75  C   UNL A   1      31.449  25.070  25.863  1.00  0.00     0.035 A 
ATOM     76  C   UNL A   1      30.335  26.615  24.366  1.00  0.00     0.134 A 
ATOM     77  C   UNL A   1      31.226  24.020  24.975  1.00  0.00     0.019 A 
ATOM     78  C   UNL A   1      30.203  25.552  23.448  1.00  0.00     0.048 A 
ATOM     79  Br  UNL A   1      31.673  22.256  25.474  1.00  0.00    -0.051 Br
ATOM     80  C   UNL A   1      30.647  24.265  23.743  1.00  0.00     0.019 A 
BRANCH  76  81
ATOM     81  O   UNL A   1      29.682  27.716  23.899  1.00  0.00    -0.488 OA
BRANCH  81  82
ATOM     82  C   UNL A   1      30.298  28.837  23.264  1.00  0.00     0.265 C 
BRANCH  82  83
ATOM     83  C   UNL A   1      29.438  30.014  22.872  1.00  0.00    -0.010 A 
ATOM     84  C   UNL A   1      29.204  31.090  23.739  1.00  0.00     0.011 A 
ATOM     85  C   UNL A   1      28.899  30.053  21.576  1.00  0.00     0.011 A 
ATOM     86  C   UNL A   1      28.594  32.250  23.263  1.00  0.00     0.046 A 
ATOM     87  C   UNL A   1      28.278  31.205  21.105  1.00  0.00     0.046 A 
ATOM     88  C   UNL A   1      28.169  32.308  21.940  1.00  0.00     0.115 A 
BRANCH  88  89
ATOM     89  O   UNL A   1      27.656  33.458  21.418  1.00  0.00    -0.508 OA
ATOM     90  H   UNL A   1      26.747  33.506  21.193  1.00  0.00     0.293 HD
ENDBRANCH  88  89
ENDBRANCH  82  83
ENDBRANCH  81  82
ENDBRANCH  76  81
ENDBRANCH  72  74
ENDBRANCH  71  72
ENDBRANCH   1  71
TORSDOF 18
ENDMDL
MODEL 3
REMARK VINA RESULT:     -11.8      5.185     10.124
REMARK SMILES O=C(OCCOC(=O)c1cc(Br)ccc1OCc1ccc(O)cc1)c1ccc(-c2c3nc(c(-c4cc(S(=O)(=O)[O-])ccc4F)c4ccc([nH]4)c(-c4cc(S(=O)(=O)[O-])ccc4F)c4nc(c(-c5cc(S(=O)(=O)[O-])ccc5F)c5ccc2[nH]5)C=C4)C=C3)cc1
REMARK SMILES IDX 5 1 4 2 3 3 2 4 1 5 25 6 26 7 87 8 27 9 86 10 28 11 29 12
REMARK SMILES IDX 30 13 80 14 31 15 85 16 79 17 81 18 32 19 84 20 78 21 77 22
REMARK SMILES IDX 33 24 65 25 45 26 64 27 46 28 49 29 63 30 82 31 47 32 48 33
REMARK SMILES IDX 62 35 83 36 50 37 34 38 35 39 43 40 36 41 42 42 44 43 41 44
REMARK SMILES IDX 37 45 38 46 39 47 40 48 66 49 67 50 75 51 68 52 74 53 76 54
REMARK SMILES IDX 73 55 69 56 70 57 71 58 72 59 51 60 52 61 60 62 53 63 59 64
REMARK SMILES IDX 61 65 58 66 54 67 55 68 56 69 57 70 6 71 7 72 8 73 9 74
REMARK SMILES IDX 10 75 15 76 11 77 14 78 12 79 13 80 16 81 17 82 18 83 19 84
REMARK SMILES IDX 24 85 20 86 23 87 21 88 22 89
REMARK H PARENT 81 23 49 34 22 90
REMARK Flexibility Score: inf
ROOT
ATOM      1  C   UNL A   1      32.151  29.426  27.303  1.00  0.00     0.275 C 
ENDROOT
BRANCH   1   2
ATOM      2  C   UNL A   1      32.995  30.616  26.853  1.00  0.00     0.275 C 
BRANCH   2   3
ATOM      3  O   UNL A   1      33.578  31.393  27.912  1.00  0.00    -0.458 OA
BRANCH   3   4
ATOM      4  C   UNL A   1      34.866  31.822  27.985  1.00  0.00     0.338 C 
ATOM      5  O   UNL A   1      35.164  32.930  27.547  1.00  0.00    -0.246 OA
BRANCH   4   6
ATOM      6  C   UNL A   1      35.951  30.903  28.415  1.00  0.00     0.060 A 
ATOM      7  C   UNL A   1      35.862  30.034  29.505  1.00  0.00     0.016 A 
ATOM      8  C   UNL A   1      37.143  30.955  27.680  1.00  0.00     0.016 A 
ATOM      9  C   UNL A   1      36.917  29.165  29.806  1.00  0.00     0.010 A 
ATOM     10  C   UNL A   1      38.201  30.096  27.979  1.00  0.00     0.010 A 
ATOM     11  C   UNL A   1      38.098  29.207  29.057  1.00  0.00    -0.014 A 
BRANCH  11  12
ATOM     12  C   UNL A   1      39.320  28.560  29.584  1.00  0.00     0.031 A 
ATOM     13  C   UNL A   1      39.977  29.202  30.773  1.00  0.00     0.074 A 
ATOM     14  C   UNL A   1      39.835  27.444  29.040  1.00  0.00     0.049 A 
ATOM     15  N   UNL A   1      41.019  28.816  31.458  1.00  0.00    -0.248 NA
ATOM     16  C   UNL A   1      39.368  30.456  31.249  1.00  0.00     0.031 C 
ATOM     17  C   UNL A   1      39.293  26.730  27.887  1.00  0.00     0.029 A 
ATOM     18  N   UNL A   1      40.959  26.732  29.376  1.00  0.00    -0.354 N 
ATOM     19  C   UNL A   1      41.153  29.746  32.480  1.00  0.00     0.074 A 
ATOM     20  C   UNL A   1      40.163  30.775  32.253  1.00  0.00     0.031 C 
ATOM     21  C   UNL A   1      40.123  25.721  27.567  1.00  0.00     0.029 A 
ATOM     22  C   UNL A   1      41.248  25.714  28.500  1.00  0.00     0.049 A 
ATOM     23  H   UNL A   1      41.506  26.932  30.169  1.00  0.00     0.167 HD
ATOM     24  C   UNL A   1      41.985  29.717  33.548  1.00  0.00     0.034 A 
ATOM     25  C   UNL A   1      42.314  24.890  28.449  1.00  0.00     0.034 A 
ATOM     26  C   UNL A   1      43.009  28.723  33.724  1.00  0.00     0.049 A 
ATOM     27  C   UNL A   1      43.341  24.960  29.550  1.00  0.00     0.074 A 
ATOM     28  C   UNL A   1      43.904  28.570  34.765  1.00  0.00     0.029 A 
ATOM     29  N   UNL A   1      43.295  27.725  32.799  1.00  0.00    -0.354 N 
ATOM     30  N   UNL A   1      43.398  25.780  30.574  1.00  0.00    -0.248 NA
ATOM     31  C   UNL A   1      44.423  23.968  29.511  1.00  0.00     0.031 C 
ATOM     32  C   UNL A   1      44.771  27.519  34.441  1.00  0.00     0.029 A 
ATOM     33  C   UNL A   1      44.378  26.978  33.226  1.00  0.00     0.049 A 
ATOM     34  H   UNL A   1      42.799  27.573  31.962  1.00  0.00     0.167 HD
ATOM     35  C   UNL A   1      44.493  25.371  31.328  1.00  0.00     0.074 A 
ATOM     36  C   UNL A   1      45.081  24.246  30.628  1.00  0.00     0.031 C 
ATOM     37  C   UNL A   1      44.951  25.861  32.509  1.00  0.00     0.034 A 
BRANCH  24  38
ATOM     38  C   UNL A   1      41.802  30.819  34.561  1.00  0.00     0.023 A 
ATOM     39  C   UNL A   1      40.642  30.874  35.359  1.00  0.00     0.031 A 
ATOM     40  C   UNL A   1      42.710  31.885  34.641  1.00  0.00     0.131 A 
ATOM     41  C   UNL A   1      40.362  32.024  36.108  1.00  0.00     0.055 A 
ATOM     42  C   UNL A   1      42.467  32.990  35.462  1.00  0.00     0.041 A 
ATOM     43  F   UNL A   1      43.819  31.898  33.887  1.00  0.00    -0.206 F 
ATOM     44  C   UNL A   1      41.277  33.076  36.182  1.00  0.00     0.022 A 
BRANCH  41  45
ATOM     45  S   UNL A   1      38.699  32.209  36.813  1.00  0.00     0.124 S 
ATOM     46  O   UNL A   1      38.971  32.110  38.245  1.00  0.00    -0.237 OA
ATOM     47  O   UNL A   1      38.296  33.525  36.329  1.00  0.00    -0.237 OA
ATOM     48  O   UNL A   1      37.961  31.082  36.247  1.00  0.00    -0.744 OA
ENDBRANCH  41  45
ENDBRANCH  24  38
BRANCH  25  49
ATOM     49  C   UNL A   1      42.497  23.974  27.292  1.00  0.00     0.023 A 
ATOM     50  C   UNL A   1      42.032  22.650  27.303  1.00  0.00     0.031 A 
ATOM     51  C   UNL A   1      43.187  24.427  26.153  1.00  0.00     0.131 A 
ATOM     52  C   UNL A   1      42.280  21.818  26.198  1.00  0.00     0.055 A 
ATOM     53  C   UNL A   1      43.398  23.607  25.044  1.00  0.00     0.041 A 
ATOM     54  F   UNL A   1      43.669  25.679  26.110  1.00  0.00    -0.206 F 
ATOM     55  C   UNL A   1      42.948  22.292  25.065  1.00  0.00     0.022 A 
BRANCH  52  56
ATOM     56  S   UNL A   1      41.755  20.082  26.274  1.00  0.00     0.124 S 
ATOM     57  O   UNL A   1      42.195  19.697  27.611  1.00  0.00    -0.237 OA
ATOM     58  O   UNL A   1      40.314  20.191  26.079  1.00  0.00    -0.237 OA
ATOM     59  O   UNL A   1      42.484  19.455  25.174  1.00  0.00    -0.744 OA
ENDBRANCH  52  56
ENDBRANCH  25  49
BRANCH  37  60
ATOM     60  C   UNL A   1      46.102  25.137  33.152  1.00  0.00     0.023 A 
ATOM     61  C   UNL A   1      47.437  25.438  32.839  1.00  0.00     0.031 A 
ATOM     62  C   UNL A   1      45.848  24.147  34.117  1.00  0.00     0.131 A 
ATOM     63  C   UNL A   1      48.472  24.728  33.466  1.00  0.00     0.055 A 
ATOM     64  C   UNL A   1      46.882  23.479  34.771  1.00  0.00     0.041 A 
ATOM     65  F   UNL A   1      44.587  23.826  34.449  1.00  0.00    -0.206 F 
ATOM     66  C   UNL A   1      48.203  23.764  34.443  1.00  0.00     0.022 A 
BRANCH  63  67
ATOM     67  S   UNL A   1      50.184  25.052  32.962  1.00  0.00     0.124 S 
ATOM     68  O   UNL A   1      50.497  23.861  32.177  1.00  0.00    -0.237 OA
ATOM     69  O   UNL A   1      50.062  26.297  32.212  1.00  0.00    -0.237 OA
ATOM     70  O   UNL A   1      50.900  25.164  34.231  1.00  0.00    -0.744 OA
ENDBRANCH  63  67
ENDBRANCH  37  60
ENDBRANCH  11  12
ENDBRANCH   4   6
ENDBRANCH   3   4
ENDBRANCH   2   3
ENDBRANCH   1   2
BRANCH   1  71
ATOM     71  O   UNL A   1      32.588  28.180  26.746  1.00  0.00    -0.458 OA
BRANCH  71  72
ATOM     72  C   UNL A   1      31.556  27.387  26.357  1.00  0.00     0.342 C 
ATOM     73  O   UNL A   1      30.816  26.782  27.115  1.00  0.00    -0.246 OA
BRANCH  72  74
ATOM     74  C   UNL A   1      31.503  27.213  24.883  1.00  0.00     0.103 A 
ATOM     75  C   UNL A   1      30.829  28.264  24.225  1.00  0.00     0.035 A 
ATOM     76  C   UNL A   1      32.045  26.172  24.118  1.00  0.00     0.134 A 
ATOM     77  C   UNL A   1      30.633  28.243  22.847  1.00  0.00     0.019 A 
ATOM     78  C   UNL A   1      31.755  26.131  22.738  1.00  0.00     0.048 A 
ATOM     79  Br  UNL A   1      29.837  29.722  21.987  1.00  0.00    -0.051 Br
ATOM     80  C   UNL A   1      31.051  27.153  22.103  1.00  0.00     0.019 A 
BRANCH  76  81
ATOM     81  O   UNL A   1      32.874  25.141  24.448  1.00  0.00    -0.488 OA
BRANCH  81  82
ATOM     82  C   UNL A   1      33.852  24.557  23.587  1.00  0.00     0.265 C 
BRANCH  82  83
ATOM     83  C   UNL A   1      35.112  23.991  24.196  1.00  0.00    -0.010 A 
ATOM     84  C   UNL A   1      35.530  24.324  25.491  1.00  0.00     0.011 A 
ATOM     85  C   UNL A   1      35.859  23.061  23.455  1.00  0.00     0.011 A 
ATOM     86  C   UNL A   1      36.569  23.614  26.093  1.00  0.00     0.046 A 
ATOM     87  C   UNL A   1      36.904  22.362  24.051  1.00  0.00     0.046 A 
ATOM     88  C   UNL A   1      37.222  22.616  25.378  1.00  0.00     0.115 A 
BRANCH  88  89
ATOM     89  O   UNL A   1      38.176  21.842  25.967  1.00  0.00    -0.508 OA
ATOM     90  H   UNL A   1      38.579  21.147  25.485  1.00  0.00     0.293 HD
ENDBRANCH  88  89
ENDBRANCH  82  83
ENDBRANCH  81  82
ENDBRANCH  76  81
ENDBRANCH  72  74
ENDBRANCH  71  72
ENDBRANCH   1  71
TORSDOF 18
ENDMDL
