MODEL 1
REMARK VINA RESULT:     -12.5      0.000      0.000
REMARK SMILES Cn1c(C(=O)OCCOC(=O)c2ccc(-c3c4nc(c(-c5cc(S(=O)(=O)[O-])ccc5F)c5ccc([nH]5)c(-c5cc(S(=O)(=O)[O-])ccc5F)c5nc(c(-c6cc(S(=O)(=O)[O-])ccc6F)c6ccc3[nH]6)C=C5)C=C4)cc2)cc2cc(OCc3ccccc3)ccc21
REMARK SMILES IDX 7 1 6 2 4 3 5 4 3 5 1 6 2 7 89 8 75 9 76 10 88 11 77 12
REMARK SMILES IDX 87 13 78 14 79 15 80 16 81 17 82 18 86 19 83 20 85 21 84 22
REMARK SMILES IDX 8 23 9 24 10 25 11 26 12 27 13 28 74 29 14 30 73 31 15 32
REMARK SMILES IDX 16 33 17 34 67 35 18 36 72 37 66 38 68 39 19 40 71 41 65 42
REMARK SMILES IDX 64 43 20 45 52 46 32 47 51 48 33 49 36 50 50 51 69 52 34 53
REMARK SMILES IDX 35 54 49 56 70 57 37 58 21 59 22 60 30 61 23 62 29 63 31 64
REMARK SMILES IDX 28 65 24 66 25 67 26 68 27 69 53 70 54 71 62 72 55 73 61 74
REMARK SMILES IDX 63 75 60 76 56 77 57 78 58 79 59 80 38 81 39 82 47 83 40 84
REMARK SMILES IDX 46 85 48 86 45 87 41 88 42 89 43 90 44 91
REMARK H PARENT 68 44 36 55
REMARK Flexibility Score: inf
ROOT
ATOM      1  C   UNL A   1      31.770  28.898  24.652  1.00  0.00     0.275 C 
ENDROOT
BRANCH   1   2
ATOM      2  O   UNL A   1      30.521  28.296  24.256  1.00  0.00    -0.457 OA
BRANCH   2   3
ATOM      3  C   UNL A   1      30.528  27.634  23.065  1.00  0.00     0.355 C 
ATOM      4  O   UNL A   1      30.262  28.153  21.989  1.00  0.00    -0.244 OA
BRANCH   3   5
ATOM      5  C   UNL A   1      30.984  26.266  23.217  1.00  0.00     0.128 A 
ATOM      6  C   UNL A   1      32.597  25.988  21.277  1.00  0.00     0.150 C 
ATOM      7  N   UNL A   1      31.871  25.541  22.445  1.00  0.00    -0.338 N 
ATOM      8  C   UNL A   1      32.079  24.287  23.001  1.00  0.00     0.049 A 
ATOM      9  C   UNL A   1      30.609  25.419  24.255  1.00  0.00     0.044 A 
ATOM     10  C   UNL A   1      31.209  24.156  24.076  1.00  0.00     0.004 A 
ATOM     11  C   UNL A   1      32.961  23.257  22.654  1.00  0.00     0.031 A 
ATOM     12  C   UNL A   1      31.121  22.929  24.760  1.00  0.00     0.056 A 
ATOM     13  C   UNL A   1      32.911  22.072  23.400  1.00  0.00     0.048 A 
ATOM     14  C   UNL A   1      31.975  21.879  24.413  1.00  0.00     0.120 A 
BRANCH  14  15
ATOM     15  O   UNL A   1      31.775  20.728  25.127  1.00  0.00    -0.489 OA
BRANCH  15  16
ATOM     16  C   UNL A   1      32.893  20.082  25.742  1.00  0.00     0.265 C 
BRANCH  16  17
ATOM     17  C   UNL A   1      33.146  18.683  25.222  1.00  0.00    -0.011 A 
ATOM     18  C   UNL A   1      32.586  17.570  25.862  1.00  0.00     0.007 A 
ATOM     19  C   UNL A   1      33.910  18.487  24.061  1.00  0.00     0.007 A 
ATOM     20  C   UNL A   1      32.746  16.293  25.321  1.00  0.00     0.000 A 
ATOM     21  C   UNL A   1      34.047  17.215  23.508  1.00  0.00     0.000 A 
ATOM     22  C   UNL A   1      33.461  16.119  24.138  1.00  0.00     0.000 A 
ENDBRANCH  16  17
ENDBRANCH  15  16
ENDBRANCH  14  15
ENDBRANCH   3   5
ENDBRANCH   2   3
ENDBRANCH   1   2
BRANCH   1  23
ATOM     23  C   UNL A   1      31.544  30.154  25.493  1.00  0.00     0.275 C 
BRANCH  23  24
ATOM     24  O   UNL A   1      32.338  30.114  26.693  1.00  0.00    -0.458 OA
BRANCH  24  25
ATOM     25  C   UNL A   1      32.883  31.298  27.057  1.00  0.00     0.338 C 
ATOM     26  O   UNL A   1      32.343  32.391  27.051  1.00  0.00    -0.246 OA
BRANCH  25  27
ATOM     27  C   UNL A   1      34.237  31.075  27.585  1.00  0.00     0.060 A 
ATOM     28  C   UNL A   1      34.618  29.764  27.840  1.00  0.00     0.016 A 
ATOM     29  C   UNL A   1      35.065  32.127  27.961  1.00  0.00     0.016 A 
ATOM     30  C   UNL A   1      35.783  29.484  28.545  1.00  0.00     0.010 A 
ATOM     31  C   UNL A   1      36.285  31.843  28.593  1.00  0.00     0.010 A 
ATOM     32  C   UNL A   1      36.643  30.520  28.922  1.00  0.00    -0.014 A 
BRANCH  32  33
ATOM     33  C   UNL A   1      37.882  30.216  29.699  1.00  0.00     0.031 A 
ATOM     34  C   UNL A   1      38.943  29.325  29.105  1.00  0.00     0.074 A 
ATOM     35  C   UNL A   1      38.074  30.756  30.920  1.00  0.00     0.049 A 
ATOM     36  N   UNL A   1      40.001  28.801  29.671  1.00  0.00    -0.248 NA
ATOM     37  C   UNL A   1      38.778  28.963  27.690  1.00  0.00     0.031 C 
ATOM     38  C   UNL A   1      37.166  31.691  31.586  1.00  0.00     0.029 A 
ATOM     39  N   UNL A   1      39.102  30.602  31.821  1.00  0.00    -0.354 N 
ATOM     40  C   UNL A   1      40.601  28.009  28.696  1.00  0.00     0.074 A 
ATOM     41  C   UNL A   1      39.771  28.105  27.513  1.00  0.00     0.031 C 
ATOM     42  C   UNL A   1      37.688  32.051  32.768  1.00  0.00     0.029 A 
ATOM     43  C   UNL A   1      38.915  31.297  32.994  1.00  0.00     0.049 A 
ATOM     44  H   UNL A   1      39.895  30.048  31.643  1.00  0.00     0.167 HD
ATOM     45  C   UNL A   1      41.739  27.272  28.783  1.00  0.00     0.034 A 
ATOM     46  C   UNL A   1      39.619  31.292  34.145  1.00  0.00     0.034 A 
ATOM     47  C   UNL A   1      42.569  27.218  29.965  1.00  0.00     0.049 A 
ATOM     48  C   UNL A   1      40.832  30.405  34.248  1.00  0.00     0.074 A 
ATOM     49  C   UNL A   1      43.747  26.516  30.159  1.00  0.00     0.029 A 
ATOM     50  N   UNL A   1      42.313  27.892  31.154  1.00  0.00    -0.354 N 
ATOM     51  N   UNL A   1      41.357  29.614  33.341  1.00  0.00    -0.248 NA
ATOM     52  C   UNL A   1      41.542  30.402  35.534  1.00  0.00     0.031 C 
ATOM     53  C   UNL A   1      44.159  26.705  31.484  1.00  0.00     0.029 A 
ATOM     54  C   UNL A   1      43.290  27.594  32.094  1.00  0.00     0.049 A 
ATOM     55  H   UNL A   1      41.549  28.492  31.307  1.00  0.00     0.167 HD
ATOM     56  C   UNL A   1      42.474  29.038  33.941  1.00  0.00     0.074 A 
ATOM     57  C   UNL A   1      42.555  29.588  35.279  1.00  0.00     0.031 C 
ATOM     58  C   UNL A   1      43.353  28.137  33.432  1.00  0.00     0.034 A 
BRANCH  45  59
ATOM     59  C   UNL A   1      42.109  26.415  27.593  1.00  0.00     0.023 A 
ATOM     60  C   UNL A   1      41.738  25.063  27.496  1.00  0.00     0.031 A 
ATOM     61  C   UNL A   1      42.883  26.958  26.550  1.00  0.00     0.131 A 
ATOM     62  C   UNL A   1      42.207  24.282  26.426  1.00  0.00     0.055 A 
ATOM     63  C   UNL A   1      43.272  26.198  25.445  1.00  0.00     0.041 A 
ATOM     64  F   UNL A   1      43.289  28.238  26.594  1.00  0.00    -0.206 F 
ATOM     65  C   UNL A   1      42.949  24.847  25.387  1.00  0.00     0.022 A 
BRANCH  62  66
ATOM     66  S   UNL A   1      41.970  22.484  26.494  1.00  0.00     0.124 S 
ATOM     67  O   UNL A   1      42.640  22.052  25.270  1.00  0.00    -0.237 OA
ATOM     68  O   UNL A   1      42.628  22.126  27.745  1.00  0.00    -0.237 OA
ATOM     69  O   UNL A   1      40.517  22.329  26.487  1.00  0.00    -0.744 OA
ENDBRANCH  62  66
ENDBRANCH  45  59
BRANCH  46  70
ATOM     70  C   UNL A   1      39.156  32.094  35.316  1.00  0.00     0.023 A 
ATOM     71  C   UNL A   1      39.617  33.403  35.531  1.00  0.00     0.031 A 
ATOM     72  C   UNL A   1      38.272  31.545  36.265  1.00  0.00     0.131 A 
ATOM     73  C   UNL A   1      39.222  34.104  36.682  1.00  0.00     0.055 A 
ATOM     74  C   UNL A   1      37.833  32.268  37.374  1.00  0.00     0.041 A 
ATOM     75  F   UNL A   1      37.807  30.295  36.116  1.00  0.00    -0.206 F 
ATOM     76  C   UNL A   1      38.319  33.553  37.595  1.00  0.00     0.022 A 
BRANCH  73  77
ATOM     77  S   UNL A   1      39.977  35.717  37.020  1.00  0.00     0.124 S 
ATOM     78  O   UNL A   1      39.657  36.456  35.805  1.00  0.00    -0.237 OA
ATOM     79  O   UNL A   1      39.274  36.134  38.229  1.00  0.00    -0.237 OA
ATOM     80  O   UNL A   1      41.392  35.400  37.203  1.00  0.00    -0.744 OA
ENDBRANCH  73  77
ENDBRANCH  46  70
BRANCH  58  81
ATOM     81  C   UNL A   1      44.507  27.732  34.317  1.00  0.00     0.023 A 
ATOM     82  C   UNL A   1      44.436  26.609  35.160  1.00  0.00     0.031 A 
ATOM     83  C   UNL A   1      45.688  28.495  34.330  1.00  0.00     0.131 A 
ATOM     84  C   UNL A   1      45.502  26.316  36.024  1.00  0.00     0.055 A 
ATOM     85  C   UNL A   1      46.771  28.161  35.144  1.00  0.00     0.041 A 
ATOM     86  F   UNL A   1      45.809  29.581  33.550  1.00  0.00    -0.206 F 
ATOM     87  C   UNL A   1      46.677  27.073  36.008  1.00  0.00     0.022 A 
BRANCH  84  88
ATOM     88  S   UNL A   1      45.296  24.991  37.247  1.00  0.00     0.124 S 
ATOM     89  O   UNL A   1      46.679  24.633  37.542  1.00  0.00    -0.237 OA
ATOM     90  O   UNL A   1      44.567  25.663  38.317  1.00  0.00    -0.237 OA
ATOM     91  O   UNL A   1      44.534  23.973  36.524  1.00  0.00    -0.744 OA
ENDBRANCH  84  88
ENDBRANCH  58  81
ENDBRANCH  32  33
ENDBRANCH  25  27
ENDBRANCH  24  25
ENDBRANCH  23  24
ENDBRANCH   1  23
TORSDOF 17
ENDMDL
MODEL 2
REMARK VINA RESULT:     -12.3      5.106     11.160
REMARK SMILES Cn1c(C(=O)OCCOC(=O)c2ccc(-c3c4nc(c(-c5cc(S(=O)(=O)[O-])ccc5F)c5ccc([nH]5)c(-c5cc(S(=O)(=O)[O-])ccc5F)c5nc(c(-c6cc(S(=O)(=O)[O-])ccc6F)c6ccc3[nH]6)C=C5)C=C4)cc2)cc2cc(OCc3ccccc3)ccc21
REMARK SMILES IDX 7 1 6 2 4 3 5 4 3 5 1 6 2 7 89 8 75 9 76 10 88 11 77 12
REMARK SMILES IDX 87 13 78 14 79 15 80 16 81 17 82 18 86 19 83 20 85 21 84 22
REMARK SMILES IDX 8 23 9 24 10 25 11 26 12 27 13 28 74 29 14 30 73 31 15 32
REMARK SMILES IDX 16 33 17 34 67 35 18 36 72 37 66 38 68 39 19 40 71 41 65 42
REMARK SMILES IDX 64 43 20 45 52 46 32 47 51 48 33 49 36 50 50 51 69 52 34 53
REMARK SMILES IDX 35 54 49 56 70 57 37 58 21 59 22 60 30 61 23 62 29 63 31 64
REMARK SMILES IDX 28 65 24 66 25 67 26 68 27 69 53 70 54 71 62 72 55 73 61 74
REMARK SMILES IDX 63 75 60 76 56 77 57 78 58 79 59 80 38 81 39 82 47 83 40 84
REMARK SMILES IDX 46 85 48 86 45 87 41 88 42 89 43 90 44 91
REMARK H PARENT 68 44 36 55
REMARK Flexibility Score: inf
ROOT
ATOM      1  C   UNL A   1      33.355  34.686  29.361  1.00  0.00     0.275 C 
ENDROOT
BRANCH   1   2
ATOM      2  O   UNL A   1      33.965  33.801  30.322  1.00  0.00    -0.457 OA
BRANCH   2   3
ATOM      3  C   UNL A   1      34.104  34.294  31.585  1.00  0.00     0.355 C 
ATOM      4  O   UNL A   1      33.167  34.560  32.325  1.00  0.00    -0.244 OA
BRANCH   3   5
ATOM      5  C   UNL A   1      35.497  34.374  31.977  1.00  0.00     0.128 A 
ATOM      6  C   UNL A   1      35.359  34.743  34.485  1.00  0.00     0.150 C 
ATOM      7  N   UNL A   1      36.051  34.577  33.226  1.00  0.00    -0.338 N 
ATOM      8  C   UNL A   1      37.436  34.502  33.156  1.00  0.00     0.049 A 
ATOM      9  C   UNL A   1      36.573  34.208  31.110  1.00  0.00     0.044 A 
ATOM     10  C   UNL A   1      37.781  34.383  31.816  1.00  0.00     0.004 A 
ATOM     11  C   UNL A   1      38.414  34.527  34.156  1.00  0.00     0.031 A 
ATOM     12  C   UNL A   1      39.137  34.405  31.438  1.00  0.00     0.056 A 
ATOM     13  C   UNL A   1      39.757  34.467  33.761  1.00  0.00     0.048 A 
ATOM     14  C   UNL A   1      40.130  34.453  32.419  1.00  0.00     0.120 A 
BRANCH  14  15
ATOM     15  O   UNL A   1      41.407  34.500  31.930  1.00  0.00    -0.489 OA
BRANCH  15  16
ATOM     16  C   UNL A   1      41.671  34.017  30.610  1.00  0.00     0.265 C 
BRANCH  16  17
ATOM     17  C   UNL A   1      42.384  32.682  30.585  1.00  0.00    -0.011 A 
ATOM     18  C   UNL A   1      42.134  31.757  29.563  1.00  0.00     0.007 A 
ATOM     19  C   UNL A   1      43.340  32.371  31.564  1.00  0.00     0.007 A 
ATOM     20  C   UNL A   1      42.864  30.569  29.495  1.00  0.00     0.000 A 
ATOM     21  C   UNL A   1      44.086  31.196  31.481  1.00  0.00     0.000 A 
ATOM     22  C   UNL A   1      43.849  30.298  30.443  1.00  0.00     0.000 A 
ENDBRANCH  16  17
ENDBRANCH  15  16
ENDBRANCH  14  15
ENDBRANCH   3   5
ENDBRANCH   2   3
ENDBRANCH   1   2
BRANCH   1  23
ATOM     23  C   UNL A   1      33.209  34.014  27.996  1.00  0.00     0.275 C 
BRANCH  23  24
ATOM     24  O   UNL A   1      34.406  33.293  27.651  1.00  0.00    -0.458 OA
BRANCH  24  25
ATOM     25  C   UNL A   1      34.276  31.946  27.627  1.00  0.00     0.338 C 
ATOM     26  O   UNL A   1      33.306  31.306  27.256  1.00  0.00    -0.246 OA
BRANCH  25  27
ATOM     27  C   UNL A   1      35.545  31.321  28.024  1.00  0.00     0.060 A 
ATOM     28  C   UNL A   1      35.526  29.964  28.324  1.00  0.00     0.016 A 
ATOM     29  C   UNL A   1      36.699  32.066  28.241  1.00  0.00     0.016 A 
ATOM     30  C   UNL A   1      36.622  29.351  28.920  1.00  0.00     0.010 A 
ATOM     31  C   UNL A   1      37.836  31.429  28.760  1.00  0.00     0.010 A 
ATOM     32  C   UNL A   1      37.801  30.071  29.136  1.00  0.00    -0.014 A 
BRANCH  32  33
ATOM     33  C   UNL A   1      38.968  29.413  29.798  1.00  0.00     0.031 A 
ATOM     34  C   UNL A   1      39.372  29.825  31.190  1.00  0.00     0.074 A 
ATOM     35  C   UNL A   1      39.647  28.432  29.171  1.00  0.00     0.049 A 
ATOM     36  N   UNL A   1      40.443  29.509  31.873  1.00  0.00    -0.248 NA
ATOM     37  C   UNL A   1      38.454  30.727  31.900  1.00  0.00     0.031 C 
ATOM     38  C   UNL A   1      39.322  27.884  27.852  1.00  0.00     0.029 A 
ATOM     39  N   UNL A   1      40.752  27.711  29.560  1.00  0.00    -0.354 N 
ATOM     40  C   UNL A   1      40.354  30.210  33.072  1.00  0.00     0.074 A 
ATOM     41  C   UNL A   1      39.132  30.987  33.008  1.00  0.00     0.031 C 
ATOM     42  C   UNL A   1      40.183  26.899  27.557  1.00  0.00     0.029 A 
ATOM     43  C   UNL A   1      41.183  26.810  28.614  1.00  0.00     0.049 A 
ATOM     44  H   UNL A   1      41.192  27.830  30.432  1.00  0.00     0.167 HD
ATOM     45  C   UNL A   1      41.210  30.204  34.125  1.00  0.00     0.034 A 
ATOM     46  C   UNL A   1      42.287  26.035  28.570  1.00  0.00     0.034 A 
ATOM     47  C   UNL A   1      42.406  29.395  34.180  1.00  0.00     0.049 A 
ATOM     48  C   UNL A   1      43.266  26.104  29.713  1.00  0.00     0.074 A 
ATOM     49  C   UNL A   1      43.337  29.301  35.201  1.00  0.00     0.029 A 
ATOM     50  N   UNL A   1      42.838  28.538  33.174  1.00  0.00    -0.354 N 
ATOM     51  N   UNL A   1      43.201  26.816  30.815  1.00  0.00    -0.248 NA
ATOM     52  C   UNL A   1      44.471  25.274  29.603  1.00  0.00     0.031 C 
ATOM     53  C   UNL A   1      44.366  28.449  34.782  1.00  0.00     0.029 A 
ATOM     54  C   UNL A   1      44.037  27.940  33.536  1.00  0.00     0.049 A 
ATOM     55  H   UNL A   1      42.362  28.378  32.328  1.00  0.00     0.167 HD
ATOM     56  C   UNL A   1      44.347  26.499  31.539  1.00  0.00     0.074 A 
ATOM     57  C   UNL A   1      45.073  25.519  30.757  1.00  0.00     0.031 C 
ATOM     58  C   UNL A   1      44.761  26.974  32.741  1.00  0.00     0.034 A 
BRANCH  45  59
ATOM     59  C   UNL A   1      40.917  31.151  35.269  1.00  0.00     0.023 A 
ATOM     60  C   UNL A   1      39.768  31.030  36.069  1.00  0.00     0.031 A 
ATOM     61  C   UNL A   1      41.793  32.220  35.536  1.00  0.00     0.131 A 
ATOM     62  C   UNL A   1      39.486  32.005  37.041  1.00  0.00     0.055 A 
ATOM     63  C   UNL A   1      41.550  33.135  36.563  1.00  0.00     0.041 A 
ATOM     64  F   UNL A   1      42.896  32.404  34.793  1.00  0.00    -0.206 F 
ATOM     65  C   UNL A   1      40.381  33.041  37.311  1.00  0.00     0.022 A 
BRANCH  62  66
ATOM     66  S   UNL A   1      37.854  31.991  37.836  1.00  0.00     0.124 S 
ATOM     67  O   UNL A   1      38.179  32.457  39.182  1.00  0.00    -0.237 OA
ATOM     68  O   UNL A   1      37.090  32.913  37.005  1.00  0.00    -0.237 OA
ATOM     69  O   UNL A   1      37.444  30.591  37.753  1.00  0.00    -0.744 OA
ENDBRANCH  62  66
ENDBRANCH  45  59
BRANCH  46  70
ATOM     70  C   UNL A   1      42.565  25.184  27.375  1.00  0.00     0.023 A 
ATOM     71  C   UNL A   1      42.147  23.844  27.321  1.00  0.00     0.031 A 
ATOM     72  C   UNL A   1      43.293  25.690  26.281  1.00  0.00     0.131 A 
ATOM     73  C   UNL A   1      42.491  23.048  26.216  1.00  0.00     0.055 A 
ATOM     74  C   UNL A   1      43.576  24.913  25.158  1.00  0.00     0.041 A 
ATOM     75  F   UNL A   1      43.725  26.960  26.282  1.00  0.00    -0.206 F 
ATOM     76  C   UNL A   1      43.185  23.578  25.127  1.00  0.00     0.022 A 
BRANCH  73  77
ATOM     77  S   UNL A   1      42.094  21.280  26.262  1.00  0.00     0.124 S 
ATOM     78  O   UNL A   1      42.304  20.964  27.669  1.00  0.00    -0.237 OA
ATOM     79  O   UNL A   1      40.709  21.267  25.800  1.00  0.00    -0.237 OA
ATOM     80  O   UNL A   1      43.062  20.690  25.338  1.00  0.00    -0.744 OA
ENDBRANCH  73  77
ENDBRANCH  46  70
BRANCH  58  81
ATOM     81  C   UNL A   1      46.039  26.396  33.302  1.00  0.00     0.023 A 
ATOM     82  C   UNL A   1      47.297  26.941  32.993  1.00  0.00     0.031 A 
ATOM     83  C   UNL A   1      45.995  25.270  34.143  1.00  0.00     0.131 A 
ATOM     84  C   UNL A   1      48.463  26.323  33.472  1.00  0.00     0.055 A 
ATOM     85  C   UNL A   1      47.153  24.699  34.670  1.00  0.00     0.041 A 
ATOM     86  F   UNL A   1      44.821  24.705  34.467  1.00  0.00    -0.206 F 
ATOM     87  C   UNL A   1      48.398  25.217  34.324  1.00  0.00     0.022 A 
BRANCH  84  88
ATOM     88  S   UNL A   1      50.072  26.921  32.884  1.00  0.00     0.124 S 
ATOM     89  O   UNL A   1      50.991  26.301  33.833  1.00  0.00    -0.237 OA
ATOM     90  O   UNL A   1      50.118  26.406  31.520  1.00  0.00    -0.237 OA
ATOM     91  O   UNL A   1      49.959  28.375  32.992  1.00  0.00    -0.744 OA
ENDBRANCH  84  88
ENDBRANCH  58  81
ENDBRANCH  32  33
ENDBRANCH  25  27
ENDBRANCH  24  25
ENDBRANCH  23  24
ENDBRANCH   1  23
TORSDOF 17
ENDMDL
MODEL 3
REMARK VINA RESULT:     -12.3      1.938      2.593
REMARK SMILES Cn1c(C(=O)OCCOC(=O)c2ccc(-c3c4nc(c(-c5cc(S(=O)(=O)[O-])ccc5F)c5ccc([nH]5)c(-c5cc(S(=O)(=O)[O-])ccc5F)c5nc(c(-c6cc(S(=O)(=O)[O-])ccc6F)c6ccc3[nH]6)C=C5)C=C4)cc2)cc2cc(OCc3ccccc3)ccc21
REMARK SMILES IDX 7 1 6 2 4 3 5 4 3 5 1 6 2 7 89 8 75 9 76 10 88 11 77 12
REMARK SMILES IDX 87 13 78 14 79 15 80 16 81 17 82 18 86 19 83 20 85 21 84 22
REMARK SMILES IDX 8 23 9 24 10 25 11 26 12 27 13 28 74 29 14 30 73 31 15 32
REMARK SMILES IDX 16 33 17 34 67 35 18 36 72 37 66 38 68 39 19 40 71 41 65 42
REMARK SMILES IDX 64 43 20 45 52 46 32 47 51 48 33 49 36 50 50 51 69 52 34 53
REMARK SMILES IDX 35 54 49 56 70 57 37 58 21 59 22 60 30 61 23 62 29 63 31 64
REMARK SMILES IDX 28 65 24 66 25 67 26 68 27 69 53 70 54 71 62 72 55 73 61 74
REMARK SMILES IDX 63 75 60 76 56 77 57 78 58 79 59 80 38 81 39 82 47 83 40 84
REMARK SMILES IDX 46 85 48 86 45 87 41 88 42 89 43 90 44 91
REMARK H PARENT 68 44 36 55
REMARK Flexibility Score: inf
ROOT
ATOM      1  C   UNL A   1      31.286  29.539  24.753  1.00  0.00     0.275 C 
ENDROOT
BRANCH   1   2
ATOM      2  O   UNL A   1      30.163  29.791  23.885  1.00  0.00    -0.457 OA
BRANCH   2   3
ATOM      3  C   UNL A   1      30.176  29.141  22.688  1.00  0.00     0.355 C 
ATOM      4  O   UNL A   1      29.939  29.675  21.613  1.00  0.00    -0.244 OA
BRANCH   3   5
ATOM      5  C   UNL A   1      30.599  27.762  22.834  1.00  0.00     0.128 A 
ATOM      6  C   UNL A   1      28.572  26.655  23.887  1.00  0.00     0.150 C 
ATOM      7  N   UNL A   1      29.918  26.681  23.360  1.00  0.00    -0.338 N 
ATOM      8  C   UNL A   1      30.675  25.525  23.230  1.00  0.00     0.049 A 
ATOM      9  C   UNL A   1      31.824  27.261  22.404  1.00  0.00     0.044 A 
ATOM     10  C   UNL A   1      31.919  25.894  22.734  1.00  0.00     0.004 A 
ATOM     11  C   UNL A   1      30.373  24.186  23.503  1.00  0.00     0.031 A 
ATOM     12  C   UNL A   1      32.938  24.930  22.612  1.00  0.00     0.056 A 
ATOM     13  C   UNL A   1      31.378  23.232  23.299  1.00  0.00     0.048 A 
ATOM     14  C   UNL A   1      32.664  23.591  22.903  1.00  0.00     0.120 A 
BRANCH  14  15
ATOM     15  O   UNL A   1      33.740  22.754  22.777  1.00  0.00    -0.489 OA
BRANCH  15  16
ATOM     16  C   UNL A   1      34.092  21.896  23.866  1.00  0.00     0.265 C 
BRANCH  16  17
ATOM     17  C   UNL A   1      35.350  22.324  24.592  1.00  0.00    -0.011 A 
ATOM     18  C   UNL A   1      36.458  21.471  24.667  1.00  0.00     0.007 A 
ATOM     19  C   UNL A   1      35.437  23.604  25.162  1.00  0.00     0.007 A 
ATOM     20  C   UNL A   1      37.645  21.910  25.256  1.00  0.00     0.000 A 
ATOM     21  C   UNL A   1      36.631  24.050  25.726  1.00  0.00     0.000 A 
ATOM     22  C   UNL A   1      37.736  23.202  25.769  1.00  0.00     0.000 A 
ENDBRANCH  16  17
ENDBRANCH  15  16
ENDBRANCH  14  15
ENDBRANCH   3   5
ENDBRANCH   2   3
ENDBRANCH   1   2
BRANCH   1  23
ATOM     23  C   UNL A   1      31.478  30.670  25.764  1.00  0.00     0.275 C 
BRANCH  23  24
ATOM     24  O   UNL A   1      32.652  30.445  26.564  1.00  0.00    -0.458 OA
BRANCH  24  25
ATOM     25  C   UNL A   1      33.144  31.546  27.179  1.00  0.00     0.338 C 
ATOM     26  O   UNL A   1      32.563  32.599  27.380  1.00  0.00    -0.246 OA
BRANCH  25  27
ATOM     27  C   UNL A   1      34.492  31.263  27.691  1.00  0.00     0.060 A 
ATOM     28  C   UNL A   1      34.788  29.947  28.026  1.00  0.00     0.016 A 
ATOM     29  C   UNL A   1      35.401  32.276  27.977  1.00  0.00     0.016 A 
ATOM     30  C   UNL A   1      35.950  29.633  28.722  1.00  0.00     0.010 A 
ATOM     31  C   UNL A   1      36.615  31.949  28.600  1.00  0.00     0.010 A 
ATOM     32  C   UNL A   1      36.890  30.628  29.010  1.00  0.00    -0.014 A 
BRANCH  32  33
ATOM     33  C   UNL A   1      38.124  30.289  29.778  1.00  0.00     0.031 A 
ATOM     34  C   UNL A   1      39.144  29.350  29.186  1.00  0.00     0.074 A 
ATOM     35  C   UNL A   1      38.350  30.839  30.989  1.00  0.00     0.049 A 
ATOM     36  N   UNL A   1      40.188  28.795  29.748  1.00  0.00    -0.248 NA
ATOM     37  C   UNL A   1      38.951  28.975  27.779  1.00  0.00     0.031 C 
ATOM     38  C   UNL A   1      37.485  31.817  31.650  1.00  0.00     0.029 A 
ATOM     39  N   UNL A   1      39.381  30.659  31.881  1.00  0.00    -0.354 N 
ATOM     40  C   UNL A   1      40.748  27.967  28.780  1.00  0.00     0.074 A 
ATOM     41  C   UNL A   1      39.910  28.077  27.604  1.00  0.00     0.031 C 
ATOM     42  C   UNL A   1      38.033  32.173  32.821  1.00  0.00     0.029 A 
ATOM     43  C   UNL A   1      39.234  31.378  33.046  1.00  0.00     0.049 A 
ATOM     44  H   UNL A   1      40.151  30.073  31.703  1.00  0.00     0.167 HD
ATOM     45  C   UNL A   1      41.858  27.190  28.866  1.00  0.00     0.034 A 
ATOM     46  C   UNL A   1      39.949  31.363  34.189  1.00  0.00     0.034 A 
ATOM     47  C   UNL A   1      42.699  27.121  30.039  1.00  0.00     0.049 A 
ATOM     48  C   UNL A   1      41.130  30.432  34.293  1.00  0.00     0.074 A 
ATOM     49  C   UNL A   1      43.852  26.378  30.232  1.00  0.00     0.029 A 
ATOM     50  N   UNL A   1      42.481  27.821  31.221  1.00  0.00    -0.354 N 
ATOM     51  N   UNL A   1      41.615  29.609  33.392  1.00  0.00    -0.248 NA
ATOM     52  C   UNL A   1      41.853  30.421  35.571  1.00  0.00     0.031 C 
ATOM     53  C   UNL A   1      44.286  26.570  31.549  1.00  0.00     0.029 A 
ATOM     54  C   UNL A   1      43.456  27.501  32.154  1.00  0.00     0.049 A 
ATOM     55  H   UNL A   1      41.742  28.452  31.373  1.00  0.00     0.167 HD
ATOM     56  C   UNL A   1      42.716  29.001  33.988  1.00  0.00     0.074 A 
ATOM     57  C   UNL A   1      42.832  29.566  35.317  1.00  0.00     0.031 C 
ATOM     58  C   UNL A   1      43.554  28.060  33.484  1.00  0.00     0.034 A 
BRANCH  45  59
ATOM     59  C   UNL A   1      42.183  26.302  27.684  1.00  0.00     0.023 A 
ATOM     60  C   UNL A   1      41.838  24.940  27.650  1.00  0.00     0.031 A 
ATOM     61  C   UNL A   1      42.887  26.827  26.585  1.00  0.00     0.131 A 
ATOM     62  C   UNL A   1      42.266  24.135  26.581  1.00  0.00     0.055 A 
ATOM     63  C   UNL A   1      43.233  26.039  25.484  1.00  0.00     0.041 A 
ATOM     64  F   UNL A   1      43.266  28.115  26.566  1.00  0.00    -0.206 F 
ATOM     65  C   UNL A   1      42.938  24.681  25.486  1.00  0.00     0.022 A 
BRANCH  62  66
ATOM     66  S   UNL A   1      42.074  22.335  26.718  1.00  0.00     0.124 S 
ATOM     67  O   UNL A   1      43.074  22.008  27.730  1.00  0.00    -0.237 OA
ATOM     68  O   UNL A   1      40.680  22.198  27.125  1.00  0.00    -0.237 OA
ATOM     69  O   UNL A   1      42.380  21.854  25.373  1.00  0.00    -0.744 OA
ENDBRANCH  62  66
ENDBRANCH  45  59
BRANCH  46  70
ATOM     70  C   UNL A   1      39.530  32.198  35.353  1.00  0.00     0.023 A 
ATOM     71  C   UNL A   1      38.781  31.653  36.409  1.00  0.00     0.031 A 
ATOM     72  C   UNL A   1      39.840  33.570  35.408  1.00  0.00     0.131 A 
ATOM     73  C   UNL A   1      38.336  32.481  37.452  1.00  0.00     0.055 A 
ATOM     74  C   UNL A   1      39.451  34.375  36.479  1.00  0.00     0.041 A 
ATOM     75  F   UNL A   1      40.546  34.147  34.423  1.00  0.00    -0.206 F 
ATOM     76  C   UNL A   1      38.683  33.834  37.504  1.00  0.00     0.022 A 
BRANCH  73  77
ATOM     77  S   UNL A   1      37.220  31.786  38.701  1.00  0.00     0.124 S 
ATOM     78  O   UNL A   1      37.039  30.424  38.212  1.00  0.00    -0.237 OA
ATOM     79  O   UNL A   1      38.004  31.930  39.923  1.00  0.00    -0.237 OA
ATOM     80  O   UNL A   1      36.038  32.642  38.616  1.00  0.00    -0.744 OA
ENDBRANCH  73  77
ENDBRANCH  46  70
BRANCH  58  81
ATOM     81  C   UNL A   1      44.702  27.624  34.363  1.00  0.00     0.023 A 
ATOM     82  C   UNL A   1      44.611  26.496  35.196  1.00  0.00     0.031 A 
ATOM     83  C   UNL A   1      45.899  28.363  34.379  1.00  0.00     0.131 A 
ATOM     84  C   UNL A   1      45.673  26.175  36.056  1.00  0.00     0.055 A 
ATOM     85  C   UNL A   1      46.976  28.001  35.188  1.00  0.00     0.041 A 
ATOM     86  F   UNL A   1      46.039  29.453  33.608  1.00  0.00    -0.206 F 
ATOM     87  C   UNL A   1      46.863  26.909  36.043  1.00  0.00     0.022 A 
BRANCH  84  88
ATOM     88  S   UNL A   1      45.443  24.844  37.267  1.00  0.00     0.124 S 
ATOM     89  O   UNL A   1      44.398  24.041  36.641  1.00  0.00    -0.237 OA
ATOM     90  O   UNL A   1      46.769  24.238  37.322  1.00  0.00    -0.237 OA
ATOM     91  O   UNL A   1      45.035  25.551  38.481  1.00  0.00    -0.744 OA
ENDBRANCH  84  88
ENDBRANCH  58  81
ENDBRANCH  32  33
ENDBRANCH  25  27
ENDBRANCH  24  25
ENDBRANCH  23  24
ENDBRANCH   1  23
TORSDOF 17
ENDMDL
