MODEL 1
REMARK VINA RESULT:     -10.5      0.000      0.000
REMARK SMILES COc1cc(OC)cc(-c2ccc(C(=O)OCCOC(=O)c3ccc(-c4c5nc(c(-c6cc(S(=O)(=O)[O-])ccc6F)c6ccc([nH]6)c(-c6cc(S(=O)(=O)[O-])ccc6F)c6nc(c(-c7cc(S(=O)(=O)[O-])ccc7F)c7ccc4[nH]7)C=C6)C=C5)cc3)o2)c1
REMARK SMILES IDX 18 1 17 2 16 3 14 4 15 5 13 6 10 7 11 8 85 9 12 10 9 11 3 12
REMARK SMILES IDX 4 13 86 14 5 15 8 16 2 17 1 18 6 19 7 20 19 21 20 22 21 23
REMARK SMILES IDX 22 24 23 25 84 26 24 27 83 28 25 29 26 30 27 31 77 32 28 33
REMARK SMILES IDX 82 34 76 35 78 36 29 37 81 38 75 39 74 40 30 42 62 43 42 44
REMARK SMILES IDX 61 45 43 46 46 47 60 48 79 49 44 50 45 51 59 53 80 54 47 55
REMARK SMILES IDX 31 56 32 57 40 58 33 59 39 60 41 61 38 62 34 63 35 64 36 65
REMARK SMILES IDX 37 66 63 67 64 68 72 69 65 70 71 71 73 72 70 73 66 74 67 75
REMARK SMILES IDX 68 76 69 77 48 78 49 79 57 80 50 81 56 82 58 83 55 84 51 85
REMARK SMILES IDX 52 86 53 87 54 88
REMARK H PARENT 78 41 46 52
REMARK Flexibility Score: inf
ROOT
ATOM      1  C   UNL A   1      34.745  33.226  28.414  1.00  0.00     0.275 C 
ENDROOT
BRANCH   1   2
ATOM      2  C   UNL A   1      33.672  34.290  28.150  1.00  0.00     0.275 C 
BRANCH   2   3
ATOM      3  O   UNL A   1      32.916  34.583  29.340  1.00  0.00    -0.456 OA
BRANCH   3   4
ATOM      4  C   UNL A   1      32.949  35.886  29.763  1.00  0.00     0.374 C 
ATOM      5  O   UNL A   1      32.594  36.836  29.084  1.00  0.00    -0.242 OA
BRANCH   4   6
ATOM      6  C   UNL A   1      33.382  35.940  31.143  1.00  0.00     0.212 A 
ATOM      7  C   UNL A   1      34.733  35.421  32.805  1.00  0.00     0.135 A 
ATOM      8  C   UNL A   1      33.917  36.427  33.273  1.00  0.00     0.052 A 
ATOM      9  O   UNL A   1      34.375  35.077  31.540  1.00  0.00    -0.449 OA
ATOM     10  C   UNL A   1      33.053  36.766  32.203  1.00  0.00     0.059 A 
BRANCH   7  11
ATOM     11  C   UNL A   1      35.878  34.721  33.360  1.00  0.00     0.025 A 
ATOM     12  C   UNL A   1      36.894  33.468  35.162  1.00  0.00     0.123 A 
ATOM     13  C   UNL A   1      38.119  33.526  34.497  1.00  0.00     0.092 A 
ATOM     14  C   UNL A   1      35.772  34.073  34.596  1.00  0.00     0.058 A 
ATOM     15  C   UNL A   1      38.236  34.156  33.256  1.00  0.00     0.123 A 
ATOM     16  C   UNL A   1      37.110  34.748  32.684  1.00  0.00     0.058 A 
BRANCH  12  17
ATOM     17  O   UNL A   1      36.915  32.864  36.390  1.00  0.00    -0.497 OA
ATOM     18  C   UNL A   1      38.017  33.226  37.216  1.00  0.00     0.278 C 
ENDBRANCH  12  17
BRANCH  15  19
ATOM     19  O   UNL A   1      39.496  34.134  32.729  1.00  0.00    -0.497 OA
ATOM     20  C   UNL A   1      39.637  34.362  31.332  1.00  0.00     0.278 C 
ENDBRANCH  15  19
ENDBRANCH   7  11
ENDBRANCH   4   6
ENDBRANCH   3   4
ENDBRANCH   2   3
ENDBRANCH   1   2
BRANCH   1  21
ATOM     21  O   UNL A   1      34.171  31.946  28.736  1.00  0.00    -0.458 OA
BRANCH  21  22
ATOM     22  C   UNL A   1      34.477  30.942  27.877  1.00  0.00     0.338 C 
ATOM     23  O   UNL A   1      33.869  30.644  26.862  1.00  0.00    -0.246 OA
BRANCH  22  24
ATOM     24  C   UNL A   1      35.762  30.329  28.261  1.00  0.00     0.060 A 
ATOM     25  C   UNL A   1      35.837  29.704  29.508  1.00  0.00     0.016 A 
ATOM     26  C   UNL A   1      36.893  30.409  27.445  1.00  0.00     0.016 A 
ATOM     27  C   UNL A   1      37.034  29.147  29.947  1.00  0.00     0.010 A 
ATOM     28  C   UNL A   1      38.101  29.855  27.890  1.00  0.00     0.010 A 
ATOM     29  C   UNL A   1      38.179  29.226  29.146  1.00  0.00    -0.014 A 
BRANCH  29  30
ATOM     30  C   UNL A   1      39.463  28.691  29.662  1.00  0.00     0.031 A 
ATOM     31  C   UNL A   1      40.096  29.317  30.871  1.00  0.00     0.074 A 
ATOM     32  C   UNL A   1      40.027  27.618  29.077  1.00  0.00     0.049 A 
ATOM     33  N   UNL A   1      41.230  29.030  31.456  1.00  0.00    -0.248 NA
ATOM     34  C   UNL A   1      39.349  30.414  31.508  1.00  0.00     0.031 C 
ATOM     35  C   UNL A   1      39.472  26.896  27.931  1.00  0.00     0.029 A 
ATOM     36  N   UNL A   1      41.186  26.945  29.366  1.00  0.00    -0.354 N 
ATOM     37  C   UNL A   1      41.337  29.906  32.530  1.00  0.00     0.074 A 
ATOM     38  C   UNL A   1      40.166  30.757  32.494  1.00  0.00     0.031 C 
ATOM     39  C   UNL A   1      40.293  25.882  27.614  1.00  0.00     0.029 A 
ATOM     40  C   UNL A   1      41.452  25.906  28.503  1.00  0.00     0.049 A 
ATOM     41  H   UNL A   1      41.773  27.182  30.120  1.00  0.00     0.167 HD
ATOM     42  C   UNL A   1      42.319  29.986  33.461  1.00  0.00     0.034 A 
ATOM     43  C   UNL A   1      42.519  25.087  28.425  1.00  0.00     0.034 A 
ATOM     44  C   UNL A   1      43.488  29.139  33.476  1.00  0.00     0.049 A 
ATOM     45  C   UNL A   1      43.635  25.247  29.428  1.00  0.00     0.074 A 
ATOM     46  C   UNL A   1      44.556  29.155  34.356  1.00  0.00     0.029 A 
ATOM     47  N   UNL A   1      43.741  28.122  32.565  1.00  0.00    -0.354 N 
ATOM     48  N   UNL A   1      43.738  26.103  30.420  1.00  0.00    -0.248 NA
ATOM     49  C   UNL A   1      44.776  24.330  29.305  1.00  0.00     0.031 C 
ATOM     50  C   UNL A   1      45.478  28.185  33.947  1.00  0.00     0.029 A 
ATOM     51  C   UNL A   1      44.958  27.519  32.849  1.00  0.00     0.049 A 
ATOM     52  H   UNL A   1      43.145  27.866  31.825  1.00  0.00     0.167 HD
ATOM     53  C   UNL A   1      44.943  25.808  31.051  1.00  0.00     0.074 A 
ATOM     54  C   UNL A   1      45.521  24.686  30.340  1.00  0.00     0.031 C 
ATOM     55  C   UNL A   1      45.522  26.407  32.122  1.00  0.00     0.034 A 
BRANCH  42  56
ATOM     56  C   UNL A   1      42.188  31.064  34.508  1.00  0.00     0.023 A 
ATOM     57  C   UNL A   1      42.493  32.406  34.226  1.00  0.00     0.031 A 
ATOM     58  C   UNL A   1      41.777  30.740  35.813  1.00  0.00     0.131 A 
ATOM     59  C   UNL A   1      42.438  33.366  35.248  1.00  0.00     0.055 A 
ATOM     60  C   UNL A   1      41.658  31.710  36.809  1.00  0.00     0.041 A 
ATOM     61  F   UNL A   1      41.496  29.469  36.145  1.00  0.00    -0.206 F 
ATOM     62  C   UNL A   1      42.000  33.030  36.532  1.00  0.00     0.022 A 
BRANCH  59  63
ATOM     63  S   UNL A   1      43.065  35.033  34.909  1.00  0.00     0.124 S 
ATOM     64  O   UNL A   1      42.678  35.216  33.512  1.00  0.00    -0.237 OA
ATOM     65  O   UNL A   1      42.345  35.845  35.882  1.00  0.00    -0.237 OA
ATOM     66  O   UNL A   1      44.503  34.912  35.138  1.00  0.00    -0.744 OA
ENDBRANCH  59  63
ENDBRANCH  42  56
BRANCH  43  67
ATOM     67  C   UNL A   1      42.625  24.081  27.329  1.00  0.00     0.023 A 
ATOM     68  C   UNL A   1      41.982  22.836  27.413  1.00  0.00     0.031 A 
ATOM     69  C   UNL A   1      43.431  24.332  26.204  1.00  0.00     0.131 A 
ATOM     70  C   UNL A   1      42.198  21.869  26.419  1.00  0.00     0.055 A 
ATOM     71  C   UNL A   1      43.598  23.387  25.189  1.00  0.00     0.041 A 
ATOM     72  F   UNL A   1      44.072  25.505  26.073  1.00  0.00    -0.206 F 
ATOM     73  C   UNL A   1      42.992  22.141  25.302  1.00  0.00     0.022 A 
BRANCH  70  74
ATOM     74  S   UNL A   1      41.511  20.207  26.656  1.00  0.00     0.124 S 
ATOM     75  O   UNL A   1      42.250  19.742  27.825  1.00  0.00    -0.237 OA
ATOM     76  O   UNL A   1      40.095  20.491  26.863  1.00  0.00    -0.237 OA
ATOM     77  O   UNL A   1      41.833  19.523  25.405  1.00  0.00    -0.744 OA
ENDBRANCH  70  74
ENDBRANCH  43  67
BRANCH  55  78
ATOM     78  C   UNL A   1      46.826  25.826  32.605  1.00  0.00     0.023 A 
ATOM     79  C   UNL A   1      46.866  24.806  33.571  1.00  0.00     0.031 A 
ATOM     80  C   UNL A   1      48.046  26.315  32.104  1.00  0.00     0.131 A 
ATOM     81  C   UNL A   1      48.103  24.343  34.046  1.00  0.00     0.055 A 
ATOM     82  C   UNL A   1      49.272  25.815  32.544  1.00  0.00     0.041 A 
ATOM     83  F   UNL A   1      48.063  27.288  31.179  1.00  0.00    -0.206 F 
ATOM     84  C   UNL A   1      49.305  24.832  33.529  1.00  0.00     0.022 A 
BRANCH  81  85
ATOM     85  S   UNL A   1      48.120  23.145  35.408  1.00  0.00     0.124 S 
ATOM     86  O   UNL A   1      47.161  22.146  34.949  1.00  0.00    -0.237 OA
ATOM     87  O   UNL A   1      49.517  22.723  35.436  1.00  0.00    -0.237 OA
ATOM     88  O   UNL A   1      47.691  23.933  36.563  1.00  0.00    -0.744 OA
ENDBRANCH  81  85
ENDBRANCH  55  78
ENDBRANCH  29  30
ENDBRANCH  22  24
ENDBRANCH  21  22
ENDBRANCH   1  21
TORSDOF 17
ENDMDL
MODEL 2
REMARK VINA RESULT:     -10.5      4.486     12.391
REMARK SMILES COc1cc(OC)cc(-c2ccc(C(=O)OCCOC(=O)c3ccc(-c4c5nc(c(-c6cc(S(=O)(=O)[O-])ccc6F)c6ccc([nH]6)c(-c6cc(S(=O)(=O)[O-])ccc6F)c6nc(c(-c7cc(S(=O)(=O)[O-])ccc7F)c7ccc4[nH]7)C=C6)C=C5)cc3)o2)c1
REMARK SMILES IDX 18 1 17 2 16 3 14 4 15 5 13 6 10 7 11 8 85 9 12 10 9 11 3 12
REMARK SMILES IDX 4 13 86 14 5 15 8 16 2 17 1 18 6 19 7 20 19 21 20 22 21 23
REMARK SMILES IDX 22 24 23 25 84 26 24 27 83 28 25 29 26 30 27 31 77 32 28 33
REMARK SMILES IDX 82 34 76 35 78 36 29 37 81 38 75 39 74 40 30 42 62 43 42 44
REMARK SMILES IDX 61 45 43 46 46 47 60 48 79 49 44 50 45 51 59 53 80 54 47 55
REMARK SMILES IDX 31 56 32 57 40 58 33 59 39 60 41 61 38 62 34 63 35 64 36 65
REMARK SMILES IDX 37 66 63 67 64 68 72 69 65 70 71 71 73 72 70 73 66 74 67 75
REMARK SMILES IDX 68 76 69 77 48 78 49 79 57 80 50 81 56 82 58 83 55 84 51 85
REMARK SMILES IDX 52 86 53 87 54 88
REMARK H PARENT 78 41 46 52
REMARK Flexibility Score: inf
ROOT
ATOM      1  C   UNL A   1      40.754  19.745  26.214  1.00  0.00     0.275 C 
ENDROOT
BRANCH   1   2
ATOM      2  C   UNL A   1      42.196  19.230  26.297  1.00  0.00     0.275 C 
BRANCH   2   3
ATOM      3  O   UNL A   1      42.806  19.159  24.994  1.00  0.00    -0.456 OA
BRANCH   3   4
ATOM      4  C   UNL A   1      44.166  19.316  24.962  1.00  0.00     0.374 C 
ATOM      5  O   UNL A   1      44.961  18.394  24.877  1.00  0.00    -0.242 OA
BRANCH   4   6
ATOM      6  C   UNL A   1      44.494  20.726  24.960  1.00  0.00     0.212 A 
ATOM      7  C   UNL A   1      45.150  22.597  25.922  1.00  0.00     0.135 A 
ATOM      8  C   UNL A   1      45.157  22.840  24.566  1.00  0.00     0.052 A 
ATOM      9  O   UNL A   1      44.691  21.342  26.171  1.00  0.00    -0.449 OA
ATOM     10  C   UNL A   1      44.742  21.635  23.946  1.00  0.00     0.059 A 
BRANCH   7  11
ATOM     11  C   UNL A   1      45.564  23.371  27.078  1.00  0.00     0.025 A 
ATOM     12  C   UNL A   1      45.094  24.262  29.278  1.00  0.00     0.123 A 
ATOM     13  C   UNL A   1      46.285  24.989  29.225  1.00  0.00     0.092 A 
ATOM     14  C   UNL A   1      44.729  23.457  28.199  1.00  0.00     0.058 A 
ATOM     15  C   UNL A   1      47.135  24.900  28.121  1.00  0.00     0.123 A 
ATOM     16  C   UNL A   1      46.775  24.083  27.048  1.00  0.00     0.058 A 
BRANCH  12  17
ATOM     17  O   UNL A   1      44.325  24.467  30.391  1.00  0.00    -0.497 OA
ATOM     18  C   UNL A   1      44.604  25.670  31.098  1.00  0.00     0.278 C 
ENDBRANCH  12  17
BRANCH  15  19
ATOM     19  O   UNL A   1      48.261  25.668  28.212  1.00  0.00    -0.497 OA
ATOM     20  C   UNL A   1      49.031  25.579  29.405  1.00  0.00     0.278 C 
ENDBRANCH  15  19
ENDBRANCH   7  11
ENDBRANCH   4   6
ENDBRANCH   3   4
ENDBRANCH   2   3
ENDBRANCH   1   2
BRANCH   1  21
ATOM     21  O   UNL A   1      40.546  20.908  27.037  1.00  0.00    -0.458 OA
BRANCH  21  22
ATOM     22  C   UNL A   1      39.701  21.836  26.524  1.00  0.00     0.338 C 
ATOM     23  O   UNL A   1      38.700  21.619  25.861  1.00  0.00    -0.246 OA
BRANCH  22  24
ATOM     24  C   UNL A   1      40.078  23.178  27.007  1.00  0.00     0.060 A 
ATOM     25  C   UNL A   1      39.655  24.279  26.259  1.00  0.00     0.016 A 
ATOM     26  C   UNL A   1      40.875  23.360  28.139  1.00  0.00     0.016 A 
ATOM     27  C   UNL A   1      40.017  25.569  26.636  1.00  0.00     0.010 A 
ATOM     28  C   UNL A   1      41.247  24.658  28.516  1.00  0.00     0.010 A 
ATOM     29  C   UNL A   1      40.823  25.769  27.762  1.00  0.00    -0.014 A 
BRANCH  29  30
ATOM     30  C   UNL A   1      41.258  27.145  28.108  1.00  0.00     0.031 A 
ATOM     31  C   UNL A   1      42.663  27.577  27.803  1.00  0.00     0.074 A 
ATOM     32  C   UNL A   1      40.380  28.012  28.643  1.00  0.00     0.049 A 
ATOM     33  N   UNL A   1      43.255  28.716  28.058  1.00  0.00    -0.248 NA
ATOM     34  C   UNL A   1      43.517  26.595  27.116  1.00  0.00     0.031 C 
ATOM     35  C   UNL A   1      38.976  27.717  28.932  1.00  0.00     0.029 A 
ATOM     36  N   UNL A   1      40.535  29.317  29.037  1.00  0.00    -0.354 N 
ATOM     37  C   UNL A   1      44.548  28.592  27.565  1.00  0.00     0.074 A 
ATOM     38  C   UNL A   1      44.664  27.254  27.024  1.00  0.00     0.031 C 
ATOM     39  C   UNL A   1      38.399  28.810  29.458  1.00  0.00     0.029 A 
ATOM     40  C   UNL A   1      39.399  29.867  29.585  1.00  0.00     0.049 A 
ATOM     41  H   UNL A   1      41.379  29.813  28.937  1.00  0.00     0.167 HD
ATOM     42  C   UNL A   1      45.542  29.514  27.560  1.00  0.00     0.034 A 
ATOM     43  C   UNL A   1      39.197  31.075  30.147  1.00  0.00     0.034 A 
ATOM     44  C   UNL A   1      45.416  30.840  28.114  1.00  0.00     0.049 A 
ATOM     45  C   UNL A   1      40.343  32.056  30.196  1.00  0.00     0.074 A 
ATOM     46  C   UNL A   1      46.369  31.841  28.187  1.00  0.00     0.029 A 
ATOM     47  N   UNL A   1      44.262  31.351  28.693  1.00  0.00    -0.354 N 
ATOM     48  N   UNL A   1      41.571  31.914  29.754  1.00  0.00    -0.248 NA
ATOM     49  C   UNL A   1      40.075  33.361  30.815  1.00  0.00     0.031 C 
ATOM     50  C   UNL A   1      45.808  32.936  28.855  1.00  0.00     0.029 A 
ATOM     51  C   UNL A   1      44.485  32.643  29.145  1.00  0.00     0.049 A 
ATOM     52  H   UNL A   1      43.409  30.866  28.773  1.00  0.00     0.167 HD
ATOM     53  C   UNL A   1      42.212  33.120  30.021  1.00  0.00     0.074 A 
ATOM     54  C   UNL A   1      41.231  33.983  30.645  1.00  0.00     0.031 C 
ATOM     55  C   UNL A   1      43.496  33.485  29.774  1.00  0.00     0.034 A 
BRANCH  42  56
ATOM     56  C   UNL A   1      46.868  29.092  26.977  1.00  0.00     0.023 A 
ATOM     57  C   UNL A   1      46.987  28.682  25.638  1.00  0.00     0.031 A 
ATOM     58  C   UNL A   1      48.023  29.079  27.778  1.00  0.00     0.131 A 
ATOM     59  C   UNL A   1      48.221  28.219  25.156  1.00  0.00     0.055 A 
ATOM     60  C   UNL A   1      49.264  28.683  27.273  1.00  0.00     0.041 A 
ATOM     61  F   UNL A   1      47.963  29.439  29.070  1.00  0.00    -0.206 F 
ATOM     62  C   UNL A   1      49.365  28.239  25.958  1.00  0.00     0.022 A 
BRANCH  59  63
ATOM     63  S   UNL A   1      48.284  27.475  23.503  1.00  0.00     0.124 S 
ATOM     64  O   UNL A   1      47.220  28.199  22.812  1.00  0.00    -0.237 OA
ATOM     65  O   UNL A   1      49.644  27.775  23.073  1.00  0.00    -0.237 OA
ATOM     66  O   UNL A   1      48.005  26.062  23.753  1.00  0.00    -0.744 OA
ENDBRANCH  59  63
ENDBRANCH  42  56
BRANCH  43  67
ATOM     67  C   UNL A   1      37.882  31.415  30.765  1.00  0.00     0.023 A 
ATOM     68  C   UNL A   1      36.894  32.108  30.049  1.00  0.00     0.031 A 
ATOM     69  C   UNL A   1      37.624  31.103  32.112  1.00  0.00     0.131 A 
ATOM     70  C   UNL A   1      35.717  32.514  30.698  1.00  0.00     0.055 A 
ATOM     71  C   UNL A   1      36.428  31.460  32.737  1.00  0.00     0.041 A 
ATOM     72  F   UNL A   1      38.536  30.443  32.845  1.00  0.00    -0.206 F 
ATOM     73  C   UNL A   1      35.472  32.183  32.032  1.00  0.00     0.022 A 
BRANCH  70  74
ATOM     74  S   UNL A   1      34.550  33.575  29.800  1.00  0.00     0.124 S 
ATOM     75  O   UNL A   1      33.787  34.171  30.892  1.00  0.00    -0.237 OA
ATOM     76  O   UNL A   1      35.447  34.471  29.080  1.00  0.00    -0.237 OA
ATOM     77  O   UNL A   1      33.808  32.634  28.964  1.00  0.00    -0.744 OA
ENDBRANCH  70  74
ENDBRANCH  43  67
BRANCH  55  78
ATOM     78  C   UNL A   1      43.887  34.892  30.145  1.00  0.00     0.023 A 
ATOM     79  C   UNL A   1      43.673  35.972  29.270  1.00  0.00     0.031 A 
ATOM     80  C   UNL A   1      44.500  35.152  31.383  1.00  0.00     0.131 A 
ATOM     81  C   UNL A   1      44.117  37.255  29.624  1.00  0.00     0.055 A 
ATOM     82  C   UNL A   1      44.894  36.439  31.750  1.00  0.00     0.041 A 
ATOM     83  F   UNL A   1      44.726  34.156  32.255  1.00  0.00    -0.206 F 
ATOM     84  C   UNL A   1      44.715  37.497  30.864  1.00  0.00     0.022 A 
BRANCH  81  85
ATOM     85  S   UNL A   1      43.974  38.593  28.408  1.00  0.00     0.124 S 
ATOM     86  O   UNL A   1      43.766  37.856  27.165  1.00  0.00    -0.237 OA
ATOM     87  O   UNL A   1      42.826  39.345  28.903  1.00  0.00    -0.237 OA
ATOM     88  O   UNL A   1      45.257  39.288  28.510  1.00  0.00    -0.744 OA
ENDBRANCH  81  85
ENDBRANCH  55  78
ENDBRANCH  29  30
ENDBRANCH  22  24
ENDBRANCH  21  22
ENDBRANCH   1  21
TORSDOF 17
ENDMDL
MODEL 3
REMARK VINA RESULT:     -10.3      3.725     10.660
REMARK SMILES COc1cc(OC)cc(-c2ccc(C(=O)OCCOC(=O)c3ccc(-c4c5nc(c(-c6cc(S(=O)(=O)[O-])ccc6F)c6ccc([nH]6)c(-c6cc(S(=O)(=O)[O-])ccc6F)c6nc(c(-c7cc(S(=O)(=O)[O-])ccc7F)c7ccc4[nH]7)C=C6)C=C5)cc3)o2)c1
REMARK SMILES IDX 18 1 17 2 16 3 14 4 15 5 13 6 10 7 11 8 85 9 12 10 9 11 3 12
REMARK SMILES IDX 4 13 86 14 5 15 8 16 2 17 1 18 6 19 7 20 19 21 20 22 21 23
REMARK SMILES IDX 22 24 23 25 84 26 24 27 83 28 25 29 26 30 27 31 77 32 28 33
REMARK SMILES IDX 82 34 76 35 78 36 29 37 81 38 75 39 74 40 30 42 62 43 42 44
REMARK SMILES IDX 61 45 43 46 46 47 60 48 79 49 44 50 45 51 59 53 80 54 47 55
REMARK SMILES IDX 31 56 32 57 40 58 33 59 39 60 41 61 38 62 34 63 35 64 36 65
REMARK SMILES IDX 37 66 63 67 64 68 72 69 65 70 71 71 73 72 70 73 66 74 67 75
REMARK SMILES IDX 68 76 69 77 48 78 49 79 57 80 50 81 56 82 58 83 55 84 51 85
REMARK SMILES IDX 52 86 53 87 54 88
REMARK H PARENT 78 41 46 52
REMARK Flexibility Score: inf
ROOT
ATOM      1  C   UNL A   1      31.468  30.121  25.393  1.00  0.00     0.275 C 
ENDROOT
BRANCH   1   2
ATOM      2  C   UNL A   1      31.306  29.061  24.296  1.00  0.00     0.275 C 
BRANCH   2   3
ATOM      3  O   UNL A   1      30.981  27.773  24.852  1.00  0.00    -0.456 OA
BRANCH   3   4
ATOM      4  C   UNL A   1      31.361  26.688  24.107  1.00  0.00     0.374 C 
ATOM      5  O   UNL A   1      30.881  26.398  23.023  1.00  0.00    -0.242 OA
BRANCH   4   6
ATOM      6  C   UNL A   1      32.459  26.008  24.761  1.00  0.00     0.212 A 
ATOM      7  C   UNL A   1      33.640  24.221  25.280  1.00  0.00     0.135 A 
ATOM      8  C   UNL A   1      34.384  25.305  25.689  1.00  0.00     0.052 A 
ATOM      9  O   UNL A   1      32.447  24.635  24.775  1.00  0.00    -0.449 OA
ATOM     10  C   UNL A   1      33.629  26.455  25.350  1.00  0.00     0.059 A 
BRANCH   7  11
ATOM     11  C   UNL A   1      33.891  22.791  25.243  1.00  0.00     0.025 A 
ATOM     12  C   UNL A   1      35.445  20.941  25.132  1.00  0.00     0.123 A 
ATOM     13  C   UNL A   1      34.371  20.061  25.001  1.00  0.00     0.092 A 
ATOM     14  C   UNL A   1      35.206  22.310  25.245  1.00  0.00     0.058 A 
ATOM     15  C   UNL A   1      33.053  20.525  25.012  1.00  0.00     0.123 A 
ATOM     16  C   UNL A   1      32.815  21.893  25.141  1.00  0.00     0.058 A 
BRANCH  12  17
ATOM     17  O   UNL A   1      36.688  20.372  25.061  1.00  0.00    -0.497 OA
ATOM     18  C   UNL A   1      37.723  21.248  24.627  1.00  0.00     0.278 C 
ENDBRANCH  12  17
BRANCH  15  19
ATOM     19  O   UNL A   1      32.110  19.547  24.874  1.00  0.00    -0.497 OA
ATOM     20  C   UNL A   1      32.536  18.271  24.412  1.00  0.00     0.278 C 
ENDBRANCH  15  19
ENDBRANCH   7  11
ENDBRANCH   4   6
ENDBRANCH   3   4
ENDBRANCH   2   3
ENDBRANCH   1   2
BRANCH   1  21
ATOM     21  O   UNL A   1      32.802  30.140  25.935  1.00  0.00    -0.458 OA
BRANCH  21  22
ATOM     22  C   UNL A   1      33.061  31.153  26.798  1.00  0.00     0.338 C 
ATOM     23  O   UNL A   1      32.314  32.075  27.081  1.00  0.00    -0.246 OA
BRANCH  22  24
ATOM     24  C   UNL A   1      34.345  30.912  27.483  1.00  0.00     0.060 A 
ATOM     25  C   UNL A   1      34.620  29.610  27.907  1.00  0.00     0.016 A 
ATOM     26  C   UNL A   1      35.243  31.946  27.757  1.00  0.00     0.016 A 
ATOM     27  C   UNL A   1      35.794  29.326  28.599  1.00  0.00     0.010 A 
ATOM     28  C   UNL A   1      36.422  31.663  28.461  1.00  0.00     0.010 A 
ATOM     29  C   UNL A   1      36.700  30.352  28.890  1.00  0.00    -0.014 A 
BRANCH  29  30
ATOM     30  C   UNL A   1      37.910  30.044  29.692  1.00  0.00     0.031 A 
ATOM     31  C   UNL A   1      38.944  29.104  29.143  1.00  0.00     0.074 A 
ATOM     32  C   UNL A   1      38.099  30.647  30.880  1.00  0.00     0.049 A 
ATOM     33  N   UNL A   1      40.048  28.672  29.696  1.00  0.00    -0.248 NA
ATOM     34  C   UNL A   1      38.703  28.581  27.789  1.00  0.00     0.031 C 
ATOM     35  C   UNL A   1      37.187  31.618  31.485  1.00  0.00     0.029 A 
ATOM     36  N   UNL A   1      39.120  30.535  31.789  1.00  0.00    -0.354 N 
ATOM     37  C   UNL A   1      40.637  27.828  28.761  1.00  0.00     0.074 A 
ATOM     38  C   UNL A   1      39.748  27.784  27.618  1.00  0.00     0.031 C 
ATOM     39  C   UNL A   1      37.690  32.012  32.666  1.00  0.00     0.029 A 
ATOM     40  C   UNL A   1      38.935  31.293  32.923  1.00  0.00     0.049 A 
ATOM     41  H   UNL A   1      39.911  29.968  31.644  1.00  0.00     0.167 HD
ATOM     42  C   UNL A   1      41.812  27.158  28.849  1.00  0.00     0.034 A 
ATOM     43  C   UNL A   1      39.671  31.375  34.049  1.00  0.00     0.034 A 
ATOM     44  C   UNL A   1      42.682  27.201  30.000  1.00  0.00     0.049 A 
ATOM     45  C   UNL A   1      40.938  30.560  34.151  1.00  0.00     0.074 A 
ATOM     46  C   UNL A   1      43.880  26.539  30.204  1.00  0.00     0.029 A 
ATOM     47  N   UNL A   1      42.444  27.951  31.145  1.00  0.00    -0.354 N 
ATOM     48  N   UNL A   1      41.466  29.740  33.271  1.00  0.00    -0.248 NA
ATOM     49  C   UNL A   1      41.709  30.684  35.395  1.00  0.00     0.031 C 
ATOM     50  C   UNL A   1      44.340  26.846  31.490  1.00  0.00     0.029 A 
ATOM     51  C   UNL A   1      43.462  27.750  32.066  1.00  0.00     0.049 A 
ATOM     52  H   UNL A   1      41.667  28.538  31.284  1.00  0.00     0.167 HD
ATOM     53  C   UNL A   1      42.643  29.272  33.848  1.00  0.00     0.074 A 
ATOM     54  C   UNL A   1      42.755  29.914  35.142  1.00  0.00     0.031 C 
ATOM     55  C   UNL A   1      43.551  28.392  33.356  1.00  0.00     0.034 A 
BRANCH  42  56
ATOM     56  C   UNL A   1      42.194  26.283  27.682  1.00  0.00     0.023 A 
ATOM     57  C   UNL A   1      41.800  24.936  27.611  1.00  0.00     0.031 A 
ATOM     58  C   UNL A   1      42.984  26.796  26.638  1.00  0.00     0.131 A 
ATOM     59  C   UNL A   1      42.244  24.132  26.550  1.00  0.00     0.055 A 
ATOM     60  C   UNL A   1      43.365  26.010  25.549  1.00  0.00     0.041 A 
ATOM     61  F   UNL A   1      43.409  28.070  26.665  1.00  0.00    -0.206 F 
ATOM     62  C   UNL A   1      43.006  24.666  25.507  1.00  0.00     0.022 A 
BRANCH  59  63
ATOM     63  S   UNL A   1      41.917  22.349  26.615  1.00  0.00     0.124 S 
ATOM     64  O   UNL A   1      42.607  21.967  27.845  1.00  0.00    -0.237 OA
ATOM     65  O   UNL A   1      40.461  22.297  26.657  1.00  0.00    -0.237 OA
ATOM     66  O   UNL A   1      42.525  21.845  25.386  1.00  0.00    -0.744 OA
ENDBRANCH  59  63
ENDBRANCH  42  56
BRANCH  43  67
ATOM     67  C   UNL A   1      39.212  32.208  35.197  1.00  0.00     0.023 A 
ATOM     68  C   UNL A   1      39.633  33.538  35.351  1.00  0.00     0.031 A 
ATOM     69  C   UNL A   1      38.391  31.656  36.198  1.00  0.00     0.131 A 
ATOM     70  C   UNL A   1      39.276  34.255  36.505  1.00  0.00     0.055 A 
ATOM     71  C   UNL A   1      37.993  32.391  37.316  1.00  0.00     0.041 A 
ATOM     72  F   UNL A   1      37.962  30.387  36.103  1.00  0.00    -0.206 F 
ATOM     73  C   UNL A   1      38.448  33.694  37.481  1.00  0.00     0.022 A 
BRANCH  70  74
ATOM     74  S   UNL A   1      39.995  35.901  36.765  1.00  0.00     0.124 S 
ATOM     75  O   UNL A   1      41.401  35.581  36.986  1.00  0.00    -0.237 OA
ATOM     76  O   UNL A   1      39.678  36.572  35.509  1.00  0.00    -0.237 OA
ATOM     77  O   UNL A   1      39.280  36.403  37.936  1.00  0.00    -0.744 OA
ENDBRANCH  70  74
ENDBRANCH  43  67
BRANCH  55  78
ATOM     78  C   UNL A   1      44.761  28.113  34.210  1.00  0.00     0.023 A 
ATOM     79  C   UNL A   1      44.778  27.063  35.144  1.00  0.00     0.031 A 
ATOM     80  C   UNL A   1      45.905  28.923  34.100  1.00  0.00     0.131 A 
ATOM     81  C   UNL A   1      45.898  26.883  35.971  1.00  0.00     0.055 A 
ATOM     82  C   UNL A   1      47.035  28.707  34.890  1.00  0.00     0.041 A 
ATOM     83  F   UNL A   1      45.941  29.939  33.222  1.00  0.00    -0.206 F 
ATOM     84  C   UNL A   1      47.031  27.690  35.840  1.00  0.00     0.022 A 
BRANCH  81  85
ATOM     85  S   UNL A   1      45.825  25.625  37.276  1.00  0.00     0.124 S 
ATOM     86  O   UNL A   1      44.946  26.254  38.257  1.00  0.00    -0.237 OA
ATOM     87  O   UNL A   1      45.272  24.474  36.570  1.00  0.00    -0.237 OA
ATOM     88  O   UNL A   1      47.219  25.482  37.694  1.00  0.00    -0.744 OA
ENDBRANCH  81  85
ENDBRANCH  55  78
ENDBRANCH  29  30
ENDBRANCH  22  24
ENDBRANCH  21  22
ENDBRANCH   1  21
TORSDOF 17
ENDMDL
