MODEL 1
REMARK VINA RESULT:     -12.0      0.000      0.000
REMARK SMILES C[C@@H](C(=O)OCCOC(=O)c1ccc(-c2c3nc(c(-c4cc(S(=O)(=O)[O-])ccc4F)c4ccc([nH]4)c(-c4cc(S(=O)(=O)[O-])ccc4F)c4nc(c(-c5cc(S(=O)(=O)[O-])ccc5F)c5ccc2[nH]5)C=C4)C=C3)cc1)c1cc(C(=O)c2ccccc2)ccc1O
REMARK SMILES IDX 6 1 5 2 3 3 4 4 2 5 1 6 74 7 75 8 87 9 76 10 86 11 85 12
REMARK SMILES IDX 88 13 77 15 78 16 79 17 80 18 84 19 81 20 83 21 82 22 7 23
REMARK SMILES IDX 8 24 9 25 10 26 11 27 12 28 73 29 13 30 72 31 14 32 15 33
REMARK SMILES IDX 16 34 66 35 17 36 71 37 65 38 67 39 18 40 70 41 64 42 63 43
REMARK SMILES IDX 19 45 51 46 31 47 50 48 32 49 35 50 49 51 68 52 33 53 34 54
REMARK SMILES IDX 48 56 69 57 36 58 20 59 21 60 29 61 22 62 28 63 30 64 27 65
REMARK SMILES IDX 23 66 24 67 25 68 26 69 52 70 53 71 61 72 54 73 60 74 62 75
REMARK SMILES IDX 59 76 55 77 56 78 57 79 58 80 37 81 38 82 46 83 39 84 45 85
REMARK SMILES IDX 47 86 44 87 40 88 41 89 42 90 43 91
REMARK H PARENT 88 14 67 44 35 55
REMARK Flexibility Score: inf
ROOT
ATOM      1  C   UNL A   1      31.994  29.053  24.760  1.00  0.00     0.274 C 
ENDROOT
BRANCH   1   2
ATOM      2  O   UNL A   1      32.113  27.887  25.605  1.00  0.00    -0.462 OA
BRANCH   2   3
ATOM      3  C   UNL A   1      31.076  27.001  25.599  1.00  0.00     0.313 C 
ATOM      4  O   UNL A   1      30.635  26.454  26.606  1.00  0.00    -0.252 OA
BRANCH   3   5
ATOM      5  C   UNL A   1      30.532  26.729  24.187  1.00  0.00     0.130 C 
ATOM      6  C   UNL A   1      29.098  26.193  24.157  1.00  0.00     0.025 C 
BRANCH   5   7
ATOM      7  C   UNL A   1      31.466  25.834  23.386  1.00  0.00     0.009 A 
ATOM      8  C   UNL A   1      31.985  24.646  23.943  1.00  0.00     0.020 A 
ATOM      9  C   UNL A   1      31.841  26.163  22.083  1.00  0.00     0.119 A 
ATOM     10  C   UNL A   1      32.783  23.770  23.182  1.00  0.00     0.023 A 
ATOM     11  C   UNL A   1      32.588  25.286  21.306  1.00  0.00     0.047 A 
ATOM     12  C   UNL A   1      32.996  24.064  21.833  1.00  0.00     0.016 A 
BRANCH   9  13
ATOM     13  O   UNL A   1      31.442  27.356  21.554  1.00  0.00    -0.508 OA
ATOM     14  H   UNL A   1      31.874  27.701  20.798  1.00  0.00     0.293 HD
ENDBRANCH   9  13
BRANCH  10  15
ATOM     15  C   UNL A   1      33.366  22.556  23.840  1.00  0.00     0.193 C 
ATOM     16  O   UNL A   1      32.683  21.537  23.929  1.00  0.00    -0.289 OA
BRANCH  15  17
ATOM     17  C   UNL A   1      34.754  22.532  24.385  1.00  0.00     0.022 A 
ATOM     18  C   UNL A   1      35.427  23.750  24.533  1.00  0.00     0.012 A 
ATOM     19  C   UNL A   1      35.396  21.344  24.763  1.00  0.00     0.012 A 
ATOM     20  C   UNL A   1      36.686  23.787  25.139  1.00  0.00     0.001 A 
ATOM     21  C   UNL A   1      36.638  21.387  25.399  1.00  0.00     0.001 A 
ATOM     22  C   UNL A   1      37.277  22.610  25.596  1.00  0.00     0.000 A 
ENDBRANCH  15  17
ENDBRANCH  10  15
ENDBRANCH   5   7
ENDBRANCH   3   5
ENDBRANCH   2   3
ENDBRANCH   1   2
BRANCH   1  23
ATOM     23  C   UNL A   1      31.494  30.248  25.574  1.00  0.00     0.275 C 
BRANCH  23  24
ATOM     24  O   UNL A   1      32.214  30.283  26.814  1.00  0.00    -0.458 OA
BRANCH  24  25
ATOM     25  C   UNL A   1      32.842  31.444  27.112  1.00  0.00     0.338 C 
ATOM     26  O   UNL A   1      32.353  32.561  27.073  1.00  0.00    -0.246 OA
BRANCH  25  27
ATOM     27  C   UNL A   1      34.222  31.155  27.595  1.00  0.00     0.060 A 
ATOM     28  C   UNL A   1      34.607  29.855  27.922  1.00  0.00     0.016 A 
ATOM     29  C   UNL A   1      35.107  32.208  27.845  1.00  0.00     0.016 A 
ATOM     30  C   UNL A   1      35.815  29.625  28.582  1.00  0.00     0.010 A 
ATOM     31  C   UNL A   1      36.362  31.956  28.424  1.00  0.00     0.010 A 
ATOM     32  C   UNL A   1      36.725  30.663  28.840  1.00  0.00    -0.014 A 
BRANCH  32  33
ATOM     33  C   UNL A   1      38.006  30.407  29.580  1.00  0.00     0.031 A 
ATOM     34  C   UNL A   1      39.095  29.550  28.970  1.00  0.00     0.074 A 
ATOM     35  C   UNL A   1      38.235  30.949  30.796  1.00  0.00     0.049 A 
ATOM     36  N   UNL A   1      40.131  28.986  29.542  1.00  0.00    -0.248 NA
ATOM     37  C   UNL A   1      38.998  29.284  27.527  1.00  0.00     0.031 C 
ATOM     38  C   UNL A   1      37.339  31.864  31.506  1.00  0.00     0.029 A 
ATOM     39  N   UNL A   1      39.305  30.815  31.652  1.00  0.00    -0.354 N 
ATOM     40  C   UNL A   1      40.759  28.234  28.551  1.00  0.00     0.074 A 
ATOM     41  C   UNL A   1      39.996  28.433  27.336  1.00  0.00     0.031 C 
ATOM     42  C   UNL A   1      37.917  32.253  32.649  1.00  0.00     0.029 A 
ATOM     43  C   UNL A   1      39.150  31.501  32.836  1.00  0.00     0.049 A 
ATOM     44  H   UNL A   1      40.102  30.279  31.440  1.00  0.00     0.167 HD
ATOM     45  C   UNL A   1      41.856  27.441  28.653  1.00  0.00     0.034 A 
ATOM     46  C   UNL A   1      39.859  31.477  33.983  1.00  0.00     0.034 A 
ATOM     47  C   UNL A   1      42.649  27.303  29.854  1.00  0.00     0.049 A 
ATOM     48  C   UNL A   1      41.035  30.549  34.100  1.00  0.00     0.074 A 
ATOM     49  C   UNL A   1      43.782  26.532  30.057  1.00  0.00     0.029 A 
ATOM     50  N   UNL A   1      42.406  27.962  31.051  1.00  0.00    -0.354 N 
ATOM     51  N   UNL A   1      41.534  29.731  33.202  1.00  0.00    -0.248 NA
ATOM     52  C   UNL A   1      41.724  30.516  35.396  1.00  0.00     0.031 C 
ATOM     53  C   UNL A   1      44.189  26.680  31.388  1.00  0.00     0.029 A 
ATOM     54  C   UNL A   1      43.354  27.601  31.998  1.00  0.00     0.049 A 
ATOM     55  H   UNL A   1      41.667  28.595  31.206  1.00  0.00     0.167 HD
ATOM     56  C   UNL A   1      42.593  29.084  33.830  1.00  0.00     0.074 A 
ATOM     57  C   UNL A   1      42.680  29.629  35.170  1.00  0.00     0.031 C 
ATOM     58  C   UNL A   1      43.416  28.122  33.343  1.00  0.00     0.034 A 
BRANCH  45  59
ATOM     59  C   UNL A   1      42.227  26.595  27.455  1.00  0.00     0.023 A 
ATOM     60  C   UNL A   1      41.892  25.235  27.358  1.00  0.00     0.031 A 
ATOM     61  C   UNL A   1      42.940  27.174  26.387  1.00  0.00     0.131 A 
ATOM     62  C   UNL A   1      42.323  24.486  26.251  1.00  0.00     0.055 A 
ATOM     63  C   UNL A   1      43.298  26.443  25.254  1.00  0.00     0.041 A 
ATOM     64  F   UNL A   1      43.306  28.465  26.432  1.00  0.00    -0.206 F 
ATOM     65  C   UNL A   1      43.002  25.086  25.186  1.00  0.00     0.022 A 
BRANCH  62  66
ATOM     66  S   UNL A   1      42.109  22.686  26.288  1.00  0.00     0.124 S 
ATOM     67  O   UNL A   1      42.771  22.286  25.046  1.00  0.00    -0.237 OA
ATOM     68  O   UNL A   1      42.793  22.315  27.520  1.00  0.00    -0.237 OA
ATOM     69  O   UNL A   1      40.659  22.512  26.297  1.00  0.00    -0.744 OA
ENDBRANCH  62  66
ENDBRANCH  45  59
BRANCH  46  70
ATOM     70  C   UNL A   1      39.392  32.265  35.160  1.00  0.00     0.023 A 
ATOM     71  C   UNL A   1      39.804  33.591  35.361  1.00  0.00     0.031 A 
ATOM     72  C   UNL A   1      38.532  31.689  36.115  1.00  0.00     0.131 A 
ATOM     73  C   UNL A   1      39.367  34.291  36.497  1.00  0.00     0.055 A 
ATOM     74  C   UNL A   1      38.051  32.408  37.208  1.00  0.00     0.041 A 
ATOM     75  F   UNL A   1      38.118  30.419  35.976  1.00  0.00    -0.206 F 
ATOM     76  C   UNL A   1      38.477  33.716  37.409  1.00  0.00     0.022 A 
BRANCH  73  77
ATOM     77  S   UNL A   1      40.033  35.949  36.809  1.00  0.00     0.124 S 
ATOM     78  O   UNL A   1      39.259  36.364  37.974  1.00  0.00    -0.237 OA
ATOM     79  O   UNL A   1      41.446  35.672  37.043  1.00  0.00    -0.237 OA
ATOM     80  O   UNL A   1      39.738  36.671  35.574  1.00  0.00    -0.744 OA
ENDBRANCH  73  77
ENDBRANCH  46  70
BRANCH  58  81
ATOM     81  C   UNL A   1      44.501  27.626  34.266  1.00  0.00     0.023 A 
ATOM     82  C   UNL A   1      44.341  26.451  35.024  1.00  0.00     0.031 A 
ATOM     83  C   UNL A   1      45.689  28.359  34.421  1.00  0.00     0.131 A 
ATOM     84  C   UNL A   1      45.329  26.078  35.948  1.00  0.00     0.055 A 
ATOM     85  C   UNL A   1      46.692  27.953  35.302  1.00  0.00     0.041 A 
ATOM     86  F   UNL A   1      45.890  29.489  33.725  1.00  0.00    -0.206 F 
ATOM     87  C   UNL A   1      46.509  26.815  36.083  1.00  0.00     0.022 A 
BRANCH  84  88
ATOM     88  S   UNL A   1      45.008  24.671  37.046  1.00  0.00     0.124 S 
ATOM     89  O   UNL A   1      44.093  23.864  36.245  1.00  0.00    -0.237 OA
ATOM     90  O   UNL A   1      46.343  24.117  37.242  1.00  0.00    -0.237 OA
ATOM     91  O   UNL A   1      44.415  25.288  38.231  1.00  0.00    -0.744 OA
ENDBRANCH  84  88
ENDBRANCH  58  81
ENDBRANCH  32  33
ENDBRANCH  25  27
ENDBRANCH  24  25
ENDBRANCH  23  24
ENDBRANCH   1  23
TORSDOF 18
ENDMDL
MODEL 2
REMARK VINA RESULT:     -11.8      1.733      2.281
REMARK SMILES C[C@@H](C(=O)OCCOC(=O)c1ccc(-c2c3nc(c(-c4cc(S(=O)(=O)[O-])ccc4F)c4ccc([nH]4)c(-c4cc(S(=O)(=O)[O-])ccc4F)c4nc(c(-c5cc(S(=O)(=O)[O-])ccc5F)c5ccc2[nH]5)C=C4)C=C3)cc1)c1cc(C(=O)c2ccccc2)ccc1O
REMARK SMILES IDX 6 1 5 2 3 3 4 4 2 5 1 6 74 7 75 8 87 9 76 10 86 11 85 12
REMARK SMILES IDX 88 13 77 15 78 16 79 17 80 18 84 19 81 20 83 21 82 22 7 23
REMARK SMILES IDX 8 24 9 25 10 26 11 27 12 28 73 29 13 30 72 31 14 32 15 33
REMARK SMILES IDX 16 34 66 35 17 36 71 37 65 38 67 39 18 40 70 41 64 42 63 43
REMARK SMILES IDX 19 45 51 46 31 47 50 48 32 49 35 50 49 51 68 52 33 53 34 54
REMARK SMILES IDX 48 56 69 57 36 58 20 59 21 60 29 61 22 62 28 63 30 64 27 65
REMARK SMILES IDX 23 66 24 67 25 68 26 69 52 70 53 71 61 72 54 73 60 74 62 75
REMARK SMILES IDX 59 76 55 77 56 78 57 79 58 80 37 81 38 82 46 83 39 84 45 85
REMARK SMILES IDX 47 86 44 87 40 88 41 89 42 90 43 91
REMARK H PARENT 88 14 67 44 35 55
REMARK Flexibility Score: inf
ROOT
ATOM      1  C   UNL A   1      32.114  28.861  24.632  1.00  0.00     0.274 C 
ENDROOT
BRANCH   1   2
ATOM      2  O   UNL A   1      32.435  27.755  25.504  1.00  0.00    -0.462 OA
BRANCH   2   3
ATOM      3  C   UNL A   1      31.518  26.750  25.604  1.00  0.00     0.313 C 
ATOM      4  O   UNL A   1      30.988  26.407  26.656  1.00  0.00    -0.252 OA
BRANCH   3   5
ATOM      5  C   UNL A   1      31.240  26.061  24.258  1.00  0.00     0.130 C 
ATOM      6  C   UNL A   1      29.780  25.651  24.050  1.00  0.00     0.025 C 
BRANCH   5   7
ATOM      7  C   UNL A   1      32.176  24.885  24.023  1.00  0.00     0.009 A 
ATOM      8  C   UNL A   1      31.835  23.589  24.465  1.00  0.00     0.020 A 
ATOM      9  C   UNL A   1      33.398  25.052  23.370  1.00  0.00     0.119 A 
ATOM     10  C   UNL A   1      32.655  22.480  24.179  1.00  0.00     0.023 A 
ATOM     11  C   UNL A   1      34.193  23.961  23.040  1.00  0.00     0.047 A 
ATOM     12  C   UNL A   1      33.786  22.675  23.382  1.00  0.00     0.016 A 
BRANCH   9  13
ATOM     13  O   UNL A   1      33.804  26.309  23.024  1.00  0.00    -0.508 OA
ATOM     14  H   UNL A   1      34.543  26.423  22.461  1.00  0.00     0.293 HD
ENDBRANCH   9  13
BRANCH  10  15
ATOM     15  C   UNL A   1      32.284  21.136  24.729  1.00  0.00     0.193 C 
ATOM     16  O   UNL A   1      31.558  21.075  25.721  1.00  0.00    -0.289 OA
BRANCH  15  17
ATOM     17  C   UNL A   1      32.753  19.863  24.111  1.00  0.00     0.022 A 
ATOM     18  C   UNL A   1      33.807  19.179  24.728  1.00  0.00     0.012 A 
ATOM     19  C   UNL A   1      32.170  19.326  22.955  1.00  0.00     0.012 A 
ATOM     20  C   UNL A   1      34.208  17.929  24.248  1.00  0.00     0.001 A 
ATOM     21  C   UNL A   1      32.549  18.062  22.498  1.00  0.00     0.001 A 
ATOM     22  C   UNL A   1      33.561  17.360  23.152  1.00  0.00     0.000 A 
ENDBRANCH  15  17
ENDBRANCH  10  15
ENDBRANCH   5   7
ENDBRANCH   3   5
ENDBRANCH   2   3
ENDBRANCH   1   2
BRANCH   1  23
ATOM     23  C   UNL A   1      31.607  30.052  25.449  1.00  0.00     0.275 C 
BRANCH  23  24
ATOM     24  O   UNL A   1      32.301  30.065  26.705  1.00  0.00    -0.458 OA
BRANCH  24  25
ATOM     25  C   UNL A   1      32.862  31.242  27.069  1.00  0.00     0.338 C 
ATOM     26  O   UNL A   1      32.315  32.332  27.074  1.00  0.00    -0.246 OA
BRANCH  25  27
ATOM     27  C   UNL A   1      34.247  31.002  27.561  1.00  0.00     0.060 A 
ATOM     28  C   UNL A   1      34.711  29.706  27.788  1.00  0.00     0.016 A 
ATOM     29  C   UNL A   1      35.055  32.085  27.922  1.00  0.00     0.016 A 
ATOM     30  C   UNL A   1      35.918  29.499  28.457  1.00  0.00     0.010 A 
ATOM     31  C   UNL A   1      36.311  31.865  28.511  1.00  0.00     0.010 A 
ATOM     32  C   UNL A   1      36.751  30.567  28.826  1.00  0.00    -0.014 A 
BRANCH  32  33
ATOM     33  C   UNL A   1      38.031  30.332  29.575  1.00  0.00     0.031 A 
ATOM     34  C   UNL A   1      39.137  29.491  28.974  1.00  0.00     0.074 A 
ATOM     35  C   UNL A   1      38.244  30.880  30.792  1.00  0.00     0.049 A 
ATOM     36  N   UNL A   1      40.177  28.943  29.554  1.00  0.00    -0.248 NA
ATOM     37  C   UNL A   1      39.054  29.221  27.531  1.00  0.00     0.031 C 
ATOM     38  C   UNL A   1      37.329  31.782  31.494  1.00  0.00     0.029 A 
ATOM     39  N   UNL A   1      39.309  30.763  31.656  1.00  0.00    -0.354 N 
ATOM     40  C   UNL A   1      40.824  28.199  28.569  1.00  0.00     0.074 A 
ATOM     41  C   UNL A   1      40.066  28.384  27.349  1.00  0.00     0.031 C 
ATOM     42  C   UNL A   1      37.893  32.182  32.640  1.00  0.00     0.029 A 
ATOM     43  C   UNL A   1      39.136  31.449  32.837  1.00  0.00     0.049 A 
ATOM     44  H   UNL A   1      40.116  30.239  31.450  1.00  0.00     0.167 HD
ATOM     45  C   UNL A   1      41.932  27.423  28.680  1.00  0.00     0.034 A 
ATOM     46  C   UNL A   1      39.837  31.437  33.988  1.00  0.00     0.034 A 
ATOM     47  C   UNL A   1      42.719  27.299  29.887  1.00  0.00     0.049 A 
ATOM     48  C   UNL A   1      41.027  30.528  34.115  1.00  0.00     0.074 A 
ATOM     49  C   UNL A   1      43.862  26.546  30.098  1.00  0.00     0.029 A 
ATOM     50  N   UNL A   1      42.457  27.956  31.081  1.00  0.00    -0.354 N 
ATOM     51  N   UNL A   1      41.544  29.716  33.222  1.00  0.00    -0.248 NA
ATOM     52  C   UNL A   1      41.707  30.507  35.416  1.00  0.00     0.031 C 
ATOM     53  C   UNL A   1      44.257  26.702  31.432  1.00  0.00     0.029 A 
ATOM     54  C   UNL A   1      43.404  27.611  32.034  1.00  0.00     0.049 A 
ATOM     55  H   UNL A   1      41.708  28.579  31.229  1.00  0.00     0.167 HD
ATOM     56  C   UNL A   1      42.609  29.086  33.859  1.00  0.00     0.074 A 
ATOM     57  C   UNL A   1      42.678  29.634  35.198  1.00  0.00     0.031 C 
ATOM     58  C   UNL A   1      43.449  28.135  33.379  1.00  0.00     0.034 A 
BRANCH  45  59
ATOM     59  C   UNL A   1      42.323  26.581  27.486  1.00  0.00     0.023 A 
ATOM     60  C   UNL A   1      41.933  25.240  27.347  1.00  0.00     0.031 A 
ATOM     61  C   UNL A   1      43.115  27.144  26.465  1.00  0.00     0.131 A 
ATOM     62  C   UNL A   1      42.385  24.490  26.249  1.00  0.00     0.055 A 
ATOM     63  C   UNL A   1      43.495  26.416  25.337  1.00  0.00     0.041 A 
ATOM     64  F   UNL A   1      43.536  28.416  26.552  1.00  0.00    -0.206 F 
ATOM     65  C   UNL A   1      43.142  25.075  25.230  1.00  0.00     0.022 A 
BRANCH  62  66
ATOM     66  S   UNL A   1      42.088  22.701  26.241  1.00  0.00     0.124 S 
ATOM     67  O   UNL A   1      42.799  22.280  27.448  1.00  0.00    -0.237 OA
ATOM     68  O   UNL A   1      40.633  22.626  26.301  1.00  0.00    -0.237 OA
ATOM     69  O   UNL A   1      42.689  22.258  24.986  1.00  0.00    -0.744 OA
ENDBRANCH  62  66
ENDBRANCH  45  59
BRANCH  46  70
ATOM     70  C   UNL A   1      39.351  32.221  35.161  1.00  0.00     0.023 A 
ATOM     71  C   UNL A   1      39.796  33.529  35.401  1.00  0.00     0.031 A 
ATOM     72  C   UNL A   1      38.437  31.656  36.072  1.00  0.00     0.131 A 
ATOM     73  C   UNL A   1      39.338  34.223  36.533  1.00  0.00     0.055 A 
ATOM     74  C   UNL A   1      37.937  32.372  37.159  1.00  0.00     0.041 A 
ATOM     75  F   UNL A   1      37.988  30.403  35.895  1.00  0.00    -0.206 F 
ATOM     76  C   UNL A   1      38.395  33.662  37.399  1.00  0.00     0.022 A 
BRANCH  73  77
ATOM     77  S   UNL A   1      40.043  35.854  36.899  1.00  0.00     0.124 S 
ATOM     78  O   UNL A   1      41.463  35.541  37.023  1.00  0.00    -0.237 OA
ATOM     79  O   UNL A   1      39.657  36.624  35.722  1.00  0.00    -0.237 OA
ATOM     80  O   UNL A   1      39.378  36.241  38.140  1.00  0.00    -0.744 OA
ENDBRANCH  73  77
ENDBRANCH  46  70
BRANCH  58  81
ATOM     81  C   UNL A   1      44.535  27.657  34.310  1.00  0.00     0.023 A 
ATOM     82  C   UNL A   1      45.784  28.301  34.375  1.00  0.00     0.031 A 
ATOM     83  C   UNL A   1      44.333  26.519  35.108  1.00  0.00     0.131 A 
ATOM     84  C   UNL A   1      46.804  27.766  35.177  1.00  0.00     0.055 A 
ATOM     85  C   UNL A   1      45.333  26.023  35.945  1.00  0.00     0.041 A 
ATOM     86  F   UNL A   1      43.161  25.864  35.080  1.00  0.00    -0.206 F 
ATOM     87  C   UNL A   1      46.582  26.638  35.971  1.00  0.00     0.022 A 
BRANCH  84  88
ATOM     88  S   UNL A   1      48.459  28.504  35.091  1.00  0.00     0.124 S 
ATOM     89  O   UNL A   1      48.573  28.826  33.673  1.00  0.00    -0.237 OA
ATOM     90  O   UNL A   1      48.339  29.641  35.997  1.00  0.00    -0.237 OA
ATOM     91  O   UNL A   1      49.337  27.432  35.556  1.00  0.00    -0.744 OA
ENDBRANCH  84  88
ENDBRANCH  58  81
ENDBRANCH  32  33
ENDBRANCH  25  27
ENDBRANCH  24  25
ENDBRANCH  23  24
ENDBRANCH   1  23
TORSDOF 18
ENDMDL
MODEL 3
REMARK VINA RESULT:     -11.7      4.467      9.792
REMARK SMILES C[C@@H](C(=O)OCCOC(=O)c1ccc(-c2c3nc(c(-c4cc(S(=O)(=O)[O-])ccc4F)c4ccc([nH]4)c(-c4cc(S(=O)(=O)[O-])ccc4F)c4nc(c(-c5cc(S(=O)(=O)[O-])ccc5F)c5ccc2[nH]5)C=C4)C=C3)cc1)c1cc(C(=O)c2ccccc2)ccc1O
REMARK SMILES IDX 6 1 5 2 3 3 4 4 2 5 1 6 74 7 75 8 87 9 76 10 86 11 85 12
REMARK SMILES IDX 88 13 77 15 78 16 79 17 80 18 84 19 81 20 83 21 82 22 7 23
REMARK SMILES IDX 8 24 9 25 10 26 11 27 12 28 73 29 13 30 72 31 14 32 15 33
REMARK SMILES IDX 16 34 66 35 17 36 71 37 65 38 67 39 18 40 70 41 64 42 63 43
REMARK SMILES IDX 19 45 51 46 31 47 50 48 32 49 35 50 49 51 68 52 33 53 34 54
REMARK SMILES IDX 48 56 69 57 36 58 20 59 21 60 29 61 22 62 28 63 30 64 27 65
REMARK SMILES IDX 23 66 24 67 25 68 26 69 52 70 53 71 61 72 54 73 60 74 62 75
REMARK SMILES IDX 59 76 55 77 56 78 57 79 58 80 37 81 38 82 46 83 39 84 45 85
REMARK SMILES IDX 47 86 44 87 40 88 41 89 42 90 43 91
REMARK H PARENT 88 14 67 44 35 55
REMARK Flexibility Score: inf
ROOT
ATOM      1  C   UNL A   1      35.176  20.519  25.135  1.00  0.00     0.274 C 
ENDROOT
BRANCH   1   2
ATOM      2  O   UNL A   1      34.754  21.900  25.103  1.00  0.00    -0.462 OA
BRANCH   2   3
ATOM      3  C   UNL A   1      34.356  22.405  23.900  1.00  0.00     0.313 C 
ATOM      4  O   UNL A   1      35.083  23.053  23.153  1.00  0.00    -0.252 OA
BRANCH   3   5
ATOM      5  C   UNL A   1      32.880  22.108  23.588  1.00  0.00     0.130 C 
ATOM      6  C   UNL A   1      32.486  22.341  22.127  1.00  0.00     0.025 C 
BRANCH   5   7
ATOM      7  C   UNL A   1      31.944  22.850  24.531  1.00  0.00     0.009 A 
ATOM      8  C   UNL A   1      31.581  24.191  24.285  1.00  0.00     0.020 A 
ATOM      9  C   UNL A   1      31.422  22.230  25.667  1.00  0.00     0.119 A 
ATOM     10  C   UNL A   1      30.651  24.859  25.105  1.00  0.00     0.023 A 
ATOM     11  C   UNL A   1      30.468  22.860  26.457  1.00  0.00     0.047 A 
ATOM     12  C   UNL A   1      30.034  24.143  26.134  1.00  0.00     0.016 A 
BRANCH   9  13
ATOM     13  O   UNL A   1      31.835  20.969  25.990  1.00  0.00    -0.508 OA
ATOM     14  H   UNL A   1      31.940  20.325  25.318  1.00  0.00     0.293 HD
ENDBRANCH   9  13
BRANCH  10  15
ATOM     15  C   UNL A   1      30.352  26.304  24.842  1.00  0.00     0.193 C 
ATOM     16  O   UNL A   1      29.481  26.596  24.023  1.00  0.00    -0.289 OA
BRANCH  15  17
ATOM     17  C   UNL A   1      31.066  27.408  25.546  1.00  0.00     0.022 A 
ATOM     18  C   UNL A   1      31.335  28.581  24.831  1.00  0.00     0.012 A 
ATOM     19  C   UNL A   1      31.460  27.317  26.888  1.00  0.00     0.012 A 
ATOM     20  C   UNL A   1      31.904  29.682  25.478  1.00  0.00     0.001 A 
ATOM     21  C   UNL A   1      31.997  28.429  27.541  1.00  0.00     0.001 A 
ATOM     22  C   UNL A   1      32.208  29.613  26.837  1.00  0.00     0.000 A 
ENDBRANCH  15  17
ENDBRANCH  10  15
ENDBRANCH   5   7
ENDBRANCH   3   5
ENDBRANCH   2   3
ENDBRANCH   1   2
BRANCH   1  23
ATOM     23  C   UNL A   1      36.634  20.398  24.688  1.00  0.00     0.275 C 
BRANCH  23  24
ATOM     24  O   UNL A   1      37.379  21.468  25.286  1.00  0.00    -0.458 OA
BRANCH  24  25
ATOM     25  C   UNL A   1      38.597  21.149  25.782  1.00  0.00     0.338 C 
ATOM     26  O   UNL A   1      39.169  20.079  25.659  1.00  0.00    -0.246 OA
BRANCH  25  27
ATOM     27  C   UNL A   1      39.197  22.344  26.439  1.00  0.00     0.060 A 
ATOM     28  C   UNL A   1      38.748  23.629  26.132  1.00  0.00     0.016 A 
ATOM     29  C   UNL A   1      40.305  22.194  27.278  1.00  0.00     0.016 A 
ATOM     30  C   UNL A   1      39.458  24.746  26.575  1.00  0.00     0.010 A 
ATOM     31  C   UNL A   1      40.958  23.326  27.796  1.00  0.00     0.010 A 
ATOM     32  C   UNL A   1      40.571  24.625  27.423  1.00  0.00    -0.014 A 
BRANCH  32  33
ATOM     33  C   UNL A   1      41.346  25.833  27.865  1.00  0.00     0.031 A 
ATOM     34  C   UNL A   1      40.695  26.902  28.715  1.00  0.00     0.074 A 
ATOM     35  C   UNL A   1      42.648  25.990  27.539  1.00  0.00     0.049 A 
ATOM     36  N   UNL A   1      41.090  28.128  28.961  1.00  0.00    -0.248 NA
ATOM     37  C   UNL A   1      39.424  26.549  29.366  1.00  0.00     0.031 C 
ATOM     38  C   UNL A   1      43.464  25.028  26.796  1.00  0.00     0.029 A 
ATOM     39  N   UNL A   1      43.521  27.021  27.801  1.00  0.00    -0.354 N 
ATOM     40  C   UNL A   1      40.081  28.715  29.722  1.00  0.00     0.074 A 
ATOM     41  C   UNL A   1      39.065  27.701  29.914  1.00  0.00     0.031 C 
ATOM     42  C   UNL A   1      44.721  25.482  26.716  1.00  0.00     0.029 A 
ATOM     43  C   UNL A   1      44.773  26.832  27.260  1.00  0.00     0.049 A 
ATOM     44  H   UNL A   1      43.275  27.818  28.324  1.00  0.00     0.167 HD
ATOM     45  C   UNL A   1      40.005  29.985  30.197  1.00  0.00     0.034 A 
ATOM     46  C   UNL A   1      45.825  27.664  27.128  1.00  0.00     0.034 A 
ATOM     47  C   UNL A   1      41.055  30.969  30.057  1.00  0.00     0.049 A 
ATOM     48  C   UNL A   1      45.703  29.084  27.606  1.00  0.00     0.074 A 
ATOM     49  C   UNL A   1      41.078  32.277  30.511  1.00  0.00     0.029 A 
ATOM     50  N   UNL A   1      42.275  30.750  29.432  1.00  0.00    -0.354 N 
ATOM     51  N   UNL A   1      44.688  29.672  28.195  1.00  0.00    -0.248 NA
ATOM     52  C   UNL A   1      46.857  29.961  27.372  1.00  0.00     0.031 C 
ATOM     53  C   UNL A   1      42.284  32.865  30.111  1.00  0.00     0.029 A 
ATOM     54  C   UNL A   1      43.046  31.902  29.472  1.00  0.00     0.049 A 
ATOM     55  H   UNL A   1      42.553  29.899  29.021  1.00  0.00     0.167 HD
ATOM     56  C   UNL A   1      45.083  30.991  28.396  1.00  0.00     0.074 A 
ATOM     57  C   UNL A   1      46.438  31.102  27.895  1.00  0.00     0.031 C 
ATOM     58  C   UNL A   1      44.384  32.018  28.942  1.00  0.00     0.034 A 
BRANCH  45  59
ATOM     59  C   UNL A   1      38.710  30.414  30.851  1.00  0.00     0.023 A 
ATOM     60  C   UNL A   1      37.658  31.000  30.130  1.00  0.00     0.031 A 
ATOM     61  C   UNL A   1      38.536  30.234  32.237  1.00  0.00     0.131 A 
ATOM     62  C   UNL A   1      36.508  31.440  30.804  1.00  0.00     0.055 A 
ATOM     63  C   UNL A   1      37.358  30.602  32.889  1.00  0.00     0.041 A 
ATOM     64  F   UNL A   1      39.515  29.699  32.984  1.00  0.00    -0.206 F 
ATOM     65  C   UNL A   1      36.339  31.223  32.175  1.00  0.00     0.022 A 
BRANCH  62  66
ATOM     66  S   UNL A   1      35.294  32.429  29.890  1.00  0.00     0.124 S 
ATOM     67  O   UNL A   1      34.308  32.721  30.931  1.00  0.00    -0.237 OA
ATOM     68  O   UNL A   1      36.092  33.562  29.435  1.00  0.00    -0.237 OA
ATOM     69  O   UNL A   1      34.832  31.524  28.841  1.00  0.00    -0.744 OA
ENDBRANCH  62  66
ENDBRANCH  45  59
BRANCH  46  70
ATOM     70  C   UNL A   1      47.043  27.211  26.394  1.00  0.00     0.023 A 
ATOM     71  C   UNL A   1      48.072  26.516  27.046  1.00  0.00     0.031 A 
ATOM     72  C   UNL A   1      47.197  27.484  25.021  1.00  0.00     0.131 A 
ATOM     73  C   UNL A   1      49.216  26.132  26.328  1.00  0.00     0.055 A 
ATOM     74  C   UNL A   1      48.305  27.047  24.299  1.00  0.00     0.041 A 
ATOM     75  F   UNL A   1      46.246  28.157  24.352  1.00  0.00    -0.206 F 
ATOM     76  C   UNL A   1      49.329  26.373  24.956  1.00  0.00     0.022 A 
BRANCH  73  77
ATOM     77  S   UNL A   1      50.594  25.369  27.228  1.00  0.00     0.124 S 
ATOM     78  O   UNL A   1      51.471  24.962  26.135  1.00  0.00    -0.237 OA
ATOM     79  O   UNL A   1      51.068  26.473  28.053  1.00  0.00    -0.237 OA
ATOM     80  O   UNL A   1      49.958  24.275  27.959  1.00  0.00    -0.744 OA
ENDBRANCH  73  77
ENDBRANCH  46  70
BRANCH  58  81
ATOM     81  C   UNL A   1      45.097  33.342  29.049  1.00  0.00     0.023 A 
ATOM     82  C   UNL A   1      45.876  33.670  30.174  1.00  0.00     0.031 A 
ATOM     83  C   UNL A   1      44.961  34.304  28.034  1.00  0.00     0.131 A 
ATOM     84  C   UNL A   1      46.439  34.950  30.283  1.00  0.00     0.055 A 
ATOM     85  C   UNL A   1      45.569  35.557  28.124  1.00  0.00     0.041 A 
ATOM     86  F   UNL A   1      44.226  34.045  26.941  1.00  0.00    -0.206 F 
ATOM     87  C   UNL A   1      46.300  35.891  29.260  1.00  0.00     0.022 A 
BRANCH  84  88
ATOM     88  S   UNL A   1      47.272  35.407  31.829  1.00  0.00     0.124 S 
ATOM     89  O   UNL A   1      48.079  36.549  31.412  1.00  0.00    -0.237 OA
ATOM     90  O   UNL A   1      46.150  35.706  32.711  1.00  0.00    -0.237 OA
ATOM     91  O   UNL A   1      48.031  34.206  32.177  1.00  0.00    -0.744 OA
ENDBRANCH  84  88
ENDBRANCH  58  81
ENDBRANCH  32  33
ENDBRANCH  25  27
ENDBRANCH  24  25
ENDBRANCH  23  24
ENDBRANCH   1  23
TORSDOF 18
ENDMDL
