MODEL 1
REMARK VINA RESULT:     -12.2      0.000      0.000
REMARK SMILES O=C(OCCOC(=O)[C@]1(Cl)C=CC=C(c2ccccc2)C1)c1ccc(-c2c3nc(c(-c4cc(S(=O)(=O)[O-])ccc4F)c4ccc([nH]4)c(-c4cc(S(=O)(=O)[O-])ccc4F)c4nc(c(-c5cc(S(=O)(=O)[O-])ccc5F)c5ccc2[nH]5)C=C4)C=C3)cc1
REMARK SMILES IDX 4 1 3 2 2 3 1 4 22 5 23 6 84 7 24 8 83 9 25 10 26 11 27 12
REMARK SMILES IDX 77 13 28 14 82 15 76 16 78 17 29 18 81 19 75 20 74 21 30 23
REMARK SMILES IDX 62 24 42 25 61 26 43 27 46 28 60 29 79 30 44 31 45 32 59 34
REMARK SMILES IDX 80 35 47 36 31 37 32 38 40 39 33 40 39 41 41 42 38 43 34 44
REMARK SMILES IDX 35 45 36 46 37 47 63 48 64 49 72 50 65 51 71 52 73 53 70 54
REMARK SMILES IDX 66 55 67 56 68 57 69 58 48 59 49 60 57 61 50 62 56 63 58 64
REMARK SMILES IDX 55 65 51 66 52 67 53 68 54 69 5 70 6 71 7 72 8 73 9 74 11 75
REMARK SMILES IDX 21 76 10 77 12 78 14 79 13 80 15 81 16 82 20 83 17 84 19 85
REMARK SMILES IDX 18 86
REMARK H PARENT 78 22 46 33
REMARK Flexibility Score: inf
ROOT
ATOM      1  C   UNL A   1      37.141  22.043  24.539  1.00  0.00     0.275 C 
ENDROOT
BRANCH   1   2
ATOM      2  O   UNL A   1      37.598  22.187  25.891  1.00  0.00    -0.458 OA
BRANCH   2   3
ATOM      3  C   UNL A   1      38.821  22.516  26.370  1.00  0.00     0.338 C 
ATOM      4  O   UNL A   1      39.646  21.610  26.492  1.00  0.00    -0.246 OA
BRANCH   3   5
ATOM      5  C   UNL A   1      39.193  23.872  26.901  1.00  0.00     0.060 A 
ATOM      6  C   UNL A   1      39.076  24.328  28.221  1.00  0.00     0.016 A 
ATOM      7  C   UNL A   1      39.746  24.756  25.959  1.00  0.00     0.016 A 
ATOM      8  C   UNL A   1      39.576  25.581  28.613  1.00  0.00     0.010 A 
ATOM      9  C   UNL A   1      40.274  25.991  26.344  1.00  0.00     0.010 A 
ATOM     10  C   UNL A   1      40.198  26.413  27.683  1.00  0.00    -0.014 A 
BRANCH  10  11
ATOM     11  C   UNL A   1      40.558  27.815  28.006  1.00  0.00     0.031 A 
ATOM     12  C   UNL A   1      42.022  28.127  27.969  1.00  0.00     0.074 A 
ATOM     13  C   UNL A   1      39.659  28.750  28.381  1.00  0.00     0.049 A 
ATOM     14  N   UNL A   1      42.652  29.212  28.317  1.00  0.00    -0.248 NA
ATOM     15  C   UNL A   1      42.893  27.046  27.474  1.00  0.00     0.031 C 
ATOM     16  C   UNL A   1      38.208  28.606  28.360  1.00  0.00     0.029 A 
ATOM     17  N   UNL A   1      39.843  30.009  28.899  1.00  0.00    -0.354 N 
ATOM     18  C   UNL A   1      43.989  28.953  28.049  1.00  0.00     0.074 A 
ATOM     19  C   UNL A   1      44.091  27.568  27.655  1.00  0.00     0.031 C 
ATOM     20  C   UNL A   1      37.635  29.662  28.963  1.00  0.00     0.029 A 
ATOM     21  C   UNL A   1      38.680  30.596  29.355  1.00  0.00     0.049 A 
ATOM     22  H   UNL A   1      40.722  30.451  28.942  1.00  0.00     0.167 HD
ATOM     23  C   UNL A   1      45.030  29.817  28.056  1.00  0.00     0.034 A 
ATOM     24  C   UNL A   1      38.483  31.763  30.001  1.00  0.00     0.034 A 
ATOM     25  C   UNL A   1      44.896  31.178  28.494  1.00  0.00     0.049 A 
ATOM     26  C   UNL A   1      39.674  32.672  30.164  1.00  0.00     0.074 A 
ATOM     27  C   UNL A   1      45.861  32.161  28.579  1.00  0.00     0.029 A 
ATOM     28  N   UNL A   1      43.706  31.738  28.950  1.00  0.00    -0.354 N 
ATOM     29  N   UNL A   1      40.928  32.445  29.844  1.00  0.00    -0.248 NA
ATOM     30  C   UNL A   1      39.421  34.011  30.708  1.00  0.00     0.031 C 
ATOM     31  C   UNL A   1      45.269  33.293  29.153  1.00  0.00     0.029 A 
ATOM     32  C   UNL A   1      43.918  33.045  29.348  1.00  0.00     0.049 A 
ATOM     33  H   UNL A   1      42.840  31.272  28.985  1.00  0.00     0.167 HD
ATOM     34  C   UNL A   1      41.601  33.640  30.072  1.00  0.00     0.074 A 
ATOM     35  C   UNL A   1      40.616  34.573  30.585  1.00  0.00     0.031 C 
ATOM     36  C   UNL A   1      42.905  33.948  29.847  1.00  0.00     0.034 A 
BRANCH  23  37
ATOM     37  C   UNL A   1      46.356  29.255  27.613  1.00  0.00     0.023 A 
ATOM     38  C   UNL A   1      46.632  29.048  26.244  1.00  0.00     0.031 A 
ATOM     39  C   UNL A   1      47.272  28.759  28.551  1.00  0.00     0.131 A 
ATOM     40  C   UNL A   1      47.710  28.236  25.866  1.00  0.00     0.055 A 
ATOM     41  C   UNL A   1      48.407  28.045  28.158  1.00  0.00     0.041 A 
ATOM     42  F   UNL A   1      47.049  28.901  29.866  1.00  0.00    -0.206 F 
ATOM     43  C   UNL A   1      48.615  27.754  26.811  1.00  0.00     0.022 A 
BRANCH  40  44
ATOM     44  S   UNL A   1      47.768  27.625  24.155  1.00  0.00     0.124 S 
ATOM     45  O   UNL A   1      49.178  27.811  23.823  1.00  0.00    -0.237 OA
ATOM     46  O   UNL A   1      47.324  26.242  24.297  1.00  0.00    -0.237 OA
ATOM     47  O   UNL A   1      46.846  28.508  23.444  1.00  0.00    -0.744 OA
ENDBRANCH  40  44
ENDBRANCH  23  37
BRANCH  24  48
ATOM     48  C   UNL A   1      37.127  32.158  30.484  1.00  0.00     0.023 A 
ATOM     49  C   UNL A   1      36.223  32.853  29.663  1.00  0.00     0.031 A 
ATOM     50  C   UNL A   1      36.720  31.866  31.800  1.00  0.00     0.131 A 
ATOM     51  C   UNL A   1      34.979  33.267  30.174  1.00  0.00     0.055 A 
ATOM     52  C   UNL A   1      35.470  32.251  32.294  1.00  0.00     0.041 A 
ATOM     53  F   UNL A   1      37.538  31.199  32.630  1.00  0.00    -0.206 F 
ATOM     54  C   UNL A   1      34.594  32.964  31.481  1.00  0.00     0.022 A 
BRANCH  51  55
ATOM     55  S   UNL A   1      33.887  34.262  29.118  1.00  0.00     0.124 S 
ATOM     56  O   UNL A   1      32.889  34.726  30.074  1.00  0.00    -0.237 OA
ATOM     57  O   UNL A   1      34.804  35.274  28.605  1.00  0.00    -0.237 OA
ATOM     58  O   UNL A   1      33.403  33.303  28.127  1.00  0.00    -0.744 OA
ENDBRANCH  51  55
ENDBRANCH  24  48
BRANCH  36  59
ATOM     59  C   UNL A   1      43.321  35.375  30.082  1.00  0.00     0.023 A 
ATOM     60  C   UNL A   1      43.191  36.359  29.091  1.00  0.00     0.031 A 
ATOM     61  C   UNL A   1      43.816  35.754  31.343  1.00  0.00     0.131 A 
ATOM     62  C   UNL A   1      43.585  37.675  29.369  1.00  0.00     0.055 A 
ATOM     63  C   UNL A   1      44.143  37.076  31.634  1.00  0.00     0.041 A 
ATOM     64  F   UNL A   1      43.962  34.846  32.321  1.00  0.00    -0.206 F 
ATOM     65  C   UNL A   1      44.036  38.045  30.640  1.00  0.00     0.022 A 
BRANCH  62  66
ATOM     66  S   UNL A   1      43.562  38.888  28.023  1.00  0.00     0.124 S 
ATOM     67  O   UNL A   1      43.951  38.074  26.877  1.00  0.00    -0.237 OA
ATOM     68  O   UNL A   1      42.177  39.347  28.039  1.00  0.00    -0.237 OA
ATOM     69  O   UNL A   1      44.549  39.883  28.442  1.00  0.00    -0.744 OA
ENDBRANCH  62  66
ENDBRANCH  36  59
ENDBRANCH  10  11
ENDBRANCH   3   5
ENDBRANCH   2   3
ENDBRANCH   1   2
BRANCH   1  70
ATOM     70  C   UNL A   1      36.849  23.366  23.829  1.00  0.00     0.274 C 
BRANCH  70  71
ATOM     71  O   UNL A   1      35.652  24.010  24.285  1.00  0.00    -0.461 OA
BRANCH  71  72
ATOM     72  C   UNL A   1      34.503  23.750  23.588  1.00  0.00     0.331 C 
ATOM     73  O   UNL A   1      34.384  23.985  22.389  1.00  0.00    -0.250 OA
BRANCH  72  74
ATOM     74  C   UNL A   1      33.357  23.199  24.466  1.00  0.00     0.164 C 
ATOM     75  C   UNL A   1      33.685  23.389  25.929  1.00  0.00     0.008 C 
ATOM     76  C   UNL A   1      33.083  21.750  24.050  1.00  0.00     0.075 C 
ATOM     77  Cl  UNL A   1      31.832  24.035  24.154  1.00  0.00    -0.102 Cl
ATOM     78  C   UNL A   1      33.898  22.368  26.771  1.00  0.00    -0.002 C 
ATOM     79  C   UNL A   1      33.533  20.710  25.043  1.00  0.00    -0.038 C 
ATOM     80  C   UNL A   1      33.885  21.005  26.304  1.00  0.00     0.004 C 
BRANCH  79  81
ATOM     81  C   UNL A   1      33.483  19.355  24.499  1.00  0.00    -0.022 A 
ATOM     82  C   UNL A   1      32.469  18.986  23.613  1.00  0.00     0.008 A 
ATOM     83  C   UNL A   1      34.587  18.514  24.693  1.00  0.00     0.008 A 
ATOM     84  C   UNL A   1      32.581  17.795  22.897  1.00  0.00     0.001 A 
ATOM     85  C   UNL A   1      34.702  17.333  23.968  1.00  0.00     0.001 A 
ATOM     86  C   UNL A   1      33.702  16.979  23.065  1.00  0.00     0.000 A 
ENDBRANCH  79  81
ENDBRANCH  72  74
ENDBRANCH  71  72
ENDBRANCH  70  71
ENDBRANCH   1  70
TORSDOF 15
ENDMDL
MODEL 2
REMARK VINA RESULT:     -12.1      3.321      5.723
REMARK SMILES O=C(OCCOC(=O)[C@]1(Cl)C=CC=C(c2ccccc2)C1)c1ccc(-c2c3nc(c(-c4cc(S(=O)(=O)[O-])ccc4F)c4ccc([nH]4)c(-c4cc(S(=O)(=O)[O-])ccc4F)c4nc(c(-c5cc(S(=O)(=O)[O-])ccc5F)c5ccc2[nH]5)C=C4)C=C3)cc1
REMARK SMILES IDX 4 1 3 2 2 3 1 4 22 5 23 6 84 7 24 8 83 9 25 10 26 11 27 12
REMARK SMILES IDX 77 13 28 14 82 15 76 16 78 17 29 18 81 19 75 20 74 21 30 23
REMARK SMILES IDX 62 24 42 25 61 26 43 27 46 28 60 29 79 30 44 31 45 32 59 34
REMARK SMILES IDX 80 35 47 36 31 37 32 38 40 39 33 40 39 41 41 42 38 43 34 44
REMARK SMILES IDX 35 45 36 46 37 47 63 48 64 49 72 50 65 51 71 52 73 53 70 54
REMARK SMILES IDX 66 55 67 56 68 57 69 58 48 59 49 60 57 61 50 62 56 63 58 64
REMARK SMILES IDX 55 65 51 66 52 67 53 68 54 69 5 70 6 71 7 72 8 73 9 74 11 75
REMARK SMILES IDX 21 76 10 77 12 78 14 79 13 80 15 81 16 82 20 83 17 84 19 85
REMARK SMILES IDX 18 86
REMARK H PARENT 78 22 46 33
REMARK Flexibility Score: inf
ROOT
ATOM      1  C   UNL A   1      41.847  20.871  27.501  1.00  0.00     0.275 C 
ENDROOT
BRANCH   1   2
ATOM      2  O   UNL A   1      40.444  21.165  27.447  1.00  0.00    -0.458 OA
BRANCH   2   3
ATOM      3  C   UNL A   1      39.784  22.159  26.806  1.00  0.00     0.338 C 
ATOM      4  O   UNL A   1      38.967  21.834  25.943  1.00  0.00    -0.246 OA
BRANCH   3   5
ATOM      5  C   UNL A   1      40.084  23.623  26.964  1.00  0.00     0.060 A 
ATOM      6  C   UNL A   1      40.249  24.571  25.945  1.00  0.00     0.016 A 
ATOM      7  C   UNL A   1      40.174  24.078  28.291  1.00  0.00     0.016 A 
ATOM      8  C   UNL A   1      40.405  25.938  26.231  1.00  0.00     0.010 A 
ATOM      9  C   UNL A   1      40.297  25.439  28.586  1.00  0.00     0.010 A 
ATOM     10  C   UNL A   1      40.409  26.385  27.552  1.00  0.00    -0.014 A 
BRANCH  10  11
ATOM     11  C   UNL A   1      40.768  27.780  27.904  1.00  0.00     0.031 A 
ATOM     12  C   UNL A   1      42.233  28.091  27.882  1.00  0.00     0.074 A 
ATOM     13  C   UNL A   1      39.868  28.708  28.290  1.00  0.00     0.049 A 
ATOM     14  N   UNL A   1      42.861  29.169  28.255  1.00  0.00    -0.248 NA
ATOM     15  C   UNL A   1      43.106  27.020  27.372  1.00  0.00     0.031 C 
ATOM     16  C   UNL A   1      38.416  28.566  28.257  1.00  0.00     0.029 A 
ATOM     17  N   UNL A   1      40.049  29.957  28.834  1.00  0.00    -0.354 N 
ATOM     18  C   UNL A   1      44.200  28.914  27.990  1.00  0.00     0.074 A 
ATOM     19  C   UNL A   1      44.303  27.536  27.571  1.00  0.00     0.031 C 
ATOM     20  C   UNL A   1      37.841  29.611  28.877  1.00  0.00     0.029 A 
ATOM     21  C   UNL A   1      38.883  30.537  29.293  1.00  0.00     0.049 A 
ATOM     22  H   UNL A   1      40.928  30.398  28.891  1.00  0.00     0.167 HD
ATOM     23  C   UNL A   1      45.241  29.777  28.021  1.00  0.00     0.034 A 
ATOM     24  C   UNL A   1      38.683  31.691  29.960  1.00  0.00     0.034 A 
ATOM     25  C   UNL A   1      45.105  31.130  28.483  1.00  0.00     0.049 A 
ATOM     26  C   UNL A   1      39.874  32.596  30.148  1.00  0.00     0.074 A 
ATOM     27  C   UNL A   1      46.070  32.110  28.593  1.00  0.00     0.029 A 
ATOM     28  N   UNL A   1      43.913  31.682  28.942  1.00  0.00    -0.354 N 
ATOM     29  N   UNL A   1      41.130  32.374  29.831  1.00  0.00    -0.248 NA
ATOM     30  C   UNL A   1      39.619  33.924  30.715  1.00  0.00     0.031 C 
ATOM     31  C   UNL A   1      45.476  33.231  29.185  1.00  0.00     0.029 A 
ATOM     32  C   UNL A   1      44.123  32.981  29.367  1.00  0.00     0.049 A 
ATOM     33  H   UNL A   1      43.046  31.216  28.963  1.00  0.00     0.167 HD
ATOM     34  C   UNL A   1      41.802  33.563  30.087  1.00  0.00     0.074 A 
ATOM     35  C   UNL A   1      40.814  34.488  30.611  1.00  0.00     0.031 C 
ATOM     36  C   UNL A   1      43.107  33.875  29.876  1.00  0.00     0.034 A 
BRANCH  23  37
ATOM     37  C   UNL A   1      46.570  29.222  27.575  1.00  0.00     0.023 A 
ATOM     38  C   UNL A   1      46.780  28.841  26.232  1.00  0.00     0.031 A 
ATOM     39  C   UNL A   1      47.562  28.904  28.513  1.00  0.00     0.131 A 
ATOM     40  C   UNL A   1      47.879  28.037  25.900  1.00  0.00     0.055 A 
ATOM     41  C   UNL A   1      48.711  28.198  28.150  1.00  0.00     0.041 A 
ATOM     42  F   UNL A   1      47.405  29.216  29.808  1.00  0.00    -0.206 F 
ATOM     43  C   UNL A   1      48.860  27.733  26.844  1.00  0.00     0.022 A 
BRANCH  40  44
ATOM     44  S   UNL A   1      47.876  27.199  24.288  1.00  0.00     0.124 S 
ATOM     45  O   UNL A   1      46.469  26.832  24.149  1.00  0.00    -0.237 OA
ATOM     46  O   UNL A   1      48.353  28.243  23.386  1.00  0.00    -0.237 OA
ATOM     47  O   UNL A   1      48.790  26.076  24.483  1.00  0.00    -0.744 OA
ENDBRANCH  40  44
ENDBRANCH  23  37
BRANCH  24  48
ATOM     48  C   UNL A   1      37.324  32.078  30.442  1.00  0.00     0.023 A 
ATOM     49  C   UNL A   1      36.406  32.741  29.610  1.00  0.00     0.031 A 
ATOM     50  C   UNL A   1      36.929  31.811  31.767  1.00  0.00     0.131 A 
ATOM     51  C   UNL A   1      35.160  33.149  30.119  1.00  0.00     0.055 A 
ATOM     52  C   UNL A   1      35.676  32.189  32.259  1.00  0.00     0.041 A 
ATOM     53  F   UNL A   1      37.761  31.175  32.607  1.00  0.00    -0.206 F 
ATOM     54  C   UNL A   1      34.786  32.871  31.435  1.00  0.00     0.022 A 
BRANCH  51  55
ATOM     55  S   UNL A   1      34.048  34.104  29.047  1.00  0.00     0.124 S 
ATOM     56  O   UNL A   1      33.061  34.594  30.001  1.00  0.00    -0.237 OA
ATOM     57  O   UNL A   1      34.952  35.103  28.487  1.00  0.00    -0.237 OA
ATOM     58  O   UNL A   1      33.555  33.111  28.094  1.00  0.00    -0.744 OA
ENDBRANCH  51  55
ENDBRANCH  24  48
BRANCH  36  59
ATOM     59  C   UNL A   1      43.524  35.296  30.140  1.00  0.00     0.023 A 
ATOM     60  C   UNL A   1      43.492  36.278  29.139  1.00  0.00     0.031 A 
ATOM     61  C   UNL A   1      43.916  35.674  31.438  1.00  0.00     0.131 A 
ATOM     62  C   UNL A   1      43.880  37.590  29.445  1.00  0.00     0.055 A 
ATOM     63  C   UNL A   1      44.237  36.993  31.750  1.00  0.00     0.041 A 
ATOM     64  F   UNL A   1      43.966  34.768  32.427  1.00  0.00    -0.206 F 
ATOM     65  C   UNL A   1      44.228  37.959  30.748  1.00  0.00     0.022 A 
BRANCH  62  66
ATOM     66  S   UNL A   1      43.988  38.797  28.099  1.00  0.00     0.124 S 
ATOM     67  O   UNL A   1      45.430  38.945  27.941  1.00  0.00    -0.237 OA
ATOM     68  O   UNL A   1      43.294  38.115  27.010  1.00  0.00    -0.237 OA
ATOM     69  O   UNL A   1      43.297  39.969  28.634  1.00  0.00    -0.744 OA
ENDBRANCH  62  66
ENDBRANCH  36  59
ENDBRANCH  10  11
ENDBRANCH   3   5
ENDBRANCH   2   3
ENDBRANCH   1   2
BRANCH   1  70
ATOM     70  C   UNL A   1      42.433  20.352  26.188  1.00  0.00     0.274 C 
BRANCH  70  71
ATOM     71  O   UNL A   1      42.979  21.384  25.356  1.00  0.00    -0.461 OA
BRANCH  71  72
ATOM     72  C   UNL A   1      44.278  21.748  25.590  1.00  0.00     0.331 C 
ATOM     73  O   UNL A   1      45.189  20.931  25.703  1.00  0.00    -0.250 OA
BRANCH  72  74
ATOM     74  C   UNL A   1      44.473  23.271  25.763  1.00  0.00     0.164 C 
ATOM     75  C   UNL A   1      45.891  23.657  25.411  1.00  0.00     0.008 C 
ATOM     76  C   UNL A   1      44.033  23.657  27.179  1.00  0.00     0.075 C 
ATOM     77  Cl  UNL A   1      43.396  24.193  24.708  1.00  0.00    -0.102 Cl
ATOM     78  C   UNL A   1      46.764  24.138  26.307  1.00  0.00    -0.002 C 
ATOM     79  C   UNL A   1      45.157  24.017  28.116  1.00  0.00    -0.038 C 
ATOM     80  C   UNL A   1      46.409  24.259  27.699  1.00  0.00     0.004 C 
BRANCH  79  81
ATOM     81  C   UNL A   1      44.717  24.130  29.504  1.00  0.00    -0.022 A 
ATOM     82  C   UNL A   1      43.961  23.113  30.091  1.00  0.00     0.008 A 
ATOM     83  C   UNL A   1      45.255  25.152  30.297  1.00  0.00     0.008 A 
ATOM     84  C   UNL A   1      43.780  23.102  31.473  1.00  0.00     0.001 A 
ATOM     85  C   UNL A   1      45.083  25.131  31.676  1.00  0.00     0.001 A 
ATOM     86  C   UNL A   1      44.352  24.101  32.263  1.00  0.00     0.000 A 
ENDBRANCH  79  81
ENDBRANCH  72  74
ENDBRANCH  71  72
ENDBRANCH  70  71
ENDBRANCH   1  70
TORSDOF 15
ENDMDL
MODEL 3
REMARK VINA RESULT:     -12.0      5.772     10.731
REMARK SMILES O=C(OCCOC(=O)[C@]1(Cl)C=CC=C(c2ccccc2)C1)c1ccc(-c2c3nc(c(-c4cc(S(=O)(=O)[O-])ccc4F)c4ccc([nH]4)c(-c4cc(S(=O)(=O)[O-])ccc4F)c4nc(c(-c5cc(S(=O)(=O)[O-])ccc5F)c5ccc2[nH]5)C=C4)C=C3)cc1
REMARK SMILES IDX 4 1 3 2 2 3 1 4 22 5 23 6 84 7 24 8 83 9 25 10 26 11 27 12
REMARK SMILES IDX 77 13 28 14 82 15 76 16 78 17 29 18 81 19 75 20 74 21 30 23
REMARK SMILES IDX 62 24 42 25 61 26 43 27 46 28 60 29 79 30 44 31 45 32 59 34
REMARK SMILES IDX 80 35 47 36 31 37 32 38 40 39 33 40 39 41 41 42 38 43 34 44
REMARK SMILES IDX 35 45 36 46 37 47 63 48 64 49 72 50 65 51 71 52 73 53 70 54
REMARK SMILES IDX 66 55 67 56 68 57 69 58 48 59 49 60 57 61 50 62 56 63 58 64
REMARK SMILES IDX 55 65 51 66 52 67 53 68 54 69 5 70 6 71 7 72 8 73 9 74 11 75
REMARK SMILES IDX 21 76 10 77 12 78 14 79 13 80 15 81 16 82 20 83 17 84 19 85
REMARK SMILES IDX 18 86
REMARK H PARENT 78 22 46 33
REMARK Flexibility Score: inf
ROOT
ATOM      1  C   UNL A   1      32.150  29.960  26.698  1.00  0.00     0.275 C 
ENDROOT
BRANCH   1   2
ATOM      2  O   UNL A   1      33.532  30.324  26.574  1.00  0.00    -0.458 OA
BRANCH   2   3
ATOM      3  C   UNL A   1      34.376  30.870  27.481  1.00  0.00     0.338 C 
ATOM      4  O   UNL A   1      34.127  32.008  27.878  1.00  0.00    -0.246 OA
BRANCH   3   5
ATOM      5  C   UNL A   1      35.671  30.248  27.922  1.00  0.00     0.060 A 
ATOM      6  C   UNL A   1      36.879  30.207  27.212  1.00  0.00     0.016 A 
ATOM      7  C   UNL A   1      35.658  29.675  29.206  1.00  0.00     0.016 A 
ATOM      8  C   UNL A   1      38.056  29.701  27.790  1.00  0.00     0.010 A 
ATOM      9  C   UNL A   1      36.829  29.198  29.801  1.00  0.00     0.010 A 
ATOM     10  C   UNL A   1      38.045  29.213  29.095  1.00  0.00    -0.014 A 
BRANCH  10  11
ATOM     11  C   UNL A   1      39.206  28.492  29.670  1.00  0.00     0.031 A 
ATOM     12  C   UNL A   1      39.792  29.100  30.907  1.00  0.00     0.074 A 
ATOM     13  C   UNL A   1      39.764  27.402  29.102  1.00  0.00     0.049 A 
ATOM     14  N   UNL A   1      40.870  28.779  31.563  1.00  0.00    -0.248 NA
ATOM     15  C   UNL A   1      39.050  30.242  31.470  1.00  0.00     0.031 C 
ATOM     16  C   UNL A   1      39.235  26.657  27.965  1.00  0.00     0.029 A 
ATOM     17  N   UNL A   1      40.940  26.749  29.385  1.00  0.00    -0.354 N 
ATOM     18  C   UNL A   1      40.913  29.660  32.636  1.00  0.00     0.074 A 
ATOM     19  C   UNL A   1      39.844  30.613  32.456  1.00  0.00     0.031 C 
ATOM     20  C   UNL A   1      40.134  25.744  27.559  1.00  0.00     0.029 A 
ATOM     21  C   UNL A   1      41.281  25.790  28.453  1.00  0.00     0.049 A 
ATOM     22  H   UNL A   1      41.489  26.948  30.179  1.00  0.00     0.167 HD
ATOM     23  C   UNL A   1      41.725  29.627  33.716  1.00  0.00     0.034 A 
ATOM     24  C   UNL A   1      42.388  25.028  28.346  1.00  0.00     0.034 A 
ATOM     25  C   UNL A   1      42.804  28.687  33.839  1.00  0.00     0.049 A 
ATOM     26  C   UNL A   1      43.389  25.102  29.469  1.00  0.00     0.074 A 
ATOM     27  C   UNL A   1      43.722  28.549  34.860  1.00  0.00     0.029 A 
ATOM     28  N   UNL A   1      43.122  27.732  32.877  1.00  0.00    -0.354 N 
ATOM     29  N   UNL A   1      43.387  25.893  30.520  1.00  0.00    -0.248 NA
ATOM     30  C   UNL A   1      44.501  24.145  29.436  1.00  0.00     0.031 C 
ATOM     31  C   UNL A   1      44.637  27.558  34.482  1.00  0.00     0.029 A 
ATOM     32  C   UNL A   1      44.242  27.021  33.265  1.00  0.00     0.049 A 
ATOM     33  H   UNL A   1      42.622  27.586  32.041  1.00  0.00     0.167 HD
ATOM     34  C   UNL A   1      44.449  25.475  31.313  1.00  0.00     0.074 A 
ATOM     35  C   UNL A   1      45.086  24.382  30.602  1.00  0.00     0.031 C 
ATOM     36  C   UNL A   1      44.842  25.930  32.531  1.00  0.00     0.034 A 
BRANCH  23  37
ATOM     37  C   UNL A   1      41.457  30.667  34.775  1.00  0.00     0.023 A 
ATOM     38  C   UNL A   1      40.301  30.594  35.582  1.00  0.00     0.031 A 
ATOM     39  C   UNL A   1      42.247  31.821  34.859  1.00  0.00     0.131 A 
ATOM     40  C   UNL A   1      39.895  31.714  36.320  1.00  0.00     0.055 A 
ATOM     41  C   UNL A   1      41.893  32.890  35.685  1.00  0.00     0.041 A 
ATOM     42  F   UNL A   1      43.342  31.959  34.095  1.00  0.00    -0.206 F 
ATOM     43  C   UNL A   1      40.696  32.854  36.397  1.00  0.00     0.022 A 
BRANCH  40  44
ATOM     44  S   UNL A   1      38.199  31.746  36.972  1.00  0.00     0.124 S 
ATOM     45  O   UNL A   1      37.866  30.324  36.997  1.00  0.00    -0.237 OA
ATOM     46  O   UNL A   1      38.371  32.383  38.273  1.00  0.00    -0.237 OA
ATOM     47  O   UNL A   1      37.467  32.533  35.982  1.00  0.00    -0.744 OA
ENDBRANCH  40  44
ENDBRANCH  23  37
BRANCH  24  48
ATOM     48  C   UNL A   1      42.582  24.108  27.186  1.00  0.00     0.023 A 
ATOM     49  C   UNL A   1      42.104  22.787  27.203  1.00  0.00     0.031 A 
ATOM     50  C   UNL A   1      43.279  24.535  26.040  1.00  0.00     0.131 A 
ATOM     51  C   UNL A   1      42.363  21.929  26.119  1.00  0.00     0.055 A 
ATOM     52  C   UNL A   1      43.506  23.689  24.950  1.00  0.00     0.041 A 
ATOM     53  F   UNL A   1      43.753  25.788  25.963  1.00  0.00    -0.206 F 
ATOM     54  C   UNL A   1      43.054  22.373  24.990  1.00  0.00     0.022 A 
BRANCH  51  55
ATOM     55  S   UNL A   1      41.831  20.196  26.228  1.00  0.00     0.124 S 
ATOM     56  O   UNL A   1      42.548  19.592  25.112  1.00  0.00    -0.237 OA
ATOM     57  O   UNL A   1      42.288  19.823  27.562  1.00  0.00    -0.237 OA
ATOM     58  O   UNL A   1      40.380  20.273  26.069  1.00  0.00    -0.744 OA
ENDBRANCH  51  55
ENDBRANCH  24  48
BRANCH  36  59
ATOM     59  C   UNL A   1      45.968  25.194  33.206  1.00  0.00     0.023 A 
ATOM     60  C   UNL A   1      47.311  25.535  32.992  1.00  0.00     0.031 A 
ATOM     61  C   UNL A   1      45.675  24.161  34.115  1.00  0.00     0.131 A 
ATOM     62  C   UNL A   1      48.319  24.823  33.656  1.00  0.00     0.055 A 
ATOM     63  C   UNL A   1      46.678  23.502  34.822  1.00  0.00     0.041 A 
ATOM     64  F   UNL A   1      44.404  23.796  34.348  1.00  0.00    -0.206 F 
ATOM     65  C   UNL A   1      48.011  23.827  34.588  1.00  0.00     0.022 A 
BRANCH  62  66
ATOM     66  S   UNL A   1      50.046  25.173  33.237  1.00  0.00     0.124 S 
ATOM     67  O   UNL A   1      50.758  24.559  34.352  1.00  0.00    -0.237 OA
ATOM     68  O   UNL A   1      50.195  24.513  31.944  1.00  0.00    -0.237 OA
ATOM     69  O   UNL A   1      50.099  26.634  33.196  1.00  0.00    -0.744 OA
ENDBRANCH  62  66
ENDBRANCH  36  59
ENDBRANCH  10  11
ENDBRANCH   3   5
ENDBRANCH   2   3
ENDBRANCH   1   2
BRANCH   1  70
ATOM     70  C   UNL A   1      31.915  28.587  27.327  1.00  0.00     0.274 C 
BRANCH  70  71
ATOM     71  O   UNL A   1      32.583  27.520  26.642  1.00  0.00    -0.461 OA
BRANCH  71  72
ATOM     72  C   UNL A   1      31.798  26.520  26.133  1.00  0.00     0.331 C 
ATOM     73  O   UNL A   1      31.232  25.692  26.841  1.00  0.00    -0.250 OA
BRANCH  72  74
ATOM     74  C   UNL A   1      31.749  26.497  24.589  1.00  0.00     0.164 C 
ATOM     75  C   UNL A   1      33.088  26.904  24.019  1.00  0.00     0.008 C 
ATOM     76  C   UNL A   1      30.566  27.356  24.129  1.00  0.00     0.075 C 
ATOM     77  Cl  UNL A   1      31.379  24.883  23.969  1.00  0.00    -0.102 Cl
ATOM     78  C   UNL A   1      33.272  28.027  23.311  1.00  0.00    -0.002 C 
ATOM     79  C   UNL A   1      30.944  28.669  23.495  1.00  0.00    -0.038 C 
ATOM     80  C   UNL A   1      32.193  28.959  23.101  1.00  0.00     0.004 C 
BRANCH  79  81
ATOM     81  C   UNL A   1      29.796  29.553  23.307  1.00  0.00    -0.022 A 
ATOM     82  C   UNL A   1      29.693  30.742  24.032  1.00  0.00     0.008 A 
ATOM     83  C   UNL A   1      28.930  29.307  22.233  1.00  0.00     0.008 A 
ATOM     84  C   UNL A   1      28.750  31.697  23.655  1.00  0.00     0.001 A 
ATOM     85  C   UNL A   1      27.999  30.267  21.852  1.00  0.00     0.001 A 
ATOM     86  C   UNL A   1      27.916  31.464  22.560  1.00  0.00     0.000 A 
ENDBRANCH  79  81
ENDBRANCH  72  74
ENDBRANCH  71  72
ENDBRANCH  70  71
ENDBRANCH   1  70
TORSDOF 15
ENDMDL
