MODEL 1
REMARK VINA RESULT:     -11.4      0.000      0.000
REMARK SMILES Cc1ccc2[nH]c3c(=O)n(CC(=O)OCCOC(=O)c4ccc(-c5c6nc(c(-c7cc(S(=O)(=O)[O-])ccc7F)c7ccc([nH]7)c(-c7cc(S(=O)(=O)[O-])ccc7F)c7nc(c(-c8cc(S(=O)(=O)[O-])ccc8F)c8ccc5[nH]8)C=C7)C=C6)cc4)cnc3c2c1
REMARK SMILES IDX 16 1 15 2 14 3 12 4 13 5 11 6 10 7 1 8 2 9 3 10 87 11 4 12
REMARK SMILES IDX 86 13 5 14 85 15 6 16 7 17 84 18 8 20 83 21 9 22 17 23 18 24
REMARK SMILES IDX 19 25 20 26 21 27 82 28 22 29 81 30 23 31 24 32 25 33 75 34
REMARK SMILES IDX 26 35 80 36 74 37 76 38 27 39 79 40 73 41 72 42 28 44 60 45
REMARK SMILES IDX 40 46 59 47 41 48 44 49 58 50 77 51 42 52 43 53 57 55 78 56
REMARK SMILES IDX 45 57 29 58 30 59 38 60 31 61 37 62 39 63 36 64 32 65 33 66
REMARK SMILES IDX 34 67 35 68 61 69 62 70 70 71 63 72 69 73 71 74 68 75 64 76
REMARK SMILES IDX 65 77 66 78 67 79 46 80 47 81 55 82 48 83 54 84 56 85 53 86
REMARK SMILES IDX 49 87 50 88 51 89 52 90
REMARK H PARENT 6 19 76 43 44 54
REMARK Flexibility Score: inf
ROOT
ATOM      1  C   UNL A   1      33.910  33.431  28.794  1.00  0.00     0.275 C 
ENDROOT
BRANCH   1   2
ATOM      2  C   UNL A   1      33.577  34.888  29.135  1.00  0.00     0.274 C 
BRANCH   2   3
ATOM      3  O   UNL A   1      32.515  34.982  30.117  1.00  0.00    -0.461 OA
BRANCH   3   4
ATOM      4  C   UNL A   1      32.636  35.973  31.045  1.00  0.00     0.326 C 
ATOM      5  O   UNL A   1      32.558  37.169  30.785  1.00  0.00    -0.250 OA
BRANCH   4   6
ATOM      6  C   UNL A   1      32.867  35.474  32.475  1.00  0.00     0.249 C 
BRANCH   6   7
ATOM      7  N   UNL A   1      34.169  34.877  32.735  1.00  0.00    -0.286 N 
ATOM      8  C   UNL A   1      41.342  32.676  34.776  1.00  0.00     0.044 C 
ATOM      9  C   UNL A   1      39.981  32.368  34.229  1.00  0.00    -0.050 A 
ATOM     10  C   UNL A   1      39.554  31.039  34.107  1.00  0.00     0.005 A 
ATOM     11  C   UNL A   1      39.095  33.418  33.938  1.00  0.00     0.016 A 
ATOM     12  C   UNL A   1      38.242  30.722  33.740  1.00  0.00     0.027 A 
ATOM     13  C   UNL A   1      37.770  33.127  33.572  1.00  0.00     0.026 A 
ATOM     14  C   UNL A   1      37.364  31.786  33.518  1.00  0.00     0.048 A 
ATOM     15  C   UNL A   1      36.633  33.896  33.245  1.00  0.00     0.103 A 
ATOM     16  N   UNL A   1      36.009  31.777  33.257  1.00  0.00    -0.349 N 
ATOM     17  C   UNL A   1      35.564  33.061  33.140  1.00  0.00     0.132 A 
ATOM     18  N   UNL A   1      36.518  35.281  33.106  1.00  0.00    -0.236 NA
ATOM     19  H   UNL A   1      35.451  30.971  33.168  1.00  0.00     0.167 HD
ATOM     20  C   UNL A   1      34.238  33.519  32.971  1.00  0.00     0.278 A 
ATOM     21  C   UNL A   1      35.303  35.671  32.847  1.00  0.00     0.203 A 
ATOM     22  O   UNL A   1      33.273  32.770  33.069  1.00  0.00    -0.267 OA
ENDBRANCH   6   7
ENDBRANCH   4   6
ENDBRANCH   3   4
ENDBRANCH   2   3
ENDBRANCH   1   2
BRANCH   1  23
ATOM     23  O   UNL A   1      34.976  32.995  29.649  1.00  0.00    -0.458 OA
BRANCH  23  24
ATOM     24  C   UNL A   1      36.209  33.453  29.320  1.00  0.00     0.338 C 
ATOM     25  O   UNL A   1      36.523  34.611  29.108  1.00  0.00    -0.246 OA
BRANCH  24  26
ATOM     26  C   UNL A   1      37.136  32.348  29.642  1.00  0.00     0.060 A 
ATOM     27  C   UNL A   1      38.424  32.580  30.131  1.00  0.00     0.016 A 
ATOM     28  C   UNL A   1      36.769  31.083  29.193  1.00  0.00     0.016 A 
ATOM     29  C   UNL A   1      39.370  31.562  30.055  1.00  0.00     0.010 A 
ATOM     30  C   UNL A   1      37.728  30.090  29.052  1.00  0.00     0.010 A 
ATOM     31  C   UNL A   1      39.038  30.335  29.460  1.00  0.00    -0.014 A 
BRANCH  31  32
ATOM     32  C   UNL A   1      40.028  29.267  29.483  1.00  0.00     0.031 A 
ATOM     33  C   UNL A   1      40.417  28.804  30.836  1.00  0.00     0.074 A 
ATOM     34  C   UNL A   1      40.554  28.601  28.440  1.00  0.00     0.049 A 
ATOM     35  N   UNL A   1      41.494  29.095  31.486  1.00  0.00    -0.248 NA
ATOM     36  C   UNL A   1      39.453  27.990  31.582  1.00  0.00     0.031 C 
ATOM     37  C   UNL A   1      40.086  28.522  27.059  1.00  0.00     0.029 A 
ATOM     38  N   UNL A   1      41.634  27.765  28.459  1.00  0.00    -0.354 N 
ATOM     39  C   UNL A   1      41.419  28.387  32.682  1.00  0.00     0.074 A 
ATOM     40  C   UNL A   1      40.081  27.852  32.749  1.00  0.00     0.031 C 
ATOM     41  C   UNL A   1      40.763  27.534  26.421  1.00  0.00     0.029 A 
ATOM     42  C   UNL A   1      41.823  27.049  27.294  1.00  0.00     0.049 A 
ATOM     43  H   UNL A   1      42.229  27.680  29.240  1.00  0.00     0.167 HD
ATOM     44  C   UNL A   1      42.515  28.151  33.456  1.00  0.00     0.034 A 
ATOM     45  C   UNL A   1      42.767  26.105  27.079  1.00  0.00     0.034 A 
ATOM     46  C   UNL A   1      43.656  28.898  33.002  1.00  0.00     0.049 A 
ATOM     47  C   UNL A   1      43.871  26.286  28.052  1.00  0.00     0.074 A 
ATOM     48  C   UNL A   1      44.008  30.230  32.950  1.00  0.00     0.029 A 
ATOM     49  N   UNL A   1      44.542  28.227  32.197  1.00  0.00    -0.354 N 
ATOM     50  N   UNL A   1      44.715  27.279  28.045  1.00  0.00    -0.248 NA
ATOM     51  C   UNL A   1      43.898  25.461  29.252  1.00  0.00     0.031 C 
ATOM     52  C   UNL A   1      44.884  30.352  31.832  1.00  0.00     0.029 A 
ATOM     53  C   UNL A   1      45.018  29.091  31.245  1.00  0.00     0.049 A 
ATOM     54  H   UNL A   1      44.792  27.278  32.288  1.00  0.00     0.167 HD
ATOM     55  C   UNL A   1      45.059  27.458  29.374  1.00  0.00     0.074 A 
ATOM     56  C   UNL A   1      44.688  26.210  30.025  1.00  0.00     0.031 C 
ATOM     57  C   UNL A   1      45.333  28.697  29.879  1.00  0.00     0.034 A 
BRANCH  44  58
ATOM     58  C   UNL A   1      42.643  27.025  34.452  1.00  0.00     0.023 A 
ATOM     59  C   UNL A   1      43.436  25.886  34.229  1.00  0.00     0.031 A 
ATOM     60  C   UNL A   1      42.107  27.155  35.751  1.00  0.00     0.131 A 
ATOM     61  C   UNL A   1      43.626  24.915  35.221  1.00  0.00     0.055 A 
ATOM     62  C   UNL A   1      42.358  26.222  36.767  1.00  0.00     0.041 A 
ATOM     63  F   UNL A   1      41.356  28.214  36.089  1.00  0.00    -0.206 F 
ATOM     64  C   UNL A   1      43.111  25.086  36.501  1.00  0.00     0.022 A 
BRANCH  61  65
ATOM     65  S   UNL A   1      44.526  23.387  34.840  1.00  0.00     0.124 S 
ATOM     66  O   UNL A   1      44.775  22.848  36.172  1.00  0.00    -0.237 OA
ATOM     67  O   UNL A   1      43.552  22.658  34.031  1.00  0.00    -0.237 OA
ATOM     68  O   UNL A   1      45.700  23.859  34.111  1.00  0.00    -0.744 OA
ENDBRANCH  61  65
ENDBRANCH  44  58
BRANCH  45  69
ATOM     69  C   UNL A   1      42.648  24.878  26.266  1.00  0.00     0.023 A 
ATOM     70  C   UNL A   1      41.725  23.885  26.642  1.00  0.00     0.031 A 
ATOM     71  C   UNL A   1      43.622  24.534  25.314  1.00  0.00     0.131 A 
ATOM     72  C   UNL A   1      41.820  22.592  26.112  1.00  0.00     0.055 A 
ATOM     73  C   UNL A   1      43.707  23.247  24.775  1.00  0.00     0.041 A 
ATOM     74  F   UNL A   1      44.549  25.428  24.934  1.00  0.00    -0.206 F 
ATOM     75  C   UNL A   1      42.810  22.263  25.183  1.00  0.00     0.022 A 
BRANCH  72  76
ATOM     76  S   UNL A   1      40.682  21.294  26.665  1.00  0.00     0.124 S 
ATOM     77  O   UNL A   1      41.266  20.092  26.072  1.00  0.00    -0.237 OA
ATOM     78  O   UNL A   1      40.797  21.397  28.116  1.00  0.00    -0.237 OA
ATOM     79  O   UNL A   1      39.402  21.701  26.095  1.00  0.00    -0.744 OA
ENDBRANCH  72  76
ENDBRANCH  45  69
BRANCH  57  80
ATOM     80  C   UNL A   1      45.713  29.810  28.926  1.00  0.00     0.023 A 
ATOM     81  C   UNL A   1      47.086  30.019  28.681  1.00  0.00     0.031 A 
ATOM     82  C   UNL A   1      44.812  30.755  28.402  1.00  0.00     0.131 A 
ATOM     83  C   UNL A   1      47.517  31.143  27.964  1.00  0.00     0.055 A 
ATOM     84  C   UNL A   1      45.242  31.833  27.622  1.00  0.00     0.041 A 
ATOM     85  F   UNL A   1      43.504  30.714  28.694  1.00  0.00    -0.206 F 
ATOM     86  C   UNL A   1      46.601  32.039  27.411  1.00  0.00     0.022 A 
BRANCH  83  87
ATOM     87  S   UNL A   1      49.281  31.555  27.862  1.00  0.00     0.124 S 
ATOM     88  O   UNL A   1      49.377  32.718  28.739  1.00  0.00    -0.237 OA
ATOM     89  O   UNL A   1      49.914  30.338  28.365  1.00  0.00    -0.237 OA
ATOM     90  O   UNL A   1      49.500  31.822  26.443  1.00  0.00    -0.744 OA
ENDBRANCH  83  87
ENDBRANCH  57  80
ENDBRANCH  31  32
ENDBRANCH  24  26
ENDBRANCH  23  24
ENDBRANCH   1  23
TORSDOF 15
ENDMDL
MODEL 2
REMARK VINA RESULT:     -11.3      4.968      9.742
REMARK SMILES Cc1ccc2[nH]c3c(=O)n(CC(=O)OCCOC(=O)c4ccc(-c5c6nc(c(-c7cc(S(=O)(=O)[O-])ccc7F)c7ccc([nH]7)c(-c7cc(S(=O)(=O)[O-])ccc7F)c7nc(c(-c8cc(S(=O)(=O)[O-])ccc8F)c8ccc5[nH]8)C=C7)C=C6)cc4)cnc3c2c1
REMARK SMILES IDX 16 1 15 2 14 3 12 4 13 5 11 6 10 7 1 8 2 9 3 10 87 11 4 12
REMARK SMILES IDX 86 13 5 14 85 15 6 16 7 17 84 18 8 20 83 21 9 22 17 23 18 24
REMARK SMILES IDX 19 25 20 26 21 27 82 28 22 29 81 30 23 31 24 32 25 33 75 34
REMARK SMILES IDX 26 35 80 36 74 37 76 38 27 39 79 40 73 41 72 42 28 44 60 45
REMARK SMILES IDX 40 46 59 47 41 48 44 49 58 50 77 51 42 52 43 53 57 55 78 56
REMARK SMILES IDX 45 57 29 58 30 59 38 60 31 61 37 62 39 63 36 64 32 65 33 66
REMARK SMILES IDX 34 67 35 68 61 69 62 70 70 71 63 72 69 73 71 74 68 75 64 76
REMARK SMILES IDX 65 77 66 78 67 79 46 80 47 81 55 82 48 83 54 84 56 85 53 86
REMARK SMILES IDX 49 87 50 88 51 89 52 90
REMARK H PARENT 6 19 76 43 44 54
REMARK Flexibility Score: inf
ROOT
ATOM      1  C   UNL A   1      35.758  20.459  25.031  1.00  0.00     0.275 C 
ENDROOT
BRANCH   1   2
ATOM      2  C   UNL A   1      34.702  21.571  25.043  1.00  0.00     0.274 C 
BRANCH   2   3
ATOM      3  O   UNL A   1      33.454  21.121  25.626  1.00  0.00    -0.461 OA
BRANCH   3   4
ATOM      4  C   UNL A   1      32.364  21.139  24.806  1.00  0.00     0.326 C 
ATOM      5  O   UNL A   1      32.346  20.654  23.679  1.00  0.00    -0.250 OA
BRANCH   4   6
ATOM      6  C   UNL A   1      31.129  21.812  25.412  1.00  0.00     0.249 C 
BRANCH   6   7
ATOM      7  N   UNL A   1      31.198  23.260  25.548  1.00  0.00    -0.286 N 
ATOM      8  C   UNL A   1      32.533  30.789  26.957  1.00  0.00     0.044 C 
ATOM      9  C   UNL A   1      31.871  29.699  26.169  1.00  0.00    -0.050 A 
ATOM     10  C   UNL A   1      31.269  29.985  24.937  1.00  0.00     0.005 A 
ATOM     11  C   UNL A   1      31.948  28.371  26.620  1.00  0.00     0.016 A 
ATOM     12  C   UNL A   1      30.773  28.971  24.112  1.00  0.00     0.027 A 
ATOM     13  C   UNL A   1      31.462  27.333  25.807  1.00  0.00     0.026 A 
ATOM     14  C   UNL A   1      30.920  27.654  24.555  1.00  0.00     0.048 A 
ATOM     15  C   UNL A   1      31.398  25.928  25.916  1.00  0.00     0.103 A 
ATOM     16  N   UNL A   1      30.632  26.466  23.915  1.00  0.00    -0.349 N 
ATOM     17  C   UNL A   1      30.969  25.424  24.727  1.00  0.00     0.132 A 
ATOM     18  N   UNL A   1      31.759  25.111  26.989  1.00  0.00    -0.236 NA
ATOM     19  H   UNL A   1      30.244  26.384  23.014  1.00  0.00     0.167 HD
ATOM     20  C   UNL A   1      30.934  24.041  24.440  1.00  0.00     0.278 A 
ATOM     21  C   UNL A   1      31.620  23.841  26.736  1.00  0.00     0.203 A 
ATOM     22  O   UNL A   1      30.728  23.615  23.310  1.00  0.00    -0.267 OA
ENDBRANCH   6   7
ENDBRANCH   4   6
ENDBRANCH   3   4
ENDBRANCH   2   3
ENDBRANCH   1   2
BRANCH   1  23
ATOM     23  O   UNL A   1      37.032  21.043  24.724  1.00  0.00    -0.458 OA
BRANCH  23  24
ATOM     24  C   UNL A   1      38.109  20.359  25.180  1.00  0.00     0.338 C 
ATOM     25  O   UNL A   1      38.397  19.201  24.929  1.00  0.00    -0.246 OA
BRANCH  24  26
ATOM     26  C   UNL A   1      39.032  21.386  25.707  1.00  0.00     0.060 A 
ATOM     27  C   UNL A   1      40.256  21.053  26.291  1.00  0.00     0.016 A 
ATOM     28  C   UNL A   1      38.515  22.672  25.835  1.00  0.00     0.016 A 
ATOM     29  C   UNL A   1      40.896  21.988  27.099  1.00  0.00     0.010 A 
ATOM     30  C   UNL A   1      39.117  23.580  26.696  1.00  0.00     0.010 A 
ATOM     31  C   UNL A   1      40.297  23.231  27.349  1.00  0.00    -0.014 A 
BRANCH  31  32
ATOM     32  C   UNL A   1      41.042  24.214  28.125  1.00  0.00     0.031 A 
ATOM     33  C   UNL A   1      40.361  25.517  28.302  1.00  0.00     0.074 A 
ATOM     34  C   UNL A   1      42.214  24.050  28.763  1.00  0.00     0.049 A 
ATOM     35  N   UNL A   1      40.598  26.619  27.672  1.00  0.00    -0.248 NA
ATOM     36  C   UNL A   1      39.228  25.575  29.231  1.00  0.00     0.031 C 
ATOM     37  C   UNL A   1      42.906  22.818  29.130  1.00  0.00     0.029 A 
ATOM     38  N   UNL A   1      43.005  25.030  29.294  1.00  0.00    -0.354 N 
ATOM     39  C   UNL A   1      39.735  27.564  28.221  1.00  0.00     0.074 A 
ATOM     40  C   UNL A   1      38.819  26.831  29.060  1.00  0.00     0.031 C 
ATOM     41  C   UNL A   1      43.913  23.116  29.989  1.00  0.00     0.029 A 
ATOM     42  C   UNL A   1      44.039  24.564  30.080  1.00  0.00     0.049 A 
ATOM     43  H   UNL A   1      42.849  25.987  29.129  1.00  0.00     0.167 HD
ATOM     44  C   UNL A   1      39.939  28.903  28.076  1.00  0.00     0.034 A 
ATOM     45  C   UNL A   1      44.917  25.321  30.778  1.00  0.00     0.034 A 
ATOM     46  C   UNL A   1      40.985  29.183  27.130  1.00  0.00     0.049 A 
ATOM     47  C   UNL A   1      44.946  26.689  30.206  1.00  0.00     0.074 A 
ATOM     48  C   UNL A   1      41.153  29.034  25.771  1.00  0.00     0.029 A 
ATOM     49  N   UNL A   1      42.229  29.428  27.655  1.00  0.00    -0.354 N 
ATOM     50  N   UNL A   1      45.445  27.000  29.042  1.00  0.00    -0.248 NA
ATOM     51  C   UNL A   1      44.160  27.738  30.841  1.00  0.00     0.031 C 
ATOM     52  C   UNL A   1      42.552  28.849  25.575  1.00  0.00     0.029 A 
ATOM     53  C   UNL A   1      43.175  28.882  26.826  1.00  0.00     0.049 A 
ATOM     54  H   UNL A   1      42.411  29.915  28.492  1.00  0.00     0.167 HD
ATOM     55  C   UNL A   1      44.698  28.085  28.618  1.00  0.00     0.074 A 
ATOM     56  C   UNL A   1      44.074  28.602  29.828  1.00  0.00     0.031 C 
ATOM     57  C   UNL A   1      44.415  28.284  27.296  1.00  0.00     0.034 A 
BRANCH  44  58
ATOM     58  C   UNL A   1      39.393  29.964  29.000  1.00  0.00     0.023 A 
ATOM     59  C   UNL A   1      38.234  30.708  28.717  1.00  0.00     0.031 A 
ATOM     60  C   UNL A   1      39.929  30.132  30.295  1.00  0.00     0.131 A 
ATOM     61  C   UNL A   1      37.688  31.603  29.648  1.00  0.00     0.055 A 
ATOM     62  C   UNL A   1      39.341  30.969  31.251  1.00  0.00     0.041 A 
ATOM     63  F   UNL A   1      41.018  29.453  30.687  1.00  0.00    -0.206 F 
ATOM     64  C   UNL A   1      38.221  31.722  30.926  1.00  0.00     0.022 A 
BRANCH  61  65
ATOM     65  S   UNL A   1      36.286  32.656  29.184  1.00  0.00     0.124 S 
ATOM     66  O   UNL A   1      36.925  33.960  29.049  1.00  0.00    -0.237 OA
ATOM     67  O   UNL A   1      35.842  32.035  27.939  1.00  0.00    -0.237 OA
ATOM     68  O   UNL A   1      35.365  32.508  30.308  1.00  0.00    -0.744 OA
ENDBRANCH  61  65
ENDBRANCH  44  58
BRANCH  45  69
ATOM     69  C   UNL A   1      45.528  25.018  32.088  1.00  0.00     0.023 A 
ATOM     70  C   UNL A   1      44.742  24.442  33.101  1.00  0.00     0.031 A 
ATOM     71  C   UNL A   1      46.773  25.554  32.455  1.00  0.00     0.131 A 
ATOM     72  C   UNL A   1      45.181  24.455  34.432  1.00  0.00     0.055 A 
ATOM     73  C   UNL A   1      47.216  25.555  33.782  1.00  0.00     0.041 A 
ATOM     74  F   UNL A   1      47.558  26.144  31.540  1.00  0.00    -0.206 F 
ATOM     75  C   UNL A   1      46.412  25.014  34.781  1.00  0.00     0.022 A 
BRANCH  72  76
ATOM     76  S   UNL A   1      44.125  23.789  35.747  1.00  0.00     0.124 S 
ATOM     77  O   UNL A   1      42.877  23.514  35.037  1.00  0.00    -0.237 OA
ATOM     78  O   UNL A   1      44.880  22.614  36.167  1.00  0.00    -0.237 OA
ATOM     79  O   UNL A   1      44.056  24.883  36.711  1.00  0.00    -0.744 OA
ENDBRANCH  72  76
ENDBRANCH  45  69
BRANCH  57  80
ATOM     80  C   UNL A   1      45.276  27.604  26.253  1.00  0.00     0.023 A 
ATOM     81  C   UNL A   1      45.068  26.228  26.031  1.00  0.00     0.031 A 
ATOM     82  C   UNL A   1      46.379  28.202  25.616  1.00  0.00     0.131 A 
ATOM     83  C   UNL A   1      45.949  25.496  25.224  1.00  0.00     0.055 A 
ATOM     84  C   UNL A   1      47.211  27.484  24.751  1.00  0.00     0.041 A 
ATOM     85  F   UNL A   1      46.736  29.469  25.872  1.00  0.00    -0.206 F 
ATOM     86  C   UNL A   1      47.007  26.122  24.562  1.00  0.00     0.022 A 
BRANCH  83  87
ATOM     87  S   UNL A   1      45.839  23.688  25.135  1.00  0.00     0.124 S 
ATOM     88  O   UNL A   1      46.584  23.274  26.320  1.00  0.00    -0.237 OA
ATOM     89  O   UNL A   1      44.396  23.461  25.193  1.00  0.00    -0.237 OA
ATOM     90  O   UNL A   1      46.462  23.358  23.857  1.00  0.00    -0.744 OA
ENDBRANCH  83  87
ENDBRANCH  57  80
ENDBRANCH  31  32
ENDBRANCH  24  26
ENDBRANCH  23  24
ENDBRANCH   1  23
TORSDOF 15
ENDMDL
MODEL 3
REMARK VINA RESULT:     -11.2      3.661     11.733
REMARK SMILES Cc1ccc2[nH]c3c(=O)n(CC(=O)OCCOC(=O)c4ccc(-c5c6nc(c(-c7cc(S(=O)(=O)[O-])ccc7F)c7ccc([nH]7)c(-c7cc(S(=O)(=O)[O-])ccc7F)c7nc(c(-c8cc(S(=O)(=O)[O-])ccc8F)c8ccc5[nH]8)C=C7)C=C6)cc4)cnc3c2c1
REMARK SMILES IDX 16 1 15 2 14 3 12 4 13 5 11 6 10 7 1 8 2 9 3 10 87 11 4 12
REMARK SMILES IDX 86 13 5 14 85 15 6 16 7 17 84 18 8 20 83 21 9 22 17 23 18 24
REMARK SMILES IDX 19 25 20 26 21 27 82 28 22 29 81 30 23 31 24 32 25 33 75 34
REMARK SMILES IDX 26 35 80 36 74 37 76 38 27 39 79 40 73 41 72 42 28 44 60 45
REMARK SMILES IDX 40 46 59 47 41 48 44 49 58 50 77 51 42 52 43 53 57 55 78 56
REMARK SMILES IDX 45 57 29 58 30 59 38 60 31 61 37 62 39 63 36 64 32 65 33 66
REMARK SMILES IDX 34 67 35 68 61 69 62 70 70 71 63 72 69 73 71 74 68 75 64 76
REMARK SMILES IDX 65 77 66 78 67 79 46 80 47 81 55 82 48 83 54 84 56 85 53 86
REMARK SMILES IDX 49 87 50 88 51 89 52 90
REMARK H PARENT 6 19 76 43 44 54
REMARK Flexibility Score: inf
ROOT
ATOM      1  C   UNL A   1      41.514  21.464  25.936  1.00  0.00     0.275 C 
ENDROOT
BRANCH   1   2
ATOM      2  C   UNL A   1      42.166  20.097  26.180  1.00  0.00     0.274 C 
BRANCH   2   3
ATOM      3  O   UNL A   1      42.629  19.494  24.947  1.00  0.00    -0.461 OA
BRANCH   3   4
ATOM      4  C   UNL A   1      43.936  19.108  24.917  1.00  0.00     0.326 C 
ATOM      5  O   UNL A   1      44.358  18.073  25.424  1.00  0.00    -0.250 OA
BRANCH   4   6
ATOM      6  C   UNL A   1      44.864  20.075  24.174  1.00  0.00     0.249 C 
BRANCH   6   7
ATOM      7  N   UNL A   1      45.031  21.387  24.783  1.00  0.00    -0.286 N 
ATOM      8  C   UNL A   1      47.029  28.015  28.322  1.00  0.00     0.044 C 
ATOM      9  C   UNL A   1      46.132  27.234  27.409  1.00  0.00    -0.050 A 
ATOM     10  C   UNL A   1      45.237  27.898  26.561  1.00  0.00     0.005 A 
ATOM     11  C   UNL A   1      46.267  25.838  27.331  1.00  0.00     0.016 A 
ATOM     12  C   UNL A   1      44.495  27.210  25.597  1.00  0.00     0.027 A 
ATOM     13  C   UNL A   1      45.537  25.123  26.367  1.00  0.00     0.026 A 
ATOM     14  C   UNL A   1      44.695  25.831  25.497  1.00  0.00     0.048 A 
ATOM     15  C   UNL A   1      45.441  23.767  25.992  1.00  0.00     0.103 A 
ATOM     16  N   UNL A   1      44.194  24.926  24.584  1.00  0.00    -0.349 N 
ATOM     17  C   UNL A   1      44.688  23.686  24.860  1.00  0.00     0.132 A 
ATOM     18  N   UNL A   1      46.039  22.648  26.575  1.00  0.00    -0.236 NA
ATOM     19  H   UNL A   1      43.576  25.142  23.848  1.00  0.00     0.167 HD
ATOM     20  C   UNL A   1      44.517  22.489  24.130  1.00  0.00     0.278 A 
ATOM     21  C   UNL A   1      45.781  21.540  25.942  1.00  0.00     0.203 A 
ATOM     22  O   UNL A   1      43.998  22.472  23.019  1.00  0.00    -0.267 OA
ENDBRANCH   6   7
ENDBRANCH   4   6
ENDBRANCH   3   4
ENDBRANCH   2   3
ENDBRANCH   1   2
BRANCH   1  23
ATOM     23  O   UNL A   1      41.147  22.027  27.203  1.00  0.00    -0.458 OA
BRANCH  23  24
ATOM     24  C   UNL A   1      42.179  22.461  27.967  1.00  0.00     0.338 C 
ATOM     25  O   UNL A   1      43.188  21.838  28.249  1.00  0.00    -0.246 OA
BRANCH  24  26
ATOM     26  C   UNL A   1      42.010  23.926  28.059  1.00  0.00     0.060 A 
ATOM     27  C   UNL A   1      42.951  24.742  28.691  1.00  0.00     0.016 A 
ATOM     28  C   UNL A   1      40.755  24.425  27.721  1.00  0.00     0.016 A 
ATOM     29  C   UNL A   1      42.578  26.024  29.085  1.00  0.00     0.010 A 
ATOM     30  C   UNL A   1      40.361  25.676  28.175  1.00  0.00     0.010 A 
ATOM     31  C   UNL A   1      41.264  26.469  28.880  1.00  0.00    -0.014 A 
BRANCH  31  32
ATOM     32  C   UNL A   1      40.941  27.848  29.224  1.00  0.00     0.031 A 
ATOM     33  C   UNL A   1      41.827  28.868  28.614  1.00  0.00     0.074 A 
ATOM     34  C   UNL A   1      39.899  28.301  29.942  1.00  0.00     0.049 A 
ATOM     35  N   UNL A   1      42.791  29.511  29.183  1.00  0.00    -0.248 NA
ATOM     36  C   UNL A   1      41.671  29.140  27.182  1.00  0.00     0.031 C 
ATOM     37  C   UNL A   1      38.659  27.622  30.308  1.00  0.00     0.029 A 
ATOM     38  N   UNL A   1      39.731  29.562  30.441  1.00  0.00    -0.354 N 
ATOM     39  C   UNL A   1      43.287  30.383  28.218  1.00  0.00     0.074 A 
ATOM     40  C   UNL A   1      42.664  30.002  26.974  1.00  0.00     0.031 C 
ATOM     41  C   UNL A   1      37.786  28.535  30.803  1.00  0.00     0.029 A 
ATOM     42  C   UNL A   1      38.473  29.810  30.952  1.00  0.00     0.049 A 
ATOM     43  H   UNL A   1      40.448  30.236  30.437  1.00  0.00     0.167 HD
ATOM     44  C   UNL A   1      44.050  31.464  28.541  1.00  0.00     0.034 A 
ATOM     45  C   UNL A   1      38.024  30.991  31.436  1.00  0.00     0.034 A 
ATOM     46  C   UNL A   1      44.442  31.445  29.924  1.00  0.00     0.049 A 
ATOM     47  C   UNL A   1      39.183  31.838  31.809  1.00  0.00     0.074 A 
ATOM     48  C   UNL A   1      45.262  30.662  30.707  1.00  0.00     0.029 A 
ATOM     49  N   UNL A   1      43.679  32.195  30.783  1.00  0.00    -0.354 N 
ATOM     50  N   UNL A   1      39.979  31.610  32.816  1.00  0.00    -0.248 NA
ATOM     51  C   UNL A   1      39.643  32.858  30.877  1.00  0.00     0.031 C 
ATOM     52  C   UNL A   1      44.710  30.720  32.019  1.00  0.00     0.029 A 
ATOM     53  C   UNL A   1      43.570  31.528  31.976  1.00  0.00     0.049 A 
ATOM     54  H   UNL A   1      43.274  33.068  30.574  1.00  0.00     0.167 HD
ATOM     55  C   UNL A   1      41.202  32.126  32.422  1.00  0.00     0.074 A 
ATOM     56  C   UNL A   1      40.886  33.036  31.330  1.00  0.00     0.031 C 
ATOM     57  C   UNL A   1      42.378  31.549  32.810  1.00  0.00     0.034 A 
BRANCH  44  58
ATOM     58  C   UNL A   1      44.209  32.696  27.684  1.00  0.00     0.023 A 
ATOM     59  C   UNL A   1      43.710  33.958  28.051  1.00  0.00     0.031 A 
ATOM     60  C   UNL A   1      45.038  32.673  26.542  1.00  0.00     0.131 A 
ATOM     61  C   UNL A   1      43.975  35.105  27.289  1.00  0.00     0.055 A 
ATOM     62  C   UNL A   1      45.365  33.830  25.824  1.00  0.00     0.041 A 
ATOM     63  F   UNL A   1      45.593  31.529  26.113  1.00  0.00    -0.206 F 
ATOM     64  C   UNL A   1      44.821  35.055  26.188  1.00  0.00     0.022 A 
BRANCH  61  65
ATOM     65  S   UNL A   1      43.183  36.682  27.712  1.00  0.00     0.124 S 
ATOM     66  O   UNL A   1      42.351  36.921  26.538  1.00  0.00    -0.237 OA
ATOM     67  O   UNL A   1      42.467  36.340  28.939  1.00  0.00    -0.237 OA
ATOM     68  O   UNL A   1      44.312  37.590  27.892  1.00  0.00    -0.744 OA
ENDBRANCH  61  65
ENDBRANCH  44  58
BRANCH  45  69
ATOM     69  C   UNL A   1      36.661  31.548  31.336  1.00  0.00     0.023 A 
ATOM     70  C   UNL A   1      36.112  31.812  30.068  1.00  0.00     0.031 A 
ATOM     71  C   UNL A   1      36.012  32.100  32.454  1.00  0.00     0.131 A 
ATOM     72  C   UNL A   1      34.987  32.638  29.941  1.00  0.00     0.055 A 
ATOM     73  C   UNL A   1      34.882  32.912  32.326  1.00  0.00     0.041 A 
ATOM     74  F   UNL A   1      36.502  31.909  33.688  1.00  0.00    -0.206 F 
ATOM     75  C   UNL A   1      34.370  33.196  31.062  1.00  0.00     0.022 A 
BRANCH  72  76
ATOM     76  S   UNL A   1      34.337  33.045  28.298  1.00  0.00     0.124 S 
ATOM     77  O   UNL A   1      35.544  33.430  27.570  1.00  0.00    -0.237 OA
ATOM     78  O   UNL A   1      33.736  31.779  27.894  1.00  0.00    -0.237 OA
ATOM     79  O   UNL A   1      33.406  34.137  28.565  1.00  0.00    -0.744 OA
ENDBRANCH  72  76
ENDBRANCH  45  69
BRANCH  57  80
ATOM     80  C   UNL A   1      42.384  30.643  34.023  1.00  0.00     0.023 A 
ATOM     81  C   UNL A   1      42.762  31.209  35.258  1.00  0.00     0.031 A 
ATOM     82  C   UNL A   1      42.208  29.248  33.978  1.00  0.00     0.131 A 
ATOM     83  C   UNL A   1      42.973  30.394  36.378  1.00  0.00     0.055 A 
ATOM     84  C   UNL A   1      42.345  28.449  35.117  1.00  0.00     0.041 A 
ATOM     85  F   UNL A   1      41.980  28.607  32.823  1.00  0.00    -0.206 F 
ATOM     86  C   UNL A   1      42.743  29.018  36.321  1.00  0.00     0.022 A 
BRANCH  83  87
ATOM     87  S   UNL A   1      43.700  31.075  37.894  1.00  0.00     0.124 S 
ATOM     88  O   UNL A   1      44.546  32.146  37.377  1.00  0.00    -0.237 OA
ATOM     89  O   UNL A   1      42.519  31.512  38.636  1.00  0.00    -0.237 OA
ATOM     90  O   UNL A   1      44.413  29.944  38.482  1.00  0.00    -0.744 OA
ENDBRANCH  83  87
ENDBRANCH  57  80
ENDBRANCH  31  32
ENDBRANCH  24  26
ENDBRANCH  23  24
ENDBRANCH   1  23
TORSDOF 15
ENDMDL
