MODEL 1
REMARK VINA RESULT:     -12.4      0.000      0.000
REMARK SMILES CC(C)COc1cccc(C(=O)Nc2ccc(O)c(C(=O)OCCOC(=O)c3ccc(-c4c5nc(c(-c6cc(S(=O)(=O)[O-])ccc6F)c6ccc([nH]6)c(-c6cc(S(=O)(=O)[O-])ccc6F)c6nc(c(-c7cc(S(=O)(=O)[O-])ccc7F)c7ccc4[nH]7)C=C6)C=C5)cc3)c2)c1
REMARK SMILES IDX 23 1 22 2 20 3 21 4 19 5 14 6 15 7 91 8 16 9 17 10 13 11
REMARK SMILES IDX 11 12 12 13 10 15 6 16 7 17 92 18 8 19 9 20 5 21 4 22 2 23
REMARK SMILES IDX 1 24 3 25 18 26 24 28 25 29 26 30 27 31 28 32 29 33 90 34
REMARK SMILES IDX 30 35 89 36 31 37 32 38 33 39 83 40 34 41 88 42 82 43 84 44
REMARK SMILES IDX 35 45 87 46 81 47 80 48 36 50 68 51 48 52 67 53 49 54 52 55
REMARK SMILES IDX 66 56 85 57 50 58 51 59 65 61 86 62 53 63 37 64 38 65 46 66
REMARK SMILES IDX 39 67 45 68 47 69 44 70 40 71 41 72 42 73 43 74 69 75 70 76
REMARK SMILES IDX 78 77 71 78 77 79 79 80 76 81 72 82 73 83 74 84 75 85 54 86
REMARK SMILES IDX 55 87 63 88 56 89 62 90 64 91 61 92 57 93 58 94 59 95 60 96
REMARK H PARENT 13 14 18 27 84 49 52 60
REMARK Flexibility Score: inf
ROOT
ATOM      1  C   UNL A   1      35.169  21.476  26.070  1.00  0.00     0.275 C 
ENDROOT
BRANCH   1   2
ATOM      2  O   UNL A   1      34.141  22.335  25.530  1.00  0.00    -0.458 OA
BRANCH   2   3
ATOM      3  C   UNL A   1      33.026  21.668  25.169  1.00  0.00     0.342 C 
ATOM      4  O   UNL A   1      32.942  20.460  24.996  1.00  0.00    -0.246 OA
BRANCH   3   5
ATOM      5  C   UNL A   1      31.879  22.529  24.874  1.00  0.00     0.103 A 
ATOM      6  C   UNL A   1      30.888  24.620  25.549  1.00  0.00     0.042 A 
ATOM      7  C   UNL A   1      30.431  24.826  24.242  1.00  0.00     0.030 A 
ATOM      8  C   UNL A   1      31.509  23.418  25.889  1.00  0.00     0.045 A 
ATOM      9  C   UNL A   1      30.727  23.894  23.246  1.00  0.00     0.049 A 
ATOM     10  C   UNL A   1      31.486  22.769  23.552  1.00  0.00     0.130 A 
BRANCH   6  11
ATOM     11  N   UNL A   1      30.801  25.697  26.445  1.00  0.00    -0.322 N 
ATOM     12  C   UNL A   1      31.294  26.989  26.382  1.00  0.00     0.255 C 
ATOM     13  O   UNL A   1      31.326  27.645  27.426  1.00  0.00    -0.269 OA
ATOM     14  H   UNL A   1      30.297  25.497  27.266  1.00  0.00     0.170 HD
BRANCH  12  15
ATOM     15  C   UNL A   1      31.668  27.680  25.101  1.00  0.00     0.043 A 
ATOM     16  C   UNL A   1      31.121  28.896  23.060  1.00  0.00     0.120 A 
ATOM     17  C   UNL A   1      32.469  29.019  22.750  1.00  0.00     0.046 A 
ATOM     18  C   UNL A   1      30.737  28.250  24.232  1.00  0.00     0.060 A 
ATOM     19  C   UNL A   1      33.425  28.519  23.636  1.00  0.00     0.005 A 
ATOM     20  C   UNL A   1      33.027  27.850  24.801  1.00  0.00     0.014 A 
BRANCH  16  21
ATOM     21  O   UNL A   1      30.190  29.260  22.130  1.00  0.00    -0.493 OA
BRANCH  21  22
ATOM     22  C   UNL A   1      28.822  28.990  22.488  1.00  0.00     0.232 C 
BRANCH  22  23
ATOM     23  C   UNL A   1      27.901  30.226  22.395  1.00  0.00     0.020 C 
ATOM     24  C   UNL A   1      28.150  31.200  23.553  1.00  0.00     0.011 C 
ATOM     25  C   UNL A   1      28.110  30.990  21.084  1.00  0.00     0.011 C 
ENDBRANCH  22  23
ENDBRANCH  21  22
ENDBRANCH  16  21
ENDBRANCH  12  15
ENDBRANCH   6  11
BRANCH  10  26
ATOM     26  O   UNL A   1      31.841  21.992  22.488  1.00  0.00    -0.507 OA
ATOM     27  H   UNL A   1      31.670  21.071  22.502  1.00  0.00     0.293 HD
ENDBRANCH  10  26
ENDBRANCH   3   5
ENDBRANCH   2   3
ENDBRANCH   1   2
BRANCH   1  28
ATOM     28  C   UNL A   1      36.095  20.895  24.995  1.00  0.00     0.275 C 
BRANCH  28  29
ATOM     29  O   UNL A   1      37.296  21.678  24.814  1.00  0.00    -0.458 OA
BRANCH  29  30
ATOM     30  C   UNL A   1      38.360  21.283  25.554  1.00  0.00     0.338 C 
ATOM     31  O   UNL A   1      38.843  20.165  25.593  1.00  0.00    -0.246 OA
BRANCH  30  32
ATOM     32  C   UNL A   1      38.964  22.406  26.303  1.00  0.00     0.060 A 
ATOM     33  C   UNL A   1      38.532  23.710  26.075  1.00  0.00     0.016 A 
ATOM     34  C   UNL A   1      40.123  22.185  27.050  1.00  0.00     0.016 A 
ATOM     35  C   UNL A   1      39.311  24.787  26.487  1.00  0.00     0.010 A 
ATOM     36  C   UNL A   1      40.832  23.274  27.576  1.00  0.00     0.010 A 
ATOM     37  C   UNL A   1      40.452  24.594  27.273  1.00  0.00    -0.014 A 
BRANCH  37  38
ATOM     38  C   UNL A   1      41.244  25.762  27.761  1.00  0.00     0.031 A 
ATOM     39  C   UNL A   1      40.594  26.817  28.619  1.00  0.00     0.074 A 
ATOM     40  C   UNL A   1      42.549  25.884  27.441  1.00  0.00     0.049 A 
ATOM     41  N   UNL A   1      41.015  28.020  28.916  1.00  0.00    -0.248 NA
ATOM     42  C   UNL A   1      39.289  26.476  29.204  1.00  0.00     0.031 C 
ATOM     43  C   UNL A   1      43.337  24.905  26.686  1.00  0.00     0.029 A 
ATOM     44  N   UNL A   1      43.450  26.887  27.707  1.00  0.00    -0.354 N 
ATOM     45  C   UNL A   1      40.000  28.605  29.668  1.00  0.00     0.074 A 
ATOM     46  C   UNL A   1      38.944  27.619  29.780  1.00  0.00     0.031 C 
ATOM     47  C   UNL A   1      44.600  25.338  26.580  1.00  0.00     0.029 A 
ATOM     48  C   UNL A   1      44.688  26.678  27.142  1.00  0.00     0.049 A 
ATOM     49  H   UNL A   1      43.231  27.679  28.249  1.00  0.00     0.167 HD
ATOM     50  C   UNL A   1      39.956  29.853  30.204  1.00  0.00     0.034 A 
ATOM     51  C   UNL A   1      45.753  27.492  27.017  1.00  0.00     0.034 A 
ATOM     52  C   UNL A   1      41.044  30.801  30.117  1.00  0.00     0.049 A 
ATOM     53  C   UNL A   1      45.659  28.895  27.552  1.00  0.00     0.074 A 
ATOM     54  C   UNL A   1      41.112  32.088  30.626  1.00  0.00     0.029 A 
ATOM     55  N   UNL A   1      42.261  30.564  29.488  1.00  0.00    -0.354 N 
ATOM     56  N   UNL A   1      44.658  29.476  28.172  1.00  0.00    -0.248 NA
ATOM     57  C   UNL A   1      46.828  29.758  27.351  1.00  0.00     0.031 C 
ATOM     58  C   UNL A   1      42.339  32.647  30.253  1.00  0.00     0.029 A 
ATOM     59  C   UNL A   1      43.072  31.688  29.574  1.00  0.00     0.049 A 
ATOM     60  H   UNL A   1      42.511  29.721  29.045  1.00  0.00     0.167 HD
ATOM     61  C   UNL A   1      45.083  30.772  28.443  1.00  0.00     0.074 A 
ATOM     62  C   UNL A   1      46.439  30.878  27.942  1.00  0.00     0.031 C 
ATOM     63  C   UNL A   1      44.413  31.786  29.049  1.00  0.00     0.034 A 
BRANCH  50  64
ATOM     64  C   UNL A   1      38.667  30.289  30.861  1.00  0.00     0.023 A 
ATOM     65  C   UNL A   1      37.635  30.926  30.151  1.00  0.00     0.031 A 
ATOM     66  C   UNL A   1      38.479  30.073  32.240  1.00  0.00     0.131 A 
ATOM     67  C   UNL A   1      36.494  31.383  30.833  1.00  0.00     0.055 A 
ATOM     68  C   UNL A   1      37.309  30.461  32.896  1.00  0.00     0.041 A 
ATOM     69  F   UNL A   1      39.436  29.488  32.976  1.00  0.00    -0.206 F 
ATOM     70  C   UNL A   1      36.313  31.133  32.195  1.00  0.00     0.022 A 
BRANCH  67  71
ATOM     71  S   UNL A   1      35.307  32.427  29.943  1.00  0.00     0.124 S 
ATOM     72  O   UNL A   1      36.138  33.570  29.572  1.00  0.00    -0.237 OA
ATOM     73  O   UNL A   1      34.884  31.561  28.848  1.00  0.00    -0.237 OA
ATOM     74  O   UNL A   1      34.281  32.711  30.945  1.00  0.00    -0.744 OA
ENDBRANCH  67  71
ENDBRANCH  50  64
BRANCH  51  75
ATOM     75  C   UNL A   1      46.960  27.039  26.266  1.00  0.00     0.023 A 
ATOM     76  C   UNL A   1      48.026  26.403  26.921  1.00  0.00     0.031 A 
ATOM     77  C   UNL A   1      47.074  27.259  24.880  1.00  0.00     0.131 A 
ATOM     78  C   UNL A   1      49.170  26.035  26.195  1.00  0.00     0.055 A 
ATOM     79  C   UNL A   1      48.188  26.838  24.154  1.00  0.00     0.041 A 
ATOM     80  F   UNL A   1      46.087  27.869  24.205  1.00  0.00    -0.206 F 
ATOM     81  C   UNL A   1      49.251  26.231  24.814  1.00  0.00     0.022 A 
BRANCH  78  82
ATOM     82  S   UNL A   1      50.592  25.362  27.097  1.00  0.00     0.124 S 
ATOM     83  O   UNL A   1      51.042  26.526  27.854  1.00  0.00    -0.237 OA
ATOM     84  O   UNL A   1      49.979  24.289  27.873  1.00  0.00    -0.237 OA
ATOM     85  O   UNL A   1      51.492  24.922  26.033  1.00  0.00    -0.744 OA
ENDBRANCH  78  82
ENDBRANCH  51  75
BRANCH  63  86
ATOM     86  C   UNL A   1      45.166  33.078  29.230  1.00  0.00     0.023 A 
ATOM     87  C   UNL A   1      45.075  34.123  28.292  1.00  0.00     0.031 A 
ATOM     88  C   UNL A   1      46.017  33.253  30.335  1.00  0.00     0.131 A 
ATOM     89  C   UNL A   1      45.869  35.270  28.446  1.00  0.00     0.055 A 
ATOM     90  C   UNL A   1      46.759  34.421  30.513  1.00  0.00     0.041 A 
ATOM     91  F   UNL A   1      46.146  32.286  31.258  1.00  0.00    -0.206 F 
ATOM     92  C   UNL A   1      46.698  35.432  29.558  1.00  0.00     0.022 A 
BRANCH  89  93
ATOM     93  S   UNL A   1      45.876  36.507  27.119  1.00  0.00     0.124 S 
ATOM     94  O   UNL A   1      46.592  35.809  26.057  1.00  0.00    -0.237 OA
ATOM     95  O   UNL A   1      44.452  36.729  26.890  1.00  0.00    -0.237 OA
ATOM     96  O   UNL A   1      46.591  37.638  27.710  1.00  0.00    -0.744 OA
ENDBRANCH  89  93
ENDBRANCH  63  86
ENDBRANCH  37  38
ENDBRANCH  30  32
ENDBRANCH  29  30
ENDBRANCH  28  29
ENDBRANCH   1  28
TORSDOF 20
ENDMDL
MODEL 2
REMARK VINA RESULT:     -12.4      4.932     10.119
REMARK SMILES CC(C)COc1cccc(C(=O)Nc2ccc(O)c(C(=O)OCCOC(=O)c3ccc(-c4c5nc(c(-c6cc(S(=O)(=O)[O-])ccc6F)c6ccc([nH]6)c(-c6cc(S(=O)(=O)[O-])ccc6F)c6nc(c(-c7cc(S(=O)(=O)[O-])ccc7F)c7ccc4[nH]7)C=C6)C=C5)cc3)c2)c1
REMARK SMILES IDX 23 1 22 2 20 3 21 4 19 5 14 6 15 7 91 8 16 9 17 10 13 11
REMARK SMILES IDX 11 12 12 13 10 15 6 16 7 17 92 18 8 19 9 20 5 21 4 22 2 23
REMARK SMILES IDX 1 24 3 25 18 26 24 28 25 29 26 30 27 31 28 32 29 33 90 34
REMARK SMILES IDX 30 35 89 36 31 37 32 38 33 39 83 40 34 41 88 42 82 43 84 44
REMARK SMILES IDX 35 45 87 46 81 47 80 48 36 50 68 51 48 52 67 53 49 54 52 55
REMARK SMILES IDX 66 56 85 57 50 58 51 59 65 61 86 62 53 63 37 64 38 65 46 66
REMARK SMILES IDX 39 67 45 68 47 69 44 70 40 71 41 72 42 73 43 74 69 75 70 76
REMARK SMILES IDX 78 77 71 78 77 79 79 80 76 81 72 82 73 83 74 84 75 85 54 86
REMARK SMILES IDX 55 87 63 88 56 89 62 90 64 91 61 92 57 93 58 94 59 95 60 96
REMARK H PARENT 13 14 18 27 84 49 52 60
REMARK Flexibility Score: inf
ROOT
ATOM      1  C   UNL A   1      32.135  29.649  24.761  1.00  0.00     0.275 C 
ENDROOT
BRANCH   1   2
ATOM      2  O   UNL A   1      33.329  28.857  24.948  1.00  0.00    -0.458 OA
BRANCH   2   3
ATOM      3  C   UNL A   1      33.737  28.236  23.823  1.00  0.00     0.342 C 
ATOM      4  O   UNL A   1      34.404  28.741  22.930  1.00  0.00    -0.246 OA
BRANCH   3   5
ATOM      5  C   UNL A   1      33.218  26.876  23.665  1.00  0.00     0.103 A 
ATOM      6  C   UNL A   1      31.742  25.302  24.740  1.00  0.00     0.042 A 
ATOM      7  C   UNL A   1      31.384  24.783  23.490  1.00  0.00     0.030 A 
ATOM      8  C   UNL A   1      32.744  26.266  24.833  1.00  0.00     0.045 A 
ATOM      9  C   UNL A   1      31.923  25.336  22.326  1.00  0.00     0.049 A 
ATOM     10  C   UNL A   1      32.806  26.407  22.412  1.00  0.00     0.130 A 
BRANCH   6  11
ATOM     11  N   UNL A   1      30.981  24.902  25.849  1.00  0.00    -0.322 N 
ATOM     12  C   UNL A   1      30.833  23.673  26.470  1.00  0.00     0.255 C 
ATOM     13  O   UNL A   1      29.883  23.529  27.245  1.00  0.00    -0.269 OA
ATOM     14  H   UNL A   1      30.459  25.627  26.262  1.00  0.00     0.170 HD
BRANCH  12  15
ATOM     15  C   UNL A   1      31.828  22.553  26.357  1.00  0.00     0.043 A 
ATOM     16  C   UNL A   1      32.703  20.535  25.305  1.00  0.00     0.120 A 
ATOM     17  C   UNL A   1      33.782  20.526  26.179  1.00  0.00     0.046 A 
ATOM     18  C   UNL A   1      31.753  21.550  25.389  1.00  0.00     0.060 A 
ATOM     19  C   UNL A   1      33.919  21.555  27.111  1.00  0.00     0.005 A 
ATOM     20  C   UNL A   1      32.945  22.559  27.203  1.00  0.00     0.014 A 
BRANCH  16  21
ATOM     21  O   UNL A   1      32.498  19.457  24.492  1.00  0.00    -0.493 OA
BRANCH  21  22
ATOM     22  C   UNL A   1      32.458  18.181  25.158  1.00  0.00     0.232 C 
BRANCH  22  23
ATOM     23  C   UNL A   1      33.226  17.068  24.412  1.00  0.00     0.020 C 
ATOM     24  C   UNL A   1      34.700  17.440  24.213  1.00  0.00     0.011 C 
ATOM     25  C   UNL A   1      33.175  15.740  25.173  1.00  0.00     0.011 C 
ENDBRANCH  22  23
ENDBRANCH  21  22
ENDBRANCH  16  21
ENDBRANCH  12  15
ENDBRANCH   6  11
BRANCH  10  26
ATOM     26  O   UNL A   1      33.168  26.967  21.222  1.00  0.00    -0.507 OA
ATOM     27  H   UNL A   1      33.460  27.857  21.192  1.00  0.00     0.293 HD
ENDBRANCH  10  26
ENDBRANCH   3   5
ENDBRANCH   2   3
ENDBRANCH   1   2
BRANCH   1  28
ATOM     28  C   UNL A   1      31.829  30.568  25.949  1.00  0.00     0.275 C 
BRANCH  28  29
ATOM     29  O   UNL A   1      32.726  30.356  27.061  1.00  0.00    -0.458 OA
BRANCH  29  30
ATOM     30  C   UNL A   1      33.451  31.439  27.432  1.00  0.00     0.338 C 
ATOM     31  O   UNL A   1      33.047  32.584  27.533  1.00  0.00    -0.246 OA
BRANCH  30  32
ATOM     32  C   UNL A   1      34.840  31.082  27.792  1.00  0.00     0.060 A 
ATOM     33  C   UNL A   1      35.138  29.795  28.234  1.00  0.00     0.016 A 
ATOM     34  C   UNL A   1      35.795  32.092  27.921  1.00  0.00     0.016 A 
ATOM     35  C   UNL A   1      36.332  29.545  28.904  1.00  0.00     0.010 A 
ATOM     36  C   UNL A   1      37.048  31.801  28.478  1.00  0.00     0.010 A 
ATOM     37  C   UNL A   1      37.322  30.528  29.008  1.00  0.00    -0.014 A 
BRANCH  37  38
ATOM     38  C   UNL A   1      38.623  30.228  29.675  1.00  0.00     0.031 A 
ATOM     39  C   UNL A   1      39.609  29.286  29.031  1.00  0.00     0.074 A 
ATOM     40  C   UNL A   1      38.931  30.795  30.860  1.00  0.00     0.049 A 
ATOM     41  N   UNL A   1      40.651  28.691  29.553  1.00  0.00    -0.248 NA
ATOM     42  C   UNL A   1      39.379  28.961  27.615  1.00  0.00     0.031 C 
ATOM     43  C   UNL A   1      38.115  31.786  31.567  1.00  0.00     0.029 A 
ATOM     44  N   UNL A   1      40.016  30.620  31.685  1.00  0.00    -0.354 N 
ATOM     45  C   UNL A   1      41.164  27.871  28.552  1.00  0.00     0.074 A 
ATOM     46  C   UNL A   1      40.315  28.049  27.392  1.00  0.00     0.031 C 
ATOM     47  C   UNL A   1      38.738  32.152  32.695  1.00  0.00     0.029 A 
ATOM     48  C   UNL A   1      39.932  31.334  32.860  1.00  0.00     0.049 A 
ATOM     49  H   UNL A   1      40.778  30.041  31.459  1.00  0.00     0.167 HD
ATOM     50  C   UNL A   1      42.238  27.041  28.607  1.00  0.00     0.034 A 
ATOM     51  C   UNL A   1      40.680  31.289  33.979  1.00  0.00     0.034 A 
ATOM     52  C   UNL A   1      43.097  26.916  29.763  1.00  0.00     0.049 A 
ATOM     53  C   UNL A   1      41.821  30.310  34.048  1.00  0.00     0.074 A 
ATOM     54  C   UNL A   1      44.213  26.113  29.928  1.00  0.00     0.029 A 
ATOM     55  N   UNL A   1      42.942  27.621  30.951  1.00  0.00    -0.354 N 
ATOM     56  N   UNL A   1      42.238  29.464  33.135  1.00  0.00    -0.248 NA
ATOM     57  C   UNL A   1      42.577  30.266  35.304  1.00  0.00     0.031 C 
ATOM     58  C   UNL A   1      44.695  26.286  31.230  1.00  0.00     0.029 A 
ATOM     59  C   UNL A   1      43.926  27.251  31.859  1.00  0.00     0.049 A 
ATOM     60  H   UNL A   1      42.237  28.286  31.124  1.00  0.00     0.167 HD
ATOM     61  C   UNL A   1      43.313  28.792  33.707  1.00  0.00     0.074 A 
ATOM     62  C   UNL A   1      43.495  29.350  35.031  1.00  0.00     0.031 C 
ATOM     63  C   UNL A   1      44.080  27.801  33.185  1.00  0.00     0.034 A 
BRANCH  50  64
ATOM     64  C   UNL A   1      42.496  26.149  27.414  1.00  0.00     0.023 A 
ATOM     65  C   UNL A   1      42.040  24.822  27.349  1.00  0.00     0.031 A 
ATOM     66  C   UNL A   1      43.235  26.643  26.321  1.00  0.00     0.131 A 
ATOM     67  C   UNL A   1      42.383  24.016  26.250  1.00  0.00     0.055 A 
ATOM     68  C   UNL A   1      43.506  25.860  25.198  1.00  0.00     0.041 A 
ATOM     69  F   UNL A   1      43.716  27.896  26.332  1.00  0.00    -0.206 F 
ATOM     70  C   UNL A   1      43.091  24.533  25.163  1.00  0.00     0.022 A 
BRANCH  67  71
ATOM     71  S   UNL A   1      42.005  22.243  26.319  1.00  0.00     0.124 S 
ATOM     72  O   UNL A   1      42.965  21.698  25.362  1.00  0.00    -0.237 OA
ATOM     73  O   UNL A   1      42.245  21.922  27.721  1.00  0.00    -0.237 OA
ATOM     74  O   UNL A   1      40.607  22.173  25.894  1.00  0.00    -0.744 OA
ENDBRANCH  67  71
ENDBRANCH  50  64
BRANCH  51  75
ATOM     75  C   UNL A   1      40.312  32.119  35.162  1.00  0.00     0.023 A 
ATOM     76  C   UNL A   1      39.353  31.679  36.088  1.00  0.00     0.031 A 
ATOM     77  C   UNL A   1      40.900  33.382  35.371  1.00  0.00     0.131 A 
ATOM     78  C   UNL A   1      38.991  32.507  37.162  1.00  0.00     0.055 A 
ATOM     79  C   UNL A   1      40.578  34.174  36.472  1.00  0.00     0.041 A 
ATOM     80  F   UNL A   1      41.818  33.854  34.512  1.00  0.00    -0.206 F 
ATOM     81  C   UNL A   1      39.609  33.742  37.371  1.00  0.00     0.022 A 
BRANCH  78  82
ATOM     82  S   UNL A   1      37.637  31.979  38.247  1.00  0.00     0.124 S 
ATOM     83  O   UNL A   1      36.630  33.003  37.985  1.00  0.00    -0.237 OA
ATOM     84  O   UNL A   1      37.342  30.644  37.737  1.00  0.00    -0.237 OA
ATOM     85  O   UNL A   1      38.234  32.018  39.580  1.00  0.00    -0.744 OA
ENDBRANCH  78  82
ENDBRANCH  51  75
BRANCH  63  86
ATOM     86  C   UNL A   1      45.207  27.295  34.049  1.00  0.00     0.023 A 
ATOM     87  C   UNL A   1      45.028  26.221  34.940  1.00  0.00     0.031 A 
ATOM     88  C   UNL A   1      46.465  27.921  34.010  1.00  0.00     0.131 A 
ATOM     89  C   UNL A   1      46.073  25.845  35.798  1.00  0.00     0.055 A 
ATOM     90  C   UNL A   1      47.518  27.504  34.824  1.00  0.00     0.041 A 
ATOM     91  F   UNL A   1      46.688  28.954  33.182  1.00  0.00    -0.206 F 
ATOM     92  C   UNL A   1      47.322  26.469  35.735  1.00  0.00     0.022 A 
BRANCH  89  93
ATOM     93  S   UNL A   1      45.748  24.591  37.068  1.00  0.00     0.124 S 
ATOM     94  O   UNL A   1      45.560  25.411  38.261  1.00  0.00    -0.237 OA
ATOM     95  O   UNL A   1      44.554  23.928  36.555  1.00  0.00    -0.237 OA
ATOM     96  O   UNL A   1      46.961  23.775  37.061  1.00  0.00    -0.744 OA
ENDBRANCH  89  93
ENDBRANCH  63  86
ENDBRANCH  37  38
ENDBRANCH  30  32
ENDBRANCH  29  30
ENDBRANCH  28  29
ENDBRANCH   1  28
TORSDOF 20
ENDMDL
MODEL 3
REMARK VINA RESULT:     -12.2      4.524      9.358
REMARK SMILES CC(C)COc1cccc(C(=O)Nc2ccc(O)c(C(=O)OCCOC(=O)c3ccc(-c4c5nc(c(-c6cc(S(=O)(=O)[O-])ccc6F)c6ccc([nH]6)c(-c6cc(S(=O)(=O)[O-])ccc6F)c6nc(c(-c7cc(S(=O)(=O)[O-])ccc7F)c7ccc4[nH]7)C=C6)C=C5)cc3)c2)c1
REMARK SMILES IDX 23 1 22 2 20 3 21 4 19 5 14 6 15 7 91 8 16 9 17 10 13 11
REMARK SMILES IDX 11 12 12 13 10 15 6 16 7 17 92 18 8 19 9 20 5 21 4 22 2 23
REMARK SMILES IDX 1 24 3 25 18 26 24 28 25 29 26 30 27 31 28 32 29 33 90 34
REMARK SMILES IDX 30 35 89 36 31 37 32 38 33 39 83 40 34 41 88 42 82 43 84 44
REMARK SMILES IDX 35 45 87 46 81 47 80 48 36 50 68 51 48 52 67 53 49 54 52 55
REMARK SMILES IDX 66 56 85 57 50 58 51 59 65 61 86 62 53 63 37 64 38 65 46 66
REMARK SMILES IDX 39 67 45 68 47 69 44 70 40 71 41 72 42 73 43 74 69 75 70 76
REMARK SMILES IDX 78 77 71 78 77 79 79 80 76 81 72 82 73 83 74 84 75 85 54 86
REMARK SMILES IDX 55 87 63 88 56 89 62 90 64 91 61 92 57 93 58 94 59 95 60 96
REMARK H PARENT 13 14 18 27 84 49 52 60
REMARK Flexibility Score: inf
ROOT
ATOM      1  C   UNL A   1      31.896  27.369  26.445  1.00  0.00     0.275 C 
ENDROOT
BRANCH   1   2
ATOM      2  O   UNL A   1      30.886  26.831  25.564  1.00  0.00    -0.458 OA
BRANCH   2   3
ATOM      3  C   UNL A   1      30.368  25.665  25.999  1.00  0.00     0.342 C 
ATOM      4  O   UNL A   1      29.504  25.543  26.856  1.00  0.00    -0.246 OA
BRANCH   3   5
ATOM      5  C   UNL A   1      31.008  24.475  25.435  1.00  0.00     0.103 A 
ATOM      6  C   UNL A   1      32.389  23.796  23.580  1.00  0.00     0.042 A 
ATOM      7  C   UNL A   1      32.998  22.828  24.386  1.00  0.00     0.030 A 
ATOM      8  C   UNL A   1      31.315  24.538  24.071  1.00  0.00     0.045 A 
ATOM      9  C   UNL A   1      32.630  22.707  25.728  1.00  0.00     0.049 A 
ATOM     10  C   UNL A   1      31.667  23.557  26.262  1.00  0.00     0.130 A 
BRANCH   6  11
ATOM     11  N   UNL A   1      32.972  24.061  22.331  1.00  0.00    -0.322 N 
ATOM     12  C   UNL A   1      32.871  25.147  21.479  1.00  0.00     0.255 C 
ATOM     13  O   UNL A   1      33.253  25.004  20.314  1.00  0.00    -0.269 OA
ATOM     14  H   UNL A   1      33.559  23.343  22.000  1.00  0.00     0.170 HD
BRANCH  12  15
ATOM     15  C   UNL A   1      32.450  26.520  21.920  1.00  0.00     0.043 A 
ATOM     16  C   UNL A   1      30.767  28.227  22.367  1.00  0.00     0.120 A 
ATOM     17  C   UNL A   1      31.746  29.096  22.830  1.00  0.00     0.046 A 
ATOM     18  C   UNL A   1      31.122  26.951  21.937  1.00  0.00     0.060 A 
ATOM     19  C   UNL A   1      33.072  28.667  22.890  1.00  0.00     0.005 A 
ATOM     20  C   UNL A   1      33.423  27.390  22.432  1.00  0.00     0.014 A 
BRANCH  16  21
ATOM     21  O   UNL A   1      29.498  28.696  22.179  1.00  0.00    -0.493 OA
BRANCH  21  22
ATOM     22  C   UNL A   1      28.997  29.551  23.223  1.00  0.00     0.232 C 
BRANCH  22  23
ATOM     23  C   UNL A   1      28.087  30.689  22.710  1.00  0.00     0.020 C 
ATOM     24  C   UNL A   1      28.531  32.051  23.256  1.00  0.00     0.011 C 
ATOM     25  C   UNL A   1      28.091  30.770  21.181  1.00  0.00     0.011 C 
ENDBRANCH  22  23
ENDBRANCH  21  22
ENDBRANCH  16  21
ENDBRANCH  12  15
ENDBRANCH   6  11
BRANCH  10  26
ATOM     26  O   UNL A   1      31.477  23.456  27.609  1.00  0.00    -0.507 OA
ATOM     27  H   UNL A   1      31.248  24.216  28.108  1.00  0.00     0.293 HD
ENDBRANCH  10  26
ENDBRANCH   3   5
ENDBRANCH   2   3
ENDBRANCH   1   2
BRANCH   1  28
ATOM     28  C   UNL A   1      31.647  28.833  26.825  1.00  0.00     0.275 C 
BRANCH  28  29
ATOM     29  O   UNL A   1      32.542  29.743  26.149  1.00  0.00    -0.458 OA
BRANCH  29  30
ATOM     30  C   UNL A   1      32.959  30.799  26.888  1.00  0.00     0.338 C 
ATOM     31  O   UNL A   1      32.289  31.758  27.227  1.00  0.00    -0.246 OA
BRANCH  30  32
ATOM     32  C   UNL A   1      34.362  30.647  27.333  1.00  0.00     0.060 A 
ATOM     33  C   UNL A   1      34.907  29.377  27.501  1.00  0.00     0.016 A 
ATOM     34  C   UNL A   1      35.051  31.761  27.814  1.00  0.00     0.016 A 
ATOM     35  C   UNL A   1      36.071  29.208  28.245  1.00  0.00     0.010 A 
ATOM     36  C   UNL A   1      36.291  31.595  28.447  1.00  0.00     0.010 A 
ATOM     37  C   UNL A   1      36.803  30.310  28.700  1.00  0.00    -0.014 A 
BRANCH  37  38
ATOM     38  C   UNL A   1      38.083  30.116  29.443  1.00  0.00     0.031 A 
ATOM     39  C   UNL A   1      39.178  29.259  28.861  1.00  0.00     0.074 A 
ATOM     40  C   UNL A   1      38.275  30.707  30.641  1.00  0.00     0.049 A 
ATOM     41  N   UNL A   1      40.233  28.750  29.445  1.00  0.00    -0.248 NA
ATOM     42  C   UNL A   1      39.058  28.916  27.436  1.00  0.00     0.031 C 
ATOM     43  C   UNL A   1      37.341  31.627  31.295  1.00  0.00     0.029 A 
ATOM     44  N   UNL A   1      39.320  30.620  31.529  1.00  0.00    -0.354 N 
ATOM     45  C   UNL A   1      40.868  27.975  28.480  1.00  0.00     0.074 A 
ATOM     46  C   UNL A   1      40.076  28.084  27.271  1.00  0.00     0.031 C 
ATOM     47  C   UNL A   1      37.866  32.042  32.456  1.00  0.00     0.029 A 
ATOM     48  C   UNL A   1      39.110  31.325  32.693  1.00  0.00     0.049 A 
ATOM     49  H   UNL A   1      40.139  30.105  31.350  1.00  0.00     0.167 HD
ATOM     50  C   UNL A   1      42.001  27.234  28.600  1.00  0.00     0.034 A 
ATOM     51  C   UNL A   1      39.793  31.339  33.854  1.00  0.00     0.034 A 
ATOM     52  C   UNL A   1      42.799  27.180  29.804  1.00  0.00     0.049 A 
ATOM     53  C   UNL A   1      41.003  30.457  33.993  1.00  0.00     0.074 A 
ATOM     54  C   UNL A   1      43.965  26.470  30.037  1.00  0.00     0.029 A 
ATOM     55  N   UNL A   1      42.518  27.869  30.979  1.00  0.00    -0.354 N 
ATOM     56  N   UNL A   1      41.540  29.648  33.110  1.00  0.00    -0.248 NA
ATOM     57  C   UNL A   1      41.686  30.474  35.292  1.00  0.00     0.031 C 
ATOM     58  C   UNL A   1      44.354  26.681  31.365  1.00  0.00     0.029 A 
ATOM     59  C   UNL A   1      43.474  27.580  31.944  1.00  0.00     0.049 A 
ATOM     60  H   UNL A   1      41.753  28.474  31.108  1.00  0.00     0.167 HD
ATOM     61  C   UNL A   1      42.631  29.065  33.746  1.00  0.00     0.074 A 
ATOM     62  C   UNL A   1      42.690  29.636  35.077  1.00  0.00     0.031 C 
ATOM     63  C   UNL A   1      43.506  28.140  33.274  1.00  0.00     0.034 A 
BRANCH  50  64
ATOM     64  C   UNL A   1      42.400  26.368  27.428  1.00  0.00     0.023 A 
ATOM     65  C   UNL A   1      42.012  25.021  27.317  1.00  0.00     0.031 A 
ATOM     66  C   UNL A   1      43.206  26.905  26.405  1.00  0.00     0.131 A 
ATOM     67  C   UNL A   1      42.483  24.243  26.246  1.00  0.00     0.055 A 
ATOM     68  C   UNL A   1      43.607  26.146  25.304  1.00  0.00     0.041 A 
ATOM     69  F   UNL A   1      43.626  28.178  26.465  1.00  0.00    -0.206 F 
ATOM     70  C   UNL A   1      43.257  24.802  25.226  1.00  0.00     0.022 A 
BRANCH  67  71
ATOM     71  S   UNL A   1      42.182  22.454  26.271  1.00  0.00     0.124 S 
ATOM     72  O   UNL A   1      43.072  21.989  25.209  1.00  0.00    -0.237 OA
ATOM     73  O   UNL A   1      42.562  22.089  27.631  1.00  0.00    -0.237 OA
ATOM     74  O   UNL A   1      40.755  22.342  25.971  1.00  0.00    -0.744 OA
ENDBRANCH  67  71
ENDBRANCH  50  64
BRANCH  51  75
ATOM     75  C   UNL A   1      39.290  32.137  35.010  1.00  0.00     0.023 A 
ATOM     76  C   UNL A   1      39.753  33.440  35.251  1.00  0.00     0.031 A 
ATOM     77  C   UNL A   1      38.352  31.594  35.909  1.00  0.00     0.131 A 
ATOM     78  C   UNL A   1      39.299  34.144  36.377  1.00  0.00     0.055 A 
ATOM     79  C   UNL A   1      37.860  32.321  36.993  1.00  0.00     0.041 A 
ATOM     80  F   UNL A   1      37.880  30.350  35.730  1.00  0.00    -0.206 F 
ATOM     81  C   UNL A   1      38.343  33.601  37.238  1.00  0.00     0.022 A 
BRANCH  78  82
ATOM     82  S   UNL A   1      40.036  35.759  36.746  1.00  0.00     0.124 S 
ATOM     83  O   UNL A   1      39.656  36.536  35.571  1.00  0.00    -0.237 OA
ATOM     84  O   UNL A   1      39.372  36.117  37.995  1.00  0.00    -0.237 OA
ATOM     85  O   UNL A   1      41.463  35.463  36.865  1.00  0.00    -0.744 OA
ENDBRANCH  78  82
ENDBRANCH  51  75
BRANCH  63  86
ATOM     86  C   UNL A   1      44.618  27.727  34.204  1.00  0.00     0.023 A 
ATOM     87  C   UNL A   1      44.508  26.591  35.026  1.00  0.00     0.031 A 
ATOM     88  C   UNL A   1      45.786  28.503  34.298  1.00  0.00     0.131 A 
ATOM     89  C   UNL A   1      45.523  26.298  35.950  1.00  0.00     0.055 A 
ATOM     90  C   UNL A   1      46.818  28.172  35.177  1.00  0.00     0.041 A 
ATOM     91  F   UNL A   1      45.940  29.600  33.541  1.00  0.00    -0.206 F 
ATOM     92  C   UNL A   1      46.684  27.071  36.020  1.00  0.00     0.022 A 
BRANCH  89  93
ATOM     93  S   UNL A   1      45.262  24.944  37.130  1.00  0.00     0.124 S 
ATOM     94  O   UNL A   1      44.246  24.145  36.453  1.00  0.00    -0.237 OA
ATOM     95  O   UNL A   1      46.590  24.346  37.219  1.00  0.00    -0.237 OA
ATOM     96  O   UNL A   1      44.809  25.628  38.340  1.00  0.00    -0.744 OA
ENDBRANCH  89  93
ENDBRANCH  63  86
ENDBRANCH  37  38
ENDBRANCH  30  32
ENDBRANCH  29  30
ENDBRANCH  28  29
ENDBRANCH   1  28
TORSDOF 20
ENDMDL
