MODEL 1
REMARK VINA RESULT:     -11.3      0.000      0.000
REMARK SMILES CCCc1cc(OC(F)(F)F)cc2c1O[C@@H](C(F)(F)F)C(C(=O)OCCOC(=O)c1ccc(-c3c4nc(c(-c5cc(S(=O)(=O)[O-])ccc5F)c5ccc([nH]5)c(-c5cc(S(=O)(=O)[O-])ccc5F)c5nc(c(-c6cc(S(=O)(=O)[O-])ccc6F)c6ccc3[nH]6)C=C5)C=C4)cc1)=C2
REMARK SMILES IDX 26 1 25 2 24 3 22 4 23 5 21 6 4 7 5 8 14 9 6 10 13 11 15 12
REMARK SMILES IDX 12 13 93 14 16 15 3 16 2 17 1 18 7 19 8 20 9 21 10 22 11 23
REMARK SMILES IDX 17 24 18 25 19 26 20 27 27 28 28 29 29 30 30 31 31 32 92 33
REMARK SMILES IDX 32 34 91 35 33 36 34 37 35 38 85 39 36 40 90 41 84 42 86 43
REMARK SMILES IDX 37 44 89 45 83 46 82 47 38 49 70 50 50 51 69 52 51 53 54 54
REMARK SMILES IDX 68 55 87 56 52 57 53 58 67 60 88 61 55 62 39 63 40 64 48 65
REMARK SMILES IDX 41 66 47 67 49 68 46 69 42 70 43 71 44 72 45 73 71 74 72 75
REMARK SMILES IDX 80 76 73 77 79 78 81 79 78 80 74 81 75 82 76 83 77 84 56 85
REMARK SMILES IDX 57 86 65 87 58 88 64 89 66 90 63 91 59 92 60 93 61 94 62 95
REMARK H PARENT 86 48 54 59
REMARK Flexibility Score: inf
ROOT
ATOM      1  C   UNL A   1      36.877  20.813  24.958  1.00  0.00     0.275 C 
ENDROOT
BRANCH   1   2
ATOM      2  C   UNL A   1      35.364  21.044  24.905  1.00  0.00     0.275 C 
BRANCH   2   3
ATOM      3  O   UNL A   1      35.039  22.430  25.134  1.00  0.00    -0.459 OA
BRANCH   3   4
ATOM      4  C   UNL A   1      33.715  22.714  25.193  1.00  0.00     0.338 C 
ATOM      5  O   UNL A   1      32.813  21.929  25.422  1.00  0.00    -0.246 OA
BRANCH   4   6
ATOM      6  C   UNL A   1      33.471  24.148  24.960  1.00  0.00     0.087 C 
ATOM      7  C   UNL A   1      33.194  28.190  23.920  1.00  0.00    -0.002 A 
ATOM      8  C   UNL A   1      33.385  29.162  24.922  1.00  0.00     0.054 A 
ATOM      9  C   UNL A   1      33.358  26.843  24.270  1.00  0.00     0.131 A 
ATOM     10  C   UNL A   1      33.712  28.798  26.233  1.00  0.00     0.130 A 
ATOM     11  C   UNL A   1      33.634  26.457  25.591  1.00  0.00     0.021 A 
ATOM     12  O   UNL A   1      33.308  25.923  23.265  1.00  0.00    -0.475 OA
ATOM     13  C   UNL A   1      33.805  27.442  26.566  1.00  0.00     0.058 A 
ATOM     14  C   UNL A   1      33.792  25.037  25.913  1.00  0.00     0.027 C 
ATOM     15  C   UNL A   1      32.922  24.580  23.626  1.00  0.00     0.316 C 
BRANCH   7  16
ATOM     16  C   UNL A   1      32.675  28.634  22.562  1.00  0.00     0.039 C 
BRANCH  16  17
ATOM     17  C   UNL A   1      31.204  29.051  22.422  1.00  0.00     0.001 C 
ATOM     18  C   UNL A   1      30.189  27.957  22.726  1.00  0.00     0.004 C 
ENDBRANCH  16  17
ENDBRANCH   7  16
BRANCH  10  19
ATOM     19  O   UNL A   1      33.944  29.655  27.272  1.00  0.00    -0.406 OA
BRANCH  19  20
ATOM     20  C   UNL A   1      35.293  29.945  27.598  1.00  0.00     0.573 C 
ATOM     21  F   UNL A   1      36.149  29.346  26.741  1.00  0.00    -0.132 F 
ATOM     22  F   UNL A   1      35.517  31.275  27.610  1.00  0.00    -0.132 F 
ATOM     23  F   UNL A   1      35.549  29.466  28.838  1.00  0.00    -0.132 F 
ENDBRANCH  19  20
ENDBRANCH  10  19
BRANCH  15  24
ATOM     24  C   UNL A   1      33.188  23.657  22.423  1.00  0.00     0.430 C 
ATOM     25  F   UNL A   1      34.459  23.192  22.423  1.00  0.00    -0.167 F 
ATOM     26  F   UNL A   1      32.392  22.560  22.479  1.00  0.00    -0.167 F 
ATOM     27  F   UNL A   1      32.955  24.265  21.241  1.00  0.00    -0.167 F 
ENDBRANCH  15  24
ENDBRANCH   4   6
ENDBRANCH   3   4
ENDBRANCH   2   3
ENDBRANCH   1   2
BRANCH   1  28
ATOM     28  O   UNL A   1      37.547  21.875  25.668  1.00  0.00    -0.458 OA
BRANCH  28  29
ATOM     29  C   UNL A   1      38.808  21.575  26.068  1.00  0.00     0.338 C 
ATOM     30  O   UNL A   1      39.407  20.533  25.847  1.00  0.00    -0.246 OA
BRANCH  29  31
ATOM     31  C   UNL A   1      39.473  22.762  26.641  1.00  0.00     0.060 A 
ATOM     32  C   UNL A   1      39.068  23.995  26.130  1.00  0.00     0.016 A 
ATOM     33  C   UNL A   1      40.494  22.707  27.591  1.00  0.00     0.016 A 
ATOM     34  C   UNL A   1      39.599  25.185  26.619  1.00  0.00     0.010 A 
ATOM     35  C   UNL A   1      41.089  23.904  28.031  1.00  0.00     0.010 A 
ATOM     36  C   UNL A   1      40.635  25.151  27.556  1.00  0.00    -0.014 A 
BRANCH  36  37
ATOM     37  C   UNL A   1      41.332  26.424  27.876  1.00  0.00     0.031 A 
ATOM     38  C   UNL A   1      40.582  27.486  28.632  1.00  0.00     0.074 A 
ATOM     39  C   UNL A   1      42.640  26.593  27.606  1.00  0.00     0.049 A 
ATOM     40  N   UNL A   1      40.976  28.673  29.015  1.00  0.00    -0.248 NA
ATOM     41  C   UNL A   1      39.206  27.148  29.027  1.00  0.00     0.031 C 
ATOM     42  C   UNL A   1      43.511  25.592  26.993  1.00  0.00     0.029 A 
ATOM     43  N   UNL A   1      43.468  27.668  27.826  1.00  0.00    -0.354 N 
ATOM     44  C   UNL A   1      39.898  29.228  29.697  1.00  0.00     0.074 A 
ATOM     45  C   UNL A   1      38.828  28.252  29.655  1.00  0.00     0.031 C 
ATOM     46  C   UNL A   1      44.748  26.106  26.874  1.00  0.00     0.029 A 
ATOM     47  C   UNL A   1      44.750  27.485  27.358  1.00  0.00     0.049 A 
ATOM     48  H   UNL A   1      43.172  28.491  28.277  1.00  0.00     0.167 HD
ATOM     49  C   UNL A   1      39.808  30.439  30.301  1.00  0.00     0.034 A 
ATOM     50  C   UNL A   1      45.791  28.343  27.298  1.00  0.00     0.034 A 
ATOM     51  C   UNL A   1      40.871  31.415  30.310  1.00  0.00     0.049 A 
ATOM     52  C   UNL A   1      45.619  29.744  27.847  1.00  0.00     0.074 A 
ATOM     53  C   UNL A   1      40.868  32.689  30.850  1.00  0.00     0.029 A 
ATOM     54  N   UNL A   1      42.126  31.234  29.739  1.00  0.00    -0.354 N 
ATOM     55  N   UNL A   1      44.579  30.279  28.447  1.00  0.00    -0.248 NA
ATOM     56  C   UNL A   1      46.766  30.653  27.718  1.00  0.00     0.031 C 
ATOM     57  C   UNL A   1      42.084  33.305  30.536  1.00  0.00     0.029 A 
ATOM     58  C   UNL A   1      42.889  32.383  29.886  1.00  0.00     0.049 A 
ATOM     59  H   UNL A   1      42.429  30.409  29.294  1.00  0.00     0.167 HD
ATOM     60  C   UNL A   1      44.966  31.570  28.803  1.00  0.00     0.074 A 
ATOM     61  C   UNL A   1      46.337  31.727  28.362  1.00  0.00     0.031 C 
ATOM     62  C   UNL A   1      44.256  32.535  29.444  1.00  0.00     0.034 A 
BRANCH  49  63
ATOM     63  C   UNL A   1      38.480  30.801  30.922  1.00  0.00     0.023 A 
ATOM     64  C   UNL A   1      37.581  31.683  30.298  1.00  0.00     0.031 A 
ATOM     65  C   UNL A   1      38.131  30.290  32.185  1.00  0.00     0.131 A 
ATOM     66  C   UNL A   1      36.415  32.084  30.970  1.00  0.00     0.055 A 
ATOM     67  C   UNL A   1      36.930  30.626  32.810  1.00  0.00     0.041 A 
ATOM     68  F   UNL A   1      38.964  29.466  32.842  1.00  0.00    -0.206 F 
ATOM     69  C   UNL A   1      36.071  31.540  32.209  1.00  0.00     0.022 A 
BRANCH  66  70
ATOM     70  S   UNL A   1      35.436  33.443  30.275  1.00  0.00     0.124 S 
ATOM     71  O   UNL A   1      36.258  33.847  29.136  1.00  0.00    -0.237 OA
ATOM     72  O   UNL A   1      34.173  32.790  29.951  1.00  0.00    -0.237 OA
ATOM     73  O   UNL A   1      35.375  34.415  31.364  1.00  0.00    -0.744 OA
ENDBRANCH  66  70
ENDBRANCH  49  63
BRANCH  50  74
ATOM     74  C   UNL A   1      47.071  27.951  26.633  1.00  0.00     0.023 A 
ATOM     75  C   UNL A   1      47.243  28.058  25.243  1.00  0.00     0.031 A 
ATOM     76  C   UNL A   1      48.112  27.362  27.377  1.00  0.00     0.131 A 
ATOM     77  C   UNL A   1      48.397  27.533  24.635  1.00  0.00     0.055 A 
ATOM     78  C   UNL A   1      49.285  26.902  26.776  1.00  0.00     0.041 A 
ATOM     79  F   UNL A   1      47.998  27.216  28.706  1.00  0.00    -0.206 F 
ATOM     80  C   UNL A   1      49.424  26.970  25.394  1.00  0.00     0.022 A 
BRANCH  77  81
ATOM     81  S   UNL A   1      48.485  27.487  22.822  1.00  0.00     0.124 S 
ATOM     82  O   UNL A   1      47.304  28.258  22.450  1.00  0.00    -0.237 OA
ATOM     83  O   UNL A   1      49.772  28.120  22.563  1.00  0.00    -0.237 OA
ATOM     84  O   UNL A   1      48.421  26.059  22.514  1.00  0.00    -0.744 OA
ENDBRANCH  77  81
ENDBRANCH  50  74
BRANCH  62  85
ATOM     85  C   UNL A   1      44.976  33.825  29.773  1.00  0.00     0.023 A 
ATOM     86  C   UNL A   1      44.963  34.936  28.909  1.00  0.00     0.031 A 
ATOM     87  C   UNL A   1      45.708  33.936  30.971  1.00  0.00     0.131 A 
ATOM     88  C   UNL A   1      45.720  36.076  29.221  1.00  0.00     0.055 A 
ATOM     89  C   UNL A   1      46.398  35.100  31.311  1.00  0.00     0.041 A 
ATOM     90  F   UNL A   1      45.763  32.910  31.835  1.00  0.00    -0.206 F 
ATOM     91  C   UNL A   1      46.422  36.173  30.425  1.00  0.00     0.022 A 
BRANCH  88  92
ATOM     92  S   UNL A   1      45.877  37.388  27.977  1.00  0.00     0.124 S 
ATOM     93  O   UNL A   1      45.397  36.721  26.771  1.00  0.00    -0.237 OA
ATOM     94  O   UNL A   1      45.012  38.432  28.515  1.00  0.00    -0.237 OA
ATOM     95  O   UNL A   1      47.304  37.701  27.986  1.00  0.00    -0.744 OA
ENDBRANCH  88  92
ENDBRANCH  62  85
ENDBRANCH  36  37
ENDBRANCH  29  31
ENDBRANCH  28  29
ENDBRANCH   1  28
TORSDOF 19
ENDMDL
MODEL 2
REMARK VINA RESULT:     -11.2      1.454      7.458
REMARK SMILES CCCc1cc(OC(F)(F)F)cc2c1O[C@@H](C(F)(F)F)C(C(=O)OCCOC(=O)c1ccc(-c3c4nc(c(-c5cc(S(=O)(=O)[O-])ccc5F)c5ccc([nH]5)c(-c5cc(S(=O)(=O)[O-])ccc5F)c5nc(c(-c6cc(S(=O)(=O)[O-])ccc6F)c6ccc3[nH]6)C=C5)C=C4)cc1)=C2
REMARK SMILES IDX 26 1 25 2 24 3 22 4 23 5 21 6 4 7 5 8 14 9 6 10 13 11 15 12
REMARK SMILES IDX 12 13 93 14 16 15 3 16 2 17 1 18 7 19 8 20 9 21 10 22 11 23
REMARK SMILES IDX 17 24 18 25 19 26 20 27 27 28 28 29 29 30 30 31 31 32 92 33
REMARK SMILES IDX 32 34 91 35 33 36 34 37 35 38 85 39 36 40 90 41 84 42 86 43
REMARK SMILES IDX 37 44 89 45 83 46 82 47 38 49 70 50 50 51 69 52 51 53 54 54
REMARK SMILES IDX 68 55 87 56 52 57 53 58 67 60 88 61 55 62 39 63 40 64 48 65
REMARK SMILES IDX 41 66 47 67 49 68 46 69 42 70 43 71 44 72 45 73 71 74 72 75
REMARK SMILES IDX 80 76 73 77 79 78 81 79 78 80 74 81 75 82 76 83 77 84 56 85
REMARK SMILES IDX 57 86 65 87 58 88 64 89 66 90 63 91 59 92 60 93 61 94 62 95
REMARK H PARENT 86 48 54 59
REMARK Flexibility Score: inf
ROOT
ATOM      1  C   UNL A   1      37.141  20.989  24.926  1.00  0.00     0.275 C 
ENDROOT
BRANCH   1   2
ATOM      2  C   UNL A   1      35.621  21.162  24.849  1.00  0.00     0.275 C 
BRANCH   2   3
ATOM      3  O   UNL A   1      35.240  22.535  25.073  1.00  0.00    -0.459 OA
BRANCH   3   4
ATOM      4  C   UNL A   1      33.906  22.764  25.143  1.00  0.00     0.338 C 
ATOM      5  O   UNL A   1      33.038  21.940  25.367  1.00  0.00    -0.246 OA
BRANCH   4   6
ATOM      6  C   UNL A   1      33.603  24.189  24.931  1.00  0.00     0.087 C 
ATOM      7  C   UNL A   1      33.149  28.228  23.941  1.00  0.00    -0.002 A 
ATOM      8  C   UNL A   1      33.321  29.196  24.950  1.00  0.00     0.054 A 
ATOM      9  C   UNL A   1      33.372  26.885  24.273  1.00  0.00     0.131 A 
ATOM     10  C   UNL A   1      33.687  28.832  26.251  1.00  0.00     0.130 A 
ATOM     11  C   UNL A   1      33.688  26.496  25.585  1.00  0.00     0.021 A 
ATOM     12  O   UNL A   1      33.339  25.974  23.259  1.00  0.00    -0.475 OA
ATOM     13  C   UNL A   1      33.838  27.477  26.567  1.00  0.00     0.058 A 
ATOM     14  C   UNL A   1      33.907  25.080  25.888  1.00  0.00     0.027 C 
ATOM     15  C   UNL A   1      33.012  24.614  23.612  1.00  0.00     0.316 C 
BRANCH   7  16
ATOM     16  C   UNL A   1      32.588  28.666  22.598  1.00  0.00     0.039 C 
BRANCH  16  17
ATOM     17  C   UNL A   1      31.087  28.961  22.474  1.00  0.00     0.001 C 
ATOM     18  C   UNL A   1      30.184  28.116  23.363  1.00  0.00     0.004 C 
ENDBRANCH  16  17
ENDBRANCH   7  16
BRANCH  10  19
ATOM     19  O   UNL A   1      33.904  29.686  27.295  1.00  0.00    -0.406 OA
BRANCH  19  20
ATOM     20  C   UNL A   1      35.249  29.941  27.668  1.00  0.00     0.573 C 
ATOM     21  F   UNL A   1      35.582  29.280  28.798  1.00  0.00    -0.132 F 
ATOM     22  F   UNL A   1      36.101  29.607  26.678  1.00  0.00    -0.132 F 
ATOM     23  F   UNL A   1      35.384  31.265  27.909  1.00  0.00    -0.132 F 
ENDBRANCH  19  20
ENDBRANCH  10  19
BRANCH  15  24
ATOM     24  C   UNL A   1      33.291  23.714  22.395  1.00  0.00     0.430 C 
ATOM     25  F   UNL A   1      34.581  23.304  22.361  1.00  0.00    -0.167 F 
ATOM     26  F   UNL A   1      32.545  22.584  22.456  1.00  0.00    -0.167 F 
ATOM     27  F   UNL A   1      33.007  24.323  21.224  1.00  0.00    -0.167 F 
ENDBRANCH  15  24
ENDBRANCH   4   6
ENDBRANCH   3   4
ENDBRANCH   2   3
ENDBRANCH   1   2
BRANCH   1  28
ATOM     28  O   UNL A   1      37.707  21.771  25.998  1.00  0.00    -0.458 OA
BRANCH  28  29
ATOM     29  C   UNL A   1      39.033  21.572  26.199  1.00  0.00     0.338 C 
ATOM     30  O   UNL A   1      39.676  20.591  25.858  1.00  0.00    -0.246 OA
BRANCH  29  31
ATOM     31  C   UNL A   1      39.676  22.800  26.708  1.00  0.00     0.060 A 
ATOM     32  C   UNL A   1      39.243  23.997  26.138  1.00  0.00     0.016 A 
ATOM     33  C   UNL A   1      40.702  22.813  27.654  1.00  0.00     0.016 A 
ATOM     34  C   UNL A   1      39.752  25.221  26.564  1.00  0.00     0.010 A 
ATOM     35  C   UNL A   1      41.274  24.043  28.030  1.00  0.00     0.010 A 
ATOM     36  C   UNL A   1      40.793  25.255  27.495  1.00  0.00    -0.014 A 
BRANCH  36  37
ATOM     37  C   UNL A   1      41.465  26.556  27.747  1.00  0.00     0.031 A 
ATOM     38  C   UNL A   1      42.831  26.788  27.162  1.00  0.00     0.074 A 
ATOM     39  C   UNL A   1      40.831  27.560  28.384  1.00  0.00     0.049 A 
ATOM     40  N   UNL A   1      43.611  27.834  27.253  1.00  0.00    -0.248 NA
ATOM     41  C   UNL A   1      43.378  25.694  26.345  1.00  0.00     0.031 C 
ATOM     42  C   UNL A   1      39.459  27.506  28.885  1.00  0.00     0.029 A 
ATOM     43  N   UNL A   1      41.256  28.827  28.705  1.00  0.00    -0.354 N 
ATOM     44  C   UNL A   1      44.744  27.528  26.506  1.00  0.00     0.074 A 
ATOM     45  C   UNL A   1      44.553  26.189  25.987  1.00  0.00     0.031 C 
ATOM     46  C   UNL A   1      39.161  28.684  29.463  1.00  0.00     0.029 A 
ATOM     47  C   UNL A   1      40.332  29.559  29.415  1.00  0.00     0.049 A 
ATOM     48  H   UNL A   1      42.140  29.178  28.449  1.00  0.00     0.167 HD
ATOM     49  C   UNL A   1      45.840  28.292  26.275  1.00  0.00     0.034 A 
ATOM     50  C   UNL A   1      40.432  30.778  29.986  1.00  0.00     0.034 A 
ATOM     51  C   UNL A   1      46.031  29.612  26.823  1.00  0.00     0.049 A 
ATOM     52  C   UNL A   1      41.725  31.552  29.840  1.00  0.00     0.074 A 
ATOM     53  C   UNL A   1      47.124  30.452  26.692  1.00  0.00     0.029 A 
ATOM     54  N   UNL A   1      45.113  30.286  27.622  1.00  0.00    -0.354 N 
ATOM     55  N   UNL A   1      42.812  31.234  29.172  1.00  0.00    -0.248 NA
ATOM     56  C   UNL A   1      41.800  32.853  30.517  1.00  0.00     0.031 C 
ATOM     57  C   UNL A   1      46.903  31.590  27.473  1.00  0.00     0.029 A 
ATOM     58  C   UNL A   1      45.630  31.512  28.015  1.00  0.00     0.049 A 
ATOM     59  H   UNL A   1      44.225  29.941  27.872  1.00  0.00     0.167 HD
ATOM     60  C   UNL A   1      43.678  32.318  29.317  1.00  0.00     0.074 A 
ATOM     61  C   UNL A   1      42.983  33.299  30.122  1.00  0.00     0.031 C 
ATOM     62  C   UNL A   1      44.932  32.488  28.820  1.00  0.00     0.034 A 
BRANCH  49  63
ATOM     63  C   UNL A   1      46.952  27.671  25.464  1.00  0.00     0.023 A 
ATOM     64  C   UNL A   1      47.221  28.065  24.142  1.00  0.00     0.031 A 
ATOM     65  C   UNL A   1      47.724  26.629  26.010  1.00  0.00     0.131 A 
ATOM     66  C   UNL A   1      48.183  27.374  23.388  1.00  0.00     0.055 A 
ATOM     67  C   UNL A   1      48.737  26.004  25.283  1.00  0.00     0.041 A 
ATOM     68  F   UNL A   1      47.493  26.189  27.257  1.00  0.00    -0.206 F 
ATOM     69  C   UNL A   1      48.962  26.365  23.959  1.00  0.00     0.022 A 
BRANCH  66  70
ATOM     70  S   UNL A   1      48.294  27.705  21.608  1.00  0.00     0.124 S 
ATOM     71  O   UNL A   1      46.961  28.232  21.323  1.00  0.00    -0.237 OA
ATOM     72  O   UNL A   1      49.390  28.664  21.532  1.00  0.00    -0.237 OA
ATOM     73  O   UNL A   1      48.572  26.391  21.031  1.00  0.00    -0.744 OA
ENDBRANCH  66  70
ENDBRANCH  49  63
BRANCH  50  74
ATOM     74  C   UNL A   1      39.319  31.330  30.818  1.00  0.00     0.023 A 
ATOM     75  C   UNL A   1      39.373  31.322  32.222  1.00  0.00     0.031 A 
ATOM     76  C   UNL A   1      38.131  31.782  30.212  1.00  0.00     0.131 A 
ATOM     77  C   UNL A   1      38.245  31.701  32.970  1.00  0.00     0.055 A 
ATOM     78  C   UNL A   1      37.036  32.220  30.960  1.00  0.00     0.041 A 
ATOM     79  F   UNL A   1      38.013  31.797  28.874  1.00  0.00    -0.206 F 
ATOM     80  C   UNL A   1      37.084  32.164  32.348  1.00  0.00     0.022 A 
BRANCH  77  81
ATOM     81  S   UNL A   1      38.272  31.466  34.770  1.00  0.00     0.124 S 
ATOM     82  O   UNL A   1      38.225  30.013  34.879  1.00  0.00    -0.237 OA
ATOM     83  O   UNL A   1      39.533  32.097  35.141  1.00  0.00    -0.237 OA
ATOM     84  O   UNL A   1      37.070  32.165  35.223  1.00  0.00    -0.744 OA
ENDBRANCH  77  81
ENDBRANCH  50  74
BRANCH  62  85
ATOM     85  C   UNL A   1      45.605  33.819  29.075  1.00  0.00     0.023 A 
ATOM     86  C   UNL A   1      45.450  34.919  28.211  1.00  0.00     0.031 A 
ATOM     87  C   UNL A   1      46.435  33.983  30.201  1.00  0.00     0.131 A 
ATOM     88  C   UNL A   1      46.167  36.103  28.447  1.00  0.00     0.055 A 
ATOM     89  C   UNL A   1      47.086  35.187  30.471  1.00  0.00     0.041 A 
ATOM     90  F   UNL A   1      46.626  32.971  31.062  1.00  0.00    -0.206 F 
ATOM     91  C   UNL A   1      46.969  36.251  29.581  1.00  0.00     0.022 A 
BRANCH  88  92
ATOM     92  S   UNL A   1      46.135  37.409  27.187  1.00  0.00     0.124 S 
ATOM     93  O   UNL A   1      46.900  38.470  27.831  1.00  0.00    -0.237 OA
ATOM     94  O   UNL A   1      46.779  36.759  26.049  1.00  0.00    -0.237 OA
ATOM     95  O   UNL A   1      44.710  37.687  27.015  1.00  0.00    -0.744 OA
ENDBRANCH  88  92
ENDBRANCH  62  85
ENDBRANCH  36  37
ENDBRANCH  29  31
ENDBRANCH  28  29
ENDBRANCH   1  28
TORSDOF 19
ENDMDL
MODEL 3
REMARK VINA RESULT:     -11.1      0.812      7.393
REMARK SMILES CCCc1cc(OC(F)(F)F)cc2c1O[C@@H](C(F)(F)F)C(C(=O)OCCOC(=O)c1ccc(-c3c4nc(c(-c5cc(S(=O)(=O)[O-])ccc5F)c5ccc([nH]5)c(-c5cc(S(=O)(=O)[O-])ccc5F)c5nc(c(-c6cc(S(=O)(=O)[O-])ccc6F)c6ccc3[nH]6)C=C5)C=C4)cc1)=C2
REMARK SMILES IDX 26 1 25 2 24 3 22 4 23 5 21 6 4 7 5 8 14 9 6 10 13 11 15 12
REMARK SMILES IDX 12 13 93 14 16 15 3 16 2 17 1 18 7 19 8 20 9 21 10 22 11 23
REMARK SMILES IDX 17 24 18 25 19 26 20 27 27 28 28 29 29 30 30 31 31 32 92 33
REMARK SMILES IDX 32 34 91 35 33 36 34 37 35 38 85 39 36 40 90 41 84 42 86 43
REMARK SMILES IDX 37 44 89 45 83 46 82 47 38 49 70 50 50 51 69 52 51 53 54 54
REMARK SMILES IDX 68 55 87 56 52 57 53 58 67 60 88 61 55 62 39 63 40 64 48 65
REMARK SMILES IDX 41 66 47 67 49 68 46 69 42 70 43 71 44 72 45 73 71 74 72 75
REMARK SMILES IDX 80 76 73 77 79 78 81 79 78 80 74 81 75 82 76 83 77 84 56 85
REMARK SMILES IDX 57 86 65 87 58 88 64 89 66 90 63 91 59 92 60 93 61 94 62 95
REMARK H PARENT 86 48 54 59
REMARK Flexibility Score: inf
ROOT
ATOM      1  C   UNL A   1      37.275  20.873  25.187  1.00  0.00     0.275 C 
ENDROOT
BRANCH   1   2
ATOM      2  C   UNL A   1      35.764  21.034  24.999  1.00  0.00     0.275 C 
BRANCH   2   3
ATOM      3  O   UNL A   1      35.334  22.366  25.347  1.00  0.00    -0.459 OA
BRANCH   3   4
ATOM      4  C   UNL A   1      33.992  22.553  25.380  1.00  0.00     0.338 C 
ATOM      5  O   UNL A   1      33.147  21.715  25.639  1.00  0.00    -0.246 OA
BRANCH   4   6
ATOM      6  C   UNL A   1      33.645  23.952  25.076  1.00  0.00     0.087 C 
ATOM      7  C   UNL A   1      33.078  27.905  23.833  1.00  0.00    -0.002 A 
ATOM      8  C   UNL A   1      33.197  28.938  24.785  1.00  0.00     0.054 A 
ATOM      9  C   UNL A   1      33.339  26.593  24.251  1.00  0.00     0.131 A 
ATOM     10  C   UNL A   1      33.547  28.665  26.112  1.00  0.00     0.130 A 
ATOM     11  C   UNL A   1      33.640  26.295  25.589  1.00  0.00     0.021 A 
ATOM     12  O   UNL A   1      33.358  25.623  23.293  1.00  0.00    -0.475 OA
ATOM     13  C   UNL A   1      33.737  27.338  26.513  1.00  0.00     0.058 A 
ATOM     14  C   UNL A   1      33.899  24.909  25.982  1.00  0.00     0.027 C 
ATOM     15  C   UNL A   1      33.069  24.276  23.722  1.00  0.00     0.316 C 
BRANCH   7  16
ATOM     16  C   UNL A   1      32.532  28.242  22.456  1.00  0.00     0.039 C 
BRANCH  16  17
ATOM     17  C   UNL A   1      31.036  28.547  22.298  1.00  0.00     0.001 C 
ATOM     18  C   UNL A   1      30.103  27.662  23.114  1.00  0.00     0.004 C 
ENDBRANCH  16  17
ENDBRANCH   7  16
BRANCH  10  19
ATOM     19  O   UNL A   1      33.714  29.588  27.106  1.00  0.00    -0.406 OA
BRANCH  19  20
ATOM     20  C   UNL A   1      35.041  29.940  27.462  1.00  0.00     0.573 C 
ATOM     21  F   UNL A   1      35.252  31.268  27.336  1.00  0.00    -0.132 F 
ATOM     22  F   UNL A   1      35.327  29.552  28.722  1.00  0.00    -0.132 F 
ATOM     23  F   UNL A   1      35.893  29.305  26.625  1.00  0.00    -0.132 F 
ENDBRANCH  19  20
ENDBRANCH  10  19
BRANCH  15  24
ATOM     24  C   UNL A   1      33.404  23.314  22.568  1.00  0.00     0.430 C 
ATOM     25  F   UNL A   1      33.129  23.866  21.363  1.00  0.00    -0.167 F 
ATOM     26  F   UNL A   1      34.729  23.031  22.552  1.00  0.00    -0.167 F 
ATOM     27  F   UNL A   1      32.741  22.142  22.661  1.00  0.00    -0.167 F 
ENDBRANCH  15  24
ENDBRANCH   4   6
ENDBRANCH   3   4
ENDBRANCH   2   3
ENDBRANCH   1   2
BRANCH   1  28
ATOM     28  O   UNL A   1      37.858  22.044  25.795  1.00  0.00    -0.458 OA
BRANCH  28  29
ATOM     29  C   UNL A   1      39.125  21.870  26.248  1.00  0.00     0.338 C 
ATOM     30  O   UNL A   1      39.841  20.903  26.036  1.00  0.00    -0.246 OA
BRANCH  29  31
ATOM     31  C   UNL A   1      39.632  23.106  26.874  1.00  0.00     0.060 A 
ATOM     32  C   UNL A   1      38.991  24.288  26.501  1.00  0.00     0.016 A 
ATOM     33  C   UNL A   1      40.724  23.155  27.743  1.00  0.00     0.016 A 
ATOM     34  C   UNL A   1      39.359  25.511  27.053  1.00  0.00     0.010 A 
ATOM     35  C   UNL A   1      41.150  24.400  28.242  1.00  0.00     0.010 A 
ATOM     36  C   UNL A   1      40.461  25.584  27.909  1.00  0.00    -0.014 A 
BRANCH  36  37
ATOM     37  C   UNL A   1      40.965  26.929  28.289  1.00  0.00     0.031 A 
ATOM     38  C   UNL A   1      42.399  27.274  27.989  1.00  0.00     0.074 A 
ATOM     39  C   UNL A   1      40.141  27.872  28.784  1.00  0.00     0.049 A 
ATOM     40  N   UNL A   1      43.061  28.375  28.233  1.00  0.00    -0.248 NA
ATOM     41  C   UNL A   1      43.181  26.237  27.299  1.00  0.00     0.031 C 
ATOM     42  C   UNL A   1      38.705  27.706  29.001  1.00  0.00     0.029 A 
ATOM     43  N   UNL A   1      40.393  29.163  29.182  1.00  0.00    -0.354 N 
ATOM     44  C   UNL A   1      44.340  28.167  27.728  1.00  0.00     0.074 A 
ATOM     45  C   UNL A   1      44.362  26.826  27.183  1.00  0.00     0.031 C 
ATOM     46  C   UNL A   1      38.206  28.849  29.506  1.00  0.00     0.029 A 
ATOM     47  C   UNL A   1      39.291  29.811  29.692  1.00  0.00     0.049 A 
ATOM     48  H   UNL A   1      41.280  29.585  29.109  1.00  0.00     0.167 HD
ATOM     49  C   UNL A   1      45.398  29.017  27.721  1.00  0.00     0.034 A 
ATOM     50  C   UNL A   1      39.180  31.026  30.271  1.00  0.00     0.034 A 
ATOM     51  C   UNL A   1      45.371  30.340  28.295  1.00  0.00     0.049 A 
ATOM     52  C   UNL A   1      40.411  31.899  30.385  1.00  0.00     0.074 A 
ATOM     53  C   UNL A   1      46.400  31.263  28.383  1.00  0.00     0.029 A 
ATOM     54  N   UNL A   1      44.263  30.929  28.892  1.00  0.00    -0.354 N 
ATOM     55  N   UNL A   1      41.631  31.675  29.949  1.00  0.00    -0.248 NA
ATOM     56  C   UNL A   1      40.248  33.192  31.063  1.00  0.00     0.031 C 
ATOM     57  C   UNL A   1      45.938  32.370  29.104  1.00  0.00     0.029 A 
ATOM     58  C   UNL A   1      44.593  32.185  29.379  1.00  0.00     0.049 A 
ATOM     59  H   UNL A   1      43.372  30.514  28.960  1.00  0.00     0.167 HD
ATOM     60  C   UNL A   1      42.364  32.820  30.263  1.00  0.00     0.074 A 
ATOM     61  C   UNL A   1      41.447  33.733  30.912  1.00  0.00     0.031 C 
ATOM     62  C   UNL A   1      43.674  33.093  30.027  1.00  0.00     0.034 A 
BRANCH  49  63
ATOM     63  C   UNL A   1      46.694  28.495  27.150  1.00  0.00     0.023 A 
ATOM     64  C   UNL A   1      46.917  28.407  25.764  1.00  0.00     0.031 A 
ATOM     65  C   UNL A   1      47.705  28.030  28.010  1.00  0.00     0.131 A 
ATOM     66  C   UNL A   1      48.088  27.802  25.282  1.00  0.00     0.055 A 
ATOM     67  C   UNL A   1      48.904  27.508  27.524  1.00  0.00     0.041 A 
ATOM     68  F   UNL A   1      47.536  28.061  29.342  1.00  0.00    -0.206 F 
ATOM     69  C   UNL A   1      49.095  27.377  26.152  1.00  0.00     0.022 A 
BRANCH  66  70
ATOM     70  S   UNL A   1      48.209  27.433  23.510  1.00  0.00     0.124 S 
ATOM     71  O   UNL A   1      47.988  25.989  23.493  1.00  0.00    -0.237 OA
ATOM     72  O   UNL A   1      47.142  28.250  22.943  1.00  0.00    -0.237 OA
ATOM     73  O   UNL A   1      49.566  27.851  23.164  1.00  0.00    -0.744 OA
ENDBRANCH  66  70
ENDBRANCH  49  63
BRANCH  50  74
ATOM     74  C   UNL A   1      37.883  31.478  30.862  1.00  0.00     0.023 A 
ATOM     75  C   UNL A   1      36.939  32.196  30.107  1.00  0.00     0.031 A 
ATOM     76  C   UNL A   1      37.615  31.285  32.231  1.00  0.00     0.131 A 
ATOM     77  C   UNL A   1      35.806  32.741  30.736  1.00  0.00     0.055 A 
ATOM     78  C   UNL A   1      36.455  31.773  32.836  1.00  0.00     0.041 A 
ATOM     79  F   UNL A   1      38.487  30.623  33.007  1.00  0.00    -0.206 F 
ATOM     80  C   UNL A   1      35.551  32.521  32.090  1.00  0.00     0.022 A 
BRANCH  77  81
ATOM     81  S   UNL A   1      34.727  33.848  29.782  1.00  0.00     0.124 S 
ATOM     82  O   UNL A   1      33.671  32.937  29.358  1.00  0.00    -0.237 OA
ATOM     83  O   UNL A   1      34.354  34.843  30.781  1.00  0.00    -0.237 OA
ATOM     84  O   UNL A   1      35.598  34.336  28.714  1.00  0.00    -0.744 OA
ENDBRANCH  77  81
ENDBRANCH  50  74
BRANCH  62  85
ATOM     85  C   UNL A   1      44.176  34.469  30.411  1.00  0.00     0.023 A 
ATOM     86  C   UNL A   1      44.135  35.559  29.522  1.00  0.00     0.031 A 
ATOM     87  C   UNL A   1      44.725  34.685  31.689  1.00  0.00     0.131 A 
ATOM     88  C   UNL A   1      44.695  36.791  29.898  1.00  0.00     0.055 A 
ATOM     89  C   UNL A   1      45.212  35.932  32.083  1.00  0.00     0.041 A 
ATOM     90  F   UNL A   1      44.796  33.684  32.581  1.00  0.00    -0.206 F 
ATOM     91  C   UNL A   1      45.216  36.990  31.179  1.00  0.00     0.022 A 
BRANCH  88  92
ATOM     92  S   UNL A   1      44.846  38.099  28.648  1.00  0.00     0.124 S 
ATOM     93  O   UNL A   1      45.674  37.455  27.634  1.00  0.00    -0.237 OA
ATOM     94  O   UNL A   1      43.455  38.338  28.278  1.00  0.00    -0.237 OA
ATOM     95  O   UNL A   1      45.490  39.193  29.373  1.00  0.00    -0.744 OA
ENDBRANCH  88  92
ENDBRANCH  62  85
ENDBRANCH  36  37
ENDBRANCH  29  31
ENDBRANCH  28  29
ENDBRANCH   1  28
TORSDOF 19
ENDMDL
