MODEL 1
REMARK VINA RESULT:     -12.0      0.000      0.000
REMARK SMILES CCCc1cc(S(F)(F)(F)(F)F)cc2c1O[C@@H](C(F)(F)F)C(C(=O)OCCOC(=O)c1ccc(-c3c4nc(c(-c5cc(S(=O)(=O)[O-])ccc5F)c5ccc([nH]5)c(-c5cc(S(=O)(=O)[O-])ccc5F)c5nc(c(-c6cc(S(=O)(=O)[O-])ccc6F)c6ccc3[nH]6)C=C5)C=C4)cc1)=C2
REMARK SMILES IDX 27 1 26 2 25 3 23 4 24 5 22 6 4 7 5 8 15 9 6 10 14 11 16 12
REMARK SMILES IDX 13 13 94 14 17 15 3 16 2 17 1 18 7 19 8 20 9 21 10 22 11 23
REMARK SMILES IDX 12 24 18 25 19 26 20 27 21 28 28 29 29 30 30 31 31 32 32 33
REMARK SMILES IDX 93 34 33 35 92 36 34 37 35 38 36 39 86 40 37 41 91 42 85 43
REMARK SMILES IDX 87 44 38 45 90 46 84 47 83 48 39 50 71 51 51 52 70 53 52 54
REMARK SMILES IDX 55 55 69 56 88 57 53 58 54 59 68 61 89 62 56 63 40 64 41 65
REMARK SMILES IDX 49 66 42 67 48 68 50 69 47 70 43 71 44 72 45 73 46 74 72 75
REMARK SMILES IDX 73 76 81 77 74 78 80 79 82 80 79 81 75 82 76 83 77 84 78 85
REMARK SMILES IDX 57 86 58 87 66 88 59 89 65 90 67 91 64 92 60 93 61 94 62 95
REMARK SMILES IDX 63 96
REMARK H PARENT 87 49 55 60
REMARK Flexibility Score: inf
ROOT
ATOM      1  C   UNL A   1      37.146  20.337  25.001  1.00  0.00     0.275 C 
ENDROOT
BRANCH   1   2
ATOM      2  C   UNL A   1      35.629  20.409  25.000  1.00  0.00     0.275 C 
BRANCH   2   3
ATOM      3  O   UNL A   1      35.218  21.753  25.203  1.00  0.00    -0.459 OA
BRANCH   3   4
ATOM      4  C   UNL A   1      34.014  22.029  25.904  1.00  0.00     0.338 C 
ATOM      5  O   UNL A   1      33.584  21.211  26.776  1.00  0.00    -0.246 OA
BRANCH   4   6
ATOM      6  C   UNL A   1      33.240  23.304  25.610  1.00  0.00     0.087 C 
ATOM      7  C   UNL A   1      31.368  26.823  24.360  1.00  0.00    -0.004 A 
ATOM      8  C   UNL A   1      31.610  28.008  25.031  1.00  0.00     0.032 A 
ATOM      9  C   UNL A   1      32.038  25.691  24.758  1.00  0.00     0.131 A 
ATOM     10  C   UNL A   1      32.502  28.061  26.070  1.00  0.00     0.108 A 
ATOM     11  C   UNL A   1      32.930  25.703  25.815  1.00  0.00     0.019 A 
ATOM     12  O   UNL A   1      31.874  24.549  24.013  1.00  0.00    -0.475 OA
ATOM     13  C   UNL A   1      33.154  26.912  26.465  1.00  0.00     0.036 A 
ATOM     14  C   UNL A   1      33.618  24.463  26.135  1.00  0.00     0.027 C 
ATOM     15  C   UNL A   1      32.012  23.278  24.708  1.00  0.00     0.316 C 
BRANCH   7  16
ATOM     16  C   UNL A   1      30.545  26.718  23.087  1.00  0.00     0.039 C 
BRANCH  16  17
ATOM     17  C   UNL A   1      29.321  27.612  23.200  1.00  0.00     0.001 C 
ATOM     18  C   UNL A   1      29.536  28.872  22.377  1.00  0.00     0.004 C 
ENDBRANCH  16  17
ENDBRANCH   7  16
BRANCH  10  19
ATOM     19  S   UNL A   1      32.820  29.628  26.918  1.00  0.00     0.310 S 
ATOM     20  F   UNL A   1      32.106  30.419  25.743  1.00  0.00    -0.094 F 
ATOM     21  F   UNL A   1      34.163  29.774  26.106  1.00  0.00    -0.094 F 
ATOM     22  F   UNL A   1      33.060  30.998  27.613  1.00  0.00    -0.094 F 
ATOM     23  F   UNL A   1      31.407  29.530  27.616  1.00  0.00    -0.094 F 
ATOM     24  F   UNL A   1      32.511  28.290  26.135  1.00  0.00    -0.094 F 
ENDBRANCH  10  19
BRANCH  15  25
ATOM     25  C   UNL A   1      32.174  22.168  23.682  1.00  0.00     0.430 C 
ATOM     26  F   UNL A   1      33.373  22.262  23.113  1.00  0.00    -0.167 F 
ATOM     27  F   UNL A   1      32.060  20.988  24.284  1.00  0.00    -0.167 F 
ATOM     28  F   UNL A   1      31.232  22.283  22.751  1.00  0.00    -0.167 F 
ENDBRANCH  15  25
ENDBRANCH   4   6
ENDBRANCH   3   4
ENDBRANCH   2   3
ENDBRANCH   1   2
BRANCH   1  29
ATOM     29  O   UNL A   1      37.672  21.442  25.720  1.00  0.00    -0.458 OA
BRANCH  29  30
ATOM     30  C   UNL A   1      39.033  21.443  26.127  1.00  0.00     0.338 C 
ATOM     31  O   UNL A   1      39.719  20.376  26.049  1.00  0.00    -0.246 OA
BRANCH  30  32
ATOM     32  C   UNL A   1      39.668  22.718  26.656  1.00  0.00     0.060 A 
ATOM     33  C   UNL A   1      40.689  22.682  27.591  1.00  0.00     0.016 A 
ATOM     34  C   UNL A   1      39.233  23.867  26.155  1.00  0.00     0.016 A 
ATOM     35  C   UNL A   1      40.995  23.944  28.154  1.00  0.00     0.010 A 
ATOM     36  C   UNL A   1      39.678  25.064  26.662  1.00  0.00     0.010 A 
ATOM     37  C   UNL A   1      40.643  25.104  27.629  1.00  0.00    -0.014 A 
BRANCH  37  38
ATOM     38  C   UNL A   1      41.277  26.411  28.077  1.00  0.00     0.031 A 
ATOM     39  C   UNL A   1      40.453  27.335  28.722  1.00  0.00     0.074 A 
ATOM     40  C   UNL A   1      42.600  26.650  27.750  1.00  0.00     0.049 A 
ATOM     41  N   UNL A   1      40.782  28.553  29.156  1.00  0.00    -0.248 NA
ATOM     42  C   UNL A   1      39.037  27.098  29.039  1.00  0.00     0.031 C 
ATOM     43  C   UNL A   1      43.439  25.718  27.107  1.00  0.00     0.029 A 
ATOM     44  N   UNL A   1      43.334  27.792  27.976  1.00  0.00    -0.354 N 
ATOM     45  C   UNL A   1      39.731  29.133  29.741  1.00  0.00     0.074 A 
ATOM     46  C   UNL A   1      38.592  28.207  29.668  1.00  0.00     0.031 C 
ATOM     47  C   UNL A   1      44.658  26.296  26.938  1.00  0.00     0.029 A 
ATOM     48  C   UNL A   1      44.601  27.597  27.472  1.00  0.00     0.049 A 
ATOM     49  H   UNL A   1      43.009  28.608  28.421  1.00  0.00     0.167 HD
ATOM     50  C   UNL A   1      39.679  30.396  30.333  1.00  0.00     0.034 A 
ATOM     51  C   UNL A   1      45.660  28.491  27.468  1.00  0.00     0.034 A 
ATOM     52  C   UNL A   1      40.750  31.274  30.367  1.00  0.00     0.049 A 
ATOM     53  C   UNL A   1      45.590  29.778  28.009  1.00  0.00     0.074 A 
ATOM     54  C   UNL A   1      40.716  32.547  30.966  1.00  0.00     0.029 A 
ATOM     55  N   UNL A   1      42.009  31.088  29.841  1.00  0.00    -0.354 N 
ATOM     56  N   UNL A   1      44.552  30.342  28.628  1.00  0.00    -0.248 NA
ATOM     57  C   UNL A   1      46.695  30.745  27.981  1.00  0.00     0.031 C 
ATOM     58  C   UNL A   1      41.936  33.125  30.797  1.00  0.00     0.029 A 
ATOM     59  C   UNL A   1      42.751  32.222  30.088  1.00  0.00     0.049 A 
ATOM     60  H   UNL A   1      42.326  30.283  29.371  1.00  0.00     0.167 HD
ATOM     61  C   UNL A   1      44.869  31.575  29.025  1.00  0.00     0.074 A 
ATOM     62  C   UNL A   1      46.250  31.855  28.609  1.00  0.00     0.031 C 
ATOM     63  C   UNL A   1      44.064  32.478  29.723  1.00  0.00     0.034 A 
BRANCH  50  64
ATOM     64  C   UNL A   1      38.373  30.832  30.976  1.00  0.00     0.023 A 
ATOM     65  C   UNL A   1      37.463  31.568  30.235  1.00  0.00     0.031 A 
ATOM     66  C   UNL A   1      38.126  30.500  32.237  1.00  0.00     0.131 A 
ATOM     67  C   UNL A   1      36.436  32.159  31.010  1.00  0.00     0.055 A 
ATOM     68  C   UNL A   1      37.029  31.008  32.892  1.00  0.00     0.041 A 
ATOM     69  F   UNL A   1      38.946  29.669  32.873  1.00  0.00    -0.206 F 
ATOM     70  C   UNL A   1      36.120  31.791  32.238  1.00  0.00     0.022 A 
BRANCH  67  71
ATOM     71  S   UNL A   1      35.494  33.514  30.267  1.00  0.00     0.124 S 
ATOM     72  O   UNL A   1      35.205  34.576  31.330  1.00  0.00    -0.237 OA
ATOM     73  O   UNL A   1      36.306  34.137  29.130  1.00  0.00    -0.237 OA
ATOM     74  O   UNL A   1      34.018  32.909  29.649  1.00  0.00    -0.744 OA
ENDBRANCH  67  71
ENDBRANCH  50  64
BRANCH  51  75
ATOM     75  C   UNL A   1      46.970  28.048  26.839  1.00  0.00     0.023 A 
ATOM     76  C   UNL A   1      47.200  28.301  25.496  1.00  0.00     0.031 A 
ATOM     77  C   UNL A   1      47.874  27.425  27.586  1.00  0.00     0.131 A 
ATOM     78  C   UNL A   1      48.303  27.596  24.960  1.00  0.00     0.055 A 
ATOM     79  C   UNL A   1      48.997  26.878  27.014  1.00  0.00     0.041 A 
ATOM     80  F   UNL A   1      47.690  27.332  28.900  1.00  0.00    -0.206 F 
ATOM     81  C   UNL A   1      49.258  27.038  25.682  1.00  0.00     0.022 A 
BRANCH  78  82
ATOM     82  S   UNL A   1      48.414  27.449  23.159  1.00  0.00     0.124 S 
ATOM     83  O   UNL A   1      49.740  28.046  22.681  1.00  0.00    -0.237 OA
ATOM     84  O   UNL A   1      48.347  25.973  22.762  1.00  0.00    -0.237 OA
ATOM     85  O   UNL A   1      47.116  28.295  22.437  1.00  0.00    -0.744 OA
ENDBRANCH  78  82
ENDBRANCH  51  75
BRANCH  63  86
ATOM     86  C   UNL A   1      44.662  33.822  30.104  1.00  0.00     0.023 A 
ATOM     87  C   UNL A   1      45.371  33.990  31.282  1.00  0.00     0.031 A 
ATOM     88  C   UNL A   1      44.533  34.813  29.231  1.00  0.00     0.131 A 
ATOM     89  C   UNL A   1      45.668  35.339  31.586  1.00  0.00     0.055 A 
ATOM     90  C   UNL A   1      44.968  36.079  29.541  1.00  0.00     0.041 A 
ATOM     91  F   UNL A   1      43.978  34.580  28.045  1.00  0.00    -0.206 F 
ATOM     92  C   UNL A   1      45.624  36.330  30.714  1.00  0.00     0.022 A 
BRANCH  89  93
ATOM     93  S   UNL A   1      46.139  35.736  33.288  1.00  0.00     0.124 S 
ATOM     94  O   UNL A   1      47.173  36.864  33.282  1.00  0.00    -0.237 OA
ATOM     95  O   UNL A   1      44.901  36.183  34.069  1.00  0.00    -0.237 OA
ATOM     96  O   UNL A   1      46.811  34.351  34.031  1.00  0.00    -0.744 OA
ENDBRANCH  89  93
ENDBRANCH  63  86
ENDBRANCH  37  38
ENDBRANCH  30  32
ENDBRANCH  29  30
ENDBRANCH   1  29
TORSDOF 18
ENDMDL
MODEL 2
REMARK VINA RESULT:     -11.8      1.175      7.360
REMARK SMILES CCCc1cc(S(F)(F)(F)(F)F)cc2c1O[C@@H](C(F)(F)F)C(C(=O)OCCOC(=O)c1ccc(-c3c4nc(c(-c5cc(S(=O)(=O)[O-])ccc5F)c5ccc([nH]5)c(-c5cc(S(=O)(=O)[O-])ccc5F)c5nc(c(-c6cc(S(=O)(=O)[O-])ccc6F)c6ccc3[nH]6)C=C5)C=C4)cc1)=C2
REMARK SMILES IDX 27 1 26 2 25 3 23 4 24 5 22 6 4 7 5 8 15 9 6 10 14 11 16 12
REMARK SMILES IDX 13 13 94 14 17 15 3 16 2 17 1 18 7 19 8 20 9 21 10 22 11 23
REMARK SMILES IDX 12 24 18 25 19 26 20 27 21 28 28 29 29 30 30 31 31 32 32 33
REMARK SMILES IDX 93 34 33 35 92 36 34 37 35 38 36 39 86 40 37 41 91 42 85 43
REMARK SMILES IDX 87 44 38 45 90 46 84 47 83 48 39 50 71 51 51 52 70 53 52 54
REMARK SMILES IDX 55 55 69 56 88 57 53 58 54 59 68 61 89 62 56 63 40 64 41 65
REMARK SMILES IDX 49 66 42 67 48 68 50 69 47 70 43 71 44 72 45 73 46 74 72 75
REMARK SMILES IDX 73 76 81 77 74 78 80 79 82 80 79 81 75 82 76 83 77 84 78 85
REMARK SMILES IDX 57 86 58 87 66 88 59 89 65 90 67 91 64 92 60 93 61 94 62 95
REMARK SMILES IDX 63 96
REMARK H PARENT 87 49 55 60
REMARK Flexibility Score: inf
ROOT
ATOM      1  C   UNL A   1      37.187  20.278  25.015  1.00  0.00     0.275 C 
ENDROOT
BRANCH   1   2
ATOM      2  C   UNL A   1      35.670  20.338  24.963  1.00  0.00     0.275 C 
BRANCH   2   3
ATOM      3  O   UNL A   1      35.244  21.683  25.118  1.00  0.00    -0.459 OA
BRANCH   3   4
ATOM      4  C   UNL A   1      34.051  21.972  25.831  1.00  0.00     0.338 C 
ATOM      5  O   UNL A   1      33.616  21.154  26.702  1.00  0.00    -0.246 OA
BRANCH   4   6
ATOM      6  C   UNL A   1      33.292  23.260  25.554  1.00  0.00     0.087 C 
ATOM      7  C   UNL A   1      31.463  26.816  24.348  1.00  0.00    -0.004 A 
ATOM      8  C   UNL A   1      31.724  27.991  25.028  1.00  0.00     0.032 A 
ATOM      9  C   UNL A   1      32.119  25.672  24.731  1.00  0.00     0.131 A 
ATOM     10  C   UNL A   1      32.622  28.022  26.063  1.00  0.00     0.108 A 
ATOM     11  C   UNL A   1      33.017  25.661  25.783  1.00  0.00     0.019 A 
ATOM     12  O   UNL A   1      31.935  24.539  23.976  1.00  0.00    -0.475 OA
ATOM     13  C   UNL A   1      33.261  26.861  26.443  1.00  0.00     0.036 A 
ATOM     14  C   UNL A   1      33.689  24.408  26.088  1.00  0.00     0.027 C 
ATOM     15  C   UNL A   1      32.060  23.260  24.658  1.00  0.00     0.316 C 
BRANCH   7  16
ATOM     16  C   UNL A   1      30.632  26.735  23.078  1.00  0.00     0.039 C 
BRANCH  16  17
ATOM     17  C   UNL A   1      29.553  27.805  23.109  1.00  0.00     0.001 C 
ATOM     18  C   UNL A   1      28.228  27.177  23.511  1.00  0.00     0.004 C 
ENDBRANCH  16  17
ENDBRANCH   7  16
BRANCH  10  19
ATOM     19  S   UNL A   1      32.967  29.576  26.924  1.00  0.00     0.310 S 
ATOM     20  F   UNL A   1      32.287  30.390  25.745  1.00  0.00    -0.094 F 
ATOM     21  F   UNL A   1      34.323  29.695  26.130  1.00  0.00    -0.094 F 
ATOM     22  F   UNL A   1      33.231  30.937  27.630  1.00  0.00    -0.094 F 
ATOM     23  F   UNL A   1      31.543  29.508  27.603  1.00  0.00    -0.094 F 
ATOM     24  F   UNL A   1      32.637  28.250  26.129  1.00  0.00    -0.094 F 
ENDBRANCH  10  19
BRANCH  15  25
ATOM     25  C   UNL A   1      32.201  22.158  23.621  1.00  0.00     0.430 C 
ATOM     26  F   UNL A   1      31.249  22.290  22.701  1.00  0.00    -0.167 F 
ATOM     27  F   UNL A   1      33.394  22.245  23.041  1.00  0.00    -0.167 F 
ATOM     28  F   UNL A   1      32.082  20.973  24.213  1.00  0.00    -0.167 F 
ENDBRANCH  15  25
ENDBRANCH   4   6
ENDBRANCH   3   4
ENDBRANCH   2   3
ENDBRANCH   1   2
BRANCH   1  29
ATOM     29  O   UNL A   1      37.684  21.418  25.699  1.00  0.00    -0.458 OA
BRANCH  29  30
ATOM     30  C   UNL A   1      39.037  21.457  26.127  1.00  0.00     0.338 C 
ATOM     31  O   UNL A   1      39.737  20.396  26.115  1.00  0.00    -0.246 OA
BRANCH  30  32
ATOM     32  C   UNL A   1      39.647  22.766  26.601  1.00  0.00     0.060 A 
ATOM     33  C   UNL A   1      40.693  22.788  27.509  1.00  0.00     0.016 A 
ATOM     34  C   UNL A   1      39.166  23.886  26.077  1.00  0.00     0.016 A 
ATOM     35  C   UNL A   1      40.976  24.075  28.025  1.00  0.00     0.010 A 
ATOM     36  C   UNL A   1      39.588  25.110  26.536  1.00  0.00     0.010 A 
ATOM     37  C   UNL A   1      40.577  25.207  27.476  1.00  0.00    -0.014 A 
BRANCH  37  38
ATOM     38  C   UNL A   1      41.182  26.545  27.867  1.00  0.00     0.031 A 
ATOM     39  C   UNL A   1      42.533  26.748  27.576  1.00  0.00     0.074 A 
ATOM     40  C   UNL A   1      40.396  27.450  28.558  1.00  0.00     0.049 A 
ATOM     41  N   UNL A   1      43.275  27.817  27.866  1.00  0.00    -0.248 NA
ATOM     42  C   UNL A   1      43.380  25.773  26.872  1.00  0.00     0.031 C 
ATOM     43  C   UNL A   1      39.030  27.256  28.847  1.00  0.00     0.029 A 
ATOM     44  N   UNL A   1      40.768  28.668  29.081  1.00  0.00    -0.354 N 
ATOM     45  C   UNL A   1      44.519  27.652  27.411  1.00  0.00     0.074 A 
ATOM     46  C   UNL A   1      44.605  26.332  26.770  1.00  0.00     0.031 C 
ATOM     47  C   UNL A   1      38.590  28.337  29.544  1.00  0.00     0.029 A 
ATOM     48  C   UNL A   1      39.671  29.224  29.702  1.00  0.00     0.049 A 
ATOM     49  H   UNL A   1      41.663  29.072  29.021  1.00  0.00     0.167 HD
ATOM     50  C   UNL A   1      45.583  28.550  27.502  1.00  0.00     0.034 A 
ATOM     51  C   UNL A   1      39.599  30.433  30.374  1.00  0.00     0.034 A 
ATOM     52  C   UNL A   1      45.499  29.779  28.137  1.00  0.00     0.049 A 
ATOM     53  C   UNL A   1      40.680  31.307  30.517  1.00  0.00     0.074 A 
ATOM     54  C   UNL A   1      46.560  30.699  28.232  1.00  0.00     0.029 A 
ATOM     55  N   UNL A   1      44.409  30.323  28.780  1.00  0.00    -0.354 N 
ATOM     56  N   UNL A   1      41.912  31.159  30.027  1.00  0.00    -0.248 NA
ATOM     57  C   UNL A   1      40.623  32.576  31.255  1.00  0.00     0.031 C 
ATOM     58  C   UNL A   1      46.119  31.781  28.929  1.00  0.00     0.029 A 
ATOM     59  C   UNL A   1      44.776  31.552  29.282  1.00  0.00     0.049 A 
ATOM     60  H   UNL A   1      43.521  29.908  28.865  1.00  0.00     0.167 HD
ATOM     61  C   UNL A   1      42.665  32.210  30.354  1.00  0.00     0.074 A 
ATOM     62  C   UNL A   1      41.849  33.134  31.154  1.00  0.00     0.031 C 
ATOM     63  C   UNL A   1      44.000  32.440  30.012  1.00  0.00     0.034 A 
BRANCH  50  64
ATOM     64  C   UNL A   1      46.909  28.159  26.870  1.00  0.00     0.023 A 
ATOM     65  C   UNL A   1      47.104  28.368  25.515  1.00  0.00     0.031 A 
ATOM     66  C   UNL A   1      47.858  27.624  27.628  1.00  0.00     0.131 A 
ATOM     67  C   UNL A   1      48.240  27.707  24.990  1.00  0.00     0.055 A 
ATOM     68  C   UNL A   1      49.004  27.119  27.061  1.00  0.00     0.041 A 
ATOM     69  F   UNL A   1      47.699  27.574  28.947  1.00  0.00    -0.206 F 
ATOM     70  C   UNL A   1      49.236  27.238  25.719  1.00  0.00     0.022 A 
BRANCH  67  71
ATOM     71  S   UNL A   1      48.334  27.491  23.196  1.00  0.00     0.124 S 
ATOM     72  O   UNL A   1      47.153  28.204  22.534  1.00  0.00    -0.237 OA
ATOM     73  O   UNL A   1      49.646  28.087  22.678  1.00  0.00    -0.237 OA
ATOM     74  O   UNL A   1      48.278  25.824  22.819  1.00  0.00    -0.744 OA
ENDBRANCH  67  71
ENDBRANCH  50  64
BRANCH  51  75
ATOM     75  C   UNL A   1      38.269  30.832  30.992  1.00  0.00     0.023 A 
ATOM     76  C   UNL A   1      37.368  31.574  30.246  1.00  0.00     0.031 A 
ATOM     77  C   UNL A   1      37.992  30.462  32.237  1.00  0.00     0.131 A 
ATOM     78  C   UNL A   1      36.312  32.129  31.007  1.00  0.00     0.055 A 
ATOM     79  C   UNL A   1      36.871  30.936  32.874  1.00  0.00     0.041 A 
ATOM     80  F   UNL A   1      38.808  29.626  32.872  1.00  0.00    -0.206 F 
ATOM     81  C   UNL A   1      35.966  31.722  32.216  1.00  0.00     0.022 A 
BRANCH  78  82
ATOM     82  S   UNL A   1      35.369  33.488  30.275  1.00  0.00     0.124 S 
ATOM     83  O   UNL A   1      36.169  34.101  29.123  1.00  0.00    -0.237 OA
ATOM     84  O   UNL A   1      34.036  32.957  29.743  1.00  0.00    -0.237 OA
ATOM     85  O   UNL A   1      35.074  34.683  31.462  1.00  0.00    -0.744 OA
ENDBRANCH  78  82
ENDBRANCH  51  75
BRANCH  63  86
ATOM     86  C   UNL A   1      44.640  33.740  30.469  1.00  0.00     0.023 A 
ATOM     87  C   UNL A   1      44.539  34.899  29.717  1.00  0.00     0.031 A 
ATOM     88  C   UNL A   1      45.246  33.736  31.650  1.00  0.00     0.131 A 
ATOM     89  C   UNL A   1      45.369  35.952  30.171  1.00  0.00     0.055 A 
ATOM     90  C   UNL A   1      45.924  34.847  32.092  1.00  0.00     0.041 A 
ATOM     91  F   UNL A   1      45.195  32.649  32.414  1.00  0.00    -0.206 F 
ATOM     92  C   UNL A   1      45.917  36.008  31.372  1.00  0.00     0.022 A 
BRANCH  89  93
ATOM     93  S   UNL A   1      45.702  37.315  29.028  1.00  0.00     0.124 S 
ATOM     94  O   UNL A   1      46.135  38.551  29.820  1.00  0.00    -0.237 OA
ATOM     95  O   UNL A   1      46.821  36.910  28.065  1.00  0.00    -0.237 OA
ATOM     96  O   UNL A   1      44.287  37.673  28.140  1.00  0.00    -0.744 OA
ENDBRANCH  89  93
ENDBRANCH  63  86
ENDBRANCH  37  38
ENDBRANCH  30  32
ENDBRANCH  29  30
ENDBRANCH   1  29
TORSDOF 18
ENDMDL
MODEL 3
REMARK VINA RESULT:     -11.8      4.490      9.523
REMARK SMILES CCCc1cc(S(F)(F)(F)(F)F)cc2c1O[C@@H](C(F)(F)F)C(C(=O)OCCOC(=O)c1ccc(-c3c4nc(c(-c5cc(S(=O)(=O)[O-])ccc5F)c5ccc([nH]5)c(-c5cc(S(=O)(=O)[O-])ccc5F)c5nc(c(-c6cc(S(=O)(=O)[O-])ccc6F)c6ccc3[nH]6)C=C5)C=C4)cc1)=C2
REMARK SMILES IDX 27 1 26 2 25 3 23 4 24 5 22 6 4 7 5 8 15 9 6 10 14 11 16 12
REMARK SMILES IDX 13 13 94 14 17 15 3 16 2 17 1 18 7 19 8 20 9 21 10 22 11 23
REMARK SMILES IDX 12 24 18 25 19 26 20 27 21 28 28 29 29 30 30 31 31 32 32 33
REMARK SMILES IDX 93 34 33 35 92 36 34 37 35 38 36 39 86 40 37 41 91 42 85 43
REMARK SMILES IDX 87 44 38 45 90 46 84 47 83 48 39 50 71 51 51 52 70 53 52 54
REMARK SMILES IDX 55 55 69 56 88 57 53 58 54 59 68 61 89 62 56 63 40 64 41 65
REMARK SMILES IDX 49 66 42 67 48 68 50 69 47 70 43 71 44 72 45 73 46 74 72 75
REMARK SMILES IDX 73 76 81 77 74 78 80 79 82 80 79 81 75 82 76 83 77 84 78 85
REMARK SMILES IDX 57 86 58 87 66 88 59 89 65 90 67 91 64 92 60 93 61 94 62 95
REMARK SMILES IDX 63 96
REMARK H PARENT 87 49 55 60
REMARK Flexibility Score: inf
ROOT
ATOM      1  C   UNL A   1      31.689  30.783  26.279  1.00  0.00     0.275 C 
ENDROOT
BRANCH   1   2
ATOM      2  C   UNL A   1      31.306  29.800  25.186  1.00  0.00     0.275 C 
BRANCH   2   3
ATOM      3  O   UNL A   1      32.273  28.761  25.124  1.00  0.00    -0.459 OA
BRANCH   3   4
ATOM      4  C   UNL A   1      32.066  27.555  25.843  1.00  0.00     0.338 C 
ATOM      5  O   UNL A   1      31.460  27.576  26.960  1.00  0.00    -0.246 OA
BRANCH   4   6
ATOM      6  C   UNL A   1      32.570  26.237  25.277  1.00  0.00     0.087 C 
ATOM      7  C   UNL A   1      33.609  22.389  24.028  1.00  0.00    -0.004 A 
ATOM      8  C   UNL A   1      34.852  21.873  24.345  1.00  0.00     0.032 A 
ATOM      9  C   UNL A   1      33.273  23.635  24.497  1.00  0.00     0.131 A 
ATOM     10  C   UNL A   1      35.734  22.583  25.117  1.00  0.00     0.108 A 
ATOM     11  C   UNL A   1      34.145  24.389  25.261  1.00  0.00     0.019 A 
ATOM     12  O   UNL A   1      31.996  24.087  24.269  1.00  0.00    -0.475 OA
ATOM     13  C   UNL A   1      35.385  23.839  25.567  1.00  0.00     0.036 A 
ATOM     14  C   UNL A   1      33.681  25.680  25.743  1.00  0.00     0.027 C 
ATOM     15  C   UNL A   1      31.810  25.527  24.164  1.00  0.00     0.316 C 
BRANCH   7  16
ATOM     16  C   UNL A   1      32.508  21.596  23.343  1.00  0.00     0.039 C 
BRANCH  16  17
ATOM     17  C   UNL A   1      32.398  20.222  23.986  1.00  0.00     0.001 C 
ATOM     18  C   UNL A   1      32.291  19.162  22.902  1.00  0.00     0.004 C 
ENDBRANCH  16  17
ENDBRANCH   7  16
BRANCH  10  19
ATOM     19  S   UNL A   1      37.346  21.878  25.541  1.00  0.00     0.310 S 
ATOM     20  F   UNL A   1      37.677  21.687  24.002  1.00  0.00    -0.094 F 
ATOM     21  F   UNL A   1      36.706  20.439  25.511  1.00  0.00    -0.094 F 
ATOM     22  F   UNL A   1      38.746  21.278  25.854  1.00  0.00    -0.094 F 
ATOM     23  F   UNL A   1      37.996  23.313  25.429  1.00  0.00    -0.094 F 
ATOM     24  F   UNL A   1      35.953  22.490  25.112  1.00  0.00    -0.094 F 
ENDBRANCH  10  19
BRANCH  15  25
ATOM     25  C   UNL A   1      30.330  25.846  24.292  1.00  0.00     0.430 C 
ATOM     26  F   UNL A   1      30.110  27.096  23.894  1.00  0.00    -0.167 F 
ATOM     27  F   UNL A   1      29.628  25.009  23.533  1.00  0.00    -0.167 F 
ATOM     28  F   UNL A   1      29.955  25.713  25.561  1.00  0.00    -0.167 F 
ENDBRANCH  15  25
ENDBRANCH   4   6
ENDBRANCH   3   4
ENDBRANCH   2   3
ENDBRANCH   1   2
BRANCH   1  29
ATOM     29  O   UNL A   1      33.100  30.791  26.437  1.00  0.00    -0.458 OA
BRANCH  29  30
ATOM     30  C   UNL A   1      33.708  31.692  27.352  1.00  0.00     0.338 C 
ATOM     31  O   UNL A   1      33.118  32.774  27.663  1.00  0.00    -0.246 OA
BRANCH  30  32
ATOM     32  C   UNL A   1      35.063  31.363  27.955  1.00  0.00     0.060 A 
ATOM     33  C   UNL A   1      36.045  32.329  28.096  1.00  0.00     0.016 A 
ATOM     34  C   UNL A   1      35.253  30.120  28.382  1.00  0.00     0.016 A 
ATOM     35  C   UNL A   1      37.314  31.810  28.444  1.00  0.00     0.010 A 
ATOM     36  C   UNL A   1      36.485  29.719  28.837  1.00  0.00     0.010 A 
ATOM     37  C   UNL A   1      37.519  30.607  28.947  1.00  0.00    -0.014 A 
BRANCH  37  38
ATOM     38  C   UNL A   1      38.833  30.229  29.612  1.00  0.00     0.031 A 
ATOM     39  C   UNL A   1      39.658  29.329  28.936  1.00  0.00     0.074 A 
ATOM     40  C   UNL A   1      39.101  30.725  30.876  1.00  0.00     0.049 A 
ATOM     41  N   UNL A   1      40.824  28.828  29.348  1.00  0.00    -0.248 NA
ATOM     42  C   UNL A   1      39.360  28.773  27.608  1.00  0.00     0.031 C 
ATOM     43  C   UNL A   1      38.276  31.640  31.560  1.00  0.00     0.029 A 
ATOM     44  N   UNL A   1      40.176  30.440  31.686  1.00  0.00    -0.354 N 
ATOM     45  C   UNL A   1      41.330  28.013  28.419  1.00  0.00     0.074 A 
ATOM     46  C   UNL A   1      40.392  27.962  27.289  1.00  0.00     0.031 C 
ATOM     47  C   UNL A   1      38.842  31.893  32.770  1.00  0.00     0.029 A 
ATOM     48  C   UNL A   1      40.028  31.142  32.862  1.00  0.00     0.049 A 
ATOM     49  H   UNL A   1      40.922  29.838  31.463  1.00  0.00     0.167 HD
ATOM     50  C   UNL A   1      42.536  27.313  28.469  1.00  0.00     0.034 A 
ATOM     51  C   UNL A   1      40.869  31.139  33.964  1.00  0.00     0.034 A 
ATOM     52  C   UNL A   1      43.398  27.344  29.554  1.00  0.00     0.049 A 
ATOM     53  C   UNL A   1      42.047  30.392  34.038  1.00  0.00     0.074 A 
ATOM     54  C   UNL A   1      44.621  26.650  29.617  1.00  0.00     0.029 A 
ATOM     55  N   UNL A   1      43.237  28.026  30.739  1.00  0.00    -0.354 N 
ATOM     56  N   UNL A   1      42.572  29.609  33.094  1.00  0.00    -0.248 NA
ATOM     57  C   UNL A   1      42.928  30.356  35.213  1.00  0.00     0.031 C 
ATOM     58  C   UNL A   1      45.187  26.904  30.828  1.00  0.00     0.029 A 
ATOM     59  C   UNL A   1      44.325  27.759  31.540  1.00  0.00     0.049 A 
ATOM     60  H   UNL A   1      42.477  28.606  30.974  1.00  0.00     0.167 HD
ATOM     61  C   UNL A   1      43.717  29.076  33.523  1.00  0.00     0.074 A 
ATOM     62  C   UNL A   1      43.960  29.543  34.895  1.00  0.00     0.031 C 
ATOM     63  C   UNL A   1      44.572  28.222  32.824  1.00  0.00     0.034 A 
BRANCH  50  64
ATOM     64  C   UNL A   1      42.926  26.470  27.266  1.00  0.00     0.023 A 
ATOM     65  C   UNL A   1      42.569  25.132  27.229  1.00  0.00     0.031 A 
ATOM     66  C   UNL A   1      43.602  27.030  26.271  1.00  0.00     0.131 A 
ATOM     67  C   UNL A   1      43.228  24.390  26.220  1.00  0.00     0.055 A 
ATOM     68  C   UNL A   1      44.101  26.263  25.245  1.00  0.00     0.041 A 
ATOM     69  F   UNL A   1      43.798  28.345  26.265  1.00  0.00    -0.206 F 
ATOM     70  C   UNL A   1      43.837  24.924  25.177  1.00  0.00     0.022 A 
BRANCH  67  71
ATOM     71  S   UNL A   1      43.235  22.586  26.369  1.00  0.00     0.124 S 
ATOM     72  O   UNL A   1      42.287  21.986  25.328  1.00  0.00    -0.237 OA
ATOM     73  O   UNL A   1      44.652  22.061  26.131  1.00  0.00    -0.237 OA
ATOM     74  O   UNL A   1      42.717  22.142  27.937  1.00  0.00    -0.744 OA
ENDBRANCH  67  71
ENDBRANCH  50  64
BRANCH  51  75
ATOM     75  C   UNL A   1      40.486  31.995  35.160  1.00  0.00     0.023 A 
ATOM     76  C   UNL A   1      39.691  31.453  36.157  1.00  0.00     0.031 A 
ATOM     77  C   UNL A   1      40.920  33.247  35.230  1.00  0.00     0.131 A 
ATOM     78  C   UNL A   1      39.164  32.412  37.055  1.00  0.00     0.055 A 
ATOM     79  C   UNL A   1      40.467  34.090  36.215  1.00  0.00     0.041 A 
ATOM     80  F   UNL A   1      41.802  33.690  34.338  1.00  0.00    -0.206 F 
ATOM     81  C   UNL A   1      39.632  33.638  37.200  1.00  0.00     0.022 A 
BRANCH  78  82
ATOM     82  S   UNL A   1      37.753  31.923  38.076  1.00  0.00     0.124 S 
ATOM     83  O   UNL A   1      37.322  30.502  37.704  1.00  0.00    -0.237 OA
ATOM     84  O   UNL A   1      38.152  31.965  39.553  1.00  0.00    -0.237 OA
ATOM     85  O   UNL A   1      36.453  33.000  37.806  1.00  0.00    -0.744 OA
ENDBRANCH  78  82
ENDBRANCH  51  75
BRANCH  63  86
ATOM     86  C   UNL A   1      45.851  27.773  33.511  1.00  0.00     0.023 A 
ATOM     87  C   UNL A   1      45.907  26.591  34.233  1.00  0.00     0.031 A 
ATOM     88  C   UNL A   1      46.930  28.526  33.339  1.00  0.00     0.131 A 
ATOM     89  C   UNL A   1      47.097  26.433  34.983  1.00  0.00     0.055 A 
ATOM     90  C   UNL A   1      48.099  28.234  33.999  1.00  0.00     0.041 A 
ATOM     91  F   UNL A   1      46.880  29.572  32.519  1.00  0.00    -0.206 F 
ATOM     92  C   UNL A   1      48.208  27.115  34.776  1.00  0.00     0.022 A 
BRANCH  89  93
ATOM     93  S   UNL A   1      47.094  25.213  36.319  1.00  0.00     0.124 S 
ATOM     94  O   UNL A   1      48.315  24.300  36.180  1.00  0.00    -0.237 OA
ATOM     95  O   UNL A   1      47.148  25.933  37.669  1.00  0.00    -0.237 OA
ATOM     96  O   UNL A   1      45.668  24.274  36.231  1.00  0.00    -0.744 OA
ENDBRANCH  89  93
ENDBRANCH  63  86
ENDBRANCH  37  38
ENDBRANCH  30  32
ENDBRANCH  29  30
ENDBRANCH   1  29
TORSDOF 18
ENDMDL
