MODEL 1
REMARK VINA RESULT:     -12.4      0.000      0.000
REMARK SMILES Cc1cc(=O)c(Oc2ccc(C(=O)OCCOC(=O)c3ccc(-c4c5nc(c(-c6cc(S(=O)(=O)[O-])ccc6F)c6ccc([nH]6)c(-c6cc(S(=O)(=O)[O-])ccc6F)c6nc(c(-c7cc(S(=O)(=O)[O-])ccc7F)c7ccc4[nH]7)C=C6)C=C5)cc3)cc2)c(-c2ccc(S(C)(=O)=O)cc2)o1
REMARK SMILES IDX 15 1 14 2 12 3 13 4 11 5 8 6 9 7 84 8 10 9 83 10 7 11 6 12
REMARK SMILES IDX 1 13 2 14 3 15 96 16 4 17 85 18 5 19 86 20 87 21 95 22 88 23
REMARK SMILES IDX 94 24 89 25 90 26 91 27 92 28 93 29 16 30 17 31 18 32 19 33
REMARK SMILES IDX 20 34 21 35 82 36 22 37 81 38 23 39 24 40 25 41 75 42 26 43
REMARK SMILES IDX 80 44 74 45 76 46 27 47 79 48 73 49 72 50 28 52 60 53 40 54
REMARK SMILES IDX 59 55 41 56 44 57 58 58 77 59 42 60 43 61 57 63 78 64 45 65
REMARK SMILES IDX 29 66 30 67 38 68 31 69 37 70 39 71 36 72 32 73 33 74 34 75
REMARK SMILES IDX 35 76 61 77 62 78 70 79 63 80 69 81 71 82 68 83 64 84 65 85
REMARK SMILES IDX 66 86 67 87 46 88 47 89 55 90 48 91 54 92 56 93 53 94 49 95
REMARK SMILES IDX 50 96 51 97 52 98
REMARK H PARENT 76 51 44 62
REMARK Flexibility Score: inf
ROOT
ATOM      1  C   UNL A   1      39.871  21.070  26.493  1.00  0.00     0.275 C 
ENDROOT
BRANCH   1   2
ATOM      2  O   UNL A   1      38.651  21.447  25.822  1.00  0.00    -0.458 OA
BRANCH   2   3
ATOM      3  C   UNL A   1      38.196  22.708  26.048  1.00  0.00     0.338 C 
ATOM      4  O   UNL A   1      38.708  23.535  26.787  1.00  0.00    -0.246 OA
BRANCH   3   5
ATOM      5  C   UNL A   1      37.059  23.018  25.135  1.00  0.00     0.060 A 
ATOM      6  C   UNL A   1      35.132  23.984  23.354  1.00  0.00     0.127 A 
ATOM      7  C   UNL A   1      35.145  24.454  24.663  1.00  0.00     0.048 A 
ATOM      8  C   UNL A   1      35.994  22.952  22.969  1.00  0.00     0.048 A 
ATOM      9  C   UNL A   1      36.096  23.948  25.559  1.00  0.00     0.019 A 
ATOM     10  C   UNL A   1      36.978  22.489  23.844  1.00  0.00     0.019 A 
BRANCH   6  11
ATOM     11  O   UNL A   1      34.239  24.404  22.406  1.00  0.00    -0.449 OA
BRANCH  11  12
ATOM     12  C   UNL A   1      32.921  24.715  22.703  1.00  0.00     0.217 A 
ATOM     13  C   UNL A   1      29.159  26.107  24.300  1.00  0.00     0.088 C 
ATOM     14  C   UNL A   1      30.462  25.757  23.653  1.00  0.00     0.105 A 
ATOM     15  C   UNL A   1      31.372  26.661  23.282  1.00  0.00     0.098 A 
ATOM     16  O   UNL A   1      30.663  24.406  23.494  1.00  0.00    -0.457 OA
ATOM     17  C   UNL A   1      32.643  26.190  22.709  1.00  0.00     0.228 A 
ATOM     18  C   UNL A   1      31.915  23.911  23.131  1.00  0.00     0.180 A 
ATOM     19  O   UNL A   1      33.461  27.012  22.307  1.00  0.00    -0.285 OA
BRANCH  18  20
ATOM     20  C   UNL A   1      31.943  22.454  23.386  1.00  0.00     0.021 A 
ATOM     21  C   UNL A   1      32.221  21.992  24.685  1.00  0.00     0.013 A 
ATOM     22  C   UNL A   1      31.911  21.525  22.340  1.00  0.00     0.013 A 
ATOM     23  C   UNL A   1      32.488  20.640  24.931  1.00  0.00     0.021 A 
ATOM     24  C   UNL A   1      32.155  20.167  22.582  1.00  0.00     0.021 A 
ATOM     25  C   UNL A   1      32.464  19.731  23.874  1.00  0.00     0.067 A 
BRANCH  25  26
ATOM     26  S   UNL A   1      32.911  18.025  24.123  1.00  0.00     0.175 S 
ATOM     27  C   UNL A   1      34.616  18.042  24.599  1.00  0.00     0.163 C 
ATOM     28  O   UNL A   1      32.158  17.500  25.246  1.00  0.00    -0.224 OA
ATOM     29  O   UNL A   1      32.844  17.367  22.829  1.00  0.00    -0.224 OA
ENDBRANCH  25  26
ENDBRANCH  18  20
ENDBRANCH  11  12
ENDBRANCH   6  11
ENDBRANCH   3   5
ENDBRANCH   2   3
ENDBRANCH   1   2
BRANCH   1  30
ATOM     30  C   UNL A   1      40.396  19.700  26.028  1.00  0.00     0.275 C 
BRANCH  30  31
ATOM     31  O   UNL A   1      41.691  19.364  26.564  1.00  0.00    -0.458 OA
BRANCH  31  32
ATOM     32  C   UNL A   1      42.716  19.717  25.757  1.00  0.00     0.338 C 
ATOM     33  O   UNL A   1      43.256  19.004  24.925  1.00  0.00    -0.246 OA
BRANCH  32  34
ATOM     34  C   UNL A   1      43.125  21.123  25.926  1.00  0.00     0.060 A 
ATOM     35  C   UNL A   1      43.164  22.032  24.867  1.00  0.00     0.016 A 
ATOM     36  C   UNL A   1      43.305  21.567  27.237  1.00  0.00     0.016 A 
ATOM     37  C   UNL A   1      43.414  23.387  25.130  1.00  0.00     0.010 A 
ATOM     38  C   UNL A   1      43.533  22.910  27.503  1.00  0.00     0.010 A 
ATOM     39  C   UNL A   1      43.619  23.826  26.449  1.00  0.00    -0.014 A 
BRANCH  39  40
ATOM     40  C   UNL A   1      44.069  25.202  26.760  1.00  0.00     0.031 A 
ATOM     41  C   UNL A   1      43.053  26.170  27.303  1.00  0.00     0.074 A 
ATOM     42  C   UNL A   1      45.322  25.606  26.484  1.00  0.00     0.049 A 
ATOM     43  N   UNL A   1      43.191  27.433  27.603  1.00  0.00    -0.248 NA
ATOM     44  C   UNL A   1      41.689  25.649  27.503  1.00  0.00     0.031 C 
ATOM     45  C   UNL A   1      46.364  24.768  25.894  1.00  0.00     0.029 A 
ATOM     46  N   UNL A   1      45.927  26.826  26.650  1.00  0.00    -0.354 N 
ATOM     47  C   UNL A   1      41.935  27.854  28.025  1.00  0.00     0.074 A 
ATOM     48  C   UNL A   1      41.033  26.739  27.864  1.00  0.00     0.031 C 
ATOM     49  C   UNL A   1      47.487  25.495  25.765  1.00  0.00     0.029 A 
ATOM     50  C   UNL A   1      47.243  26.855  26.246  1.00  0.00     0.049 A 
ATOM     51  H   UNL A   1      45.464  27.610  27.025  1.00  0.00     0.167 HD
ATOM     52  C   UNL A   1      41.575  29.052  28.542  1.00  0.00     0.034 A 
ATOM     53  C   UNL A   1      48.143  27.861  26.275  1.00  0.00     0.034 A 
ATOM     54  C   UNL A   1      42.492  30.146  28.709  1.00  0.00     0.049 A 
ATOM     55  C   UNL A   1      47.730  29.188  26.871  1.00  0.00     0.074 A 
ATOM     56  C   UNL A   1      42.248  31.391  29.257  1.00  0.00     0.029 A 
ATOM     57  N   UNL A   1      43.829  30.121  28.338  1.00  0.00    -0.354 N 
ATOM     58  N   UNL A   1      46.566  29.543  27.367  1.00  0.00    -0.248 NA
ATOM     59  C   UNL A   1      48.748  30.247  26.936  1.00  0.00     0.031 C 
ATOM     60  C   UNL A   1      43.425  32.135  29.175  1.00  0.00     0.029 A 
ATOM     61  C   UNL A   1      44.422  31.333  28.637  1.00  0.00     0.049 A 
ATOM     62  H   UNL A   1      44.288  29.355  27.923  1.00  0.00     0.167 HD
ATOM     63  C   UNL A   1      46.722  30.847  27.831  1.00  0.00     0.074 A 
ATOM     64  C   UNL A   1      48.099  31.213  27.575  1.00  0.00     0.031 C 
ATOM     65  C   UNL A   1      45.810  31.667  28.411  1.00  0.00     0.034 A 
BRANCH  52  66
ATOM     66  C   UNL A   1      40.150  29.230  29.002  1.00  0.00     0.023 A 
ATOM     67  C   UNL A   1      39.827  29.145  30.367  1.00  0.00     0.031 A 
ATOM     68  C   UNL A   1      39.102  29.399  28.077  1.00  0.00     0.131 A 
ATOM     69  C   UNL A   1      38.486  29.213  30.767  1.00  0.00     0.055 A 
ATOM     70  C   UNL A   1      37.774  29.515  28.486  1.00  0.00     0.041 A 
ATOM     71  F   UNL A   1      39.360  29.484  26.761  1.00  0.00    -0.206 F 
ATOM     72  C   UNL A   1      37.461  29.412  29.836  1.00  0.00     0.022 A 
BRANCH  69  73
ATOM     73  S   UNL A   1      38.012  29.001  32.504  1.00  0.00     0.124 S 
ATOM     74  O   UNL A   1      38.124  27.555  32.673  1.00  0.00    -0.237 OA
ATOM     75  O   UNL A   1      39.029  29.791  33.194  1.00  0.00    -0.237 OA
ATOM     76  O   UNL A   1      36.654  29.531  32.564  1.00  0.00    -0.744 OA
ENDBRANCH  69  73
ENDBRANCH  52  66
BRANCH  53  77
ATOM     77  C   UNL A   1      49.543  27.608  25.817  1.00  0.00     0.023 A 
ATOM     78  C   UNL A   1      49.923  27.806  24.478  1.00  0.00     0.031 A 
ATOM     79  C   UNL A   1      50.497  27.071  26.700  1.00  0.00     0.131 A 
ATOM     80  C   UNL A   1      51.203  27.419  24.050  1.00  0.00     0.055 A 
ATOM     81  C   UNL A   1      51.792  26.751  26.285  1.00  0.00     0.041 A 
ATOM     82  F   UNL A   1      50.179  26.846  27.984  1.00  0.00    -0.206 F 
ATOM     83  C   UNL A   1      52.145  26.911  24.950  1.00  0.00     0.022 A 
BRANCH  80  84
ATOM     84  S   UNL A   1      51.646  27.445  22.291  1.00  0.00     0.124 S 
ATOM     85  O   UNL A   1      50.349  27.270  21.644  1.00  0.00    -0.237 OA
ATOM     86  O   UNL A   1      52.246  28.770  22.155  1.00  0.00    -0.237 OA
ATOM     87  O   UNL A   1      52.577  26.330  22.152  1.00  0.00    -0.744 OA
ENDBRANCH  80  84
ENDBRANCH  53  77
BRANCH  65  88
ATOM     88  C   UNL A   1      46.236  33.050  28.845  1.00  0.00     0.023 A 
ATOM     89  C   UNL A   1      46.239  34.102  27.908  1.00  0.00     0.031 A 
ATOM     90  C   UNL A   1      46.826  33.272  30.099  1.00  0.00     0.131 A 
ATOM     91  C   UNL A   1      46.875  35.310  28.219  1.00  0.00     0.055 A 
ATOM     92  C   UNL A   1      47.413  34.495  30.424  1.00  0.00     0.041 A 
ATOM     93  F   UNL A   1      46.859  32.295  31.019  1.00  0.00    -0.206 F 
ATOM     94  C   UNL A   1      47.456  35.514  29.475  1.00  0.00     0.022 A 
BRANCH  91  95
ATOM     95  S   UNL A   1      47.075  36.610  26.971  1.00  0.00     0.124 S 
ATOM     96  O   UNL A   1      46.594  35.944  25.763  1.00  0.00    -0.237 OA
ATOM     97  O   UNL A   1      46.209  37.668  27.487  1.00  0.00    -0.237 OA
ATOM     98  O   UNL A   1      48.504  36.904  26.992  1.00  0.00    -0.744 OA
ENDBRANCH  91  95
ENDBRANCH  65  88
ENDBRANCH  39  40
ENDBRANCH  32  34
ENDBRANCH  31  32
ENDBRANCH  30  31
ENDBRANCH   1  30
TORSDOF 18
ENDMDL
MODEL 2
REMARK VINA RESULT:     -12.2      1.968      7.619
REMARK SMILES Cc1cc(=O)c(Oc2ccc(C(=O)OCCOC(=O)c3ccc(-c4c5nc(c(-c6cc(S(=O)(=O)[O-])ccc6F)c6ccc([nH]6)c(-c6cc(S(=O)(=O)[O-])ccc6F)c6nc(c(-c7cc(S(=O)(=O)[O-])ccc7F)c7ccc4[nH]7)C=C6)C=C5)cc3)cc2)c(-c2ccc(S(C)(=O)=O)cc2)o1
REMARK SMILES IDX 15 1 14 2 12 3 13 4 11 5 8 6 9 7 84 8 10 9 83 10 7 11 6 12
REMARK SMILES IDX 1 13 2 14 3 15 96 16 4 17 85 18 5 19 86 20 87 21 95 22 88 23
REMARK SMILES IDX 94 24 89 25 90 26 91 27 92 28 93 29 16 30 17 31 18 32 19 33
REMARK SMILES IDX 20 34 21 35 82 36 22 37 81 38 23 39 24 40 25 41 75 42 26 43
REMARK SMILES IDX 80 44 74 45 76 46 27 47 79 48 73 49 72 50 28 52 60 53 40 54
REMARK SMILES IDX 59 55 41 56 44 57 58 58 77 59 42 60 43 61 57 63 78 64 45 65
REMARK SMILES IDX 29 66 30 67 38 68 31 69 37 70 39 71 36 72 32 73 33 74 34 75
REMARK SMILES IDX 35 76 61 77 62 78 70 79 63 80 69 81 71 82 68 83 64 84 65 85
REMARK SMILES IDX 66 86 67 87 46 88 47 89 55 90 48 91 54 92 56 93 53 94 49 95
REMARK SMILES IDX 50 96 51 97 52 98
REMARK H PARENT 76 51 44 62
REMARK Flexibility Score: inf
ROOT
ATOM      1  C   UNL A   1      38.911  20.176  26.099  1.00  0.00     0.275 C 
ENDROOT
BRANCH   1   2
ATOM      2  O   UNL A   1      39.032  21.420  25.380  1.00  0.00    -0.458 OA
BRANCH   2   3
ATOM      3  C   UNL A   1      38.621  22.542  26.027  1.00  0.00     0.338 C 
ATOM      4  O   UNL A   1      39.239  23.138  26.897  1.00  0.00    -0.246 OA
BRANCH   3   5
ATOM      5  C   UNL A   1      37.363  23.059  25.416  1.00  0.00     0.060 A 
ATOM      6  C   UNL A   1      34.845  23.624  24.338  1.00  0.00     0.127 A 
ATOM      7  C   UNL A   1      35.763  22.902  23.582  1.00  0.00     0.048 A 
ATOM      8  C   UNL A   1      35.222  24.164  25.572  1.00  0.00     0.048 A 
ATOM      9  C   UNL A   1      37.033  22.644  24.115  1.00  0.00     0.019 A 
ATOM     10  C   UNL A   1      36.465  23.859  26.128  1.00  0.00     0.019 A 
BRANCH   6  11
ATOM     11  O   UNL A   1      33.586  23.937  23.904  1.00  0.00    -0.449 OA
BRANCH  11  12
ATOM     12  C   UNL A   1      32.440  23.523  24.565  1.00  0.00     0.217 A 
ATOM     13  C   UNL A   1      29.243  22.600  27.316  1.00  0.00     0.088 C 
ATOM     14  C   UNL A   1      30.268  23.055  26.325  1.00  0.00     0.105 A 
ATOM     15  C   UNL A   1      30.584  24.336  26.120  1.00  0.00     0.098 A 
ATOM     16  O   UNL A   1      30.889  22.029  25.652  1.00  0.00    -0.457 OA
ATOM     17  C   UNL A   1      31.653  24.654  25.160  1.00  0.00     0.228 A 
ATOM     18  C   UNL A   1      32.023  22.270  24.878  1.00  0.00     0.180 A 
ATOM     19  O   UNL A   1      31.911  25.830  24.917  1.00  0.00    -0.285 OA
BRANCH  18  20
ATOM     20  C   UNL A   1      32.680  20.978  24.580  1.00  0.00     0.021 A 
ATOM     21  C   UNL A   1      32.150  20.159  23.566  1.00  0.00     0.013 A 
ATOM     22  C   UNL A   1      33.677  20.452  25.409  1.00  0.00     0.013 A 
ATOM     23  C   UNL A   1      32.583  18.839  23.402  1.00  0.00     0.021 A 
ATOM     24  C   UNL A   1      34.132  19.140  25.236  1.00  0.00     0.021 A 
ATOM     25  C   UNL A   1      33.569  18.328  24.246  1.00  0.00     0.067 A 
BRANCH  25  26
ATOM     26  S   UNL A   1      34.066  16.621  24.146  1.00  0.00     0.175 S 
ATOM     27  C   UNL A   1      32.808  15.706  24.991  1.00  0.00     0.163 C 
ATOM     28  O   UNL A   1      34.040  16.203  22.758  1.00  0.00    -0.224 OA
ATOM     29  O   UNL A   1      35.283  16.479  24.928  1.00  0.00    -0.224 OA
ENDBRANCH  25  26
ENDBRANCH  18  20
ENDBRANCH  11  12
ENDBRANCH   6  11
ENDBRANCH   3   5
ENDBRANCH   2   3
ENDBRANCH   1   2
BRANCH   1  30
ATOM     30  C   UNL A   1      40.038  19.188  25.754  1.00  0.00     0.275 C 
BRANCH  30  31
ATOM     31  O   UNL A   1      41.270  19.827  25.363  1.00  0.00    -0.458 OA
BRANCH  31  32
ATOM     32  C   UNL A   1      42.110  20.056  26.397  1.00  0.00     0.338 C 
ATOM     33  O   UNL A   1      42.677  19.205  27.065  1.00  0.00    -0.246 OA
BRANCH  32  34
ATOM     34  C   UNL A   1      42.347  21.490  26.640  1.00  0.00     0.060 A 
ATOM     35  C   UNL A   1      42.382  22.436  25.613  1.00  0.00     0.016 A 
ATOM     36  C   UNL A   1      42.361  21.902  27.973  1.00  0.00     0.016 A 
ATOM     37  C   UNL A   1      42.460  23.799  25.934  1.00  0.00     0.010 A 
ATOM     38  C   UNL A   1      42.418  23.251  28.295  1.00  0.00     0.010 A 
ATOM     39  C   UNL A   1      42.498  24.209  27.277  1.00  0.00    -0.014 A 
BRANCH  39  40
ATOM     40  C   UNL A   1      42.767  25.612  27.665  1.00  0.00     0.031 A 
ATOM     41  C   UNL A   1      44.179  26.118  27.547  1.00  0.00     0.074 A 
ATOM     42  C   UNL A   1      41.802  26.389  28.190  1.00  0.00     0.049 A 
ATOM     43  N   UNL A   1      44.671  27.284  27.869  1.00  0.00    -0.248 NA
ATOM     44  C   UNL A   1      45.177  25.167  27.026  1.00  0.00     0.031 C 
ATOM     45  C   UNL A   1      40.418  25.975  28.411  1.00  0.00     0.029 A 
ATOM     46  N   UNL A   1      41.842  27.682  28.647  1.00  0.00    -0.354 N 
ATOM     47  C   UNL A   1      46.030  27.205  27.591  1.00  0.00     0.074 A 
ATOM     48  C   UNL A   1      46.299  25.856  27.154  1.00  0.00     0.031 C 
ATOM     49  C   UNL A   1      39.735  27.002  28.944  1.00  0.00     0.029 A 
ATOM     50  C   UNL A   1      40.634  28.143  29.120  1.00  0.00     0.049 A 
ATOM     51  H   UNL A   1      42.659  28.231  28.637  1.00  0.00     0.167 HD
ATOM     52  C   UNL A   1      46.964  28.183  27.652  1.00  0.00     0.034 A 
ATOM     53  C   UNL A   1      40.297  29.350  29.623  1.00  0.00     0.034 A 
ATOM     54  C   UNL A   1      46.672  29.525  28.074  1.00  0.00     0.049 A 
ATOM     55  C   UNL A   1      41.348  30.437  29.669  1.00  0.00     0.074 A 
ATOM     56  C   UNL A   1      47.530  30.607  28.138  1.00  0.00     0.029 A 
ATOM     57  N   UNL A   1      45.427  29.970  28.495  1.00  0.00    -0.354 N 
ATOM     58  N   UNL A   1      42.608  30.381  29.302  1.00  0.00    -0.248 NA
ATOM     59  C   UNL A   1      40.936  31.754  30.174  1.00  0.00     0.031 C 
ATOM     60  C   UNL A   1      46.814  31.693  28.641  1.00  0.00     0.029 A 
ATOM     61  C   UNL A   1      45.494  31.309  28.829  1.00  0.00     0.049 A 
ATOM     62  H   UNL A   1      44.616  29.414  28.548  1.00  0.00     0.167 HD
ATOM     63  C   UNL A   1      43.127  31.659  29.499  1.00  0.00     0.074 A 
ATOM     64  C   UNL A   1      42.039  32.473  29.999  1.00  0.00     0.031 C 
ATOM     65  C   UNL A   1      44.388  32.116  29.289  1.00  0.00     0.034 A 
BRANCH  52  66
ATOM     66  C   UNL A   1      48.369  27.853  27.215  1.00  0.00     0.023 A 
ATOM     67  C   UNL A   1      48.772  28.075  25.887  1.00  0.00     0.031 A 
ATOM     68  C   UNL A   1      49.281  27.242  28.096  1.00  0.00     0.131 A 
ATOM     69  C   UNL A   1      50.048  27.671  25.474  1.00  0.00     0.055 A 
ATOM     70  C   UNL A   1      50.567  26.887  27.692  1.00  0.00     0.041 A 
ATOM     71  F   UNL A   1      48.941  27.007  29.375  1.00  0.00    -0.206 F 
ATOM     72  C   UNL A   1      50.952  27.092  26.372  1.00  0.00     0.022 A 
BRANCH  69  73
ATOM     73  S   UNL A   1      50.573  27.838  23.747  1.00  0.00     0.124 S 
ATOM     74  O   UNL A   1      51.275  29.119  23.767  1.00  0.00    -0.237 OA
ATOM     75  O   UNL A   1      51.423  26.663  23.573  1.00  0.00    -0.237 OA
ATOM     76  O   UNL A   1      49.321  27.829  22.997  1.00  0.00    -0.744 OA
ENDBRANCH  69  73
ENDBRANCH  52  66
BRANCH  53  77
ATOM     77  C   UNL A   1      38.880  29.610  30.022  1.00  0.00     0.023 A 
ATOM     78  C   UNL A   1      38.015  30.360  29.205  1.00  0.00     0.031 A 
ATOM     79  C   UNL A   1      38.402  29.189  31.275  1.00  0.00     0.131 A 
ATOM     80  C   UNL A   1      36.740  30.710  29.675  1.00  0.00     0.055 A 
ATOM     81  C   UNL A   1      37.107  29.481  31.710  1.00  0.00     0.041 A 
ATOM     82  F   UNL A   1      39.194  28.486  32.100  1.00  0.00    -0.206 F 
ATOM     83  C   UNL A   1      36.274  30.259  30.914  1.00  0.00     0.022 A 
BRANCH  80  84
ATOM     84  S   UNL A   1      35.690  31.866  28.749  1.00  0.00     0.124 S 
ATOM     85  O   UNL A   1      36.642  32.899  28.356  1.00  0.00    -0.237 OA
ATOM     86  O   UNL A   1      35.195  31.016  27.668  1.00  0.00    -0.237 OA
ATOM     87  O   UNL A   1      34.681  32.273  29.723  1.00  0.00    -0.744 OA
ENDBRANCH  80  84
ENDBRANCH  53  77
BRANCH  65  88
ATOM     88  C   UNL A   1      44.699  33.567  29.569  1.00  0.00     0.023 A 
ATOM     89  C   UNL A   1      44.687  34.497  28.510  1.00  0.00     0.031 A 
ATOM     90  C   UNL A   1      45.200  33.980  30.813  1.00  0.00     0.131 A 
ATOM     91  C   UNL A   1      45.224  35.776  28.701  1.00  0.00     0.055 A 
ATOM     92  C   UNL A   1      45.688  35.272  31.013  1.00  0.00     0.041 A 
ATOM     93  F   UNL A   1      45.245  33.125  31.847  1.00  0.00    -0.206 F 
ATOM     94  C   UNL A   1      45.719  36.170  29.949  1.00  0.00     0.022 A 
BRANCH  91  95
ATOM     95  S   UNL A   1      45.410  36.928  27.313  1.00  0.00     0.124 S 
ATOM     96  O   UNL A   1      46.125  36.110  26.335  1.00  0.00    -0.237 OA
ATOM     97  O   UNL A   1      44.021  37.230  26.976  1.00  0.00    -0.237 OA
ATOM     98  O   UNL A   1      46.175  38.037  27.873  1.00  0.00    -0.744 OA
ENDBRANCH  91  95
ENDBRANCH  65  88
ENDBRANCH  39  40
ENDBRANCH  32  34
ENDBRANCH  31  32
ENDBRANCH  30  31
ENDBRANCH   1  30
TORSDOF 18
ENDMDL
MODEL 3
REMARK VINA RESULT:     -12.0      1.721      7.759
REMARK SMILES Cc1cc(=O)c(Oc2ccc(C(=O)OCCOC(=O)c3ccc(-c4c5nc(c(-c6cc(S(=O)(=O)[O-])ccc6F)c6ccc([nH]6)c(-c6cc(S(=O)(=O)[O-])ccc6F)c6nc(c(-c7cc(S(=O)(=O)[O-])ccc7F)c7ccc4[nH]7)C=C6)C=C5)cc3)cc2)c(-c2ccc(S(C)(=O)=O)cc2)o1
REMARK SMILES IDX 15 1 14 2 12 3 13 4 11 5 8 6 9 7 84 8 10 9 83 10 7 11 6 12
REMARK SMILES IDX 1 13 2 14 3 15 96 16 4 17 85 18 5 19 86 20 87 21 95 22 88 23
REMARK SMILES IDX 94 24 89 25 90 26 91 27 92 28 93 29 16 30 17 31 18 32 19 33
REMARK SMILES IDX 20 34 21 35 82 36 22 37 81 38 23 39 24 40 25 41 75 42 26 43
REMARK SMILES IDX 80 44 74 45 76 46 27 47 79 48 73 49 72 50 28 52 60 53 40 54
REMARK SMILES IDX 59 55 41 56 44 57 58 58 77 59 42 60 43 61 57 63 78 64 45 65
REMARK SMILES IDX 29 66 30 67 38 68 31 69 37 70 39 71 36 72 32 73 33 74 34 75
REMARK SMILES IDX 35 76 61 77 62 78 70 79 63 80 69 81 71 82 68 83 64 84 65 85
REMARK SMILES IDX 66 86 67 87 46 88 47 89 55 90 48 91 54 92 56 93 53 94 49 95
REMARK SMILES IDX 50 96 51 97 52 98
REMARK H PARENT 76 51 44 62
REMARK Flexibility Score: inf
ROOT
ATOM      1  C   UNL A   1      41.193  19.844  27.122  1.00  0.00     0.275 C 
ENDROOT
BRANCH   1   2
ATOM      2  O   UNL A   1      40.418  20.618  26.182  1.00  0.00    -0.458 OA
BRANCH   2   3
ATOM      3  C   UNL A   1      40.034  21.858  26.584  1.00  0.00     0.338 C 
ATOM      4  O   UNL A   1      40.711  22.648  27.223  1.00  0.00    -0.246 OA
BRANCH   3   5
ATOM      5  C   UNL A   1      38.710  22.204  25.994  1.00  0.00     0.060 A 
ATOM      6  C   UNL A   1      36.447  23.163  24.658  1.00  0.00     0.127 A 
ATOM      7  C   UNL A   1      36.965  23.888  25.725  1.00  0.00     0.048 A 
ATOM      8  C   UNL A   1      36.978  21.909  24.337  1.00  0.00     0.048 A 
ATOM      9  C   UNL A   1      38.083  23.392  26.409  1.00  0.00     0.019 A 
ATOM     10  C   UNL A   1      38.126  21.441  24.979  1.00  0.00     0.019 A 
BRANCH   6  11
ATOM     11  O   UNL A   1      35.354  23.554  23.935  1.00  0.00    -0.449 OA
BRANCH  11  12
ATOM     12  C   UNL A   1      34.064  23.512  24.441  1.00  0.00     0.217 A 
ATOM     13  C   UNL A   1      30.427  23.606  26.766  1.00  0.00     0.088 C 
ATOM     14  C   UNL A   1      31.656  23.728  25.921  1.00  0.00     0.105 A 
ATOM     15  C   UNL A   1      32.374  24.848  25.813  1.00  0.00     0.098 A 
ATOM     16  O   UNL A   1      32.008  22.565  25.275  1.00  0.00    -0.457 OA
ATOM     17  C   UNL A   1      33.598  24.826  24.996  1.00  0.00     0.228 A 
ATOM     18  C   UNL A   1      33.246  22.448  24.646  1.00  0.00     0.180 A 
ATOM     19  O   UNL A   1      34.233  25.865  24.839  1.00  0.00    -0.285 OA
BRANCH  18  20
ATOM     20  C   UNL A   1      33.504  21.019  24.364  1.00  0.00     0.021 A 
ATOM     21  C   UNL A   1      32.575  20.295  23.593  1.00  0.00     0.013 A 
ATOM     22  C   UNL A   1      34.526  20.315  25.011  1.00  0.00     0.013 A 
ATOM     23  C   UNL A   1      32.648  18.901  23.492  1.00  0.00     0.021 A 
ATOM     24  C   UNL A   1      34.619  18.923  24.896  1.00  0.00     0.021 A 
ATOM     25  C   UNL A   1      33.667  18.216  24.154  1.00  0.00     0.067 A 
BRANCH  25  26
ATOM     26  S   UNL A   1      33.728  16.436  24.147  1.00  0.00     0.175 S 
ATOM     27  C   UNL A   1      35.060  15.999  25.228  1.00  0.00     0.163 C 
ATOM     28  O   UNL A   1      32.508  15.921  24.740  1.00  0.00    -0.224 OA
ATOM     29  O   UNL A   1      34.120  16.022  22.810  1.00  0.00    -0.224 OA
ENDBRANCH  25  26
ENDBRANCH  18  20
ENDBRANCH  11  12
ENDBRANCH   6  11
ENDBRANCH   3   5
ENDBRANCH   2   3
ENDBRANCH   1   2
BRANCH   1  30
ATOM     30  C   UNL A   1      42.222  18.936  26.425  1.00  0.00     0.275 C 
BRANCH  30  31
ATOM     31  O   UNL A   1      42.616  19.404  25.120  1.00  0.00    -0.458 OA
BRANCH  31  32
ATOM     32  C   UNL A   1      43.894  19.840  25.067  1.00  0.00     0.338 C 
ATOM     33  O   UNL A   1      44.870  19.175  24.757  1.00  0.00    -0.246 OA
BRANCH  32  34
ATOM     34  C   UNL A   1      44.026  21.275  25.379  1.00  0.00     0.060 A 
ATOM     35  C   UNL A   1      43.450  22.276  24.594  1.00  0.00     0.016 A 
ATOM     36  C   UNL A   1      44.607  21.595  26.607  1.00  0.00     0.016 A 
ATOM     37  C   UNL A   1      43.487  23.606  25.036  1.00  0.00     0.010 A 
ATOM     38  C   UNL A   1      44.629  22.908  27.057  1.00  0.00     0.010 A 
ATOM     39  C   UNL A   1      44.096  23.928  26.261  1.00  0.00    -0.014 A 
BRANCH  39  40
ATOM     40  C   UNL A   1      44.327  25.329  26.682  1.00  0.00     0.031 A 
ATOM     41  C   UNL A   1      45.722  25.880  26.565  1.00  0.00     0.074 A 
ATOM     42  C   UNL A   1      43.344  26.063  27.235  1.00  0.00     0.049 A 
ATOM     43  N   UNL A   1      46.181  27.052  26.912  1.00  0.00    -0.248 NA
ATOM     44  C   UNL A   1      46.743  24.973  26.011  1.00  0.00     0.031 C 
ATOM     45  C   UNL A   1      41.975  25.602  27.457  1.00  0.00     0.029 A 
ATOM     46  N   UNL A   1      43.349  27.345  27.724  1.00  0.00    -0.354 N 
ATOM     47  C   UNL A   1      47.540  27.020  26.619  1.00  0.00     0.074 A 
ATOM     48  C   UNL A   1      47.845  25.691  26.146  1.00  0.00     0.031 C 
ATOM     49  C   UNL A   1      41.266  26.594  28.022  1.00  0.00     0.029 A 
ATOM     50  C   UNL A   1      42.133  27.757  28.220  1.00  0.00     0.049 A 
ATOM     51  H   UNL A   1      44.149  27.918  27.721  1.00  0.00     0.167 HD
ATOM     52  C   UNL A   1      48.444  28.024  26.697  1.00  0.00     0.034 A 
ATOM     53  C   UNL A   1      41.765  28.941  28.756  1.00  0.00     0.034 A 
ATOM     54  C   UNL A   1      48.117  29.346  27.156  1.00  0.00     0.049 A 
ATOM     55  C   UNL A   1      42.783  30.057  28.820  1.00  0.00     0.074 A 
ATOM     56  C   UNL A   1      48.942  30.451  27.240  1.00  0.00     0.029 A 
ATOM     57  N   UNL A   1      46.863  29.742  27.598  1.00  0.00    -0.354 N 
ATOM     58  N   UNL A   1      44.041  30.048  28.441  1.00  0.00    -0.248 NA
ATOM     59  C   UNL A   1      42.337  31.349  29.361  1.00  0.00     0.031 C 
ATOM     60  C   UNL A   1      48.200  31.503  27.776  1.00  0.00     0.029 A 
ATOM     61  C   UNL A   1      46.894  31.074  27.965  1.00  0.00     0.049 A 
ATOM     62  H   UNL A   1      46.069  29.161  27.645  1.00  0.00     0.167 HD
ATOM     63  C   UNL A   1      44.523  31.336  28.665  1.00  0.00     0.074 A 
ATOM     64  C   UNL A   1      43.416  32.104  29.195  1.00  0.00     0.031 C 
ATOM     65  C   UNL A   1      45.767  31.836  28.456  1.00  0.00     0.034 A 
BRANCH  52  66
ATOM     66  C   UNL A   1      49.854  27.748  26.240  1.00  0.00     0.023 A 
ATOM     67  C   UNL A   1      50.197  27.859  24.882  1.00  0.00     0.031 A 
ATOM     68  C   UNL A   1      50.836  27.294  27.141  1.00  0.00     0.131 A 
ATOM     69  C   UNL A   1      51.485  27.502  24.460  1.00  0.00     0.055 A 
ATOM     70  C   UNL A   1      52.131  26.988  26.723  1.00  0.00     0.041 A 
ATOM     71  F   UNL A   1      50.556  27.170  28.449  1.00  0.00    -0.206 F 
ATOM     72  C   UNL A   1      52.457  27.082  25.375  1.00  0.00     0.022 A 
BRANCH  69  73
ATOM     73  S   UNL A   1      51.939  27.526  22.705  1.00  0.00     0.124 S 
ATOM     74  O   UNL A   1      50.643  27.354  22.055  1.00  0.00    -0.237 OA
ATOM     75  O   UNL A   1      52.537  28.852  22.566  1.00  0.00    -0.237 OA
ATOM     76  O   UNL A   1      52.859  26.401  22.566  1.00  0.00    -0.744 OA
ENDBRANCH  69  73
ENDBRANCH  52  66
BRANCH  53  77
ATOM     77  C   UNL A   1      40.345  29.148  29.173  1.00  0.00     0.023 A 
ATOM     78  C   UNL A   1      39.961  29.089  30.525  1.00  0.00     0.031 A 
ATOM     79  C   UNL A   1      39.334  29.314  28.209  1.00  0.00     0.131 A 
ATOM     80  C   UNL A   1      38.601  29.141  30.868  1.00  0.00     0.055 A 
ATOM     81  C   UNL A   1      37.987  29.435  28.560  1.00  0.00     0.041 A 
ATOM     82  F   UNL A   1      39.645  29.359  26.904  1.00  0.00    -0.206 F 
ATOM     83  C   UNL A   1      37.615  29.333  29.896  1.00  0.00     0.022 A 
BRANCH  80  84
ATOM     84  S   UNL A   1      38.058  28.837  32.573  1.00  0.00     0.124 S 
ATOM     85  O   UNL A   1      39.013  29.624  33.345  1.00  0.00    -0.237 OA
ATOM     86  O   UNL A   1      36.691  29.351  32.545  1.00  0.00    -0.237 OA
ATOM     87  O   UNL A   1      38.169  27.388  32.718  1.00  0.00    -0.744 OA
ENDBRANCH  80  84
ENDBRANCH  53  77
BRANCH  65  88
ATOM     88  C   UNL A   1      46.038  33.288  28.769  1.00  0.00     0.023 A 
ATOM     89  C   UNL A   1      46.350  33.667  30.090  1.00  0.00     0.031 A 
ATOM     90  C   UNL A   1      45.785  34.298  27.828  1.00  0.00     0.131 A 
ATOM     91  C   UNL A   1      46.341  35.021  30.446  1.00  0.00     0.055 A 
ATOM     92  C   UNL A   1      45.829  35.649  28.175  1.00  0.00     0.041 A 
ATOM     93  F   UNL A   1      45.470  33.985  26.561  1.00  0.00    -0.206 F 
ATOM     94  C   UNL A   1      46.088  36.014  29.494  1.00  0.00     0.022 A 
BRANCH  91  95
ATOM     95  S   UNL A   1      46.539  35.535  32.174  1.00  0.00     0.124 S 
ATOM     96  O   UNL A   1      47.704  34.756  32.588  1.00  0.00    -0.237 OA
ATOM     97  O   UNL A   1      46.764  36.972  32.044  1.00  0.00    -0.237 OA
ATOM     98  O   UNL A   1      45.280  35.152  32.803  1.00  0.00    -0.744 OA
ENDBRANCH  91  95
ENDBRANCH  65  88
ENDBRANCH  39  40
ENDBRANCH  32  34
ENDBRANCH  31  32
ENDBRANCH  30  31
ENDBRANCH   1  30
TORSDOF 18
ENDMDL
