MODEL 1
REMARK VINA RESULT:      -9.9      0.000      0.000
REMARK SMILES Cc1c(I)cccc1[C@H]([NH3+])C(=O)OCCOC(=O)c1ccc(-c2c3nc(c(-c4cc(S(=O)(=O)[O-])ccc4F)c4ccc([nH]4)c(-c4cc(S(=O)(=O)[O-])ccc4F)c4nc(c(-c5cc(S(=O)(=O)[O-])ccc5F)c5ccc2[nH]5)C=C4)C=C3)cc1
REMARK SMILES IDX 15 1 14 2 13 3 11 4 12 5 9 6 8 7 1 8 2 9 3 10 4 11 5 12 7 13
REMARK SMILES IDX 6 14 10 15 16 19 17 20 18 21 19 22 20 23 81 24 21 25 80 26
REMARK SMILES IDX 22 27 23 28 24 29 74 30 25 31 79 32 73 33 75 34 26 35 78 36
REMARK SMILES IDX 72 37 71 38 27 40 59 41 39 42 58 43 40 44 43 45 57 46 76 47
REMARK SMILES IDX 41 48 42 49 56 51 77 52 44 53 28 54 29 55 37 56 30 57 36 58
REMARK SMILES IDX 38 59 35 60 31 61 32 62 33 63 34 64 60 65 61 66 69 67 62 68
REMARK SMILES IDX 68 69 70 70 67 71 63 72 64 73 65 74 66 75 45 76 46 77 54 78
REMARK SMILES IDX 47 79 53 80 55 81 52 82 48 83 49 84 50 85 51 86
REMARK H PARENT 10 16 10 17 10 18 75 39 43 50
REMARK Flexibility Score: inf
ROOT
ATOM      1  C   UNL A   1      33.535  33.463  27.768  1.00  0.00     0.275 C 
ENDROOT
BRANCH   1   2
ATOM      2  C   UNL A   1      33.425  34.715  28.642  1.00  0.00     0.274 C 
BRANCH   2   3
ATOM      3  O   UNL A   1      33.122  34.345  29.997  1.00  0.00    -0.457 OA
BRANCH   3   4
ATOM      4  C   UNL A   1      33.913  34.865  30.976  1.00  0.00     0.369 C 
ATOM      5  O   UNL A   1      33.928  36.053  31.291  1.00  0.00    -0.245 OA
BRANCH   4   6
ATOM      6  C   UNL A   1      34.772  33.799  31.683  1.00  0.00     0.323 C 
BRANCH   6   7
ATOM      7  C   UNL A   1      36.263  34.020  31.471  1.00  0.00     0.025 A 
ATOM      8  C   UNL A   1      36.753  34.344  33.959  1.00  0.00     0.046 C 
ATOM      9  C   UNL A   1      37.194  34.281  32.516  1.00  0.00    -0.028 A 
ATOM     10  C   UNL A   1      38.561  34.401  32.176  1.00  0.00     0.016 A 
ATOM     11  I   UNL A   1      40.091  34.703  33.602  1.00  0.00    -0.044 I 
ATOM     12  C   UNL A   1      38.993  34.302  30.847  1.00  0.00     0.015 A 
ATOM     13  C   UNL A   1      36.731  33.918  30.142  1.00  0.00     0.011 A 
ATOM     14  C   UNL A   1      38.079  34.062  29.832  1.00  0.00     0.002 A 
ENDBRANCH   6   7
BRANCH   6  15
ATOM     15  N   UNL A   1      34.361  32.407  31.401  1.00  0.00    -0.342 N 
ATOM     16  H   UNL A   1      34.984  31.763  31.888  1.00  0.00     0.345 HD
ATOM     17  H   UNL A   1      34.411  32.234  30.397  1.00  0.00     0.345 HD
ATOM     18  H   UNL A   1      33.404  32.263  31.724  1.00  0.00     0.345 HD
ENDBRANCH   6  15
ENDBRANCH   4   6
ENDBRANCH   3   4
ENDBRANCH   2   3
ENDBRANCH   1   2
BRANCH   1  19
ATOM     19  O   UNL A   1      34.015  32.339  28.527  1.00  0.00    -0.458 OA
BRANCH  19  20
ATOM     20  C   UNL A   1      34.305  31.223  27.813  1.00  0.00     0.338 C 
ATOM     21  O   UNL A   1      33.713  30.792  26.842  1.00  0.00    -0.246 OA
BRANCH  20  22
ATOM     22  C   UNL A   1      35.593  30.682  28.282  1.00  0.00     0.060 A 
ATOM     23  C   UNL A   1      36.804  31.090  27.720  1.00  0.00     0.016 A 
ATOM     24  C   UNL A   1      35.570  29.747  29.322  1.00  0.00     0.016 A 
ATOM     25  C   UNL A   1      37.995  30.543  28.196  1.00  0.00     0.010 A 
ATOM     26  C   UNL A   1      36.759  29.201  29.797  1.00  0.00     0.010 A 
ATOM     27  C   UNL A   1      37.978  29.594  29.234  1.00  0.00    -0.014 A 
BRANCH  27  28
ATOM     28  C   UNL A   1      39.249  29.092  29.800  1.00  0.00     0.031 A 
ATOM     29  C   UNL A   1      39.788  29.627  31.089  1.00  0.00     0.074 A 
ATOM     30  C   UNL A   1      39.921  28.152  29.109  1.00  0.00     0.049 A 
ATOM     31  N   UNL A   1      40.814  29.209  31.782  1.00  0.00    -0.248 NA
ATOM     32  C   UNL A   1      39.098  30.788  31.674  1.00  0.00     0.031 C 
ATOM     33  C   UNL A   1      39.511  27.628  27.806  1.00  0.00     0.029 A 
ATOM     34  N   UNL A   1      41.074  27.471  29.399  1.00  0.00    -0.354 N 
ATOM     35  C   UNL A   1      40.883  30.035  32.896  1.00  0.00     0.074 A 
ATOM     36  C   UNL A   1      39.832  31.019  32.756  1.00  0.00     0.031 C 
ATOM     37  C   UNL A   1      40.380  26.683  27.423  1.00  0.00     0.029 A 
ATOM     38  C   UNL A   1      41.419  26.546  28.443  1.00  0.00     0.049 A 
ATOM     39  H   UNL A   1      41.604  27.629  30.214  1.00  0.00     0.167 HD
ATOM     40  C   UNL A   1      41.732  29.951  33.948  1.00  0.00     0.034 A 
ATOM     41  C   UNL A   1      42.442  25.670  28.401  1.00  0.00     0.034 A 
ATOM     42  C   UNL A   1      42.777  28.964  34.050  1.00  0.00     0.049 A 
ATOM     43  C   UNL A   1      43.369  25.589  29.586  1.00  0.00     0.074 A 
ATOM     44  C   UNL A   1      43.651  28.749  35.101  1.00  0.00     0.029 A 
ATOM     45  N   UNL A   1      43.100  28.035  33.068  1.00  0.00    -0.354 N 
ATOM     46  N   UNL A   1      43.338  26.282  30.702  1.00  0.00    -0.248 NA
ATOM     47  C   UNL A   1      44.453  24.601  29.526  1.00  0.00     0.031 C 
ATOM     48  C   UNL A   1      44.542  27.741  34.729  1.00  0.00     0.029 A 
ATOM     49  C   UNL A   1      44.180  27.271  33.475  1.00  0.00     0.049 A 
ATOM     50  H   UNL A   1      42.629  27.935  32.209  1.00  0.00     0.167 HD
ATOM     51  C   UNL A   1      44.385  25.802  31.482  1.00  0.00     0.074 A 
ATOM     52  C   UNL A   1      45.010  24.738  30.722  1.00  0.00     0.031 C 
ATOM     53  C   UNL A   1      44.795  26.210  32.711  1.00  0.00     0.034 A 
BRANCH  40  54
ATOM     54  C   UNL A   1      41.562  30.915  35.097  1.00  0.00     0.023 A 
ATOM     55  C   UNL A   1      40.347  30.971  35.805  1.00  0.00     0.031 A 
ATOM     56  C   UNL A   1      42.547  31.876  35.392  1.00  0.00     0.131 A 
ATOM     57  C   UNL A   1      40.136  31.988  36.747  1.00  0.00     0.055 A 
ATOM     58  C   UNL A   1      42.348  32.861  36.360  1.00  0.00     0.041 A 
ATOM     59  F   UNL A   1      43.721  31.871  34.740  1.00  0.00    -0.206 F 
ATOM     60  C   UNL A   1      41.131  32.928  37.033  1.00  0.00     0.022 A 
BRANCH  57  61
ATOM     61  S   UNL A   1      38.541  32.173  37.590  1.00  0.00     0.124 S 
ATOM     62  O   UNL A   1      38.951  32.295  38.988  1.00  0.00    -0.237 OA
ATOM     63  O   UNL A   1      38.017  33.395  36.987  1.00  0.00    -0.237 OA
ATOM     64  O   UNL A   1      37.824  30.947  37.259  1.00  0.00    -0.744 OA
ENDBRANCH  57  61
ENDBRANCH  40  54
BRANCH  41  65
ATOM     65  C   UNL A   1      42.555  24.750  27.232  1.00  0.00     0.023 A 
ATOM     66  C   UNL A   1      41.974  23.468  27.264  1.00  0.00     0.031 A 
ATOM     67  C   UNL A   1      43.357  25.085  26.129  1.00  0.00     0.131 A 
ATOM     68  C   UNL A   1      42.266  22.546  26.249  1.00  0.00     0.055 A 
ATOM     69  C   UNL A   1      43.587  24.187  25.085  1.00  0.00     0.041 A 
ATOM     70  F   UNL A   1      43.949  26.288  26.064  1.00  0.00    -0.206 F 
ATOM     71  C   UNL A   1      43.056  22.904  25.152  1.00  0.00     0.022 A 
BRANCH  68  72
ATOM     72  S   UNL A   1      41.757  20.811  26.398  1.00  0.00     0.124 S 
ATOM     73  O   UNL A   1      42.099  20.510  27.785  1.00  0.00    -0.237 OA
ATOM     74  O   UNL A   1      40.327  20.893  26.104  1.00  0.00    -0.237 OA
ATOM     75  O   UNL A   1      42.558  20.128  25.387  1.00  0.00    -0.744 OA
ENDBRANCH  68  72
ENDBRANCH  41  65
BRANCH  53  76
ATOM     76  C   UNL A   1      45.992  25.529  33.332  1.00  0.00     0.023 A 
ATOM     77  C   UNL A   1      45.817  24.368  34.112  1.00  0.00     0.031 A 
ATOM     78  C   UNL A   1      47.269  26.112  33.285  1.00  0.00     0.131 A 
ATOM     79  C   UNL A   1      46.893  23.856  34.848  1.00  0.00     0.055 A 
ATOM     80  C   UNL A   1      48.350  25.569  33.979  1.00  0.00     0.041 A 
ATOM     81  F   UNL A   1      47.483  27.225  32.564  1.00  0.00    -0.206 F 
ATOM     82  C   UNL A   1      48.160  24.445  34.780  1.00  0.00     0.022 A 
BRANCH  79  83
ATOM     83  S   UNL A   1      46.667  22.470  35.996  1.00  0.00     0.124 S 
ATOM     84  O   UNL A   1      45.425  22.837  36.672  1.00  0.00    -0.237 OA
ATOM     85  O   UNL A   1      46.567  21.331  35.086  1.00  0.00    -0.237 OA
ATOM     86  O   UNL A   1      47.863  22.505  36.830  1.00  0.00    -0.744 OA
ENDBRANCH  79  83
ENDBRANCH  53  76
ENDBRANCH  27  28
ENDBRANCH  20  22
ENDBRANCH  19  20
ENDBRANCH   1  19
TORSDOF 16
ENDMDL
MODEL 2
REMARK VINA RESULT:      -9.8      1.397      1.564
REMARK SMILES Cc1c(I)cccc1[C@H]([NH3+])C(=O)OCCOC(=O)c1ccc(-c2c3nc(c(-c4cc(S(=O)(=O)[O-])ccc4F)c4ccc([nH]4)c(-c4cc(S(=O)(=O)[O-])ccc4F)c4nc(c(-c5cc(S(=O)(=O)[O-])ccc5F)c5ccc2[nH]5)C=C4)C=C3)cc1
REMARK SMILES IDX 15 1 14 2 13 3 11 4 12 5 9 6 8 7 1 8 2 9 3 10 4 11 5 12 7 13
REMARK SMILES IDX 6 14 10 15 16 19 17 20 18 21 19 22 20 23 81 24 21 25 80 26
REMARK SMILES IDX 22 27 23 28 24 29 74 30 25 31 79 32 73 33 75 34 26 35 78 36
REMARK SMILES IDX 72 37 71 38 27 40 59 41 39 42 58 43 40 44 43 45 57 46 76 47
REMARK SMILES IDX 41 48 42 49 56 51 77 52 44 53 28 54 29 55 37 56 30 57 36 58
REMARK SMILES IDX 38 59 35 60 31 61 32 62 33 63 34 64 60 65 61 66 69 67 62 68
REMARK SMILES IDX 68 69 70 70 67 71 63 72 64 73 65 74 66 75 45 76 46 77 54 78
REMARK SMILES IDX 47 79 53 80 55 81 52 82 48 83 49 84 50 85 51 86
REMARK H PARENT 10 16 10 17 10 18 75 39 43 50
REMARK Flexibility Score: inf
ROOT
ATOM      1  C   UNL A   1      33.538  33.424  27.783  1.00  0.00     0.275 C 
ENDROOT
BRANCH   1   2
ATOM      2  C   UNL A   1      33.483  34.686  28.649  1.00  0.00     0.274 C 
BRANCH   2   3
ATOM      3  O   UNL A   1      33.146  34.339  30.002  1.00  0.00    -0.457 OA
BRANCH   3   4
ATOM      4  C   UNL A   1      33.929  34.856  30.991  1.00  0.00     0.369 C 
ATOM      5  O   UNL A   1      33.936  36.041  31.315  1.00  0.00    -0.245 OA
BRANCH   4   6
ATOM      6  C   UNL A   1      34.790  33.788  31.694  1.00  0.00     0.323 C 
BRANCH   6   7
ATOM      7  C   UNL A   1      36.280  34.005  31.474  1.00  0.00     0.025 A 
ATOM      8  C   UNL A   1      36.781  34.349  33.957  1.00  0.00     0.046 C 
ATOM      9  C   UNL A   1      37.215  34.273  32.513  1.00  0.00    -0.028 A 
ATOM     10  C   UNL A   1      38.581  34.389  32.166  1.00  0.00     0.016 A 
ATOM     11  I   UNL A   1      40.118  34.701  33.584  1.00  0.00    -0.044 I 
ATOM     12  C   UNL A   1      39.008  34.279  30.837  1.00  0.00     0.015 A 
ATOM     13  C   UNL A   1      36.742  33.891  30.144  1.00  0.00     0.011 A 
ATOM     14  C   UNL A   1      38.089  34.031  29.827  1.00  0.00     0.002 A 
ENDBRANCH   6   7
BRANCH   6  15
ATOM     15  N   UNL A   1      34.374  32.397  31.416  1.00  0.00    -0.342 N 
ATOM     16  H   UNL A   1      33.883  32.361  30.523  1.00  0.00     0.345 HD
ATOM     17  H   UNL A   1      33.753  32.072  32.158  1.00  0.00     0.345 HD
ATOM     18  H   UNL A   1      35.198  31.797  31.375  1.00  0.00     0.345 HD
ENDBRANCH   6  15
ENDBRANCH   4   6
ENDBRANCH   3   4
ENDBRANCH   2   3
ENDBRANCH   1   2
BRANCH   1  19
ATOM     19  O   UNL A   1      34.003  32.292  28.540  1.00  0.00    -0.458 OA
BRANCH  19  20
ATOM     20  C   UNL A   1      34.300  31.182  27.822  1.00  0.00     0.338 C 
ATOM     21  O   UNL A   1      33.713  30.751  26.849  1.00  0.00    -0.246 OA
BRANCH  20  22
ATOM     22  C   UNL A   1      35.591  30.647  28.290  1.00  0.00     0.060 A 
ATOM     23  C   UNL A   1      36.799  31.051  27.718  1.00  0.00     0.016 A 
ATOM     24  C   UNL A   1      35.574  29.722  29.340  1.00  0.00     0.016 A 
ATOM     25  C   UNL A   1      37.993  30.510  28.195  1.00  0.00     0.010 A 
ATOM     26  C   UNL A   1      36.766  29.182  29.814  1.00  0.00     0.010 A 
ATOM     27  C   UNL A   1      37.982  29.572  29.242  1.00  0.00    -0.014 A 
BRANCH  27  28
ATOM     28  C   UNL A   1      39.257  29.076  29.806  1.00  0.00     0.031 A 
ATOM     29  C   UNL A   1      39.795  29.616  31.094  1.00  0.00     0.074 A 
ATOM     30  C   UNL A   1      39.933  28.139  29.116  1.00  0.00     0.049 A 
ATOM     31  N   UNL A   1      40.824  29.204  31.786  1.00  0.00    -0.248 NA
ATOM     32  C   UNL A   1      39.100  30.775  31.678  1.00  0.00     0.031 C 
ATOM     33  C   UNL A   1      39.523  27.612  27.814  1.00  0.00     0.029 A 
ATOM     34  N   UNL A   1      41.089  27.464  29.405  1.00  0.00    -0.354 N 
ATOM     35  C   UNL A   1      40.890  30.032  32.899  1.00  0.00     0.074 A 
ATOM     36  C   UNL A   1      39.833  31.011  32.759  1.00  0.00     0.031 C 
ATOM     37  C   UNL A   1      40.396  26.670  27.431  1.00  0.00     0.029 A 
ATOM     38  C   UNL A   1      41.437  26.540  28.450  1.00  0.00     0.049 A 
ATOM     39  H   UNL A   1      41.620  27.626  30.219  1.00  0.00     0.167 HD
ATOM     40  C   UNL A   1      41.740  29.954  33.949  1.00  0.00     0.034 A 
ATOM     41  C   UNL A   1      42.466  25.669  28.407  1.00  0.00     0.034 A 
ATOM     42  C   UNL A   1      42.791  28.972  34.051  1.00  0.00     0.049 A 
ATOM     43  C   UNL A   1      43.394  25.595  29.592  1.00  0.00     0.074 A 
ATOM     44  C   UNL A   1      43.667  28.763  35.102  1.00  0.00     0.029 A 
ATOM     45  N   UNL A   1      43.117  28.044  33.070  1.00  0.00    -0.354 N 
ATOM     46  N   UNL A   1      43.361  26.289  30.706  1.00  0.00    -0.248 NA
ATOM     47  C   UNL A   1      44.483  24.612  29.531  1.00  0.00     0.031 C 
ATOM     48  C   UNL A   1      44.563  27.759  34.730  1.00  0.00     0.029 A 
ATOM     49  C   UNL A   1      44.202  27.286  33.477  1.00  0.00     0.049 A 
ATOM     50  H   UNL A   1      42.646  27.940  32.212  1.00  0.00     0.167 HD
ATOM     51  C   UNL A   1      44.412  25.815  31.486  1.00  0.00     0.074 A 
ATOM     52  C   UNL A   1      45.041  24.753  30.726  1.00  0.00     0.031 C 
ATOM     53  C   UNL A   1      44.822  26.226  32.713  1.00  0.00     0.034 A 
BRANCH  40  54
ATOM     54  C   UNL A   1      41.567  30.918  35.098  1.00  0.00     0.023 A 
ATOM     55  C   UNL A   1      40.355  30.966  35.811  1.00  0.00     0.031 A 
ATOM     56  C   UNL A   1      42.546  31.888  35.387  1.00  0.00     0.131 A 
ATOM     57  C   UNL A   1      40.139  31.982  36.752  1.00  0.00     0.055 A 
ATOM     58  C   UNL A   1      42.342  32.873  36.354  1.00  0.00     0.041 A 
ATOM     59  F   UNL A   1      43.716  31.892  34.729  1.00  0.00    -0.206 F 
ATOM     60  C   UNL A   1      41.128  32.931  37.032  1.00  0.00     0.022 A 
BRANCH  57  61
ATOM     61  S   UNL A   1      38.546  32.155  37.602  1.00  0.00     0.124 S 
ATOM     62  O   UNL A   1      38.960  32.261  39.000  1.00  0.00    -0.237 OA
ATOM     63  O   UNL A   1      38.019  33.383  37.014  1.00  0.00    -0.237 OA
ATOM     64  O   UNL A   1      37.830  30.932  37.259  1.00  0.00    -0.744 OA
ENDBRANCH  57  61
ENDBRANCH  40  54
BRANCH  41  65
ATOM     65  C   UNL A   1      42.581  24.748  27.240  1.00  0.00     0.023 A 
ATOM     66  C   UNL A   1      41.974  23.479  27.258  1.00  0.00     0.031 A 
ATOM     67  C   UNL A   1      43.411  25.068  26.153  1.00  0.00     0.131 A 
ATOM     68  C   UNL A   1      42.266  22.552  26.248  1.00  0.00     0.055 A 
ATOM     69  C   UNL A   1      43.642  24.167  25.112  1.00  0.00     0.041 A 
ATOM     70  F   UNL A   1      44.028  26.259  26.100  1.00  0.00    -0.206 F 
ATOM     71  C   UNL A   1      43.084  22.894  25.167  1.00  0.00     0.022 A 
BRANCH  68  72
ATOM     72  S   UNL A   1      41.719  20.827  26.385  1.00  0.00     0.124 S 
ATOM     73  O   UNL A   1      42.029  20.518  27.777  1.00  0.00    -0.237 OA
ATOM     74  O   UNL A   1      40.297  20.939  26.066  1.00  0.00    -0.237 OA
ATOM     75  O   UNL A   1      42.524  20.130  25.388  1.00  0.00    -0.744 OA
ENDBRANCH  68  72
ENDBRANCH  41  65
BRANCH  53  76
ATOM     76  C   UNL A   1      46.022  25.553  33.333  1.00  0.00     0.023 A 
ATOM     77  C   UNL A   1      47.305  25.755  32.787  1.00  0.00     0.031 A 
ATOM     78  C   UNL A   1      45.877  24.597  34.352  1.00  0.00     0.131 A 
ATOM     79  C   UNL A   1      48.382  24.978  33.233  1.00  0.00     0.055 A 
ATOM     80  C   UNL A   1      46.963  23.861  34.829  1.00  0.00     0.041 A 
ATOM     81  F   UNL A   1      44.672  24.360  34.897  1.00  0.00    -0.206 F 
ATOM     82  C   UNL A   1      48.219  24.038  34.256  1.00  0.00     0.022 A 
BRANCH  79  83
ATOM     83  S   UNL A   1      50.009  25.087  32.437  1.00  0.00     0.124 S 
ATOM     84  O   UNL A   1      50.729  25.977  33.345  1.00  0.00    -0.237 OA
ATOM     85  O   UNL A   1      50.451  23.695  32.449  1.00  0.00    -0.237 OA
ATOM     86  O   UNL A   1      49.720  25.643  31.120  1.00  0.00    -0.744 OA
ENDBRANCH  79  83
ENDBRANCH  53  76
ENDBRANCH  27  28
ENDBRANCH  20  22
ENDBRANCH  19  20
ENDBRANCH   1  19
TORSDOF 16
ENDMDL
MODEL 3
REMARK VINA RESULT:      -9.7      5.027     11.872
REMARK SMILES Cc1c(I)cccc1[C@H]([NH3+])C(=O)OCCOC(=O)c1ccc(-c2c3nc(c(-c4cc(S(=O)(=O)[O-])ccc4F)c4ccc([nH]4)c(-c4cc(S(=O)(=O)[O-])ccc4F)c4nc(c(-c5cc(S(=O)(=O)[O-])ccc5F)c5ccc2[nH]5)C=C4)C=C3)cc1
REMARK SMILES IDX 15 1 14 2 13 3 11 4 12 5 9 6 8 7 1 8 2 9 3 10 4 11 5 12 7 13
REMARK SMILES IDX 6 14 10 15 16 19 17 20 18 21 19 22 20 23 81 24 21 25 80 26
REMARK SMILES IDX 22 27 23 28 24 29 74 30 25 31 79 32 73 33 75 34 26 35 78 36
REMARK SMILES IDX 72 37 71 38 27 40 59 41 39 42 58 43 40 44 43 45 57 46 76 47
REMARK SMILES IDX 41 48 42 49 56 51 77 52 44 53 28 54 29 55 37 56 30 57 36 58
REMARK SMILES IDX 38 59 35 60 31 61 32 62 33 63 34 64 60 65 61 66 69 67 62 68
REMARK SMILES IDX 68 69 70 70 67 71 63 72 64 73 65 74 66 75 45 76 46 77 54 78
REMARK SMILES IDX 47 79 53 80 55 81 52 82 48 83 49 84 50 85 51 86
REMARK H PARENT 10 16 10 17 10 18 75 39 43 50
REMARK Flexibility Score: inf
ROOT
ATOM      1  C   UNL A   1      40.623  20.625  26.270  1.00  0.00     0.275 C 
ENDROOT
BRANCH   1   2
ATOM      2  C   UNL A   1      42.111  20.976  26.361  1.00  0.00     0.274 C 
BRANCH   2   3
ATOM      3  O   UNL A   1      42.436  21.989  25.395  1.00  0.00    -0.457 OA
BRANCH   3   4
ATOM      4  C   UNL A   1      43.352  22.928  25.763  1.00  0.00     0.369 C 
ATOM      5  O   UNL A   1      43.266  24.121  25.482  1.00  0.00    -0.245 OA
BRANCH   4   6
ATOM      6  C   UNL A   1      44.504  22.345  26.605  1.00  0.00     0.323 C 
BRANCH   6   7
ATOM      7  C   UNL A   1      45.114  23.373  27.547  1.00  0.00     0.025 A 
ATOM      8  C   UNL A   1      43.342  23.033  29.357  1.00  0.00     0.046 C 
ATOM      9  C   UNL A   1      44.583  23.708  28.824  1.00  0.00    -0.028 A 
ATOM     10  C   UNL A   1      45.294  24.637  29.619  1.00  0.00     0.016 A 
ATOM     11  I   UNL A   1      44.702  25.189  31.571  1.00  0.00    -0.044 I 
ATOM     12  C   UNL A   1      46.470  25.241  29.157  1.00  0.00     0.015 A 
ATOM     13  C   UNL A   1      46.307  23.993  27.113  1.00  0.00     0.011 A 
ATOM     14  C   UNL A   1      46.975  24.920  27.906  1.00  0.00     0.002 A 
ENDBRANCH   6   7
BRANCH   6  15
ATOM     15  N   UNL A   1      45.526  21.624  25.816  1.00  0.00    -0.342 N 
ATOM     16  H   UNL A   1      45.812  20.783  26.316  1.00  0.00     0.345 HD
ATOM     17  H   UNL A   1      46.336  22.228  25.676  1.00  0.00     0.345 HD
ATOM     18  H   UNL A   1      45.135  21.364  24.910  1.00  0.00     0.345 HD
ENDBRANCH   6  15
ENDBRANCH   4   6
ENDBRANCH   3   4
ENDBRANCH   2   3
ENDBRANCH   1   2
BRANCH   1  19
ATOM     19  O   UNL A   1      39.830  21.499  27.094  1.00  0.00    -0.458 OA
BRANCH  19  20
ATOM     20  C   UNL A   1      39.108  22.438  26.436  1.00  0.00     0.338 C 
ATOM     21  O   UNL A   1      38.181  22.256  25.669  1.00  0.00    -0.246 OA
BRANCH  20  22
ATOM     22  C   UNL A   1      39.495  23.769  26.936  1.00  0.00     0.060 A 
ATOM     23  C   UNL A   1      39.539  24.050  28.302  1.00  0.00     0.016 A 
ATOM     24  C   UNL A   1      39.830  24.749  25.995  1.00  0.00     0.016 A 
ATOM     25  C   UNL A   1      39.907  25.329  28.723  1.00  0.00     0.010 A 
ATOM     26  C   UNL A   1      40.197  26.024  26.416  1.00  0.00     0.010 A 
ATOM     27  C   UNL A   1      40.235  26.321  27.783  1.00  0.00    -0.014 A 
BRANCH  27  28
ATOM     28  C   UNL A   1      40.717  27.644  28.238  1.00  0.00     0.031 A 
ATOM     29  C   UNL A   1      42.166  28.010  28.154  1.00  0.00     0.074 A 
ATOM     30  C   UNL A   1      39.818  28.502  28.753  1.00  0.00     0.049 A 
ATOM     31  N   UNL A   1      42.731  29.164  28.389  1.00  0.00    -0.248 NA
ATOM     32  C   UNL A   1      43.106  26.945  27.768  1.00  0.00     0.031 C 
ATOM     33  C   UNL A   1      38.399  28.201  28.946  1.00  0.00     0.029 A 
ATOM     34  N   UNL A   1      39.953  29.790  29.200  1.00  0.00    -0.354 N 
ATOM     35  C   UNL A   1      44.088  28.978  28.158  1.00  0.00     0.074 A 
ATOM     36  C   UNL A   1      44.269  27.581  27.824  1.00  0.00     0.031 C 
ATOM     37  C   UNL A   1      37.787  29.285  29.441  1.00  0.00     0.029 A 
ATOM     38  C   UNL A   1      38.771  30.352  29.618  1.00  0.00     0.049 A 
ATOM     39  H   UNL A   1      40.814  30.267  29.219  1.00  0.00     0.167 HD
ATOM     40  C   UNL A   1      45.077  29.901  28.196  1.00  0.00     0.034 A 
ATOM     41  C   UNL A   1      38.503  31.593  30.072  1.00  0.00     0.034 A 
ATOM     42  C   UNL A   1      44.862  31.283  28.546  1.00  0.00     0.049 A 
ATOM     43  C   UNL A   1      39.618  32.605  30.097  1.00  0.00     0.074 A 
ATOM     44  C   UNL A   1      45.783  32.316  28.552  1.00  0.00     0.029 A 
ATOM     45  N   UNL A   1      43.652  31.826  28.960  1.00  0.00    -0.354 N 
ATOM     46  N   UNL A   1      40.873  32.455  29.739  1.00  0.00    -0.248 NA
ATOM     47  C   UNL A   1      39.287  33.957  30.563  1.00  0.00     0.031 C 
ATOM     48  C   UNL A   1      45.149  33.463  29.033  1.00  0.00     0.029 A 
ATOM     49  C   UNL A   1      43.812  33.169  29.257  1.00  0.00     0.049 A 
ATOM     50  H   UNL A   1      42.806  31.328  29.031  1.00  0.00     0.167 HD
ATOM     51  C   UNL A   1      41.476  33.696  29.920  1.00  0.00     0.074 A 
ATOM     52  C   UNL A   1      40.439  34.593  30.389  1.00  0.00     0.031 C 
ATOM     53  C   UNL A   1      42.770  34.056  29.722  1.00  0.00     0.034 A 
BRANCH  40  54
ATOM     54  C   UNL A   1      46.478  29.481  27.820  1.00  0.00     0.023 A 
ATOM     55  C   UNL A   1      46.758  29.022  26.519  1.00  0.00     0.031 A 
ATOM     56  C   UNL A   1      47.496  29.397  28.788  1.00  0.00     0.131 A 
ATOM     57  C   UNL A   1      48.012  28.467  26.232  1.00  0.00     0.055 A 
ATOM     58  C   UNL A   1      48.757  28.881  28.486  1.00  0.00     0.041 A 
ATOM     59  F   UNL A   1      47.277  29.815  30.045  1.00  0.00    -0.206 F 
ATOM     60  C   UNL A   1      49.015  28.400  27.205  1.00  0.00     0.022 A 
BRANCH  57  61
ATOM     61  S   UNL A   1      48.374  27.748  24.606  1.00  0.00     0.124 S 
ATOM     62  O   UNL A   1      48.285  26.316  24.883  1.00  0.00    -0.237 OA
ATOM     63  O   UNL A   1      47.295  28.292  23.786  1.00  0.00    -0.237 OA
ATOM     64  O   UNL A   1      49.712  28.238  24.295  1.00  0.00    -0.744 OA
ENDBRANCH  57  61
ENDBRANCH  40  54
BRANCH  41  65
ATOM     65  C   UNL A   1      37.097  31.940  30.432  1.00  0.00     0.023 A 
ATOM     66  C   UNL A   1      36.232  32.521  29.487  1.00  0.00     0.031 A 
ATOM     67  C   UNL A   1      36.647  31.823  31.757  1.00  0.00     0.131 A 
ATOM     68  C   UNL A   1      34.992  33.030  29.898  1.00  0.00     0.055 A 
ATOM     69  C   UNL A   1      35.381  32.266  32.147  1.00  0.00     0.041 A 
ATOM     70  F   UNL A   1      37.443  31.293  32.698  1.00  0.00    -0.206 F 
ATOM     71  C   UNL A   1      34.555  32.891  31.218  1.00  0.00     0.022 A 
BRANCH  68  72
ATOM     72  S   UNL A   1      33.975  34.020  28.768  1.00  0.00     0.124 S 
ATOM     73  O   UNL A   1      34.946  34.975  28.241  1.00  0.00    -0.237 OA
ATOM     74  O   UNL A   1      33.508  33.009  27.822  1.00  0.00    -0.237 OA
ATOM     75  O   UNL A   1      32.943  34.581  29.634  1.00  0.00    -0.744 OA
ENDBRANCH  68  72
ENDBRANCH  41  65
BRANCH  53  76
ATOM     76  C   UNL A   1      43.174  35.480  30.023  1.00  0.00     0.023 A 
ATOM     77  C   UNL A   1      43.059  36.471  29.029  1.00  0.00     0.031 A 
ATOM     78  C   UNL A   1      43.813  35.817  31.227  1.00  0.00     0.131 A 
ATOM     79  C   UNL A   1      43.617  37.738  29.241  1.00  0.00     0.055 A 
ATOM     80  C   UNL A   1      44.323  37.097  31.455  1.00  0.00     0.041 A 
ATOM     81  F   UNL A   1      43.958  34.904  32.202  1.00  0.00    -0.206 F 
ATOM     82  C   UNL A   1      44.241  38.059  30.452  1.00  0.00     0.022 A 
BRANCH  79  83
ATOM     83  S   UNL A   1      43.641  38.984  27.923  1.00  0.00     0.124 S 
ATOM     84  O   UNL A   1      45.019  38.889  27.444  1.00  0.00    -0.237 OA
ATOM     85  O   UNL A   1      42.626  38.478  27.002  1.00  0.00    -0.237 OA
ATOM     86  O   UNL A   1      43.306  40.228  28.607  1.00  0.00    -0.744 OA
ENDBRANCH  79  83
ENDBRANCH  53  76
ENDBRANCH  27  28
ENDBRANCH  20  22
ENDBRANCH  19  20
ENDBRANCH   1  19
TORSDOF 16
ENDMDL
