MODEL 1
REMARK VINA RESULT:     -12.3      0.000      0.000
REMARK SMILES CCc1cc(OC(F)(F)F)cc2c1O[C@H](C(F)(F)F)C(C(=O)OCCOC(=O)c1ccc(-c3c4nc(c(-c5cc(S(=O)(=O)[O-])ccc5F)c5ccc([nH]5)c(-c5cc(S(=O)(=O)[O-])ccc5F)c5nc(c(-c6cc(S(=O)(=O)[O-])ccc6F)c6ccc3[nH]6)C=C5)C=C4)cc1)=C2
REMARK SMILES IDX 25 1 24 2 23 3 21 4 22 5 20 6 3 7 4 8 13 9 5 10 12 11 14 12
REMARK SMILES IDX 11 13 92 14 15 15 2 16 1 17 6 18 7 19 8 20 9 21 10 22 16 23
REMARK SMILES IDX 17 24 18 25 19 26 26 27 27 28 28 29 29 30 30 31 91 32 31 33
REMARK SMILES IDX 90 34 32 35 33 36 34 37 84 38 35 39 89 40 83 41 85 42 36 43
REMARK SMILES IDX 88 44 82 45 81 46 37 48 69 49 49 50 68 51 50 52 53 53 67 54
REMARK SMILES IDX 86 55 51 56 52 57 66 59 87 60 54 61 38 62 39 63 47 64 40 65
REMARK SMILES IDX 46 66 48 67 45 68 41 69 42 70 43 71 44 72 70 73 71 74 79 75
REMARK SMILES IDX 72 76 78 77 80 78 77 79 73 80 74 81 75 82 76 83 55 84 56 85
REMARK SMILES IDX 64 86 57 87 63 88 65 89 62 90 58 91 59 92 60 93 61 94
REMARK H PARENT 85 47 53 58
REMARK Flexibility Score: inf
ROOT
ATOM      1  C   UNL A   1      32.057  30.011  25.396  1.00  0.00     0.275 C 
ENDROOT
BRANCH   1   2
ATOM      2  C   UNL A   1      31.051  28.891  25.137  1.00  0.00     0.275 C 
BRANCH   2   3
ATOM      3  O   UNL A   1      31.413  28.091  23.990  1.00  0.00    -0.459 OA
BRANCH   3   4
ATOM      4  C   UNL A   1      30.752  26.912  23.889  1.00  0.00     0.338 C 
ATOM      5  O   UNL A   1      29.574  26.774  23.612  1.00  0.00    -0.246 OA
BRANCH   4   6
ATOM      6  C   UNL A   1      31.622  25.755  24.160  1.00  0.00     0.087 C 
ATOM      7  C   UNL A   1      34.375  22.667  23.734  1.00  0.00    -0.002 A 
ATOM      8  C   UNL A   1      34.019  21.384  24.170  1.00  0.00     0.054 A 
ATOM      9  C   UNL A   1      33.396  23.667  23.791  1.00  0.00     0.131 A 
ATOM     10  C   UNL A   1      32.722  21.113  24.633  1.00  0.00     0.130 A 
ATOM     11  C   UNL A   1      32.097  23.423  24.271  1.00  0.00     0.021 A 
ATOM     12  O   UNL A   1      33.758  24.914  23.342  1.00  0.00    -0.475 OA
ATOM     13  C   UNL A   1      31.768  22.137  24.687  1.00  0.00     0.058 A 
ATOM     14  C   UNL A   1      31.121  24.516  24.280  1.00  0.00     0.027 C 
ATOM     15  C   UNL A   1      33.111  25.985  24.065  1.00  0.00     0.316 C 
BRANCH   7  16
ATOM     16  C   UNL A   1      35.767  23.048  23.268  1.00  0.00     0.036 C 
ATOM     17  C   UNL A   1      36.849  23.185  24.327  1.00  0.00     0.009 C 
ENDBRANCH   7  16
BRANCH  10  18
ATOM     18  O   UNL A   1      32.263  19.903  25.074  1.00  0.00    -0.406 OA
BRANCH  18  19
ATOM     19  C   UNL A   1      32.550  18.764  24.282  1.00  0.00     0.573 C 
ATOM     20  F   UNL A   1      32.266  18.988  22.981  1.00  0.00    -0.132 F 
ATOM     21  F   UNL A   1      33.839  18.390  24.409  1.00  0.00    -0.132 F 
ATOM     22  F   UNL A   1      31.773  17.741  24.705  1.00  0.00    -0.132 F 
ENDBRANCH  18  19
ENDBRANCH  10  18
BRANCH  15  23
ATOM     23  C   UNL A   1      33.788  26.211  25.431  1.00  0.00     0.430 C 
ATOM     24  F   UNL A   1      34.215  27.481  25.604  1.00  0.00    -0.167 F 
ATOM     25  F   UNL A   1      32.935  25.925  26.443  1.00  0.00    -0.167 F 
ATOM     26  F   UNL A   1      34.868  25.412  25.577  1.00  0.00    -0.167 F 
ENDBRANCH  15  23
ENDBRANCH   4   6
ENDBRANCH   3   4
ENDBRANCH   2   3
ENDBRANCH   1   2
BRANCH   1  27
ATOM     27  O   UNL A   1      32.331  30.125  26.804  1.00  0.00    -0.458 OA
BRANCH  27  28
ATOM     28  C   UNL A   1      32.966  31.259  27.175  1.00  0.00     0.338 C 
ATOM     29  O   UNL A   1      32.469  32.370  27.284  1.00  0.00    -0.246 OA
BRANCH  28  30
ATOM     30  C   UNL A   1      34.386  30.996  27.472  1.00  0.00     0.060 A 
ATOM     31  C   UNL A   1      34.825  29.684  27.627  1.00  0.00     0.016 A 
ATOM     32  C   UNL A   1      35.224  32.051  27.824  1.00  0.00     0.016 A 
ATOM     33  C   UNL A   1      36.013  29.423  28.309  1.00  0.00     0.010 A 
ATOM     34  C   UNL A   1      36.484  31.781  28.373  1.00  0.00     0.010 A 
ATOM     35  C   UNL A   1      36.866  30.465  28.697  1.00  0.00    -0.014 A 
BRANCH  35  36
ATOM     36  C   UNL A   1      38.094  30.200  29.514  1.00  0.00     0.031 A 
ATOM     37  C   UNL A   1      39.198  29.329  28.951  1.00  0.00     0.074 A 
ATOM     38  C   UNL A   1      38.256  30.740  30.740  1.00  0.00     0.049 A 
ATOM     39  N   UNL A   1      40.213  28.770  29.561  1.00  0.00    -0.248 NA
ATOM     40  C   UNL A   1      39.128  29.026  27.514  1.00  0.00     0.031 C 
ATOM     41  C   UNL A   1      37.324  31.657  31.398  1.00  0.00     0.029 A 
ATOM     42  N   UNL A   1      39.274  30.599  31.655  1.00  0.00    -0.354 N 
ATOM     43  C   UNL A   1      40.854  27.987  28.603  1.00  0.00     0.074 A 
ATOM     44  C   UNL A   1      40.100  28.136  27.376  1.00  0.00     0.031 C 
ATOM     45  C   UNL A   1      37.833  32.033  32.580  1.00  0.00     0.029 A 
ATOM     46  C   UNL A   1      39.067  31.296  32.824  1.00  0.00     0.049 A 
ATOM     47  H   UNL A   1      40.075  30.052  31.490  1.00  0.00     0.167 HD
ATOM     48  C   UNL A   1      41.966  27.218  28.736  1.00  0.00     0.034 A 
ATOM     49  C   UNL A   1      39.752  31.304  33.986  1.00  0.00     0.034 A 
ATOM     50  C   UNL A   1      42.749  27.141  29.947  1.00  0.00     0.049 A 
ATOM     51  C   UNL A   1      40.964  30.421  34.125  1.00  0.00     0.074 A 
ATOM     52  C   UNL A   1      43.895  26.401  30.188  1.00  0.00     0.029 A 
ATOM     53  N   UNL A   1      42.484  27.845  31.114  1.00  0.00    -0.354 N 
ATOM     54  N   UNL A   1      41.499  29.606  33.245  1.00  0.00    -0.248 NA
ATOM     55  C   UNL A   1      41.658  30.451  35.419  1.00  0.00     0.031 C 
ATOM     56  C   UNL A   1      44.288  26.614  31.515  1.00  0.00     0.029 A 
ATOM     57  C   UNL A   1      43.435  27.546  32.080  1.00  0.00     0.049 A 
ATOM     58  H   UNL A   1      41.731  28.466  31.239  1.00  0.00     0.167 HD
ATOM     59  C   UNL A   1      42.609  29.047  33.873  1.00  0.00     0.074 A 
ATOM     60  C   UNL A   1      42.675  29.631  35.198  1.00  0.00     0.031 C 
ATOM     61  C   UNL A   1      43.493  28.133  33.399  1.00  0.00     0.034 A 
BRANCH  48  62
ATOM     62  C   UNL A   1      42.361  26.349  27.561  1.00  0.00     0.023 A 
ATOM     63  C   UNL A   1      41.909  25.025  27.414  1.00  0.00     0.031 A 
ATOM     64  C   UNL A   1      43.236  26.854  26.580  1.00  0.00     0.131 A 
ATOM     65  C   UNL A   1      42.395  24.232  26.362  1.00  0.00     0.055 A 
ATOM     66  C   UNL A   1      43.645  26.087  25.488  1.00  0.00     0.041 A 
ATOM     67  F   UNL A   1      43.718  28.104  26.673  1.00  0.00    -0.206 F 
ATOM     68  C   UNL A   1      43.238  24.763  25.382  1.00  0.00     0.022 A 
BRANCH  65  69
ATOM     69  S   UNL A   1      42.029  22.455  26.372  1.00  0.00     0.124 S 
ATOM     70  O   UNL A   1      42.809  21.988  25.228  1.00  0.00    -0.237 OA
ATOM     71  O   UNL A   1      42.507  22.041  27.685  1.00  0.00    -0.237 OA
ATOM     72  O   UNL A   1      40.580  22.402  26.190  1.00  0.00    -0.744 OA
ENDBRANCH  65  69
ENDBRANCH  48  62
BRANCH  49  73
ATOM     73  C   UNL A   1      39.270  32.119  35.141  1.00  0.00     0.023 A 
ATOM     74  C   UNL A   1      39.729  33.429  35.348  1.00  0.00     0.031 A 
ATOM     75  C   UNL A   1      38.373  31.579  36.082  1.00  0.00     0.131 A 
ATOM     76  C   UNL A   1      39.323  34.140  36.489  1.00  0.00     0.055 A 
ATOM     77  C   UNL A   1      37.922  32.314  37.180  1.00  0.00     0.041 A 
ATOM     78  F   UNL A   1      37.905  30.328  35.938  1.00  0.00    -0.206 F 
ATOM     79  C   UNL A   1      38.409  33.598  37.395  1.00  0.00     0.022 A 
BRANCH  76  80
ATOM     80  S   UNL A   1      40.077  35.756  36.821  1.00  0.00     0.124 S 
ATOM     81  O   UNL A   1      39.441  36.128  38.079  1.00  0.00    -0.237 OA
ATOM     82  O   UNL A   1      41.495  35.419  36.893  1.00  0.00    -0.237 OA
ATOM     83  O   UNL A   1      39.688  36.558  35.663  1.00  0.00    -0.744 OA
ENDBRANCH  76  80
ENDBRANCH  49  73
BRANCH  61  84
ATOM     84  C   UNL A   1      44.647  27.766  34.299  1.00  0.00     0.023 A 
ATOM     85  C   UNL A   1      44.595  26.659  35.164  1.00  0.00     0.031 A 
ATOM     86  C   UNL A   1      45.810  28.559  34.309  1.00  0.00     0.131 A 
ATOM     87  C   UNL A   1      45.658  26.412  36.047  1.00  0.00     0.055 A 
ATOM     88  C   UNL A   1      46.889  28.272  35.146  1.00  0.00     0.041 A 
ATOM     89  F   UNL A   1      45.913  29.630  33.506  1.00  0.00    -0.206 F 
ATOM     90  C   UNL A   1      46.810  27.201  36.033  1.00  0.00     0.022 A 
BRANCH  87  91
ATOM     91  S   UNL A   1      45.472  25.104  37.292  1.00  0.00     0.124 S 
ATOM     92  O   UNL A   1      44.271  25.530  38.004  1.00  0.00    -0.237 OA
ATOM     93  O   UNL A   1      45.334  23.908  36.469  1.00  0.00    -0.237 OA
ATOM     94  O   UNL A   1      46.711  25.187  38.064  1.00  0.00    -0.744 OA
ENDBRANCH  87  91
ENDBRANCH  61  84
ENDBRANCH  35  36
ENDBRANCH  28  30
ENDBRANCH  27  28
ENDBRANCH   1  27
TORSDOF 18
ENDMDL
MODEL 2
REMARK VINA RESULT:     -12.3      4.933      9.970
REMARK SMILES CCc1cc(OC(F)(F)F)cc2c1O[C@H](C(F)(F)F)C(C(=O)OCCOC(=O)c1ccc(-c3c4nc(c(-c5cc(S(=O)(=O)[O-])ccc5F)c5ccc([nH]5)c(-c5cc(S(=O)(=O)[O-])ccc5F)c5nc(c(-c6cc(S(=O)(=O)[O-])ccc6F)c6ccc3[nH]6)C=C5)C=C4)cc1)=C2
REMARK SMILES IDX 25 1 24 2 23 3 21 4 22 5 20 6 3 7 4 8 13 9 5 10 12 11 14 12
REMARK SMILES IDX 11 13 92 14 15 15 2 16 1 17 6 18 7 19 8 20 9 21 10 22 16 23
REMARK SMILES IDX 17 24 18 25 19 26 26 27 27 28 28 29 29 30 30 31 91 32 31 33
REMARK SMILES IDX 90 34 32 35 33 36 34 37 84 38 35 39 89 40 83 41 85 42 36 43
REMARK SMILES IDX 88 44 82 45 81 46 37 48 69 49 49 50 68 51 50 52 53 53 67 54
REMARK SMILES IDX 86 55 51 56 52 57 66 59 87 60 54 61 38 62 39 63 47 64 40 65
REMARK SMILES IDX 46 66 48 67 45 68 41 69 42 70 43 71 44 72 70 73 71 74 79 75
REMARK SMILES IDX 72 76 78 77 80 78 77 79 73 80 74 81 75 82 76 83 55 84 56 85
REMARK SMILES IDX 64 86 57 87 63 88 65 89 62 90 58 91 59 92 60 93 61 94
REMARK H PARENT 85 47 53 58
REMARK Flexibility Score: inf
ROOT
ATOM      1  C   UNL A   1      36.449  20.524  24.974  1.00  0.00     0.275 C 
ENDROOT
BRANCH   1   2
ATOM      2  C   UNL A   1      34.990  20.921  25.195  1.00  0.00     0.275 C 
BRANCH   2   3
ATOM      3  O   UNL A   1      34.512  21.820  24.172  1.00  0.00    -0.459 OA
BRANCH   3   4
ATOM      4  C   UNL A   1      33.173  22.032  24.183  1.00  0.00     0.338 C 
ATOM      5  O   UNL A   1      32.312  21.174  24.112  1.00  0.00    -0.246 OA
BRANCH   4   6
ATOM      6  C   UNL A   1      32.831  23.461  24.290  1.00  0.00     0.087 C 
ATOM      7  C   UNL A   1      31.181  27.069  25.536  1.00  0.00    -0.002 A 
ATOM      8  C   UNL A   1      30.591  27.905  24.578  1.00  0.00     0.054 A 
ATOM      9  C   UNL A   1      31.635  25.815  25.111  1.00  0.00     0.131 A 
ATOM     10  C   UNL A   1      30.452  27.489  23.245  1.00  0.00     0.130 A 
ATOM     11  C   UNL A   1      31.525  25.386  23.776  1.00  0.00     0.021 A 
ATOM     12  O   UNL A   1      32.194  25.002  26.068  1.00  0.00    -0.475 OA
ATOM     13  C   UNL A   1      30.925  26.232  22.850  1.00  0.00     0.058 A 
ATOM     14  C   UNL A   1      32.005  24.050  23.413  1.00  0.00     0.027 C 
ATOM     15  C   UNL A   1      33.258  24.171  25.552  1.00  0.00     0.316 C 
BRANCH   7  16
ATOM     16  C   UNL A   1      31.411  27.467  26.981  1.00  0.00     0.036 C 
ATOM     17  C   UNL A   1      32.463  28.529  27.258  1.00  0.00     0.009 C 
ENDBRANCH   7  16
BRANCH  10  18
ATOM     18  O   UNL A   1      29.888  28.214  22.232  1.00  0.00    -0.406 OA
BRANCH  18  19
ATOM     19  C   UNL A   1      28.762  29.014  22.545  1.00  0.00     0.573 C 
ATOM     20  F   UNL A   1      27.760  28.269  23.061  1.00  0.00    -0.132 F 
ATOM     21  F   UNL A   1      29.084  30.002  23.405  1.00  0.00    -0.132 F 
ATOM     22  F   UNL A   1      28.310  29.584  21.404  1.00  0.00    -0.132 F 
ENDBRANCH  18  19
ENDBRANCH  10  18
BRANCH  15  23
ATOM     23  C   UNL A   1      34.558  24.983  25.392  1.00  0.00     0.430 C 
ATOM     24  F   UNL A   1      34.831  25.294  24.106  1.00  0.00    -0.167 F 
ATOM     25  F   UNL A   1      34.489  26.143  26.087  1.00  0.00    -0.167 F 
ATOM     26  F   UNL A   1      35.622  24.295  25.862  1.00  0.00    -0.167 F 
ENDBRANCH  15  23
ENDBRANCH   4   6
ENDBRANCH   3   4
ENDBRANCH   2   3
ENDBRANCH   1   2
BRANCH   1  27
ATOM     27  O   UNL A   1      37.312  21.663  25.150  1.00  0.00    -0.458 OA
BRANCH  27  28
ATOM     28  C   UNL A   1      38.525  21.386  25.680  1.00  0.00     0.338 C 
ATOM     29  O   UNL A   1      39.168  20.357  25.529  1.00  0.00    -0.246 OA
BRANCH  28  30
ATOM     30  C   UNL A   1      39.026  22.521  26.476  1.00  0.00     0.060 A 
ATOM     31  C   UNL A   1      38.505  23.794  26.262  1.00  0.00     0.016 A 
ATOM     32  C   UNL A   1      40.165  22.364  27.260  1.00  0.00     0.016 A 
ATOM     33  C   UNL A   1      39.224  24.919  26.665  1.00  0.00     0.010 A 
ATOM     34  C   UNL A   1      40.802  23.494  27.790  1.00  0.00     0.010 A 
ATOM     35  C   UNL A   1      40.387  24.792  27.436  1.00  0.00    -0.014 A 
BRANCH  35  36
ATOM     36  C   UNL A   1      41.218  25.988  27.791  1.00  0.00     0.031 A 
ATOM     37  C   UNL A   1      40.640  27.067  28.683  1.00  0.00     0.074 A 
ATOM     38  C   UNL A   1      42.487  26.120  27.353  1.00  0.00     0.049 A 
ATOM     39  N   UNL A   1      41.073  28.282  28.910  1.00  0.00    -0.248 NA
ATOM     40  C   UNL A   1      39.391  26.740  29.387  1.00  0.00     0.031 C 
ATOM     41  C   UNL A   1      43.218  25.141  26.547  1.00  0.00     0.029 A 
ATOM     42  N   UNL A   1      43.397  27.138  27.530  1.00  0.00    -0.354 N 
ATOM     43  C   UNL A   1      40.111  28.888  29.717  1.00  0.00     0.074 A 
ATOM     44  C   UNL A   1      39.067  27.906  29.924  1.00  0.00     0.031 C 
ATOM     45  C   UNL A   1      44.469  25.579  26.344  1.00  0.00     0.029 A 
ATOM     46  C   UNL A   1      44.599  26.921  26.898  1.00  0.00     0.049 A 
ATOM     47  H   UNL A   1      43.205  27.945  28.060  1.00  0.00     0.167 HD
ATOM     48  C   UNL A   1      40.102  30.143  30.235  1.00  0.00     0.034 A 
ATOM     49  C   UNL A   1      45.670  27.725  26.726  1.00  0.00     0.034 A 
ATOM     50  C   UNL A   1      41.188  31.084  30.082  1.00  0.00     0.049 A 
ATOM     51  C   UNL A   1      45.628  29.125  27.281  1.00  0.00     0.074 A 
ATOM     52  C   UNL A   1      41.286  32.376  30.570  1.00  0.00     0.029 A 
ATOM     53  N   UNL A   1      42.376  30.827  29.409  1.00  0.00    -0.354 N 
ATOM     54  N   UNL A   1      44.669  29.721  27.952  1.00  0.00    -0.248 NA
ATOM     55  C   UNL A   1      46.810  29.964  27.044  1.00  0.00     0.031 C 
ATOM     56  C   UNL A   1      42.504  32.918  30.145  1.00  0.00     0.029 A 
ATOM     57  C   UNL A   1      43.203  31.940  29.459  1.00  0.00     0.049 A 
ATOM     58  H   UNL A   1      42.599  29.979  28.962  1.00  0.00     0.167 HD
ATOM     59  C   UNL A   1      45.146  30.996  28.239  1.00  0.00     0.074 A 
ATOM     60  C   UNL A   1      46.482  31.076  27.685  1.00  0.00     0.031 C 
ATOM     61  C   UNL A   1      44.535  32.011  28.902  1.00  0.00     0.034 A 
BRANCH  48  62
ATOM     62  C   UNL A   1      38.851  30.593  30.958  1.00  0.00     0.023 A 
ATOM     63  C   UNL A   1      37.755  31.167  30.290  1.00  0.00     0.031 A 
ATOM     64  C   UNL A   1      38.770  30.469  32.359  1.00  0.00     0.131 A 
ATOM     65  C   UNL A   1      36.667  31.665  31.026  1.00  0.00     0.055 A 
ATOM     66  C   UNL A   1      37.647  30.885  33.076  1.00  0.00     0.041 A 
ATOM     67  F   UNL A   1      39.791  29.947  33.059  1.00  0.00    -0.206 F 
ATOM     68  C   UNL A   1      36.594  31.503  32.412  1.00  0.00     0.022 A 
BRANCH  65  69
ATOM     69  S   UNL A   1      35.417  32.659  30.166  1.00  0.00     0.124 S 
ATOM     70  O   UNL A   1      36.078  33.960  30.090  1.00  0.00    -0.237 OA
ATOM     71  O   UNL A   1      35.261  31.947  28.903  1.00  0.00    -0.237 OA
ATOM     72  O   UNL A   1      34.262  32.607  31.059  1.00  0.00    -0.744 OA
ENDBRANCH  65  69
ENDBRANCH  48  62
BRANCH  49  73
ATOM     73  C   UNL A   1      46.845  27.257  25.932  1.00  0.00     0.023 A 
ATOM     74  C   UNL A   1      47.077  27.727  24.631  1.00  0.00     0.031 A 
ATOM     75  C   UNL A   1      47.731  26.294  26.452  1.00  0.00     0.131 A 
ATOM     76  C   UNL A   1      48.142  27.207  23.878  1.00  0.00     0.055 A 
ATOM     77  C   UNL A   1      48.826  25.828  25.723  1.00  0.00     0.041 A 
ATOM     78  F   UNL A   1      47.555  25.804  27.690  1.00  0.00    -0.206 F 
ATOM     79  C   UNL A   1      49.028  26.275  24.422  1.00  0.00     0.022 A 
BRANCH  76  80
ATOM     80  S   UNL A   1      48.301  27.699  22.140  1.00  0.00     0.124 S 
ATOM     81  O   UNL A   1      47.071  28.454  21.931  1.00  0.00    -0.237 OA
ATOM     82  O   UNL A   1      49.536  28.476  22.157  1.00  0.00    -0.237 OA
ATOM     83  O   UNL A   1      48.380  26.424  21.431  1.00  0.00    -0.744 OA
ENDBRANCH  76  80
ENDBRANCH  49  73
BRANCH  61  84
ATOM     84  C   UNL A   1      45.340  33.269  29.121  1.00  0.00     0.023 A 
ATOM     85  C   UNL A   1      45.297  34.347  28.220  1.00  0.00     0.031 A 
ATOM     86  C   UNL A   1      46.186  33.374  30.239  1.00  0.00     0.131 A 
ATOM     87  C   UNL A   1      46.133  35.457  28.420  1.00  0.00     0.055 A 
ATOM     88  C   UNL A   1      46.970  34.507  30.465  1.00  0.00     0.041 A 
ATOM     89  F   UNL A   1      46.269  32.373  31.131  1.00  0.00    -0.206 F 
ATOM     90  C   UNL A   1      46.956  35.551  29.544  1.00  0.00     0.022 A 
BRANCH  87  91
ATOM     91  S   UNL A   1      46.208  36.735  27.134  1.00  0.00     0.124 S 
ATOM     92  O   UNL A   1      46.714  35.985  25.989  1.00  0.00    -0.237 OA
ATOM     93  O   UNL A   1      44.818  37.172  27.047  1.00  0.00    -0.237 OA
ATOM     94  O   UNL A   1      47.134  37.723  27.685  1.00  0.00    -0.744 OA
ENDBRANCH  87  91
ENDBRANCH  61  84
ENDBRANCH  35  36
ENDBRANCH  28  30
ENDBRANCH  27  28
ENDBRANCH   1  27
TORSDOF 18
ENDMDL
MODEL 3
REMARK VINA RESULT:     -12.2      1.492      2.236
REMARK SMILES CCc1cc(OC(F)(F)F)cc2c1O[C@H](C(F)(F)F)C(C(=O)OCCOC(=O)c1ccc(-c3c4nc(c(-c5cc(S(=O)(=O)[O-])ccc5F)c5ccc([nH]5)c(-c5cc(S(=O)(=O)[O-])ccc5F)c5nc(c(-c6cc(S(=O)(=O)[O-])ccc6F)c6ccc3[nH]6)C=C5)C=C4)cc1)=C2
REMARK SMILES IDX 25 1 24 2 23 3 21 4 22 5 20 6 3 7 4 8 13 9 5 10 12 11 14 12
REMARK SMILES IDX 11 13 92 14 15 15 2 16 1 17 6 18 7 19 8 20 9 21 10 22 16 23
REMARK SMILES IDX 17 24 18 25 19 26 26 27 27 28 28 29 29 30 30 31 91 32 31 33
REMARK SMILES IDX 90 34 32 35 33 36 34 37 84 38 35 39 89 40 83 41 85 42 36 43
REMARK SMILES IDX 88 44 82 45 81 46 37 48 69 49 49 50 68 51 50 52 53 53 67 54
REMARK SMILES IDX 86 55 51 56 52 57 66 59 87 60 54 61 38 62 39 63 47 64 40 65
REMARK SMILES IDX 46 66 48 67 45 68 41 69 42 70 43 71 44 72 70 73 71 74 79 75
REMARK SMILES IDX 72 76 78 77 80 78 77 79 73 80 74 81 75 82 76 83 55 84 56 85
REMARK SMILES IDX 64 86 57 87 63 88 65 89 62 90 58 91 59 92 60 93 61 94
REMARK H PARENT 85 47 53 58
REMARK Flexibility Score: inf
ROOT
ATOM      1  C   UNL A   1      31.634  30.565  25.747  1.00  0.00     0.275 C 
ENDROOT
BRANCH   1   2
ATOM      2  C   UNL A   1      31.320  29.157  25.244  1.00  0.00     0.275 C 
BRANCH   2   3
ATOM      3  O   UNL A   1      32.335  28.205  25.629  1.00  0.00    -0.459 OA
BRANCH   3   4
ATOM      4  C   UNL A   1      31.864  27.084  26.227  1.00  0.00     0.338 C 
ATOM      5  O   UNL A   1      31.112  27.045  27.185  1.00  0.00    -0.246 OA
BRANCH   4   6
ATOM      6  C   UNL A   1      32.367  25.853  25.591  1.00  0.00     0.087 C 
ATOM      7  C   UNL A   1      33.287  21.874  24.813  1.00  0.00    -0.002 A 
ATOM      8  C   UNL A   1      34.600  21.545  24.452  1.00  0.00     0.054 A 
ATOM      9  C   UNL A   1      33.025  23.201  25.172  1.00  0.00     0.131 A 
ATOM     10  C   UNL A   1      35.616  22.514  24.463  1.00  0.00     0.130 A 
ATOM     11  C   UNL A   1      34.022  24.193  25.170  1.00  0.00     0.021 A 
ATOM     12  O   UNL A   1      31.735  23.500  25.541  1.00  0.00    -0.475 OA
ATOM     13  C   UNL A   1      35.319  23.836  24.818  1.00  0.00     0.058 A 
ATOM     14  C   UNL A   1      33.674  25.557  25.579  1.00  0.00     0.027 C 
ATOM     15  C   UNL A   1      31.335  24.837  25.165  1.00  0.00     0.316 C 
BRANCH   7  16
ATOM     16  C   UNL A   1      32.128  20.895  24.777  1.00  0.00     0.036 C 
ATOM     17  C   UNL A   1      32.421  19.477  24.315  1.00  0.00     0.009 C 
ENDBRANCH   7  16
BRANCH  10  18
ATOM     18  O   UNL A   1      36.927  22.307  24.139  1.00  0.00    -0.406 OA
BRANCH  18  19
ATOM     19  C   UNL A   1      37.677  21.431  24.962  1.00  0.00     0.573 C 
ATOM     20  F   UNL A   1      37.710  20.183  24.447  1.00  0.00    -0.132 F 
ATOM     21  F   UNL A   1      38.935  21.883  25.143  1.00  0.00    -0.132 F 
ATOM     22  F   UNL A   1      37.078  21.364  26.174  1.00  0.00    -0.132 F 
ENDBRANCH  18  19
ENDBRANCH  10  18
BRANCH  15  23
ATOM     23  C   UNL A   1      30.988  24.903  23.665  1.00  0.00     0.430 C 
ATOM     24  F   UNL A   1      32.033  25.285  22.898  1.00  0.00    -0.167 F 
ATOM     25  F   UNL A   1      30.571  23.696  23.215  1.00  0.00    -0.167 F 
ATOM     26  F   UNL A   1      29.991  25.785  23.435  1.00  0.00    -0.167 F 
ENDBRANCH  15  23
ENDBRANCH   4   6
ENDBRANCH   3   4
ENDBRANCH   2   3
ENDBRANCH   1   2
BRANCH   1  27
ATOM     27  O   UNL A   1      32.308  30.506  27.018  1.00  0.00    -0.458 OA
BRANCH  27  28
ATOM     28  C   UNL A   1      32.997  31.620  27.353  1.00  0.00     0.338 C 
ATOM     29  O   UNL A   1      32.550  32.755  27.439  1.00  0.00    -0.246 OA
BRANCH  28  30
ATOM     30  C   UNL A   1      34.407  31.303  27.643  1.00  0.00     0.060 A 
ATOM     31  C   UNL A   1      34.781  29.983  27.877  1.00  0.00     0.016 A 
ATOM     32  C   UNL A   1      35.304  32.332  27.912  1.00  0.00     0.016 A 
ATOM     33  C   UNL A   1      35.967  29.703  28.555  1.00  0.00     0.010 A 
ATOM     34  C   UNL A   1      36.559  32.032  28.457  1.00  0.00     0.010 A 
ATOM     35  C   UNL A   1      36.880  30.722  28.860  1.00  0.00    -0.014 A 
BRANCH  35  36
ATOM     36  C   UNL A   1      38.109  30.445  29.672  1.00  0.00     0.031 A 
ATOM     37  C   UNL A   1      39.205  29.569  29.103  1.00  0.00     0.074 A 
ATOM     38  C   UNL A   1      38.278  30.980  30.899  1.00  0.00     0.049 A 
ATOM     39  N   UNL A   1      40.218  29.001  29.709  1.00  0.00    -0.248 NA
ATOM     40  C   UNL A   1      39.129  29.271  27.665  1.00  0.00     0.031 C 
ATOM     41  C   UNL A   1      37.354  31.901  31.564  1.00  0.00     0.029 A 
ATOM     42  N   UNL A   1      39.298  30.830  31.811  1.00  0.00    -0.354 N 
ATOM     43  C   UNL A   1      40.850  28.217  28.746  1.00  0.00     0.074 A 
ATOM     44  C   UNL A   1      40.094  28.376  27.521  1.00  0.00     0.031 C 
ATOM     45  C   UNL A   1      37.869  32.270  32.746  1.00  0.00     0.029 A 
ATOM     46  C   UNL A   1      39.099  31.524  32.983  1.00  0.00     0.049 A 
ATOM     47  H   UNL A   1      40.094  30.278  31.642  1.00  0.00     0.167 HD
ATOM     48  C   UNL A   1      41.957  27.440  28.873  1.00  0.00     0.034 A 
ATOM     49  C   UNL A   1      39.787  31.523  34.143  1.00  0.00     0.034 A 
ATOM     50  C   UNL A   1      42.744  27.354  30.081  1.00  0.00     0.049 A 
ATOM     51  C   UNL A   1      40.994  30.631  34.275  1.00  0.00     0.074 A 
ATOM     52  C   UNL A   1      43.885  26.605  30.317  1.00  0.00     0.029 A 
ATOM     53  N   UNL A   1      42.487  28.055  31.252  1.00  0.00    -0.354 N 
ATOM     54  N   UNL A   1      41.521  29.816  33.391  1.00  0.00    -0.248 NA
ATOM     55  C   UNL A   1      41.692  30.652  35.567  1.00  0.00     0.031 C 
ATOM     56  C   UNL A   1      44.283  26.810  31.642  1.00  0.00     0.029 A 
ATOM     57  C   UNL A   1      43.439  27.747  32.213  1.00  0.00     0.049 A 
ATOM     58  H   UNL A   1      41.738  28.681  31.381  1.00  0.00     0.167 HD
ATOM     59  C   UNL A   1      42.628  29.247  34.014  1.00  0.00     0.074 A 
ATOM     60  C   UNL A   1      42.702  29.826  35.340  1.00  0.00     0.031 C 
ATOM     61  C   UNL A   1      43.505  28.329  33.534  1.00  0.00     0.034 A 
BRANCH  48  62
ATOM     62  C   UNL A   1      42.343  26.572  27.694  1.00  0.00     0.023 A 
ATOM     63  C   UNL A   1      41.983  25.216  27.603  1.00  0.00     0.031 A 
ATOM     64  C   UNL A   1      43.116  27.114  26.649  1.00  0.00     0.131 A 
ATOM     65  C   UNL A   1      42.460  24.433  26.539  1.00  0.00     0.055 A 
ATOM     66  C   UNL A   1      43.513  26.352  25.549  1.00  0.00     0.041 A 
ATOM     67  F   UNL A   1      43.509  28.398  26.685  1.00  0.00    -0.206 F 
ATOM     68  C   UNL A   1      43.200  24.998  25.498  1.00  0.00     0.022 A 
BRANCH  65  69
ATOM     69  S   UNL A   1      42.228  22.635  26.610  1.00  0.00     0.124 S 
ATOM     70  O   UNL A   1      43.364  22.225  27.432  1.00  0.00    -0.237 OA
ATOM     71  O   UNL A   1      40.913  22.510  27.226  1.00  0.00    -0.237 OA
ATOM     72  O   UNL A   1      42.303  22.224  25.210  1.00  0.00    -0.744 OA
ENDBRANCH  65  69
ENDBRANCH  48  62
BRANCH  49  73
ATOM     73  C   UNL A   1      39.314  32.338  35.302  1.00  0.00     0.023 A 
ATOM     74  C   UNL A   1      39.744  33.661  35.485  1.00  0.00     0.031 A 
ATOM     75  C   UNL A   1      38.456  31.785  36.272  1.00  0.00     0.131 A 
ATOM     76  C   UNL A   1      39.350  34.374  36.628  1.00  0.00     0.055 A 
ATOM     77  C   UNL A   1      38.015  32.519  37.373  1.00  0.00     0.041 A 
ATOM     78  F   UNL A   1      38.017  30.521  36.151  1.00  0.00    -0.206 F 
ATOM     79  C   UNL A   1      38.474  33.818  37.563  1.00  0.00     0.022 A 
BRANCH  76  80
ATOM     80  S   UNL A   1      40.071  36.011  36.925  1.00  0.00     0.124 S 
ATOM     81  O   UNL A   1      41.466  35.678  37.191  1.00  0.00    -0.237 OA
ATOM     82  O   UNL A   1      39.803  36.694  35.664  1.00  0.00    -0.237 OA
ATOM     83  O   UNL A   1      39.318  36.511  38.074  1.00  0.00    -0.744 OA
ENDBRANCH  76  80
ENDBRANCH  49  73
BRANCH  61  84
ATOM     84  C   UNL A   1      44.659  27.951  34.430  1.00  0.00     0.023 A 
ATOM     85  C   UNL A   1      44.586  26.867  35.323  1.00  0.00     0.031 A 
ATOM     86  C   UNL A   1      45.844  28.709  34.405  1.00  0.00     0.131 A 
ATOM     87  C   UNL A   1      45.652  26.612  36.199  1.00  0.00     0.055 A 
ATOM     88  C   UNL A   1      46.925  28.413  35.237  1.00  0.00     0.041 A 
ATOM     89  F   UNL A   1      45.968  29.757  33.574  1.00  0.00    -0.206 F 
ATOM     90  C   UNL A   1      46.826  27.367  36.151  1.00  0.00     0.022 A 
BRANCH  87  91
ATOM     91  S   UNL A   1      45.444  25.342  37.479  1.00  0.00     0.124 S 
ATOM     92  O   UNL A   1      46.675  24.571  37.345  1.00  0.00    -0.237 OA
ATOM     93  O   UNL A   1      45.320  26.140  38.694  1.00  0.00    -0.237 OA
ATOM     94  O   UNL A   1      44.227  24.640  37.072  1.00  0.00    -0.744 OA
ENDBRANCH  87  91
ENDBRANCH  61  84
ENDBRANCH  35  36
ENDBRANCH  28  30
ENDBRANCH  27  28
ENDBRANCH   1  27
TORSDOF 18
ENDMDL
