MODEL 1
REMARK VINA RESULT:     -12.2      0.000      0.000
REMARK SMILES CC(=O)c1c[nH]c(C(=O)N[C@H]2C=C[C@H](C(=O)OCCOC(=O)c3ccc(-c4c5nc(c(-c6cc(S(=O)(=O)[O-])ccc6F)c6ccc([nH]6)c(-c6cc(S(=O)(=O)[O-])ccc6F)c6nc(c(-c7cc(S(=O)(=O)[O-])ccc7F)c7ccc4[nH]7)C=C6)C=C5)cc3)C2)c1
REMARK SMILES IDX 18 1 17 2 15 3 16 4 14 5 11 6 12 7 86 8 13 9 10 10 8 11 9 12
REMARK SMILES IDX 7 14 4 15 5 16 87 17 6 18 2 20 1 21 3 22 19 23 20 24 21 25
REMARK SMILES IDX 22 26 23 27 24 28 85 29 25 30 84 31 26 32 27 33 28 34 78 35
REMARK SMILES IDX 29 36 83 37 77 38 79 39 30 40 82 41 76 42 75 43 31 45 63 46
REMARK SMILES IDX 43 47 62 48 44 49 47 50 61 51 80 52 45 53 46 54 60 56 81 57
REMARK SMILES IDX 48 58 32 59 33 60 41 61 34 62 40 63 42 64 39 65 35 66 36 67
REMARK SMILES IDX 37 68 38 69 64 70 65 71 73 72 66 73 72 74 74 75 71 76 67 77
REMARK SMILES IDX 68 78 69 79 70 80 49 81 50 82 58 83 51 84 57 85 59 86 56 87
REMARK SMILES IDX 52 88 53 89 54 90 55 91
REMARK H PARENT 10 13 6 19 79 44 47 55
REMARK Flexibility Score: inf
ROOT
ATOM      1  C   UNL A   1      34.416  31.645  28.340  1.00  0.00     0.274 C 
ENDROOT
BRANCH   1   2
ATOM      2  O   UNL A   1      33.878  32.560  27.361  1.00  0.00    -0.462 OA
BRANCH   2   3
ATOM      3  C   UNL A   1      33.082  33.572  27.824  1.00  0.00     0.312 C 
ATOM      4  O   UNL A   1      31.942  33.792  27.431  1.00  0.00    -0.252 OA
BRANCH   3   5
ATOM      5  C   UNL A   1      33.825  34.415  28.862  1.00  0.00     0.124 C 
ATOM      6  C   UNL A   1      33.026  36.578  29.759  1.00  0.00     0.106 C 
ATOM      7  C   UNL A   1      34.051  36.767  28.697  1.00  0.00    -0.006 C 
ATOM      8  C   UNL A   1      32.940  35.053  29.952  1.00  0.00     0.048 C 
ATOM      9  C   UNL A   1      34.472  35.602  28.196  1.00  0.00    -0.014 C 
BRANCH   6  10
ATOM     10  N   UNL A   1      33.315  37.445  30.887  1.00  0.00    -0.345 N 
ATOM     11  C   UNL A   1      33.888  37.303  32.126  1.00  0.00     0.268 C 
ATOM     12  O   UNL A   1      33.930  38.285  32.847  1.00  0.00    -0.268 OA
ATOM     13  H   UNL A   1      33.024  38.371  30.721  1.00  0.00     0.164 HD
BRANCH  11  14
ATOM     14  C   UNL A   1      34.308  36.006  32.590  1.00  0.00     0.105 A 
ATOM     15  C   UNL A   1      35.242  33.953  32.789  1.00  0.00     0.035 A 
ATOM     16  C   UNL A   1      33.959  33.905  33.304  1.00  0.00     0.094 A 
ATOM     17  C   UNL A   1      35.509  35.328  32.530  1.00  0.00     0.045 A 
ATOM     18  N   UNL A   1      33.437  35.173  33.260  1.00  0.00    -0.356 N 
ATOM     19  H   UNL A   1      32.573  35.446  33.646  1.00  0.00     0.166 HD
BRANCH  15  20
ATOM     20  C   UNL A   1      36.121  32.825  32.492  1.00  0.00     0.161 C 
ATOM     21  C   UNL A   1      37.606  33.019  32.673  1.00  0.00     0.093 C 
ATOM     22  O   UNL A   1      35.666  31.727  32.169  1.00  0.00    -0.294 OA
ENDBRANCH  15  20
ENDBRANCH  11  14
ENDBRANCH   6  10
ENDBRANCH   3   5
ENDBRANCH   2   3
ENDBRANCH   1   2
BRANCH   1  23
ATOM     23  C   UNL A   1      35.886  31.264  28.127  1.00  0.00     0.275 C 
BRANCH  23  24
ATOM     24  O   UNL A   1      36.454  30.601  29.261  1.00  0.00    -0.458 OA
BRANCH  24  25
ATOM     25  C   UNL A   1      37.797  30.700  29.255  1.00  0.00     0.338 C 
ATOM     26  O   UNL A   1      38.464  31.683  29.546  1.00  0.00    -0.246 OA
BRANCH  25  27
ATOM     27  C   UNL A   1      38.450  29.497  28.752  1.00  0.00     0.060 A 
ATOM     28  C   UNL A   1      39.272  28.858  29.681  1.00  0.00     0.016 A 
ATOM     29  C   UNL A   1      38.723  29.484  27.384  1.00  0.00     0.016 A 
ATOM     30  C   UNL A   1      40.531  28.470  29.288  1.00  0.00     0.010 A 
ATOM     31  C   UNL A   1      39.963  29.026  26.974  1.00  0.00     0.010 A 
ATOM     32  C   UNL A   1      40.888  28.607  27.941  1.00  0.00    -0.014 A 
BRANCH  32  33
ATOM     33  C   UNL A   1      42.203  28.083  27.548  1.00  0.00     0.031 A 
ATOM     34  C   UNL A   1      43.215  29.238  27.481  1.00  0.00     0.074 A 
ATOM     35  C   UNL A   1      42.291  26.745  27.273  1.00  0.00     0.049 A 
ATOM     36  N   UNL A   1      44.261  29.387  26.732  1.00  0.00    -0.248 NA
ATOM     37  C   UNL A   1      42.941  30.485  28.262  1.00  0.00     0.031 C 
ATOM     38  C   UNL A   1      41.162  25.779  27.304  1.00  0.00     0.029 A 
ATOM     39  N   UNL A   1      43.333  25.919  26.911  1.00  0.00    -0.354 N 
ATOM     40  C   UNL A   1      44.894  30.583  27.141  1.00  0.00     0.074 A 
ATOM     41  C   UNL A   1      43.934  31.303  27.915  1.00  0.00     0.031 C 
ATOM     42  C   UNL A   1      41.568  24.538  26.939  1.00  0.00     0.029 A 
ATOM     43  C   UNL A   1      42.995  24.555  26.676  1.00  0.00     0.049 A 
ATOM     44  H   UNL A   1      44.256  26.251  26.820  1.00  0.00     0.167 HD
ATOM     45  C   UNL A   1      46.233  30.805  27.003  1.00  0.00     0.034 A 
ATOM     46  C   UNL A   1      43.813  23.522  26.292  1.00  0.00     0.034 A 
ATOM     47  C   UNL A   1      46.845  29.663  26.409  1.00  0.00     0.049 A 
ATOM     48  C   UNL A   1      45.173  24.079  26.373  1.00  0.00     0.074 A 
ATOM     49  C   UNL A   1      46.778  29.113  25.158  1.00  0.00     0.029 A 
ATOM     50  N   UNL A   1      47.380  28.738  27.281  1.00  0.00    -0.354 N 
ATOM     51  N   UNL A   1      45.782  24.371  27.480  1.00  0.00    -0.248 NA
ATOM     52  C   UNL A   1      45.901  24.362  25.132  1.00  0.00     0.031 C 
ATOM     53  C   UNL A   1      46.807  27.729  25.416  1.00  0.00     0.029 A 
ATOM     54  C   UNL A   1      47.097  27.500  26.769  1.00  0.00     0.049 A 
ATOM     55  H   UNL A   1      47.871  28.932  28.112  1.00  0.00     0.167 HD
ATOM     56  C   UNL A   1      46.809  25.174  27.060  1.00  0.00     0.074 A 
ATOM     57  C   UNL A   1      47.010  24.883  25.653  1.00  0.00     0.031 C 
ATOM     58  C   UNL A   1      46.985  26.372  27.675  1.00  0.00     0.034 A 
BRANCH  45  59
ATOM     59  C   UNL A   1      47.167  31.826  27.599  1.00  0.00     0.023 A 
ATOM     60  C   UNL A   1      47.702  32.772  26.690  1.00  0.00     0.031 A 
ATOM     61  C   UNL A   1      47.790  31.746  28.851  1.00  0.00     0.131 A 
ATOM     62  C   UNL A   1      48.876  33.479  26.972  1.00  0.00     0.055 A 
ATOM     63  C   UNL A   1      48.923  32.514  29.162  1.00  0.00     0.041 A 
ATOM     64  F   UNL A   1      47.397  30.870  29.784  1.00  0.00    -0.206 F 
ATOM     65  C   UNL A   1      49.494  33.355  28.210  1.00  0.00     0.022 A 
BRANCH  62  66
ATOM     66  S   UNL A   1      49.664  34.401  25.621  1.00  0.00     0.124 S 
ATOM     67  O   UNL A   1      50.269  35.526  26.325  1.00  0.00    -0.237 OA
ATOM     68  O   UNL A   1      50.594  33.412  25.082  1.00  0.00    -0.237 OA
ATOM     69  O   UNL A   1      48.545  34.743  24.748  1.00  0.00    -0.744 OA
ENDBRANCH  62  66
ENDBRANCH  45  59
BRANCH  46  70
ATOM     70  C   UNL A   1      43.762  22.076  25.817  1.00  0.00     0.023 A 
ATOM     71  C   UNL A   1      44.837  21.306  25.344  1.00  0.00     0.031 A 
ATOM     72  C   UNL A   1      42.538  21.347  25.991  1.00  0.00     0.131 A 
ATOM     73  C   UNL A   1      44.678  19.899  25.162  1.00  0.00     0.055 A 
ATOM     74  C   UNL A   1      42.420  19.962  25.911  1.00  0.00     0.041 A 
ATOM     75  F   UNL A   1      41.380  21.959  26.279  1.00  0.00    -0.206 F 
ATOM     76  C   UNL A   1      43.504  19.223  25.509  1.00  0.00     0.022 A 
BRANCH  73  77
ATOM     77  S   UNL A   1      46.007  18.863  24.476  1.00  0.00     0.124 S 
ATOM     78  O   UNL A   1      45.519  18.608  23.124  1.00  0.00    -0.237 OA
ATOM     79  O   UNL A   1      47.185  19.717  24.579  1.00  0.00    -0.237 OA
ATOM     80  O   UNL A   1      46.009  17.701  25.364  1.00  0.00    -0.744 OA
ENDBRANCH  73  77
ENDBRANCH  46  70
BRANCH  58  81
ATOM     81  C   UNL A   1      46.555  26.397  29.147  1.00  0.00     0.023 A 
ATOM     82  C   UNL A   1      45.356  27.034  29.534  1.00  0.00     0.031 A 
ATOM     83  C   UNL A   1      47.340  25.905  30.204  1.00  0.00     0.131 A 
ATOM     84  C   UNL A   1      45.018  27.197  30.895  1.00  0.00     0.055 A 
ATOM     85  C   UNL A   1      47.014  26.070  31.557  1.00  0.00     0.041 A 
ATOM     86  F   UNL A   1      48.461  25.232  29.965  1.00  0.00    -0.206 F 
ATOM     87  C   UNL A   1      45.848  26.728  31.910  1.00  0.00     0.022 A 
BRANCH  84  88
ATOM     88  S   UNL A   1      43.449  27.995  31.339  1.00  0.00     0.124 S 
ATOM     89  O   UNL A   1      43.625  29.354  30.841  1.00  0.00    -0.237 OA
ATOM     90  O   UNL A   1      42.465  27.176  30.637  1.00  0.00    -0.237 OA
ATOM     91  O   UNL A   1      43.408  27.875  32.798  1.00  0.00    -0.744 OA
ENDBRANCH  84  88
ENDBRANCH  58  81
ENDBRANCH  32  33
ENDBRANCH  25  27
ENDBRANCH  24  25
ENDBRANCH  23  24
ENDBRANCH   1  23
TORSDOF 17
ENDMDL
MODEL 2
REMARK VINA RESULT:     -11.9      5.424     11.767
REMARK SMILES CC(=O)c1c[nH]c(C(=O)N[C@H]2C=C[C@H](C(=O)OCCOC(=O)c3ccc(-c4c5nc(c(-c6cc(S(=O)(=O)[O-])ccc6F)c6ccc([nH]6)c(-c6cc(S(=O)(=O)[O-])ccc6F)c6nc(c(-c7cc(S(=O)(=O)[O-])ccc7F)c7ccc4[nH]7)C=C6)C=C5)cc3)C2)c1
REMARK SMILES IDX 18 1 17 2 15 3 16 4 14 5 11 6 12 7 86 8 13 9 10 10 8 11 9 12
REMARK SMILES IDX 7 14 4 15 5 16 87 17 6 18 2 20 1 21 3 22 19 23 20 24 21 25
REMARK SMILES IDX 22 26 23 27 24 28 85 29 25 30 84 31 26 32 27 33 28 34 78 35
REMARK SMILES IDX 29 36 83 37 77 38 79 39 30 40 82 41 76 42 75 43 31 45 63 46
REMARK SMILES IDX 43 47 62 48 44 49 47 50 61 51 80 52 45 53 46 54 60 56 81 57
REMARK SMILES IDX 48 58 32 59 33 60 41 61 34 62 40 63 42 64 39 65 35 66 36 67
REMARK SMILES IDX 37 68 38 69 64 70 65 71 73 72 66 73 72 74 74 75 71 76 67 77
REMARK SMILES IDX 68 78 69 79 70 80 49 81 50 82 58 83 51 84 57 85 59 86 56 87
REMARK SMILES IDX 52 88 53 89 54 90 55 91
REMARK H PARENT 10 13 6 19 79 44 47 55
REMARK Flexibility Score: inf
ROOT
ATOM      1  C   UNL A   1      39.188  21.338  26.081  1.00  0.00     0.274 C 
ENDROOT
BRANCH   1   2
ATOM      2  O   UNL A   1      38.022  22.103  25.707  1.00  0.00    -0.462 OA
BRANCH   2   3
ATOM      3  C   UNL A   1      36.898  21.401  25.368  1.00  0.00     0.312 C 
ATOM      4  O   UNL A   1      36.897  20.235  24.988  1.00  0.00    -0.252 OA
BRANCH   3   5
ATOM      5  C   UNL A   1      35.652  22.281  25.484  1.00  0.00     0.124 C 
ATOM      6  C   UNL A   1      33.506  21.567  26.485  1.00  0.00     0.106 C 
ATOM      7  C   UNL A   1      33.468  21.503  24.999  1.00  0.00    -0.006 C 
ATOM      8  C   UNL A   1      34.884  22.168  26.816  1.00  0.00     0.048 C 
ATOM      9  C   UNL A   1      34.633  21.870  24.454  1.00  0.00    -0.014 C 
BRANCH   6  10
ATOM     10  N   UNL A   1      32.294  22.191  26.985  1.00  0.00    -0.345 N 
ATOM     11  C   UNL A   1      31.592  23.341  26.728  1.00  0.00     0.268 C 
ATOM     12  O   UNL A   1      30.596  23.560  27.397  1.00  0.00    -0.268 OA
ATOM     13  H   UNL A   1      31.867  21.650  27.689  1.00  0.00     0.164 HD
BRANCH  11  14
ATOM     14  C   UNL A   1      32.095  24.306  25.784  1.00  0.00     0.105 A 
ATOM     15  C   UNL A   1      32.775  25.382  23.911  1.00  0.00     0.035 A 
ATOM     16  C   UNL A   1      33.659  25.676  24.934  1.00  0.00     0.094 A 
ATOM     17  C   UNL A   1      31.692  24.683  24.518  1.00  0.00     0.045 A 
ATOM     18  N   UNL A   1      33.187  25.092  26.083  1.00  0.00    -0.356 N 
ATOM     19  H   UNL A   1      33.571  25.214  26.981  1.00  0.00     0.166 HD
BRANCH  15  20
ATOM     20  C   UNL A   1      32.944  25.657  22.487  1.00  0.00     0.161 C 
ATOM     21  C   UNL A   1      31.761  26.206  21.728  1.00  0.00     0.093 C 
ATOM     22  O   UNL A   1      34.034  25.512  21.933  1.00  0.00    -0.294 OA
ENDBRANCH  15  20
ENDBRANCH  11  14
ENDBRANCH   6  10
ENDBRANCH   3   5
ENDBRANCH   2   3
ENDBRANCH   1   2
BRANCH   1  23
ATOM     23  C   UNL A   1      40.509  22.116  26.047  1.00  0.00     0.275 C 
BRANCH  23  24
ATOM     24  O   UNL A   1      40.575  23.135  27.050  1.00  0.00    -0.458 OA
BRANCH  24  25
ATOM     25  C   UNL A   1      40.984  24.304  26.522  1.00  0.00     0.338 C 
ATOM     26  O   UNL A   1      41.982  24.496  25.841  1.00  0.00    -0.246 OA
BRANCH  25  27
ATOM     27  C   UNL A   1      40.145  25.428  26.921  1.00  0.00     0.060 A 
ATOM     28  C   UNL A   1      40.628  26.675  26.523  1.00  0.00     0.016 A 
ATOM     29  C   UNL A   1      39.419  25.253  28.099  1.00  0.00     0.016 A 
ATOM     30  C   UNL A   1      40.659  27.693  27.447  1.00  0.00     0.010 A 
ATOM     31  C   UNL A   1      39.384  26.301  29.002  1.00  0.00     0.010 A 
ATOM     32  C   UNL A   1      40.081  27.480  28.704  1.00  0.00    -0.014 A 
BRANCH  32  33
ATOM     33  C   UNL A   1      40.044  28.629  29.620  1.00  0.00     0.031 A 
ATOM     34  C   UNL A   1      41.137  28.467  30.688  1.00  0.00     0.074 A 
ATOM     35  C   UNL A   1      39.070  29.567  29.414  1.00  0.00     0.049 A 
ATOM     36  N   UNL A   1      41.168  28.874  31.918  1.00  0.00    -0.248 NA
ATOM     37  C   UNL A   1      42.314  27.591  30.390  1.00  0.00     0.031 C 
ATOM     38  C   UNL A   1      38.021  29.509  28.362  1.00  0.00     0.029 A 
ATOM     39  N   UNL A   1      38.752  30.756  30.035  1.00  0.00    -0.354 N 
ATOM     40  C   UNL A   1      42.445  28.547  32.428  1.00  0.00     0.074 A 
ATOM     41  C   UNL A   1      43.005  27.588  31.530  1.00  0.00     0.031 C 
ATOM     42  C   UNL A   1      37.179  30.568  28.450  1.00  0.00     0.029 A 
ATOM     43  C   UNL A   1      37.610  31.440  29.527  1.00  0.00     0.049 A 
ATOM     44  H   UNL A   1      39.283  31.111  30.784  1.00  0.00     0.167 HD
ATOM     45  C   UNL A   1      43.050  29.245  33.432  1.00  0.00     0.034 A 
ATOM     46  C   UNL A   1      37.058  32.621  29.954  1.00  0.00     0.034 A 
ATOM     47  C   UNL A   1      42.203  30.316  33.843  1.00  0.00     0.049 A 
ATOM     48  C   UNL A   1      38.023  33.148  30.931  1.00  0.00     0.074 A 
ATOM     49  C   UNL A   1      41.002  30.356  34.498  1.00  0.00     0.029 A 
ATOM     50  N   UNL A   1      42.434  31.536  33.245  1.00  0.00    -0.354 N 
ATOM     51  N   UNL A   1      39.195  33.615  30.626  1.00  0.00    -0.248 NA
ATOM     52  C   UNL A   1      37.677  33.131  32.356  1.00  0.00     0.031 C 
ATOM     53  C   UNL A   1      40.329  31.418  33.862  1.00  0.00     0.029 A 
ATOM     54  C   UNL A   1      41.209  32.101  33.009  1.00  0.00     0.049 A 
ATOM     55  H   UNL A   1      43.311  31.926  33.028  1.00  0.00     0.167 HD
ATOM     56  C   UNL A   1      39.841  33.625  31.834  1.00  0.00     0.074 A 
ATOM     57  C   UNL A   1      38.810  33.624  32.854  1.00  0.00     0.031 C 
ATOM     58  C   UNL A   1      41.066  33.044  31.915  1.00  0.00     0.034 A 
BRANCH  45  59
ATOM     59  C   UNL A   1      44.468  29.286  33.938  1.00  0.00     0.023 A 
ATOM     60  C   UNL A   1      44.689  28.673  35.196  1.00  0.00     0.031 A 
ATOM     61  C   UNL A   1      45.492  30.116  33.464  1.00  0.00     0.131 A 
ATOM     62  C   UNL A   1      45.798  28.995  35.986  1.00  0.00     0.055 A 
ATOM     63  C   UNL A   1      46.642  30.378  34.224  1.00  0.00     0.041 A 
ATOM     64  F   UNL A   1      45.389  30.777  32.304  1.00  0.00    -0.206 F 
ATOM     65  C   UNL A   1      46.782  29.849  35.506  1.00  0.00     0.022 A 
BRANCH  62  66
ATOM     66  S   UNL A   1      45.815  28.425  37.710  1.00  0.00     0.124 S 
ATOM     67  O   UNL A   1      45.804  26.974  37.556  1.00  0.00    -0.237 OA
ATOM     68  O   UNL A   1      47.058  29.005  38.209  1.00  0.00    -0.237 OA
ATOM     69  O   UNL A   1      44.593  28.999  38.267  1.00  0.00    -0.744 OA
ENDBRANCH  62  66
ENDBRANCH  45  59
BRANCH  46  70
ATOM     70  C   UNL A   1      35.824  33.495  29.766  1.00  0.00     0.023 A 
ATOM     71  C   UNL A   1      35.148  34.223  30.759  1.00  0.00     0.031 A 
ATOM     72  C   UNL A   1      35.364  33.741  28.430  1.00  0.00     0.131 A 
ATOM     73  C   UNL A   1      34.157  35.180  30.389  1.00  0.00     0.055 A 
ATOM     74  C   UNL A   1      34.473  34.749  28.070  1.00  0.00     0.041 A 
ATOM     75  F   UNL A   1      35.788  33.014  27.385  1.00  0.00    -0.206 F 
ATOM     76  C   UNL A   1      33.872  35.491  29.055  1.00  0.00     0.022 A 
BRANCH  73  77
ATOM     77  S   UNL A   1      33.191  36.093  31.630  1.00  0.00     0.124 S 
ATOM     78  O   UNL A   1      32.885  37.331  30.920  1.00  0.00    -0.237 OA
ATOM     79  O   UNL A   1      32.059  35.209  31.890  1.00  0.00    -0.237 OA
ATOM     80  O   UNL A   1      34.130  36.231  32.742  1.00  0.00    -0.744 OA
ENDBRANCH  73  77
ENDBRANCH  46  70
BRANCH  58  81
ATOM     81  C   UNL A   1      41.881  33.098  30.618  1.00  0.00     0.023 A 
ATOM     82  C   UNL A   1      42.507  31.937  30.115  1.00  0.00     0.031 A 
ATOM     83  C   UNL A   1      42.153  34.280  29.909  1.00  0.00     0.131 A 
ATOM     84  C   UNL A   1      43.381  31.995  29.008  1.00  0.00     0.055 A 
ATOM     85  C   UNL A   1      43.025  34.346  28.813  1.00  0.00     0.041 A 
ATOM     86  F   UNL A   1      41.573  35.427  30.247  1.00  0.00    -0.206 F 
ATOM     87  C   UNL A   1      43.653  33.198  28.360  1.00  0.00     0.022 A 
BRANCH  84  88
ATOM     88  S   UNL A   1      44.137  30.468  28.381  1.00  0.00     0.124 S 
ATOM     89  O   UNL A   1      44.650  29.840  29.592  1.00  0.00    -0.237 OA
ATOM     90  O   UNL A   1      43.011  29.797  27.738  1.00  0.00    -0.237 OA
ATOM     91  O   UNL A   1      45.164  30.952  27.456  1.00  0.00    -0.744 OA
ENDBRANCH  84  88
ENDBRANCH  58  81
ENDBRANCH  32  33
ENDBRANCH  25  27
ENDBRANCH  24  25
ENDBRANCH  23  24
ENDBRANCH   1  23
TORSDOF 17
ENDMDL
MODEL 3
REMARK VINA RESULT:     -11.7      4.990     11.258
REMARK SMILES CC(=O)c1c[nH]c(C(=O)N[C@H]2C=C[C@H](C(=O)OCCOC(=O)c3ccc(-c4c5nc(c(-c6cc(S(=O)(=O)[O-])ccc6F)c6ccc([nH]6)c(-c6cc(S(=O)(=O)[O-])ccc6F)c6nc(c(-c7cc(S(=O)(=O)[O-])ccc7F)c7ccc4[nH]7)C=C6)C=C5)cc3)C2)c1
REMARK SMILES IDX 18 1 17 2 15 3 16 4 14 5 11 6 12 7 86 8 13 9 10 10 8 11 9 12
REMARK SMILES IDX 7 14 4 15 5 16 87 17 6 18 2 20 1 21 3 22 19 23 20 24 21 25
REMARK SMILES IDX 22 26 23 27 24 28 85 29 25 30 84 31 26 32 27 33 28 34 78 35
REMARK SMILES IDX 29 36 83 37 77 38 79 39 30 40 82 41 76 42 75 43 31 45 63 46
REMARK SMILES IDX 43 47 62 48 44 49 47 50 61 51 80 52 45 53 46 54 60 56 81 57
REMARK SMILES IDX 48 58 32 59 33 60 41 61 34 62 40 63 42 64 39 65 35 66 36 67
REMARK SMILES IDX 37 68 38 69 64 70 65 71 73 72 66 73 72 74 74 75 71 76 67 77
REMARK SMILES IDX 68 78 69 79 70 80 49 81 50 82 58 83 51 84 57 85 59 86 56 87
REMARK SMILES IDX 52 88 53 89 54 90 55 91
REMARK H PARENT 10 13 6 19 79 44 47 55
REMARK Flexibility Score: inf
ROOT
ATOM      1  C   UNL A   1      37.837  22.647  25.604  1.00  0.00     0.274 C 
ENDROOT
BRANCH   1   2
ATOM      2  O   UNL A   1      36.749  21.763  25.952  1.00  0.00    -0.462 OA
BRANCH   2   3
ATOM      3  C   UNL A   1      35.479  22.251  25.808  1.00  0.00     0.312 C 
ATOM      4  O   UNL A   1      34.712  22.473  26.738  1.00  0.00    -0.252 OA
BRANCH   3   5
ATOM      5  C   UNL A   1      35.133  22.437  24.329  1.00  0.00     0.124 C 
ATOM      6  C   UNL A   1      33.266  23.818  23.478  1.00  0.00     0.106 C 
ATOM      7  C   UNL A   1      32.915  22.372  23.501  1.00  0.00    -0.006 C 
ATOM      8  C   UNL A   1      34.740  23.869  23.917  1.00  0.00     0.048 C 
ATOM      9  C   UNL A   1      33.914  21.623  23.979  1.00  0.00    -0.014 C 
BRANCH   6  10
ATOM     10  N   UNL A   1      32.855  24.408  22.217  1.00  0.00    -0.345 N 
ATOM     11  C   UNL A   1      32.819  25.669  21.677  1.00  0.00     0.268 C 
ATOM     12  O   UNL A   1      32.357  25.794  20.556  1.00  0.00    -0.268 OA
ATOM     13  H   UNL A   1      32.514  23.731  21.589  1.00  0.00     0.164 HD
BRANCH  11  14
ATOM     14  C   UNL A   1      33.203  26.811  22.467  1.00  0.00     0.105 A 
ATOM     15  C   UNL A   1      33.287  28.493  23.981  1.00  0.00     0.035 A 
ATOM     16  C   UNL A   1      33.750  28.969  22.767  1.00  0.00     0.094 A 
ATOM     17  C   UNL A   1      33.138  27.085  23.818  1.00  0.00     0.045 A 
ATOM     18  N   UNL A   1      33.779  27.920  21.883  1.00  0.00    -0.356 N 
ATOM     19  H   UNL A   1      34.152  27.954  20.972  1.00  0.00     0.166 HD
BRANCH  15  20
ATOM     20  C   UNL A   1      32.942  29.274  25.166  1.00  0.00     0.161 C 
ATOM     21  C   UNL A   1      33.893  29.239  26.337  1.00  0.00     0.093 C 
ATOM     22  O   UNL A   1      31.944  29.993  25.189  1.00  0.00    -0.294 OA
ENDBRANCH  15  20
ENDBRANCH  11  14
ENDBRANCH   6  10
ENDBRANCH   3   5
ENDBRANCH   2   3
ENDBRANCH   1   2
BRANCH   1  23
ATOM     23  C   UNL A   1      38.432  23.431  26.779  1.00  0.00     0.275 C 
BRANCH  23  24
ATOM     24  O   UNL A   1      39.809  23.767  26.579  1.00  0.00    -0.458 OA
BRANCH  24  25
ATOM     25  C   UNL A   1      40.300  24.440  27.636  1.00  0.00     0.338 C 
ATOM     26  O   UNL A   1      41.166  24.061  28.413  1.00  0.00    -0.246 OA
BRANCH  25  27
ATOM     27  C   UNL A   1      39.617  25.707  27.866  1.00  0.00     0.060 A 
ATOM     28  C   UNL A   1      39.891  26.689  26.914  1.00  0.00     0.016 A 
ATOM     29  C   UNL A   1      39.351  26.017  29.199  1.00  0.00     0.016 A 
ATOM     30  C   UNL A   1      40.208  27.955  27.347  1.00  0.00     0.010 A 
ATOM     31  C   UNL A   1      39.599  27.310  29.627  1.00  0.00     0.010 A 
ATOM     32  C   UNL A   1      40.111  28.242  28.714  1.00  0.00    -0.014 A 
BRANCH  32  33
ATOM     33  C   UNL A   1      40.357  29.634  29.117  1.00  0.00     0.031 A 
ATOM     34  C   UNL A   1      39.024  30.306  29.479  1.00  0.00     0.074 A 
ATOM     35  C   UNL A   1      41.648  30.087  29.059  1.00  0.00     0.049 A 
ATOM     36  N   UNL A   1      38.660  31.545  29.376  1.00  0.00    -0.248 NA
ATOM     37  C   UNL A   1      37.865  29.445  29.877  1.00  0.00     0.031 C 
ATOM     38  C   UNL A   1      42.820  29.303  28.589  1.00  0.00     0.029 A 
ATOM     39  N   UNL A   1      42.246  31.288  29.376  1.00  0.00    -0.354 N 
ATOM     40  C   UNL A   1      37.366  31.643  29.939  1.00  0.00     0.074 A 
ATOM     41  C   UNL A   1      36.862  30.310  30.024  1.00  0.00     0.031 C 
ATOM     42  C   UNL A   1      43.950  30.051  28.610  1.00  0.00     0.029 A 
ATOM     43  C   UNL A   1      43.646  31.371  29.131  1.00  0.00     0.049 A 
ATOM     44  H   UNL A   1      41.735  32.042  29.749  1.00  0.00     0.167 HD
ATOM     45  C   UNL A   1      36.881  32.788  30.500  1.00  0.00     0.034 A 
ATOM     46  C   UNL A   1      44.491  32.434  29.333  1.00  0.00     0.034 A 
ATOM     47  C   UNL A   1      37.871  33.810  30.426  1.00  0.00     0.049 A 
ATOM     48  C   UNL A   1      43.675  33.421  30.058  1.00  0.00     0.074 A 
ATOM     49  C   UNL A   1      38.408  34.515  29.383  1.00  0.00     0.029 A 
ATOM     50  N   UNL A   1      38.681  33.953  31.533  1.00  0.00    -0.354 N 
ATOM     51  N   UNL A   1      43.281  33.287  31.287  1.00  0.00    -0.248 NA
ATOM     52  C   UNL A   1      43.238  34.634  29.360  1.00  0.00     0.031 C 
ATOM     53  C   UNL A   1      39.762  34.644  29.750  1.00  0.00     0.029 A 
ATOM     54  C   UNL A   1      39.944  34.207  31.071  1.00  0.00     0.049 A 
ATOM     55  H   UNL A   1      38.403  33.885  32.475  1.00  0.00     0.167 HD
ATOM     56  C   UNL A   1      42.284  34.220  31.389  1.00  0.00     0.074 A 
ATOM     57  C   UNL A   1      42.512  35.186  30.331  1.00  0.00     0.031 C 
ATOM     58  C   UNL A   1      41.083  33.830  31.888  1.00  0.00     0.034 A 
BRANCH  45  59
ATOM     59  C   UNL A   1      35.701  33.067  31.394  1.00  0.00     0.023 A 
ATOM     60  C   UNL A   1      34.881  34.156  31.007  1.00  0.00     0.031 A 
ATOM     61  C   UNL A   1      35.517  32.583  32.696  1.00  0.00     0.131 A 
ATOM     62  C   UNL A   1      34.044  34.806  31.920  1.00  0.00     0.055 A 
ATOM     63  C   UNL A   1      34.618  33.188  33.588  1.00  0.00     0.041 A 
ATOM     64  F   UNL A   1      36.253  31.580  33.190  1.00  0.00    -0.206 F 
ATOM     65  C   UNL A   1      33.907  34.326  33.216  1.00  0.00     0.022 A 
BRANCH  62  66
ATOM     66  S   UNL A   1      33.302  36.387  31.424  1.00  0.00     0.124 S 
ATOM     67  O   UNL A   1      34.125  37.354  32.142  1.00  0.00    -0.237 OA
ATOM     68  O   UNL A   1      33.469  36.359  29.974  1.00  0.00    -0.237 OA
ATOM     69  O   UNL A   1      31.924  36.275  31.893  1.00  0.00    -0.744 OA
ENDBRANCH  62  66
ENDBRANCH  45  59
BRANCH  46  70
ATOM     70  C   UNL A   1      45.913  32.897  29.042  1.00  0.00     0.023 A 
ATOM     71  C   UNL A   1      46.435  33.282  27.797  1.00  0.00     0.031 A 
ATOM     72  C   UNL A   1      46.797  33.114  30.152  1.00  0.00     0.131 A 
ATOM     73  C   UNL A   1      47.711  33.916  27.726  1.00  0.00     0.055 A 
ATOM     74  C   UNL A   1      47.991  33.825  30.088  1.00  0.00     0.041 A 
ATOM     75  F   UNL A   1      46.520  32.656  31.382  1.00  0.00    -0.206 F 
ATOM     76  C   UNL A   1      48.451  34.249  28.866  1.00  0.00     0.022 A 
BRANCH  73  77
ATOM     77  S   UNL A   1      48.476  34.363  26.138  1.00  0.00     0.124 S 
ATOM     78  O   UNL A   1      47.317  34.412  25.252  1.00  0.00    -0.237 OA
ATOM     79  O   UNL A   1      49.117  35.642  26.422  1.00  0.00    -0.237 OA
ATOM     80  O   UNL A   1      49.397  33.255  25.892  1.00  0.00    -0.744 OA
ENDBRANCH  73  77
ENDBRANCH  46  70
BRANCH  58  81
ATOM     81  C   UNL A   1      41.161  32.688  32.908  1.00  0.00     0.023 A 
ATOM     82  C   UNL A   1      40.871  31.361  32.523  1.00  0.00     0.031 A 
ATOM     83  C   UNL A   1      41.410  32.874  34.278  1.00  0.00     0.131 A 
ATOM     84  C   UNL A   1      40.792  30.321  33.475  1.00  0.00     0.055 A 
ATOM     85  C   UNL A   1      41.327  31.848  35.230  1.00  0.00     0.041 A 
ATOM     86  F   UNL A   1      41.756  34.066  34.754  1.00  0.00    -0.206 F 
ATOM     87  C   UNL A   1      41.008  30.561  34.831  1.00  0.00     0.022 A 
BRANCH  84  88
ATOM     88  S   UNL A   1      40.447  28.626  32.925  1.00  0.00     0.124 S 
ATOM     89  O   UNL A   1      41.467  28.404  31.907  1.00  0.00    -0.237 OA
ATOM     90  O   UNL A   1      40.591  27.856  34.157  1.00  0.00    -0.237 OA
ATOM     91  O   UNL A   1      39.077  28.706  32.416  1.00  0.00    -0.744 OA
ENDBRANCH  84  88
ENDBRANCH  58  81
ENDBRANCH  32  33
ENDBRANCH  25  27
ENDBRANCH  24  25
ENDBRANCH  23  24
ENDBRANCH   1  23
TORSDOF 17
ENDMDL
