MODEL 1
REMARK VINA RESULT:     -10.5      0.000      0.000
REMARK SMILES Cc1n[nH]c(CN(C)C(=O)N[C@](C)(C(=O)OCCOC(=O)c2ccc(-c3c4nc(c(-c5cc(S(=O)(=O)[O-])ccc5F)c5ccc([nH]5)c(-c5cc(S(=O)(=O)[O-])ccc5F)c5nc(c(-c6cc(S(=O)(=O)[O-])ccc6F)c6ccc3[nH]6)C=C5)C=C4)cc2)C(F)(F)F)n1
REMARK SMILES IDX 17 1 16 2 14 3 15 4 12 5 13 6 11 7 9 8 10 9 7 11 8 12 6 13
REMARK SMILES IDX 5 14 1 15 2 16 3 17 89 18 4 19 85 21 86 22 87 23 88 24 18 25
REMARK SMILES IDX 19 26 20 27 21 28 22 29 23 30 84 31 24 32 83 33 25 34 26 35
REMARK SMILES IDX 27 36 77 37 28 38 82 39 76 40 78 41 29 42 81 43 75 44 74 45
REMARK SMILES IDX 30 47 62 48 42 49 61 50 43 51 46 52 60 53 79 54 44 55 45 56
REMARK SMILES IDX 59 58 80 59 47 60 31 61 32 62 40 63 33 64 39 65 41 66 38 67
REMARK SMILES IDX 34 68 35 69 36 70 37 71 63 72 64 73 72 74 65 75 71 76 73 77
REMARK SMILES IDX 70 78 66 79 67 80 68 81 69 82 48 83 49 84 57 85 50 86 56 87
REMARK SMILES IDX 58 88 55 89 51 90 52 91 53 92 54 93
REMARK H PARENT 11 10 4 20 78 46 46 57
REMARK Flexibility Score: inf
ROOT
ATOM      1  C   UNL A   1      31.978  29.529  27.119  1.00  0.00     0.274 C 
ENDROOT
BRANCH   1   2
ATOM      2  O   UNL A   1      31.767  28.651  25.994  1.00  0.00    -0.460 OA
BRANCH   2   3
ATOM      3  C   UNL A   1      31.527  27.321  26.176  1.00  0.00     0.341 C 
ATOM      4  O   UNL A   1      30.862  26.900  27.118  1.00  0.00    -0.249 OA
BRANCH   3   5
ATOM      5  C   UNL A   1      32.209  26.443  25.090  1.00  0.00     0.232 C 
ATOM      6  C   UNL A   1      33.268  26.963  24.090  1.00  0.00     0.058 C 
BRANCH   5   7
ATOM      7  N   UNL A   1      32.794  25.304  25.852  1.00  0.00    -0.315 N 
ATOM      8  C   UNL A   1      33.312  24.104  25.563  1.00  0.00     0.318 C 
ATOM      9  O   UNL A   1      33.764  23.512  26.555  1.00  0.00    -0.249 OA
ATOM     10  H   UNL A   1      32.803  25.480  26.821  1.00  0.00     0.166 HD
BRANCH   8  11
ATOM     11  N   UNL A   1      33.371  23.532  24.321  1.00  0.00    -0.320 N 
ATOM     12  C   UNL A   1      34.204  23.802  23.151  1.00  0.00     0.149 C 
BRANCH  11  13
ATOM     13  C   UNL A   1      32.339  22.541  24.051  1.00  0.00     0.197 C 
BRANCH  13  14
ATOM     14  C   UNL A   1      32.764  21.196  24.530  1.00  0.00     0.144 A 
ATOM     15  C   UNL A   1      32.638  17.807  25.513  1.00  0.00     0.092 C 
ATOM     16  C   UNL A   1      32.985  19.194  25.151  1.00  0.00     0.147 A 
ATOM     17  N   UNL A   1      34.252  19.585  24.974  1.00  0.00    -0.159 NA
ATOM     18  N   UNL A   1      32.042  20.168  24.938  1.00  0.00    -0.215 NA
ATOM     19  N   UNL A   1      34.080  20.838  24.532  1.00  0.00    -0.262 N 
ATOM     20  H   UNL A   1      34.812  21.429  24.243  1.00  0.00     0.192 HD
ENDBRANCH  13  14
ENDBRANCH  11  13
ENDBRANCH   8  11
ENDBRANCH   5   7
BRANCH   5  21
ATOM     21  C   UNL A   1      31.025  26.016  24.182  1.00  0.00     0.422 C 
ATOM     22  F   UNL A   1      31.432  25.584  22.964  1.00  0.00    -0.168 F 
ATOM     23  F   UNL A   1      30.359  24.972  24.754  1.00  0.00    -0.168 F 
ATOM     24  F   UNL A   1      30.095  26.979  23.998  1.00  0.00    -0.168 F 
ENDBRANCH   5  21
ENDBRANCH   3   5
ENDBRANCH   2   3
ENDBRANCH   1   2
BRANCH   1  25
ATOM     25  C   UNL A   1      31.953  30.987  26.691  1.00  0.00     0.275 C 
BRANCH  25  26
ATOM     26  O   UNL A   1      33.188  31.596  27.037  1.00  0.00    -0.458 OA
BRANCH  26  27
ATOM     27  C   UNL A   1      33.051  32.771  27.696  1.00  0.00     0.338 C 
ATOM     28  O   UNL A   1      32.210  33.620  27.540  1.00  0.00    -0.246 OA
BRANCH  27  29
ATOM     29  C   UNL A   1      34.229  33.007  28.492  1.00  0.00     0.060 A 
ATOM     30  C   UNL A   1      35.190  33.915  28.047  1.00  0.00     0.016 A 
ATOM     31  C   UNL A   1      34.512  32.003  29.395  1.00  0.00     0.016 A 
ATOM     32  C   UNL A   1      36.509  33.536  28.217  1.00  0.00     0.010 A 
ATOM     33  C   UNL A   1      35.794  31.905  29.802  1.00  0.00     0.010 A 
ATOM     34  C   UNL A   1      36.786  32.380  28.964  1.00  0.00    -0.014 A 
BRANCH  34  35
ATOM     35  C   UNL A   1      38.123  31.970  29.370  1.00  0.00     0.031 A 
ATOM     36  C   UNL A   1      38.301  30.565  28.866  1.00  0.00     0.074 A 
ATOM     37  C   UNL A   1      39.031  32.812  29.956  1.00  0.00     0.049 A 
ATOM     38  N   UNL A   1      38.069  29.514  29.585  1.00  0.00    -0.248 NA
ATOM     39  C   UNL A   1      38.290  30.236  27.416  1.00  0.00     0.031 C 
ATOM     40  C   UNL A   1      38.923  34.201  30.455  1.00  0.00     0.029 A 
ATOM     41  N   UNL A   1      40.351  32.551  30.257  1.00  0.00    -0.354 N 
ATOM     42  C   UNL A   1      38.316  28.432  28.754  1.00  0.00     0.074 A 
ATOM     43  C   UNL A   1      38.118  28.911  27.424  1.00  0.00     0.031 C 
ATOM     44  C   UNL A   1      40.158  34.717  30.735  1.00  0.00     0.029 A 
ATOM     45  C   UNL A   1      41.166  33.683  30.557  1.00  0.00     0.049 A 
ATOM     46  H   UNL A   1      40.710  31.634  30.265  1.00  0.00     0.167 HD
ATOM     47  C   UNL A   1      39.046  27.389  29.226  1.00  0.00     0.034 A 
ATOM     48  C   UNL A   1      42.534  33.689  30.793  1.00  0.00     0.034 A 
ATOM     49  C   UNL A   1      39.136  27.483  30.666  1.00  0.00     0.049 A 
ATOM     50  C   UNL A   1      42.841  32.278  31.184  1.00  0.00     0.074 A 
ATOM     51  C   UNL A   1      38.210  27.462  31.687  1.00  0.00     0.029 A 
ATOM     52  N   UNL A   1      40.240  28.152  31.144  1.00  0.00    -0.354 N 
ATOM     53  N   UNL A   1      42.386  31.776  32.306  1.00  0.00    -0.248 NA
ATOM     54  C   UNL A   1      43.012  31.322  30.090  1.00  0.00     0.031 C 
ATOM     55  C   UNL A   1      38.613  28.512  32.564  1.00  0.00     0.029 A 
ATOM     56  C   UNL A   1      39.855  29.002  32.152  1.00  0.00     0.049 A 
ATOM     57  H   UNL A   1      41.162  28.040  30.815  1.00  0.00     0.167 HD
ATOM     58  C   UNL A   1      41.772  30.588  31.937  1.00  0.00     0.074 A 
ATOM     59  C   UNL A   1      42.209  30.350  30.550  1.00  0.00     0.031 C 
ATOM     60  C   UNL A   1      40.674  30.111  32.607  1.00  0.00     0.034 A 
BRANCH  47  61
ATOM     61  C   UNL A   1      40.060  26.605  28.431  1.00  0.00     0.023 A 
ATOM     62  C   UNL A   1      41.136  27.341  27.904  1.00  0.00     0.031 A 
ATOM     63  C   UNL A   1      39.881  25.305  27.906  1.00  0.00     0.131 A 
ATOM     64  C   UNL A   1      41.913  26.831  26.853  1.00  0.00     0.055 A 
ATOM     65  C   UNL A   1      40.702  24.775  26.905  1.00  0.00     0.041 A 
ATOM     66  F   UNL A   1      38.852  24.522  28.250  1.00  0.00    -0.206 F 
ATOM     67  C   UNL A   1      41.711  25.547  26.355  1.00  0.00     0.022 A 
BRANCH  64  68
ATOM     68  S   UNL A   1      43.079  27.954  26.043  1.00  0.00     0.124 S 
ATOM     69  O   UNL A   1      44.314  27.180  26.087  1.00  0.00    -0.237 OA
ATOM     70  O   UNL A   1      42.470  28.121  24.727  1.00  0.00    -0.237 OA
ATOM     71  O   UNL A   1      43.053  29.140  26.896  1.00  0.00    -0.744 OA
ENDBRANCH  64  68
ENDBRANCH  47  61
BRANCH  48  72
ATOM     72  C   UNL A   1      43.612  34.621  30.227  1.00  0.00     0.023 A 
ATOM     73  C   UNL A   1      44.273  34.546  28.947  1.00  0.00     0.031 A 
ATOM     74  C   UNL A   1      43.822  35.824  30.931  1.00  0.00     0.131 A 
ATOM     75  C   UNL A   1      45.082  35.636  28.467  1.00  0.00     0.055 A 
ATOM     76  C   UNL A   1      44.580  36.893  30.438  1.00  0.00     0.041 A 
ATOM     77  F   UNL A   1      43.224  36.040  32.111  1.00  0.00    -0.206 F 
ATOM     78  C   UNL A   1      45.203  36.810  29.207  1.00  0.00     0.022 A 
BRANCH  75  79
ATOM     79  S   UNL A   1      46.020  35.615  26.866  1.00  0.00     0.124 S 
ATOM     80  O   UNL A   1      47.409  35.624  27.308  1.00  0.00    -0.237 OA
ATOM     81  O   UNL A   1      45.549  34.396  26.222  1.00  0.00    -0.237 OA
ATOM     82  O   UNL A   1      45.595  36.850  26.199  1.00  0.00    -0.744 OA
ENDBRANCH  75  79
ENDBRANCH  48  72
BRANCH  60  83
ATOM     83  C   UNL A   1      40.230  30.813  33.883  1.00  0.00     0.023 A 
ATOM     84  C   UNL A   1      39.373  31.941  33.985  1.00  0.00     0.031 A 
ATOM     85  C   UNL A   1      40.639  30.208  35.081  1.00  0.00     0.131 A 
ATOM     86  C   UNL A   1      39.007  32.439  35.258  1.00  0.00     0.055 A 
ATOM     87  C   UNL A   1      40.236  30.672  36.329  1.00  0.00     0.041 A 
ATOM     88  F   UNL A   1      41.421  29.117  35.053  1.00  0.00    -0.206 F 
ATOM     89  C   UNL A   1      39.432  31.799  36.426  1.00  0.00     0.022 A 
BRANCH  86  90
ATOM     90  S   UNL A   1      38.038  33.983  35.431  1.00  0.00     0.124 S 
ATOM     91  O   UNL A   1      36.721  33.502  35.832  1.00  0.00    -0.237 OA
ATOM     92  O   UNL A   1      38.781  34.721  36.448  1.00  0.00    -0.237 OA
ATOM     93  O   UNL A   1      38.091  34.572  34.092  1.00  0.00    -0.744 OA
ENDBRANCH  86  90
ENDBRANCH  60  83
ENDBRANCH  34  35
ENDBRANCH  27  29
ENDBRANCH  26  27
ENDBRANCH  25  26
ENDBRANCH   1  25
TORSDOF 19
ENDMDL
MODEL 2
REMARK VINA RESULT:     -10.5      2.124      3.367
REMARK SMILES Cc1n[nH]c(CN(C)C(=O)N[C@](C)(C(=O)OCCOC(=O)c2ccc(-c3c4nc(c(-c5cc(S(=O)(=O)[O-])ccc5F)c5ccc([nH]5)c(-c5cc(S(=O)(=O)[O-])ccc5F)c5nc(c(-c6cc(S(=O)(=O)[O-])ccc6F)c6ccc3[nH]6)C=C5)C=C4)cc2)C(F)(F)F)n1
REMARK SMILES IDX 17 1 16 2 14 3 15 4 12 5 13 6 11 7 9 8 10 9 7 11 8 12 6 13
REMARK SMILES IDX 5 14 1 15 2 16 3 17 89 18 4 19 85 21 86 22 87 23 88 24 18 25
REMARK SMILES IDX 19 26 20 27 21 28 22 29 23 30 84 31 24 32 83 33 25 34 26 35
REMARK SMILES IDX 27 36 77 37 28 38 82 39 76 40 78 41 29 42 81 43 75 44 74 45
REMARK SMILES IDX 30 47 62 48 42 49 61 50 43 51 46 52 60 53 79 54 44 55 45 56
REMARK SMILES IDX 59 58 80 59 47 60 31 61 32 62 40 63 33 64 39 65 41 66 38 67
REMARK SMILES IDX 34 68 35 69 36 70 37 71 63 72 64 73 72 74 65 75 71 76 73 77
REMARK SMILES IDX 70 78 66 79 67 80 68 81 69 82 48 83 49 84 57 85 50 86 56 87
REMARK SMILES IDX 58 88 55 89 51 90 52 91 53 92 54 93
REMARK H PARENT 11 10 4 20 78 46 46 57
REMARK Flexibility Score: inf
ROOT
ATOM      1  C   UNL A   1      32.061  28.095  27.168  1.00  0.00     0.274 C 
ENDROOT
BRANCH   1   2
ATOM      2  O   UNL A   1      31.762  26.769  26.683  1.00  0.00    -0.460 OA
BRANCH   2   3
ATOM      3  C   UNL A   1      32.713  26.019  26.058  1.00  0.00     0.341 C 
ATOM      4  O   UNL A   1      33.908  26.285  26.133  1.00  0.00    -0.249 OA
BRANCH   3   5
ATOM      5  C   UNL A   1      32.099  24.847  25.242  1.00  0.00     0.232 C 
ATOM      6  C   UNL A   1      30.693  24.877  24.599  1.00  0.00     0.058 C 
BRANCH   5   7
ATOM      7  N   UNL A   1      33.103  24.577  24.174  1.00  0.00    -0.315 N 
ATOM      8  C   UNL A   1      33.373  25.049  22.950  1.00  0.00     0.318 C 
ATOM      9  O   UNL A   1      34.395  24.558  22.449  1.00  0.00    -0.249 OA
ATOM     10  H   UNL A   1      33.733  23.868  24.437  1.00  0.00     0.166 HD
BRANCH   8  11
ATOM     11  N   UNL A   1      32.637  25.980  22.268  1.00  0.00    -0.320 N 
ATOM     12  C   UNL A   1      31.859  25.909  21.033  1.00  0.00     0.149 C 
BRANCH  11  13
ATOM     13  C   UNL A   1      32.727  27.337  22.790  1.00  0.00     0.197 C 
BRANCH  13  14
ATOM     14  C   UNL A   1      31.445  28.067  22.581  1.00  0.00     0.144 A 
ATOM     15  C   UNL A   1      28.072  29.054  22.910  1.00  0.00     0.092 C 
ATOM     16  C   UNL A   1      29.496  28.867  22.575  1.00  0.00     0.147 A 
ATOM     17  N   UNL A   1      30.183  29.770  21.866  1.00  0.00    -0.159 NA
ATOM     18  N   UNL A   1      30.223  27.780  22.989  1.00  0.00    -0.215 NA
ATOM     19  N   UNL A   1      31.422  29.265  21.930  1.00  0.00    -0.262 N 
ATOM     20  H   UNL A   1      32.219  29.705  21.554  1.00  0.00     0.192 HD
ENDBRANCH  13  14
ENDBRANCH  11  13
ENDBRANCH   8  11
ENDBRANCH   5   7
BRANCH   5  21
ATOM     21  C   UNL A   1      32.003  23.700  26.283  1.00  0.00     0.422 C 
ATOM     22  F   UNL A   1      30.873  23.766  27.027  1.00  0.00    -0.168 F 
ATOM     23  F   UNL A   1      31.968  22.497  25.641  1.00  0.00    -0.168 F 
ATOM     24  F   UNL A   1      33.058  23.629  27.124  1.00  0.00    -0.168 F 
ENDBRANCH   5  21
ENDBRANCH   3   5
ENDBRANCH   2   3
ENDBRANCH   1   2
BRANCH   1  25
ATOM     25  C   UNL A   1      32.176  29.087  26.022  1.00  0.00     0.275 C 
BRANCH  25  26
ATOM     26  O   UNL A   1      33.225  30.002  26.301  1.00  0.00    -0.458 OA
BRANCH  26  27
ATOM     27  C   UNL A   1      32.809  31.143  26.901  1.00  0.00     0.338 C 
ATOM     28  O   UNL A   1      31.892  31.859  26.586  1.00  0.00    -0.246 OA
BRANCH  27  29
ATOM     29  C   UNL A   1      33.789  31.549  27.877  1.00  0.00     0.060 A 
ATOM     30  C   UNL A   1      34.407  32.792  27.756  1.00  0.00     0.016 A 
ATOM     31  C   UNL A   1      34.344  30.505  28.589  1.00  0.00     0.016 A 
ATOM     32  C   UNL A   1      35.764  32.824  28.020  1.00  0.00     0.010 A 
ATOM     33  C   UNL A   1      35.556  30.727  29.134  1.00  0.00     0.010 A 
ATOM     34  C   UNL A   1      36.374  31.676  28.549  1.00  0.00    -0.014 A 
BRANCH  34  35
ATOM     35  C   UNL A   1      37.745  31.630  29.039  1.00  0.00     0.031 A 
ATOM     36  C   UNL A   1      38.275  30.272  28.673  1.00  0.00     0.074 A 
ATOM     37  C   UNL A   1      38.396  32.708  29.577  1.00  0.00     0.049 A 
ATOM     38  N   UNL A   1      38.255  29.257  29.476  1.00  0.00    -0.248 NA
ATOM     39  C   UNL A   1      38.423  29.834  27.259  1.00  0.00     0.031 C 
ATOM     40  C   UNL A   1      37.938  34.067  29.942  1.00  0.00     0.029 A 
ATOM     41  N   UNL A   1      39.721  32.794  29.947  1.00  0.00    -0.354 N 
ATOM     42  C   UNL A   1      38.795  28.202  28.757  1.00  0.00     0.074 A 
ATOM     43  C   UNL A   1      38.565  28.510  27.383  1.00  0.00     0.031 C 
ATOM     44  C   UNL A   1      39.001  34.883  30.217  1.00  0.00     0.029 A 
ATOM     45  C   UNL A   1      40.232  34.108  30.171  1.00  0.00     0.049 A 
ATOM     46  H   UNL A   1      40.284  31.993  30.052  1.00  0.00     0.167 HD
ATOM     47  C   UNL A   1      39.721  27.403  29.349  1.00  0.00     0.034 A 
ATOM     48  C   UNL A   1      41.544  34.458  30.454  1.00  0.00     0.034 A 
ATOM     49  C   UNL A   1      39.705  27.632  30.776  1.00  0.00     0.049 A 
ATOM     50  C   UNL A   1      42.151  33.197  30.983  1.00  0.00     0.074 A 
ATOM     51  C   UNL A   1      38.753  27.475  31.762  1.00  0.00     0.029 A 
ATOM     52  N   UNL A   1      40.593  28.582  31.230  1.00  0.00    -0.354 N 
ATOM     53  N   UNL A   1      41.762  32.694  32.130  1.00  0.00    -0.248 NA
ATOM     54  C   UNL A   1      42.601  32.224  29.988  1.00  0.00     0.031 C 
ATOM     55  C   UNL A   1      38.850  28.658  32.553  1.00  0.00     0.029 A 
ATOM     56  C   UNL A   1      39.963  29.394  32.141  1.00  0.00     0.049 A 
ATOM     57  H   UNL A   1      41.533  28.666  30.946  1.00  0.00     0.167 HD
ATOM     58  C   UNL A   1      41.465  31.368  31.850  1.00  0.00     0.074 A 
ATOM     59  C   UNL A   1      42.023  31.130  30.507  1.00  0.00     0.031 C 
ATOM     60  C   UNL A   1      40.473  30.699  32.522  1.00  0.00     0.034 A 
BRANCH  47  61
ATOM     61  C   UNL A   1      40.933  26.822  28.666  1.00  0.00     0.023 A 
ATOM     62  C   UNL A   1      41.917  27.742  28.265  1.00  0.00     0.031 A 
ATOM     63  C   UNL A   1      41.036  25.524  28.117  1.00  0.00     0.131 A 
ATOM     64  C   UNL A   1      42.879  27.396  27.303  1.00  0.00     0.055 A 
ATOM     65  C   UNL A   1      42.038  25.164  27.210  1.00  0.00     0.041 A 
ATOM     66  F   UNL A   1      40.125  24.569  28.343  1.00  0.00    -0.206 F 
ATOM     67  C   UNL A   1      42.953  26.109  26.778  1.00  0.00     0.022 A 
BRANCH  64  68
ATOM     68  S   UNL A   1      43.916  28.719  26.632  1.00  0.00     0.124 S 
ATOM     69  O   UNL A   1      44.773  29.029  27.770  1.00  0.00    -0.237 OA
ATOM     70  O   UNL A   1      44.560  28.053  25.504  1.00  0.00    -0.237 OA
ATOM     71  O   UNL A   1      42.951  29.756  26.274  1.00  0.00    -0.744 OA
ENDBRANCH  64  68
ENDBRANCH  47  61
BRANCH  48  72
ATOM     72  C   UNL A   1      42.404  35.571  29.843  1.00  0.00     0.023 A 
ATOM     73  C   UNL A   1      43.601  36.169  30.380  1.00  0.00     0.031 A 
ATOM     74  C   UNL A   1      42.135  35.893  28.497  1.00  0.00     0.131 A 
ATOM     75  C   UNL A   1      44.427  37.029  29.572  1.00  0.00     0.055 A 
ATOM     76  C   UNL A   1      42.965  36.700  27.709  1.00  0.00     0.041 A 
ATOM     77  F   UNL A   1      41.079  35.364  27.864  1.00  0.00    -0.206 F 
ATOM     78  C   UNL A   1      44.113  37.261  28.234  1.00  0.00     0.022 A 
BRANCH  75  79
ATOM     79  S   UNL A   1      45.951  37.892  30.184  1.00  0.00     0.124 S 
ATOM     80  O   UNL A   1      45.484  38.543  31.402  1.00  0.00    -0.237 OA
ATOM     81  O   UNL A   1      46.904  36.803  30.351  1.00  0.00    -0.237 OA
ATOM     82  O   UNL A   1      46.283  38.821  29.098  1.00  0.00    -0.744 OA
ENDBRANCH  75  79
ENDBRANCH  48  72
BRANCH  60  83
ATOM     83  C   UNL A   1      39.807  31.377  33.711  1.00  0.00     0.023 A 
ATOM     84  C   UNL A   1      38.573  32.081  33.713  1.00  0.00     0.031 A 
ATOM     85  C   UNL A   1      40.440  31.189  34.948  1.00  0.00     0.131 A 
ATOM     86  C   UNL A   1      38.059  32.603  34.924  1.00  0.00     0.055 A 
ATOM     87  C   UNL A   1      39.905  31.662  36.143  1.00  0.00     0.041 A 
ATOM     88  F   UNL A   1      41.591  30.501  35.020  1.00  0.00    -0.206 F 
ATOM     89  C   UNL A   1      38.721  32.385  36.136  1.00  0.00     0.022 A 
BRANCH  86  90
ATOM     90  S   UNL A   1      36.559  33.652  34.944  1.00  0.00     0.124 S 
ATOM     91  O   UNL A   1      35.613  32.889  34.138  1.00  0.00    -0.237 OA
ATOM     92  O   UNL A   1      36.248  33.749  36.366  1.00  0.00    -0.237 OA
ATOM     93  O   UNL A   1      37.008  34.905  34.333  1.00  0.00    -0.744 OA
ENDBRANCH  86  90
ENDBRANCH  60  83
ENDBRANCH  34  35
ENDBRANCH  27  29
ENDBRANCH  26  27
ENDBRANCH  25  26
ENDBRANCH   1  25
TORSDOF 19
ENDMDL
MODEL 3
REMARK VINA RESULT:     -10.4      3.429      7.729
REMARK SMILES Cc1n[nH]c(CN(C)C(=O)N[C@](C)(C(=O)OCCOC(=O)c2ccc(-c3c4nc(c(-c5cc(S(=O)(=O)[O-])ccc5F)c5ccc([nH]5)c(-c5cc(S(=O)(=O)[O-])ccc5F)c5nc(c(-c6cc(S(=O)(=O)[O-])ccc6F)c6ccc3[nH]6)C=C5)C=C4)cc2)C(F)(F)F)n1
REMARK SMILES IDX 17 1 16 2 14 3 15 4 12 5 13 6 11 7 9 8 10 9 7 11 8 12 6 13
REMARK SMILES IDX 5 14 1 15 2 16 3 17 89 18 4 19 85 21 86 22 87 23 88 24 18 25
REMARK SMILES IDX 19 26 20 27 21 28 22 29 23 30 84 31 24 32 83 33 25 34 26 35
REMARK SMILES IDX 27 36 77 37 28 38 82 39 76 40 78 41 29 42 81 43 75 44 74 45
REMARK SMILES IDX 30 47 62 48 42 49 61 50 43 51 46 52 60 53 79 54 44 55 45 56
REMARK SMILES IDX 59 58 80 59 47 60 31 61 32 62 40 63 33 64 39 65 41 66 38 67
REMARK SMILES IDX 34 68 35 69 36 70 37 71 63 72 64 73 72 74 65 75 71 76 73 77
REMARK SMILES IDX 70 78 66 79 67 80 68 81 69 82 48 83 49 84 57 85 50 86 56 87
REMARK SMILES IDX 58 88 55 89 51 90 52 91 53 92 54 93
REMARK H PARENT 11 10 4 20 78 46 46 57
REMARK Flexibility Score: inf
ROOT
ATOM      1  C   UNL A   1      39.969  21.342  26.787  1.00  0.00     0.274 C 
ENDROOT
BRANCH   1   2
ATOM      2  O   UNL A   1      39.176  21.904  25.721  1.00  0.00    -0.460 OA
BRANCH   2   3
ATOM      3  C   UNL A   1      38.078  22.666  25.989  1.00  0.00     0.341 C 
ATOM      4  O   UNL A   1      38.148  23.709  26.632  1.00  0.00    -0.249 OA
BRANCH   3   5
ATOM      5  C   UNL A   1      36.772  22.043  25.421  1.00  0.00     0.232 C 
ATOM      6  C   UNL A   1      36.678  20.623  24.816  1.00  0.00     0.058 C 
BRANCH   5   7
ATOM      7  N   UNL A   1      35.797  22.147  26.543  1.00  0.00    -0.315 N 
ATOM      8  C   UNL A   1      34.532  21.772  26.770  1.00  0.00     0.318 C 
ATOM      9  O   UNL A   1      34.149  22.011  27.925  1.00  0.00    -0.249 OA
ATOM     10  H   UNL A   1      36.184  22.611  27.320  1.00  0.00     0.166 HD
BRANCH   8  11
ATOM     11  N   UNL A   1      33.695  21.177  25.865  1.00  0.00    -0.320 N 
ATOM     12  C   UNL A   1      33.377  19.778  25.588  1.00  0.00     0.149 C 
BRANCH  11  13
ATOM     13  C   UNL A   1      33.082  22.086  24.906  1.00  0.00     0.197 C 
BRANCH  13  14
ATOM     14  C   UNL A   1      32.100  22.980  25.583  1.00  0.00     0.144 A 
ATOM     15  C   UNL A   1      29.902  25.675  26.190  1.00  0.00     0.092 C 
ATOM     16  C   UNL A   1      30.726  24.452  26.204  1.00  0.00     0.147 A 
ATOM     17  N   UNL A   1      30.545  23.485  27.111  1.00  0.00    -0.159 NA
ATOM     18  N   UNL A   1      31.708  24.203  25.279  1.00  0.00    -0.215 NA
ATOM     19  N   UNL A   1      31.389  22.545  26.663  1.00  0.00    -0.262 N 
ATOM     20  H   UNL A   1      31.485  21.651  27.063  1.00  0.00     0.192 HD
ENDBRANCH  13  14
ENDBRANCH  11  13
ENDBRANCH   8  11
ENDBRANCH   5   7
BRANCH   5  21
ATOM     21  C   UNL A   1      36.422  22.974  24.230  1.00  0.00     0.422 C 
ATOM     22  F   UNL A   1      37.516  23.565  23.692  1.00  0.00    -0.168 F 
ATOM     23  F   UNL A   1      35.850  22.246  23.229  1.00  0.00    -0.168 F 
ATOM     24  F   UNL A   1      35.526  23.940  24.529  1.00  0.00    -0.168 F 
ENDBRANCH   5  21
ENDBRANCH   3   5
ENDBRANCH   2   3
ENDBRANCH   1   2
BRANCH   1  25
ATOM     25  C   UNL A   1      41.455  21.518  26.519  1.00  0.00     0.275 C 
BRANCH  25  26
ATOM     26  O   UNL A   1      41.744  22.903  26.397  1.00  0.00    -0.458 OA
BRANCH  26  27
ATOM     27  C   UNL A   1      42.721  23.332  27.233  1.00  0.00     0.338 C 
ATOM     28  O   UNL A   1      43.825  22.875  27.385  1.00  0.00    -0.246 OA
BRANCH  27  29
ATOM     29  C   UNL A   1      42.173  24.312  28.137  1.00  0.00     0.060 A 
ATOM     30  C   UNL A   1      40.928  24.878  27.866  1.00  0.00     0.016 A 
ATOM     31  C   UNL A   1      43.109  24.920  28.947  1.00  0.00     0.016 A 
ATOM     32  C   UNL A   1      40.816  26.237  28.094  1.00  0.00     0.010 A 
ATOM     33  C   UNL A   1      42.782  26.132  29.438  1.00  0.00     0.010 A 
ATOM     34  C   UNL A   1      41.875  26.901  28.734  1.00  0.00    -0.014 A 
BRANCH  34  35
ATOM     35  C   UNL A   1      41.815  28.282  29.195  1.00  0.00     0.031 A 
ATOM     36  C   UNL A   1      42.861  29.029  28.417  1.00  0.00     0.074 A 
ATOM     37  C   UNL A   1      40.860  28.754  30.057  1.00  0.00     0.049 A 
ATOM     38  N   UNL A   1      44.063  29.234  28.852  1.00  0.00    -0.248 NA
ATOM     39  C   UNL A   1      42.792  29.180  26.938  1.00  0.00     0.031 C 
ATOM     40  C   UNL A   1      39.799  28.077  30.835  1.00  0.00     0.029 A 
ATOM     41  N   UNL A   1      40.649  30.059  30.447  1.00  0.00    -0.354 N 
ATOM     42  C   UNL A   1      44.715  29.918  27.836  1.00  0.00     0.074 A 
ATOM     43  C   UNL A   1      44.035  29.566  26.632  1.00  0.00     0.031 C 
ATOM     44  C   UNL A   1      38.928  28.987  31.367  1.00  0.00     0.029 A 
ATOM     45  C   UNL A   1      39.403  30.334  31.086  1.00  0.00     0.049 A 
ATOM     46  H   UNL A   1      41.321  30.762  30.294  1.00  0.00     0.167 HD
ATOM     47  C   UNL A   1      45.470  31.003  28.149  1.00  0.00     0.034 A 
ATOM     48  C   UNL A   1      38.920  31.574  31.478  1.00  0.00     0.034 A 
ATOM     49  C   UNL A   1      45.713  31.020  29.574  1.00  0.00     0.049 A 
ATOM     50  C   UNL A   1      40.146  32.426  31.580  1.00  0.00     0.074 A 
ATOM     51  C   UNL A   1      46.351  30.166  30.448  1.00  0.00     0.029 A 
ATOM     52  N   UNL A   1      44.808  31.745  30.317  1.00  0.00    -0.354 N 
ATOM     53  N   UNL A   1      41.050  32.195  32.500  1.00  0.00    -0.248 NA
ATOM     54  C   UNL A   1      40.650  32.993  30.329  1.00  0.00     0.031 C 
ATOM     55  C   UNL A   1      45.484  30.087  31.578  1.00  0.00     0.029 A 
ATOM     56  C   UNL A   1      44.459  31.026  31.435  1.00  0.00     0.049 A 
ATOM     57  H   UNL A   1      44.463  32.637  30.083  1.00  0.00     0.167 HD
ATOM     58  C   UNL A   1      42.250  32.129  31.807  1.00  0.00     0.074 A 
ATOM     59  C   UNL A   1      41.941  32.650  30.463  1.00  0.00     0.031 C 
ATOM     60  C   UNL A   1      43.271  31.311  32.219  1.00  0.00     0.034 A 
BRANCH  47  61
ATOM     61  C   UNL A   1      45.566  32.264  27.327  1.00  0.00     0.023 A 
ATOM     62  C   UNL A   1      46.842  32.584  26.831  1.00  0.00     0.031 A 
ATOM     63  C   UNL A   1      44.602  33.296  27.272  1.00  0.00     0.131 A 
ATOM     64  C   UNL A   1      47.143  33.884  26.400  1.00  0.00     0.055 A 
ATOM     65  C   UNL A   1      44.889  34.572  26.776  1.00  0.00     0.041 A 
ATOM     66  F   UNL A   1      43.372  33.164  27.782  1.00  0.00    -0.206 F 
ATOM     67  C   UNL A   1      46.172  34.881  26.359  1.00  0.00     0.022 A 
BRANCH  64  68
ATOM     68  S   UNL A   1      48.876  34.280  26.057  1.00  0.00     0.124 S 
ATOM     69  O   UNL A   1      49.214  35.134  27.190  1.00  0.00    -0.237 OA
ATOM     70  O   UNL A   1      49.490  32.956  26.045  1.00  0.00    -0.237 OA
ATOM     71  O   UNL A   1      48.820  34.952  24.761  1.00  0.00    -0.744 OA
ENDBRANCH  64  68
ENDBRANCH  47  61
BRANCH  48  72
ATOM     72  C   UNL A   1      37.530  32.186  31.265  1.00  0.00     0.023 A 
ATOM     73  C   UNL A   1      36.813  32.361  30.025  1.00  0.00     0.031 A 
ATOM     74  C   UNL A   1      36.759  32.391  32.427  1.00  0.00     0.131 A 
ATOM     75  C   UNL A   1      35.420  32.726  30.021  1.00  0.00     0.055 A 
ATOM     76  C   UNL A   1      35.396  32.708  32.411  1.00  0.00     0.041 A 
ATOM     77  F   UNL A   1      37.294  32.213  33.643  1.00  0.00    -0.206 F 
ATOM     78  C   UNL A   1      34.719  32.867  31.217  1.00  0.00     0.022 A 
BRANCH  75  79
ATOM     79  S   UNL A   1      34.425  33.033  28.485  1.00  0.00     0.124 S 
ATOM     80  O   UNL A   1      35.419  33.560  27.558  1.00  0.00    -0.237 OA
ATOM     81  O   UNL A   1      33.880  31.717  28.176  1.00  0.00    -0.237 OA
ATOM     82  O   UNL A   1      33.423  34.014  28.911  1.00  0.00    -0.744 OA
ENDBRANCH  75  79
ENDBRANCH  48  72
BRANCH  60  83
ATOM     83  C   UNL A   1      43.144  30.595  33.557  1.00  0.00     0.023 A 
ATOM     84  C   UNL A   1      42.572  29.317  33.792  1.00  0.00     0.031 A 
ATOM     85  C   UNL A   1      43.753  31.235  34.646  1.00  0.00     0.131 A 
ATOM     86  C   UNL A   1      42.587  28.764  35.095  1.00  0.00     0.055 A 
ATOM     87  C   UNL A   1      43.808  30.665  35.914  1.00  0.00     0.041 A 
ATOM     88  F   UNL A   1      44.344  32.430  34.483  1.00  0.00    -0.206 F 
ATOM     89  C   UNL A   1      43.212  29.435  36.150  1.00  0.00     0.022 A 
BRANCH  86  90
ATOM     90  S   UNL A   1      41.719  27.196  35.470  1.00  0.00     0.124 S 
ATOM     91  O   UNL A   1      42.790  26.208  35.422  1.00  0.00    -0.237 OA
ATOM     92  O   UNL A   1      41.147  27.448  36.789  1.00  0.00    -0.237 OA
ATOM     93  O   UNL A   1      40.735  27.082  34.392  1.00  0.00    -0.744 OA
ENDBRANCH  86  90
ENDBRANCH  60  83
ENDBRANCH  34  35
ENDBRANCH  27  29
ENDBRANCH  26  27
ENDBRANCH  25  26
ENDBRANCH   1  25
TORSDOF 19
ENDMDL
