MODEL 1
REMARK VINA RESULT:     -10.4      0.000      0.000
REMARK SMILES CCCC[C@@H](Sc1nc(OCCC2CCCCC2)cc(OCCC2CCCCC2)n1)C(=O)OCCOC(=O)c1ccc(-c2c3nc(c(-c4cc(S(=O)(=O)[O-])ccc4F)c4ccc([nH]4)c(-c4cc(S(=O)(=O)[O-])ccc4F)c4nc(c(-c5cc(S(=O)(=O)[O-])ccc5F)c5ccc2[nH]5)C=C4)C=C3)cc1
REMARK SMILES IDX 33 1 31 2 32 3 5 4 4 5 3 6 2 7 1 8 6 9 7 10 8 11 30 12 9 13
REMARK SMILES IDX 20 14 19 15 10 16 11 17 12 18 13 19 14 20 18 21 15 22 17 23
REMARK SMILES IDX 16 24 21 25 22 26 23 27 24 28 25 29 29 30 26 31 28 32 27 33
REMARK SMILES IDX 34 34 35 35 36 36 37 37 38 38 39 39 40 40 101 41 41 42
REMARK SMILES IDX 100 43 42 44 43 45 44 46 94 47 45 48 99 49 93 50 95 51 46 52
REMARK SMILES IDX 98 53 92 54 91 55 47 57 79 58 59 59 78 60 60 61 63 62 77 63
REMARK SMILES IDX 96 64 61 65 62 66 76 68 97 69 64 70 48 71 49 72 57 73 50 74
REMARK SMILES IDX 56 75 58 76 55 77 51 78 52 79 53 80 54 81 80 82 81 83 89 84
REMARK SMILES IDX 82 85 88 86 90 87 87 88 83 89 84 90 85 91 86 92 65 93 66 94
REMARK SMILES IDX 74 95 67 96 73 97 75 98 72 99 68 100 69 101 70 102 71 103
REMARK H PARENT 95 56 63 67
REMARK Flexibility Score: inf
ROOT
ATOM      1  O   UNL A   1      38.564  21.855  26.172  1.00  0.00    -0.461 OA
ENDROOT
BRANCH   1   2
ATOM      2  C   UNL A   1      38.013  23.067  25.875  1.00  0.00     0.319 C 
ATOM      3  O   UNL A   1      38.590  24.141  26.004  1.00  0.00    -0.251 OA
BRANCH   2   4
ATOM      4  C   UNL A   1      36.572  22.944  25.388  1.00  0.00     0.164 C 
BRANCH   4   5
ATOM      5  C   UNL A   1      35.637  23.878  26.190  1.00  0.00     0.027 C 
BRANCH   5   6
ATOM      6  C   UNL A   1      34.362  23.299  26.825  1.00  0.00     0.001 C 
BRANCH   6   7
ATOM      7  C   UNL A   1      33.032  23.906  26.365  1.00  0.00    -0.003 C 
ATOM      8  C   UNL A   1      31.839  23.355  27.132  1.00  0.00     0.004 C 
ENDBRANCH   6   7
ENDBRANCH   5   6
ENDBRANCH   4   5
BRANCH   4   9
ATOM      9  S   UNL A   1      36.633  23.220  23.576  1.00  0.00    -0.071 SA
BRANCH   9  10
ATOM     10  C   UNL A   1      34.910  23.034  23.257  1.00  0.00     0.195 A 
ATOM     11  N   UNL A   1      34.298  21.882  23.551  1.00  0.00    -0.187 NA
ATOM     12  N   UNL A   1      34.309  24.126  22.797  1.00  0.00    -0.187 NA
ATOM     13  C   UNL A   1      32.979  21.832  23.300  1.00  0.00     0.221 A 
ATOM     14  C   UNL A   1      32.990  24.075  22.638  1.00  0.00     0.221 A 
ATOM     15  C   UNL A   1      32.291  22.910  22.791  1.00  0.00     0.136 A 
BRANCH  13  16
ATOM     16  O   UNL A   1      32.382  20.669  23.713  1.00  0.00    -0.477 OA
BRANCH  16  17
ATOM     17  C   UNL A   1      32.277  19.576  22.804  1.00  0.00     0.231 C 
BRANCH  17  18
ATOM     18  C   UNL A   1      31.965  18.188  23.414  1.00  0.00     0.045 C 
BRANCH  18  19
ATOM     19  C   UNL A   1      33.025  17.564  24.335  1.00  0.00    -0.008 C 
ATOM     20  C   UNL A   1      32.797  16.068  24.607  1.00  0.00     0.004 C 
ATOM     21  C   UNL A   1      34.453  17.756  23.810  1.00  0.00     0.004 C 
ATOM     22  C   UNL A   1      33.796  15.572  25.661  1.00  0.00     0.000 C 
ATOM     23  C   UNL A   1      35.460  17.328  24.873  1.00  0.00     0.000 C 
ATOM     24  C   UNL A   1      35.248  15.875  25.286  1.00  0.00     0.000 C 
ENDBRANCH  18  19
ENDBRANCH  17  18
ENDBRANCH  16  17
ENDBRANCH  13  16
BRANCH  14  25
ATOM     25  O   UNL A   1      32.483  25.282  22.286  1.00  0.00    -0.477 OA
BRANCH  25  26
ATOM     26  C   UNL A   1      33.302  26.444  22.279  1.00  0.00     0.231 C 
BRANCH  26  27
ATOM     27  C   UNL A   1      32.712  27.463  23.261  1.00  0.00     0.045 C 
BRANCH  27  28
ATOM     28  C   UNL A   1      32.688  27.051  24.756  1.00  0.00    -0.008 C 
ATOM     29  C   UNL A   1      33.864  27.614  25.587  1.00  0.00     0.004 C 
ATOM     30  C   UNL A   1      31.282  27.213  25.350  1.00  0.00     0.004 C 
ATOM     31  C   UNL A   1      33.577  28.273  26.939  1.00  0.00     0.000 C 
ATOM     32  C   UNL A   1      31.279  27.265  26.867  1.00  0.00     0.000 C 
ATOM     33  C   UNL A   1      32.117  28.442  27.314  1.00  0.00     0.000 C 
ENDBRANCH  27  28
ENDBRANCH  26  27
ENDBRANCH  25  26
ENDBRANCH  14  25
ENDBRANCH   9  10
ENDBRANCH   4   9
ENDBRANCH   2   4
ENDBRANCH   1   2
BRANCH   1  34
ATOM     34  C   UNL A   1      38.166  20.760  25.330  1.00  0.00     0.274 C 
BRANCH  34  35
ATOM     35  C   UNL A   1      39.243  19.675  25.291  1.00  0.00     0.275 C 
BRANCH  35  36
ATOM     36  O   UNL A   1      40.147  19.802  26.404  1.00  0.00    -0.458 OA
BRANCH  36  37
ATOM     37  C   UNL A   1      41.453  19.640  26.116  1.00  0.00     0.338 C 
ATOM     38  O   UNL A   1      41.981  18.657  25.597  1.00  0.00    -0.246 OA
BRANCH  37  39
ATOM     39  C   UNL A   1      42.199  20.861  26.433  1.00  0.00     0.060 A 
ATOM     40  C   UNL A   1      42.201  21.329  27.749  1.00  0.00     0.016 A 
ATOM     41  C   UNL A   1      42.788  21.611  25.414  1.00  0.00     0.016 A 
ATOM     42  C   UNL A   1      42.751  22.572  28.050  1.00  0.00     0.010 A 
ATOM     43  C   UNL A   1      43.369  22.846  25.723  1.00  0.00     0.010 A 
ATOM     44  C   UNL A   1      43.332  23.347  27.037  1.00  0.00    -0.014 A 
BRANCH  44  45
ATOM     45  C   UNL A   1      43.847  24.704  27.347  1.00  0.00     0.031 A 
ATOM     46  C   UNL A   1      42.914  25.763  27.865  1.00  0.00     0.074 A 
ATOM     47  C   UNL A   1      45.154  24.980  27.173  1.00  0.00     0.049 A 
ATOM     48  N   UNL A   1      43.147  27.026  28.114  1.00  0.00    -0.248 NA
ATOM     49  C   UNL A   1      41.531  25.340  28.131  1.00  0.00     0.031 C 
ATOM     50  C   UNL A   1      46.163  24.027  26.710  1.00  0.00     0.029 A 
ATOM     51  N   UNL A   1      45.854  26.144  27.360  1.00  0.00    -0.354 N 
ATOM     52  C   UNL A   1      41.936  27.558  28.547  1.00  0.00     0.074 A 
ATOM     53  C   UNL A   1      40.967  26.483  28.497  1.00  0.00     0.031 C 
ATOM     54  C   UNL A   1      47.354  24.644  26.652  1.00  0.00     0.029 A 
ATOM     55  C   UNL A   1      47.184  26.046  27.025  1.00  0.00     0.049 A 
ATOM     56  H   UNL A   1      45.445  26.972  27.702  1.00  0.00     0.167 HD
ATOM     57  C   UNL A   1      41.662  28.824  28.953  1.00  0.00     0.034 A 
ATOM     58  C   UNL A   1      48.150  26.984  26.994  1.00  0.00     0.034 A 
ATOM     59  C   UNL A   1      42.641  29.886  28.996  1.00  0.00     0.049 A 
ATOM     60  C   UNL A   1      47.811  28.394  27.401  1.00  0.00     0.074 A 
ATOM     61  C   UNL A   1      42.473  31.202  29.394  1.00  0.00     0.029 A 
ATOM     62  N   UNL A   1      43.974  29.755  28.626  1.00  0.00    -0.354 N 
ATOM     63  N   UNL A   1      46.658  28.889  27.791  1.00  0.00    -0.248 NA
ATOM     64  C   UNL A   1      48.907  29.370  27.371  1.00  0.00     0.031 C 
ATOM     65  C   UNL A   1      43.686  31.878  29.210  1.00  0.00     0.029 A 
ATOM     66  C   UNL A   1      44.632  30.969  28.765  1.00  0.00     0.049 A 
ATOM     67  H   UNL A   1      44.393  28.921  28.312  1.00  0.00     0.167 HD
ATOM     68  C   UNL A   1      46.900  30.230  28.075  1.00  0.00     0.074 A 
ATOM     69  C   UNL A   1      48.310  30.458  27.831  1.00  0.00     0.031 C 
ATOM     70  C   UNL A   1      46.035  31.189  28.499  1.00  0.00     0.034 A 
BRANCH  57  71
ATOM     71  C   UNL A   1      40.232  29.134  29.326  1.00  0.00     0.023 A 
ATOM     72  C   UNL A   1      39.802  29.160  30.665  1.00  0.00     0.031 A 
ATOM     73  C   UNL A   1      39.272  29.371  28.324  1.00  0.00     0.131 A 
ATOM     74  C   UNL A   1      38.443  29.344  30.962  1.00  0.00     0.055 A 
ATOM     75  C   UNL A   1      37.935  29.629  28.631  1.00  0.00     0.041 A 
ATOM     76  F   UNL A   1      39.617  29.339  27.027  1.00  0.00    -0.206 F 
ATOM     77  C   UNL A   1      37.509  29.600  29.956  1.00  0.00     0.022 A 
BRANCH  74  78
ATOM     78  S   UNL A   1      37.888  29.099  32.672  1.00  0.00     0.124 S 
ATOM     79  O   UNL A   1      36.549  29.682  32.635  1.00  0.00    -0.237 OA
ATOM     80  O   UNL A   1      37.950  27.651  32.821  1.00  0.00    -0.237 OA
ATOM     81  O   UNL A   1      38.864  29.850  33.461  1.00  0.00    -0.744 OA
ENDBRANCH  74  78
ENDBRANCH  57  71
BRANCH  58  82
ATOM     82  C   UNL A   1      49.521  26.636  26.530  1.00  0.00     0.023 A 
ATOM     83  C   UNL A   1      49.995  27.066  25.281  1.00  0.00     0.031 A 
ATOM     84  C   UNL A   1      50.365  25.830  27.317  1.00  0.00     0.131 A 
ATOM     85  C   UNL A   1      51.260  26.655  24.835  1.00  0.00     0.055 A 
ATOM     86  C   UNL A   1      51.641  25.465  26.891  1.00  0.00     0.041 A 
ATOM     87  F   UNL A   1      49.958  25.394  28.520  1.00  0.00    -0.206 F 
ATOM     88  C   UNL A   1      52.091  25.868  25.637  1.00  0.00     0.022 A 
BRANCH  85  89
ATOM     89  S   UNL A   1      51.777  27.105  23.156  1.00  0.00     0.124 S 
ATOM     90  O   UNL A   1      52.820  26.122  22.891  1.00  0.00    -0.237 OA
ATOM     91  O   UNL A   1      50.537  26.943  22.403  1.00  0.00    -0.237 OA
ATOM     92  O   UNL A   1      52.240  28.484  23.301  1.00  0.00    -0.744 OA
ENDBRANCH  85  89
ENDBRANCH  58  82
BRANCH  70  93
ATOM     93  C   UNL A   1      46.618  32.555  28.764  1.00  0.00     0.023 A 
ATOM     94  C   UNL A   1      47.186  32.890  30.006  1.00  0.00     0.031 A 
ATOM     95  C   UNL A   1      46.561  33.553  27.774  1.00  0.00     0.131 A 
ATOM     96  C   UNL A   1      47.609  34.205  30.251  1.00  0.00     0.055 A 
ATOM     97  C   UNL A   1      47.040  34.844  28.002  1.00  0.00     0.041 A 
ATOM     98  F   UNL A   1      46.028  33.291  26.570  1.00  0.00    -0.206 F 
ATOM     99  C   UNL A   1      47.551  35.181  29.253  1.00  0.00     0.022 A 
BRANCH  96 100
ATOM    100  S   UNL A   1      48.125  34.656  31.931  1.00  0.00     0.124 S 
ATOM    101  O   UNL A   1      48.572  36.034  31.753  1.00  0.00    -0.237 OA
ATOM    102  O   UNL A   1      46.892  34.480  32.692  1.00  0.00    -0.237 OA
ATOM    103  O   UNL A   1      49.184  33.695  32.235  1.00  0.00    -0.744 OA
ENDBRANCH  96 100
ENDBRANCH  70  93
ENDBRANCH  44  45
ENDBRANCH  37  39
ENDBRANCH  36  37
ENDBRANCH  35  36
ENDBRANCH  34  35
ENDBRANCH   1  34
TORSDOF 27
ENDMDL
MODEL 2
REMARK VINA RESULT:     -10.2      1.302      7.404
REMARK SMILES CCCC[C@@H](Sc1nc(OCCC2CCCCC2)cc(OCCC2CCCCC2)n1)C(=O)OCCOC(=O)c1ccc(-c2c3nc(c(-c4cc(S(=O)(=O)[O-])ccc4F)c4ccc([nH]4)c(-c4cc(S(=O)(=O)[O-])ccc4F)c4nc(c(-c5cc(S(=O)(=O)[O-])ccc5F)c5ccc2[nH]5)C=C4)C=C3)cc1
REMARK SMILES IDX 33 1 31 2 32 3 5 4 4 5 3 6 2 7 1 8 6 9 7 10 8 11 30 12 9 13
REMARK SMILES IDX 20 14 19 15 10 16 11 17 12 18 13 19 14 20 18 21 15 22 17 23
REMARK SMILES IDX 16 24 21 25 22 26 23 27 24 28 25 29 29 30 26 31 28 32 27 33
REMARK SMILES IDX 34 34 35 35 36 36 37 37 38 38 39 39 40 40 101 41 41 42
REMARK SMILES IDX 100 43 42 44 43 45 44 46 94 47 45 48 99 49 93 50 95 51 46 52
REMARK SMILES IDX 98 53 92 54 91 55 47 57 79 58 59 59 78 60 60 61 63 62 77 63
REMARK SMILES IDX 96 64 61 65 62 66 76 68 97 69 64 70 48 71 49 72 57 73 50 74
REMARK SMILES IDX 56 75 58 76 55 77 51 78 52 79 53 80 54 81 80 82 81 83 89 84
REMARK SMILES IDX 82 85 88 86 90 87 87 88 83 89 84 90 85 91 86 92 65 93 66 94
REMARK SMILES IDX 74 95 67 96 73 97 75 98 72 99 68 100 69 101 70 102 71 103
REMARK H PARENT 95 56 63 67
REMARK Flexibility Score: inf
ROOT
ATOM      1  O   UNL A   1      38.564  21.812  26.157  1.00  0.00    -0.461 OA
ENDROOT
BRANCH   1   2
ATOM      2  C   UNL A   1      38.038  23.021  25.806  1.00  0.00     0.319 C 
ATOM      3  O   UNL A   1      38.641  24.086  25.880  1.00  0.00    -0.251 OA
BRANCH   2   4
ATOM      4  C   UNL A   1      36.591  22.908  25.337  1.00  0.00     0.164 C 
BRANCH   4   5
ATOM      5  C   UNL A   1      35.675  23.865  26.135  1.00  0.00     0.027 C 
BRANCH   5   6
ATOM      6  C   UNL A   1      34.434  23.298  26.843  1.00  0.00     0.001 C 
BRANCH   6   7
ATOM      7  C   UNL A   1      33.073  23.770  26.320  1.00  0.00    -0.003 C 
ATOM      8  C   UNL A   1      31.914  23.287  27.180  1.00  0.00     0.004 C 
ENDBRANCH   6   7
ENDBRANCH   5   6
ENDBRANCH   4   5
BRANCH   4   9
ATOM      9  S   UNL A   1      36.635  23.158  23.520  1.00  0.00    -0.071 SA
BRANCH   9  10
ATOM     10  C   UNL A   1      34.907  22.990  23.222  1.00  0.00     0.195 A 
ATOM     11  N   UNL A   1      34.288  21.842  23.518  1.00  0.00    -0.187 NA
ATOM     12  N   UNL A   1      34.310  24.090  22.775  1.00  0.00    -0.187 NA
ATOM     13  C   UNL A   1      32.966  21.805  23.283  1.00  0.00     0.221 A 
ATOM     14  C   UNL A   1      32.989  24.050  22.632  1.00  0.00     0.221 A 
ATOM     15  C   UNL A   1      32.282  22.891  22.789  1.00  0.00     0.136 A 
BRANCH  13  16
ATOM     16  O   UNL A   1      32.364  20.645  23.699  1.00  0.00    -0.477 OA
BRANCH  16  17
ATOM     17  C   UNL A   1      32.243  19.555  22.788  1.00  0.00     0.231 C 
BRANCH  17  18
ATOM     18  C   UNL A   1      31.962  18.161  23.399  1.00  0.00     0.045 C 
BRANCH  18  19
ATOM     19  C   UNL A   1      33.033  17.565  24.326  1.00  0.00    -0.008 C 
ATOM     20  C   UNL A   1      32.822  16.072  24.626  1.00  0.00     0.004 C 
ATOM     21  C   UNL A   1      34.456  17.763  23.791  1.00  0.00     0.004 C 
ATOM     22  C   UNL A   1      33.832  15.606  25.684  1.00  0.00     0.000 C 
ATOM     23  C   UNL A   1      35.473  17.365  24.856  1.00  0.00     0.000 C 
ATOM     24  C   UNL A   1      35.278  15.917  25.296  1.00  0.00     0.000 C 
ENDBRANCH  18  19
ENDBRANCH  17  18
ENDBRANCH  16  17
ENDBRANCH  13  16
BRANCH  14  25
ATOM     25  O   UNL A   1      32.488  25.264  22.292  1.00  0.00    -0.477 OA
BRANCH  25  26
ATOM     26  C   UNL A   1      33.315  26.420  22.291  1.00  0.00     0.231 C 
BRANCH  26  27
ATOM     27  C   UNL A   1      32.727  27.441  23.272  1.00  0.00     0.045 C 
BRANCH  27  28
ATOM     28  C   UNL A   1      32.688  27.024  24.766  1.00  0.00    -0.008 C 
ATOM     29  C   UNL A   1      33.887  27.533  25.598  1.00  0.00     0.004 C 
ATOM     30  C   UNL A   1      31.291  27.242  25.362  1.00  0.00     0.004 C 
ATOM     31  C   UNL A   1      33.630  28.197  26.953  1.00  0.00     0.000 C 
ATOM     32  C   UNL A   1      31.292  27.288  26.880  1.00  0.00     0.000 C 
ATOM     33  C   UNL A   1      32.179  28.426  27.332  1.00  0.00     0.000 C 
ENDBRANCH  27  28
ENDBRANCH  26  27
ENDBRANCH  25  26
ENDBRANCH  14  25
ENDBRANCH   9  10
ENDBRANCH   4   9
ENDBRANCH   2   4
ENDBRANCH   1   2
BRANCH   1  34
ATOM     34  C   UNL A   1      38.134  20.688  25.371  1.00  0.00     0.274 C 
BRANCH  34  35
ATOM     35  C   UNL A   1      39.191  19.583  25.365  1.00  0.00     0.275 C 
BRANCH  35  36
ATOM     36  O   UNL A   1      40.092  19.723  26.479  1.00  0.00    -0.458 OA
BRANCH  36  37
ATOM     37  C   UNL A   1      41.404  19.647  26.180  1.00  0.00     0.338 C 
ATOM     38  O   UNL A   1      42.001  18.680  25.707  1.00  0.00    -0.246 OA
BRANCH  37  39
ATOM     39  C   UNL A   1      42.055  20.938  26.419  1.00  0.00     0.060 A 
ATOM     40  C   UNL A   1      42.212  21.382  27.734  1.00  0.00     0.016 A 
ATOM     41  C   UNL A   1      42.395  21.765  25.348  1.00  0.00     0.016 A 
ATOM     42  C   UNL A   1      42.667  22.673  27.988  1.00  0.00     0.010 A 
ATOM     43  C   UNL A   1      42.882  23.051  25.605  1.00  0.00     0.010 A 
ATOM     44  C   UNL A   1      42.996  23.524  26.924  1.00  0.00    -0.014 A 
BRANCH  44  45
ATOM     45  C   UNL A   1      43.405  24.924  27.196  1.00  0.00     0.031 A 
ATOM     46  C   UNL A   1      44.837  25.341  26.995  1.00  0.00     0.074 A 
ATOM     47  C   UNL A   1      42.491  25.822  27.610  1.00  0.00     0.049 A 
ATOM     48  N   UNL A   1      45.412  26.487  27.255  1.00  0.00    -0.248 NA
ATOM     49  C   UNL A   1      45.739  24.326  26.433  1.00  0.00     0.031 C 
ATOM     50  C   UNL A   1      41.068  25.546  27.806  1.00  0.00     0.029 A 
ATOM     51  N   UNL A   1      42.625  27.145  27.945  1.00  0.00    -0.354 N 
ATOM     52  C   UNL A   1      46.750  26.328  26.909  1.00  0.00     0.074 A 
ATOM     53  C   UNL A   1      46.902  24.963  26.448  1.00  0.00     0.031 C 
ATOM     54  C   UNL A   1      40.459  26.667  28.226  1.00  0.00     0.029 A 
ATOM     55  C   UNL A   1      41.454  27.724  28.374  1.00  0.00     0.049 A 
ATOM     56  H   UNL A   1      43.477  27.634  27.885  1.00  0.00     0.167 HD
ATOM     57  C   UNL A   1      47.756  27.239  26.966  1.00  0.00     0.034 A 
ATOM     58  C   UNL A   1      41.216  28.958  28.859  1.00  0.00     0.034 A 
ATOM     59  C   UNL A   1      47.588  28.597  27.429  1.00  0.00     0.049 A 
ATOM     60  C   UNL A   1      42.357  29.936  28.960  1.00  0.00     0.074 A 
ATOM     61  C   UNL A   1      48.535  29.603  27.524  1.00  0.00     0.029 A 
ATOM     62  N   UNL A   1      46.391  29.143  27.878  1.00  0.00    -0.354 N 
ATOM     63  N   UNL A   1      43.621  29.768  28.646  1.00  0.00    -0.248 NA
ATOM     64  C   UNL A   1      42.034  31.273  29.473  1.00  0.00     0.031 C 
ATOM     65  C   UNL A   1      47.926  30.733  28.083  1.00  0.00     0.029 A 
ATOM     66  C   UNL A   1      46.581  30.459  28.272  1.00  0.00     0.049 A 
ATOM     67  H   UNL A   1      45.531  28.664  27.913  1.00  0.00     0.167 HD
ATOM     68  C   UNL A   1      44.239  30.989  28.904  1.00  0.00     0.074 A 
ATOM     69  C   UNL A   1      43.204  31.886  29.377  1.00  0.00     0.031 C 
ATOM     70  C   UNL A   1      45.544  31.338  28.762  1.00  0.00     0.034 A 
BRANCH  57  71
ATOM     71  C   UNL A   1      49.135  26.769  26.567  1.00  0.00     0.023 A 
ATOM     72  C   UNL A   1      49.783  27.258  25.420  1.00  0.00     0.031 A 
ATOM     73  C   UNL A   1      49.797  25.787  27.327  1.00  0.00     0.131 A 
ATOM     74  C   UNL A   1      51.016  26.715  25.026  1.00  0.00     0.055 A 
ATOM     75  C   UNL A   1      51.058  25.305  26.972  1.00  0.00     0.041 A 
ATOM     76  F   UNL A   1      49.220  25.266  28.422  1.00  0.00    -0.206 F 
ATOM     77  C   UNL A   1      51.669  25.758  25.805  1.00  0.00     0.022 A 
BRANCH  74  78
ATOM     78  S   UNL A   1      51.687  27.173  23.403  1.00  0.00     0.124 S 
ATOM     79  O   UNL A   1      50.748  26.516  22.497  1.00  0.00    -0.237 OA
ATOM     80  O   UNL A   1      51.629  28.629  23.437  1.00  0.00    -0.237 OA
ATOM     81  O   UNL A   1      53.034  26.602  23.415  1.00  0.00    -0.744 OA
ENDBRANCH  74  78
ENDBRANCH  57  71
BRANCH  58  82
ATOM     82  C   UNL A   1      39.850  29.333  29.320  1.00  0.00     0.023 A 
ATOM     83  C   UNL A   1      39.517  29.323  30.684  1.00  0.00     0.031 A 
ATOM     84  C   UNL A   1      38.845  29.670  28.395  1.00  0.00     0.131 A 
ATOM     85  C   UNL A   1      38.201  29.601  31.083  1.00  0.00     0.055 A 
ATOM     86  C   UNL A   1      37.550  29.994  28.801  1.00  0.00     0.041 A 
ATOM     87  F   UNL A   1      39.114  29.696  27.080  1.00  0.00    -0.206 F 
ATOM     88  C   UNL A   1      37.219  29.950  30.152  1.00  0.00     0.022 A 
BRANCH  85  89
ATOM     89  S   UNL A   1      37.772  29.431  32.837  1.00  0.00     0.124 S 
ATOM     90  O   UNL A   1      37.608  27.988  32.965  1.00  0.00    -0.237 OA
ATOM     91  O   UNL A   1      38.944  30.003  33.493  1.00  0.00    -0.237 OA
ATOM     92  O   UNL A   1      36.545  30.213  32.965  1.00  0.00    -0.744 OA
ENDBRANCH  85  89
ENDBRANCH  58  82
BRANCH  70  93
ATOM     93  C   UNL A   1      45.900  32.769  29.086  1.00  0.00     0.023 A 
ATOM     94  C   UNL A   1      45.642  33.818  28.186  1.00  0.00     0.031 A 
ATOM     95  C   UNL A   1      46.550  33.080  30.294  1.00  0.00     0.131 A 
ATOM     96  C   UNL A   1      46.094  35.115  28.473  1.00  0.00     0.055 A 
ATOM     97  C   UNL A   1      46.944  34.383  30.603  1.00  0.00     0.041 A 
ATOM     98  F   UNL A   1      46.824  32.118  31.190  1.00  0.00    -0.206 F 
ATOM     99  C   UNL A   1      46.732  35.407  29.682  1.00  0.00     0.022 A 
BRANCH  96 100
ATOM    100  S   UNL A   1      45.946  36.393  27.195  1.00  0.00     0.124 S 
ATOM    101  O   UNL A   1      47.319  36.875  27.084  1.00  0.00    -0.237 OA
ATOM    102  O   UNL A   1      45.442  35.635  26.054  1.00  0.00    -0.237 OA
ATOM    103  O   UNL A   1      44.999  37.347  27.771  1.00  0.00    -0.744 OA
ENDBRANCH  96 100
ENDBRANCH  70  93
ENDBRANCH  44  45
ENDBRANCH  37  39
ENDBRANCH  36  37
ENDBRANCH  35  36
ENDBRANCH  34  35
ENDBRANCH   1  34
TORSDOF 27
ENDMDL
MODEL 3
REMARK VINA RESULT:     -10.0      2.205      2.618
REMARK SMILES CCCC[C@@H](Sc1nc(OCCC2CCCCC2)cc(OCCC2CCCCC2)n1)C(=O)OCCOC(=O)c1ccc(-c2c3nc(c(-c4cc(S(=O)(=O)[O-])ccc4F)c4ccc([nH]4)c(-c4cc(S(=O)(=O)[O-])ccc4F)c4nc(c(-c5cc(S(=O)(=O)[O-])ccc5F)c5ccc2[nH]5)C=C4)C=C3)cc1
REMARK SMILES IDX 33 1 31 2 32 3 5 4 4 5 3 6 2 7 1 8 6 9 7 10 8 11 30 12 9 13
REMARK SMILES IDX 20 14 19 15 10 16 11 17 12 18 13 19 14 20 18 21 15 22 17 23
REMARK SMILES IDX 16 24 21 25 22 26 23 27 24 28 25 29 29 30 26 31 28 32 27 33
REMARK SMILES IDX 34 34 35 35 36 36 37 37 38 38 39 39 40 40 101 41 41 42
REMARK SMILES IDX 100 43 42 44 43 45 44 46 94 47 45 48 99 49 93 50 95 51 46 52
REMARK SMILES IDX 98 53 92 54 91 55 47 57 79 58 59 59 78 60 60 61 63 62 77 63
REMARK SMILES IDX 96 64 61 65 62 66 76 68 97 69 64 70 48 71 49 72 57 73 50 74
REMARK SMILES IDX 56 75 58 76 55 77 51 78 52 79 53 80 54 81 80 82 81 83 89 84
REMARK SMILES IDX 82 85 88 86 90 87 87 88 83 89 84 90 85 91 86 92 65 93 66 94
REMARK SMILES IDX 74 95 67 96 73 97 75 98 72 99 68 100 69 101 70 102 71 103
REMARK H PARENT 95 56 63 67
REMARK Flexibility Score: inf
ROOT
ATOM      1  O   UNL A   1      38.057  22.250  25.019  1.00  0.00    -0.461 OA
ENDROOT
BRANCH   1   2
ATOM      2  C   UNL A   1      37.285  23.120  25.733  1.00  0.00     0.319 C 
ATOM      3  O   UNL A   1      37.705  23.840  26.631  1.00  0.00    -0.251 OA
BRANCH   2   4
ATOM      4  C   UNL A   1      35.820  23.075  25.310  1.00  0.00     0.164 C 
BRANCH   4   5
ATOM      5  C   UNL A   1      35.017  22.101  26.202  1.00  0.00     0.027 C 
BRANCH   5   6
ATOM      6  C   UNL A   1      34.483  22.593  27.558  1.00  0.00     0.001 C 
BRANCH   6   7
ATOM      7  C   UNL A   1      32.962  22.724  27.687  1.00  0.00    -0.003 C 
ATOM      8  C   UNL A   1      32.220  22.170  26.479  1.00  0.00     0.004 C 
ENDBRANCH   6   7
ENDBRANCH   5   6
ENDBRANCH   4   5
BRANCH   4   9
ATOM      9  S   UNL A   1      35.251  24.819  25.299  1.00  0.00    -0.071 SA
BRANCH   9  10
ATOM     10  C   UNL A   1      33.789  24.579  24.345  1.00  0.00     0.195 A 
ATOM     11  N   UNL A   1      33.676  23.504  23.559  1.00  0.00    -0.187 NA
ATOM     12  N   UNL A   1      32.839  25.486  24.547  1.00  0.00    -0.187 NA
ATOM     13  C   UNL A   1      32.520  23.383  22.886  1.00  0.00     0.221 A 
ATOM     14  C   UNL A   1      31.676  25.296  23.933  1.00  0.00     0.221 A 
ATOM     15  C   UNL A   1      31.501  24.299  23.014  1.00  0.00     0.136 A 
BRANCH  13  16
ATOM     16  O   UNL A   1      32.414  22.214  22.175  1.00  0.00    -0.477 OA
BRANCH  16  17
ATOM     17  C   UNL A   1      31.796  21.082  22.781  1.00  0.00     0.231 C 
BRANCH  17  18
ATOM     18  C   UNL A   1      32.183  19.692  22.220  1.00  0.00     0.045 C 
BRANCH  18  19
ATOM     19  C   UNL A   1      32.417  18.560  23.232  1.00  0.00    -0.008 C 
ATOM     20  C   UNL A   1      33.522  17.578  22.810  1.00  0.00     0.004 C 
ATOM     21  C   UNL A   1      32.732  19.079  24.640  1.00  0.00     0.004 C 
ATOM     22  C   UNL A   1      33.571  16.397  23.788  1.00  0.00     0.000 C 
ATOM     23  C   UNL A   1      32.719  17.924  25.636  1.00  0.00     0.000 C 
ATOM     24  C   UNL A   1      33.721  16.842  25.244  1.00  0.00     0.000 C 
ENDBRANCH  18  19
ENDBRANCH  17  18
ENDBRANCH  16  17
ENDBRANCH  13  16
BRANCH  14  25
ATOM     25  O   UNL A   1      30.755  26.214  24.315  1.00  0.00    -0.477 OA
BRANCH  25  26
ATOM     26  C   UNL A   1      29.976  26.911  23.351  1.00  0.00     0.231 C 
BRANCH  26  27
ATOM     27  C   UNL A   1      30.883  27.903  22.614  1.00  0.00     0.045 C 
BRANCH  27  28
ATOM     28  C   UNL A   1      30.402  29.377  22.565  1.00  0.00    -0.008 C 
ATOM     29  C   UNL A   1      29.343  29.662  21.476  1.00  0.00     0.004 C 
ATOM     30  C   UNL A   1      30.105  29.906  23.975  1.00  0.00     0.004 C 
ATOM     31  C   UNL A   1      28.087  30.456  21.843  1.00  0.00     0.000 C 
ATOM     32  C   UNL A   1      29.225  31.144  23.972  1.00  0.00     0.000 C 
ATOM     33  C   UNL A   1      27.909  30.804  23.309  1.00  0.00     0.000 C 
ENDBRANCH  27  28
ENDBRANCH  26  27
ENDBRANCH  25  26
ENDBRANCH  14  25
ENDBRANCH   9  10
ENDBRANCH   4   9
ENDBRANCH   2   4
ENDBRANCH   1   2
BRANCH   1  34
ATOM     34  C   UNL A   1      38.457  21.054  25.708  1.00  0.00     0.274 C 
BRANCH  34  35
ATOM     35  C   UNL A   1      39.936  21.109  26.094  1.00  0.00     0.275 C 
BRANCH  35  36
ATOM     36  O   UNL A   1      40.460  19.789  26.327  1.00  0.00    -0.458 OA
BRANCH  36  37
ATOM     37  C   UNL A   1      41.779  19.636  26.098  1.00  0.00     0.338 C 
ATOM     38  O   UNL A   1      42.343  18.636  25.654  1.00  0.00    -0.246 OA
BRANCH  37  39
ATOM     39  C   UNL A   1      42.491  20.887  26.373  1.00  0.00     0.060 A 
ATOM     40  C   UNL A   1      42.652  21.293  27.701  1.00  0.00     0.016 A 
ATOM     41  C   UNL A   1      42.887  21.718  25.326  1.00  0.00     0.016 A 
ATOM     42  C   UNL A   1      43.167  22.554  27.989  1.00  0.00     0.010 A 
ATOM     43  C   UNL A   1      43.435  22.972  25.618  1.00  0.00     0.010 A 
ATOM     44  C   UNL A   1      43.554  23.410  26.949  1.00  0.00    -0.014 A 
BRANCH  44  45
ATOM     45  C   UNL A   1      44.030  24.782  27.257  1.00  0.00     0.031 A 
ATOM     46  C   UNL A   1      43.072  25.804  27.805  1.00  0.00     0.074 A 
ATOM     47  C   UNL A   1      45.322  25.104  27.056  1.00  0.00     0.049 A 
ATOM     48  N   UNL A   1      43.267  27.073  28.058  1.00  0.00    -0.248 NA
ATOM     49  C   UNL A   1      41.711  25.332  28.099  1.00  0.00     0.031 C 
ATOM     50  C   UNL A   1      46.352  24.189  26.564  1.00  0.00     0.029 A 
ATOM     51  N   UNL A   1      45.986  26.290  27.237  1.00  0.00    -0.354 N 
ATOM     52  C   UNL A   1      42.049  27.560  28.522  1.00  0.00     0.074 A 
ATOM     53  C   UNL A   1      41.117  26.452  28.485  1.00  0.00     0.031 C 
ATOM     54  C   UNL A   1      47.519  24.848  26.484  1.00  0.00     0.029 A 
ATOM     55  C   UNL A   1      47.310  26.240  26.871  1.00  0.00     0.049 A 
ATOM     56  H   UNL A   1      45.556  27.101  27.594  1.00  0.00     0.167 HD
ATOM     57  C   UNL A   1      41.742  28.813  28.943  1.00  0.00     0.034 A 
ATOM     58  C   UNL A   1      48.242  27.211  26.826  1.00  0.00     0.034 A 
ATOM     59  C   UNL A   1      42.684  29.908  28.973  1.00  0.00     0.049 A 
ATOM     60  C   UNL A   1      47.865  28.606  27.251  1.00  0.00     0.074 A 
ATOM     61  C   UNL A   1      42.481  31.215  29.384  1.00  0.00     0.029 A 
ATOM     62  N   UNL A   1      44.013  29.825  28.572  1.00  0.00    -0.354 N 
ATOM     63  N   UNL A   1      46.705  29.058  27.671  1.00  0.00    -0.248 NA
ATOM     64  C   UNL A   1      48.926  29.618  27.204  1.00  0.00     0.031 C 
ATOM     65  C   UNL A   1      43.665  31.933  29.178  1.00  0.00     0.029 A 
ATOM     66  C   UNL A   1      44.632  31.060  28.705  1.00  0.00     0.049 A 
ATOM     67  H   UNL A   1      44.452  29.008  28.242  1.00  0.00     0.167 HD
ATOM     68  C   UNL A   1      46.907  30.405  27.959  1.00  0.00     0.074 A 
ATOM     69  C   UNL A   1      48.303  30.682  27.686  1.00  0.00     0.031 C 
ATOM     70  C   UNL A   1      46.020  31.330  28.410  1.00  0.00     0.034 A 
BRANCH  57  71
ATOM     71  C   UNL A   1      40.310  29.071  29.351  1.00  0.00     0.023 A 
ATOM     72  C   UNL A   1      39.897  29.003  30.694  1.00  0.00     0.031 A 
ATOM     73  C   UNL A   1      39.335  29.353  28.377  1.00  0.00     0.131 A 
ATOM     74  C   UNL A   1      38.538  29.142  31.016  1.00  0.00     0.055 A 
ATOM     75  C   UNL A   1      37.996  29.566  28.713  1.00  0.00     0.041 A 
ATOM     76  F   UNL A   1      39.665  29.411  27.077  1.00  0.00    -0.206 F 
ATOM     77  C   UNL A   1      37.588  29.444  30.038  1.00  0.00     0.022 A 
BRANCH  74  78
ATOM     78  S   UNL A   1      38.007  28.778  32.713  1.00  0.00     0.124 S 
ATOM     79  O   UNL A   1      36.646  29.308  32.718  1.00  0.00    -0.237 OA
ATOM     80  O   UNL A   1      38.128  27.327  32.778  1.00  0.00    -0.237 OA
ATOM     81  O   UNL A   1      38.960  29.522  33.537  1.00  0.00    -0.744 OA
ENDBRANCH  74  78
ENDBRANCH  57  71
BRANCH  58  82
ATOM     82  C   UNL A   1      49.614  26.913  26.329  1.00  0.00     0.023 A 
ATOM     83  C   UNL A   1      50.683  26.728  27.219  1.00  0.00     0.031 A 
ATOM     84  C   UNL A   1      49.882  26.848  24.949  1.00  0.00     0.131 A 
ATOM     85  C   UNL A   1      51.980  26.530  26.720  1.00  0.00     0.055 A 
ATOM     86  C   UNL A   1      51.164  26.602  24.459  1.00  0.00     0.041 A 
ATOM     87  F   UNL A   1      48.893  27.017  24.057  1.00  0.00    -0.206 F 
ATOM     88  C   UNL A   1      52.225  26.452  25.347  1.00  0.00     0.022 A 
BRANCH  85  89
ATOM     89  S   UNL A   1      53.358  26.446  27.897  1.00  0.00     0.124 S 
ATOM     90  O   UNL A   1      52.659  26.248  29.161  1.00  0.00    -0.237 OA
ATOM     91  O   UNL A   1      54.115  25.302  27.397  1.00  0.00    -0.237 OA
ATOM     92  O   UNL A   1      54.017  27.741  27.742  1.00  0.00    -0.744 OA
ENDBRANCH  85  89
ENDBRANCH  58  82
BRANCH  70  93
ATOM     93  C   UNL A   1      46.562  32.714  28.672  1.00  0.00     0.023 A 
ATOM     94  C   UNL A   1      46.641  33.682  27.656  1.00  0.00     0.031 A 
ATOM     95  C   UNL A   1      47.049  33.053  29.947  1.00  0.00     0.131 A 
ATOM     96  C   UNL A   1      47.260  34.916  27.911  1.00  0.00     0.055 A 
ATOM     97  C   UNL A   1      47.608  34.304  30.212  1.00  0.00     0.041 A 
ATOM     98  F   UNL A   1      47.001  32.167  30.955  1.00  0.00    -0.206 F 
ATOM     99  C   UNL A   1      47.732  35.238  29.186  1.00  0.00     0.022 A 
BRANCH  96 100
ATOM    100  S   UNL A   1      47.548  36.050  26.524  1.00  0.00     0.124 S 
ATOM    101  O   UNL A   1      46.608  37.128  26.812  1.00  0.00    -0.237 OA
ATOM    102  O   UNL A   1      48.961  36.377  26.680  1.00  0.00    -0.237 OA
ATOM    103  O   UNL A   1      47.224  35.243  25.349  1.00  0.00    -0.744 OA
ENDBRANCH  96 100
ENDBRANCH  70  93
ENDBRANCH  44  45
ENDBRANCH  37  39
ENDBRANCH  36  37
ENDBRANCH  35  36
ENDBRANCH  34  35
ENDBRANCH   1  34
TORSDOF 27
ENDMDL
