MODEL 1
REMARK VINA RESULT:     -11.2      0.000      0.000
REMARK SMILES CC(C)(CC(=O)OCCOC(=O)c1ccc(-c2c3nc(c(-c4cc(S(=O)(=O)[O-])ccc4F)c4ccc([nH]4)c(-c4cc(S(=O)(=O)[O-])ccc4F)c4nc(c(-c5cc(S(=O)(=O)[O-])ccc5F)c5ccc2[nH]5)C=C4)C=C3)cc1)Cc1nc([C@@]2(C)CCCO2)no1
REMARK SMILES IDX 8 1 7 2 5 3 6 4 4 5 2 6 1 7 3 8 76 9 77 10 78 11 87 12 79 13
REMARK SMILES IDX 86 14 80 15 81 16 82 17 85 18 83 19 84 20 9 21 10 22 11 23
REMARK SMILES IDX 12 24 13 25 14 26 75 27 15 28 74 29 16 30 17 31 18 32 68 33
REMARK SMILES IDX 19 34 73 35 67 36 69 37 20 38 72 39 66 40 65 41 21 43 53 44
REMARK SMILES IDX 33 45 52 46 34 47 37 48 51 49 70 50 35 51 36 52 50 54 71 55
REMARK SMILES IDX 38 56 22 57 23 58 31 59 24 60 30 61 32 62 29 63 25 64 26 65
REMARK SMILES IDX 27 66 28 67 54 68 55 69 63 70 56 71 62 72 64 73 61 74 57 75
REMARK SMILES IDX 58 76 59 77 60 78 39 79 40 80 48 81 41 82 47 83 49 84 46 85
REMARK SMILES IDX 42 86 43 87 44 88 45 89
REMARK H PARENT 69 42 37 53
REMARK Flexibility Score: inf
ROOT
ATOM      1  C   UNL A   1      31.229  29.495  25.605  1.00  0.00     0.274 C 
ENDROOT
BRANCH   1   2
ATOM      2  O   UNL A   1      32.006  28.327  25.956  1.00  0.00    -0.462 OA
BRANCH   2   3
ATOM      3  C   UNL A   1      31.462  27.534  26.907  1.00  0.00     0.306 C 
ATOM      4  O   UNL A   1      31.423  27.825  28.100  1.00  0.00    -0.252 OA
BRANCH   3   5
ATOM      5  C   UNL A   1      30.806  26.259  26.402  1.00  0.00     0.129 C 
BRANCH   5   6
ATOM      6  C   UNL A   1      31.423  25.256  25.380  1.00  0.00    -0.016 C 
ATOM      7  C   UNL A   1      32.945  25.162  25.534  1.00  0.00     0.012 C 
ATOM      8  C   UNL A   1      30.846  23.871  25.836  1.00  0.00     0.012 C 
BRANCH   6   9
ATOM      9  C   UNL A   1      30.946  25.391  23.892  1.00  0.00     0.107 C 
BRANCH   9  10
ATOM     10  C   UNL A   1      30.504  26.704  23.330  1.00  0.00     0.227 A 
ATOM     11  N   UNL A   1      29.301  27.241  23.363  1.00  0.00    -0.193 NA
ATOM     12  O   UNL A   1      31.368  27.412  22.548  1.00  0.00    -0.339 OA
ATOM     13  C   UNL A   1      29.459  28.405  22.652  1.00  0.00     0.203 A 
ATOM     14  N   UNL A   1      30.684  28.556  22.120  1.00  0.00    -0.059 NA
BRANCH  13  15
ATOM     15  C   UNL A   1      28.381  29.466  22.573  1.00  0.00     0.128 C 
ATOM     16  C   UNL A   1      27.036  28.944  23.112  1.00  0.00     0.051 C 
ATOM     17  C   UNL A   1      28.783  30.743  23.330  1.00  0.00     0.046 C 
ATOM     18  O   UNL A   1      28.127  29.901  21.210  1.00  0.00    -0.367 OA
ATOM     19  C   UNL A   1      28.039  31.831  22.600  1.00  0.00     0.032 C 
ATOM     20  C   UNL A   1      28.060  31.332  21.173  1.00  0.00     0.161 C 
ENDBRANCH  13  15
ENDBRANCH   9  10
ENDBRANCH   6   9
ENDBRANCH   5   6
ENDBRANCH   3   5
ENDBRANCH   2   3
ENDBRANCH   1   2
BRANCH   1  21
ATOM     21  C   UNL A   1      31.847  30.772  26.198  1.00  0.00     0.275 C 
BRANCH  21  22
ATOM     22  O   UNL A   1      33.294  30.797  26.252  1.00  0.00    -0.458 OA
BRANCH  22  23
ATOM     23  C   UNL A   1      33.789  31.592  27.217  1.00  0.00     0.338 C 
ATOM     24  O   UNL A   1      33.255  32.577  27.695  1.00  0.00    -0.246 OA
BRANCH  23  25
ATOM     25  C   UNL A   1      35.088  31.237  27.751  1.00  0.00     0.060 A 
ATOM     26  C   UNL A   1      35.191  29.979  28.359  1.00  0.00     0.016 A 
ATOM     27  C   UNL A   1      36.042  32.231  27.958  1.00  0.00     0.016 A 
ATOM     28  C   UNL A   1      36.275  29.705  29.176  1.00  0.00     0.010 A 
ATOM     29  C   UNL A   1      37.134  31.950  28.770  1.00  0.00     0.010 A 
ATOM     30  C   UNL A   1      37.257  30.686  29.371  1.00  0.00    -0.014 A 
BRANCH  30  31
ATOM     31  C   UNL A   1      38.518  30.344  30.050  1.00  0.00     0.031 A 
ATOM     32  C   UNL A   1      39.462  29.333  29.485  1.00  0.00     0.074 A 
ATOM     33  C   UNL A   1      38.714  30.910  31.253  1.00  0.00     0.049 A 
ATOM     34  N   UNL A   1      40.514  28.796  30.044  1.00  0.00    -0.248 NA
ATOM     35  C   UNL A   1      39.186  28.855  28.123  1.00  0.00     0.031 C 
ATOM     36  C   UNL A   1      37.824  31.905  31.864  1.00  0.00     0.029 A 
ATOM     37  N   UNL A   1      39.686  30.708  32.192  1.00  0.00    -0.354 N 
ATOM     38  C   UNL A   1      41.029  27.906  29.109  1.00  0.00     0.074 A 
ATOM     39  C   UNL A   1      40.158  27.968  27.950  1.00  0.00     0.031 C 
ATOM     40  C   UNL A   1      38.273  32.199  33.090  1.00  0.00     0.029 A 
ATOM     41  C   UNL A   1      39.445  31.380  33.365  1.00  0.00     0.049 A 
ATOM     42  H   UNL A   1      40.475  30.139  32.043  1.00  0.00     0.167 HD
ATOM     43  C   UNL A   1      42.123  27.114  29.226  1.00  0.00     0.034 A 
ATOM     44  C   UNL A   1      40.074  31.307  34.549  1.00  0.00     0.034 A 
ATOM     45  C   UNL A   1      42.947  27.071  30.413  1.00  0.00     0.049 A 
ATOM     46  C   UNL A   1      41.258  30.396  34.667  1.00  0.00     0.074 A 
ATOM     47  C   UNL A   1      44.095  26.332  30.646  1.00  0.00     0.029 A 
ATOM     48  N   UNL A   1      42.699  27.790  31.577  1.00  0.00    -0.354 N 
ATOM     49  N   UNL A   1      41.747  29.569  33.773  1.00  0.00    -0.248 NA
ATOM     50  C   UNL A   1      41.981  30.418  35.941  1.00  0.00     0.031 C 
ATOM     51  C   UNL A   1      44.509  26.567  31.963  1.00  0.00     0.029 A 
ATOM     52  C   UNL A   1      43.655  27.496  32.537  1.00  0.00     0.049 A 
ATOM     53  H   UNL A   1      41.951  28.418  31.703  1.00  0.00     0.167 HD
ATOM     54  C   UNL A   1      42.858  28.988  34.367  1.00  0.00     0.074 A 
ATOM     55  C   UNL A   1      42.961  29.559  35.697  1.00  0.00     0.031 C 
ATOM     56  C   UNL A   1      43.722  28.074  33.857  1.00  0.00     0.034 A 
BRANCH  43  57
ATOM     57  C   UNL A   1      42.455  26.203  28.071  1.00  0.00     0.023 A 
ATOM     58  C   UNL A   1      41.877  24.928  27.940  1.00  0.00     0.031 A 
ATOM     59  C   UNL A   1      43.371  26.614  27.084  1.00  0.00     0.131 A 
ATOM     60  C   UNL A   1      42.258  24.090  26.878  1.00  0.00     0.055 A 
ATOM     61  C   UNL A   1      43.699  25.801  25.998  1.00  0.00     0.041 A 
ATOM     62  F   UNL A   1      43.969  27.812  27.166  1.00  0.00    -0.206 F 
ATOM     63  C   UNL A   1      43.150  24.527  25.895  1.00  0.00     0.022 A 
BRANCH  60  64
ATOM     64  S   UNL A   1      41.652  22.380  26.856  1.00  0.00     0.124 S 
ATOM     65  O   UNL A   1      42.168  21.899  25.577  1.00  0.00    -0.237 OA
ATOM     66  O   UNL A   1      42.268  21.811  28.049  1.00  0.00    -0.237 OA
ATOM     67  O   UNL A   1      40.200  22.530  26.916  1.00  0.00    -0.744 OA
ENDBRANCH  60  64
ENDBRANCH  43  57
BRANCH  44  68
ATOM     68  C   UNL A   1      39.563  32.098  35.696  1.00  0.00     0.023 A 
ATOM     69  C   UNL A   1      39.973  33.422  35.893  1.00  0.00     0.031 A 
ATOM     70  C   UNL A   1      38.610  31.553  36.576  1.00  0.00     0.131 A 
ATOM     71  C   UNL A   1      39.442  34.159  36.962  1.00  0.00     0.055 A 
ATOM     72  C   UNL A   1      38.060  32.302  37.616  1.00  0.00     0.041 A 
ATOM     73  F   UNL A   1      38.170  30.295  36.407  1.00  0.00    -0.206 F 
ATOM     74  C   UNL A   1      38.481  33.612  37.817  1.00  0.00     0.022 A 
BRANCH  71  75
ATOM     75  S   UNL A   1      40.053  35.843  37.237  1.00  0.00     0.124 S 
ATOM     76  O   UNL A   1      39.322  36.235  38.438  1.00  0.00    -0.237 OA
ATOM     77  O   UNL A   1      41.485  35.622  37.402  1.00  0.00    -0.237 OA
ATOM     78  O   UNL A   1      39.669  36.547  36.016  1.00  0.00    -0.744 OA
ENDBRANCH  71  75
ENDBRANCH  44  68
BRANCH  56  79
ATOM     79  C   UNL A   1      44.874  27.690  34.742  1.00  0.00     0.023 A 
ATOM     80  C   UNL A   1      44.791  26.604  35.626  1.00  0.00     0.031 A 
ATOM     81  C   UNL A   1      46.059  28.445  34.714  1.00  0.00     0.131 A 
ATOM     82  C   UNL A   1      45.863  26.327  36.487  1.00  0.00     0.055 A 
ATOM     83  C   UNL A   1      47.139  28.139  35.540  1.00  0.00     0.041 A 
ATOM     84  F   UNL A   1      46.179  29.496  33.886  1.00  0.00    -0.206 F 
ATOM     85  C   UNL A   1      47.040  27.081  36.441  1.00  0.00     0.022 A 
BRANCH  82  86
ATOM     86  S   UNL A   1      45.679  25.003  37.711  1.00  0.00     0.124 S 
ATOM     87  O   UNL A   1      46.960  25.056  38.407  1.00  0.00    -0.237 OA
ATOM     88  O   UNL A   1      44.518  25.442  38.478  1.00  0.00    -0.237 OA
ATOM     89  O   UNL A   1      45.464  23.810  36.894  1.00  0.00    -0.744 OA
ENDBRANCH  82  86
ENDBRANCH  56  79
ENDBRANCH  30  31
ENDBRANCH  23  25
ENDBRANCH  22  23
ENDBRANCH  21  22
ENDBRANCH   1  21
TORSDOF 18
ENDMDL
MODEL 2
REMARK VINA RESULT:     -10.9      5.126      9.959
REMARK SMILES CC(C)(CC(=O)OCCOC(=O)c1ccc(-c2c3nc(c(-c4cc(S(=O)(=O)[O-])ccc4F)c4ccc([nH]4)c(-c4cc(S(=O)(=O)[O-])ccc4F)c4nc(c(-c5cc(S(=O)(=O)[O-])ccc5F)c5ccc2[nH]5)C=C4)C=C3)cc1)Cc1nc([C@@]2(C)CCCO2)no1
REMARK SMILES IDX 8 1 7 2 5 3 6 4 4 5 2 6 1 7 3 8 76 9 77 10 78 11 87 12 79 13
REMARK SMILES IDX 86 14 80 15 81 16 82 17 85 18 83 19 84 20 9 21 10 22 11 23
REMARK SMILES IDX 12 24 13 25 14 26 75 27 15 28 74 29 16 30 17 31 18 32 68 33
REMARK SMILES IDX 19 34 73 35 67 36 69 37 20 38 72 39 66 40 65 41 21 43 53 44
REMARK SMILES IDX 33 45 52 46 34 47 37 48 51 49 70 50 35 51 36 52 50 54 71 55
REMARK SMILES IDX 38 56 22 57 23 58 31 59 24 60 30 61 32 62 29 63 25 64 26 65
REMARK SMILES IDX 27 66 28 67 54 68 55 69 63 70 56 71 62 72 64 73 61 74 57 75
REMARK SMILES IDX 58 76 59 77 60 78 39 79 40 80 48 81 41 82 47 83 49 84 46 85
REMARK SMILES IDX 42 86 43 87 44 88 45 89
REMARK H PARENT 69 42 37 53
REMARK Flexibility Score: inf
ROOT
ATOM      1  C   UNL A   1      35.122  21.205  25.127  1.00  0.00     0.274 C 
ENDROOT
BRANCH   1   2
ATOM      2  O   UNL A   1      34.798  22.193  24.122  1.00  0.00    -0.462 OA
BRANCH   2   3
ATOM      3  C   UNL A   1      33.509  22.202  23.712  1.00  0.00     0.306 C 
ATOM      4  O   UNL A   1      32.690  21.335  24.012  1.00  0.00    -0.252 OA
BRANCH   3   5
ATOM      5  C   UNL A   1      33.084  23.419  22.907  1.00  0.00     0.129 C 
BRANCH   5   6
ATOM      6  C   UNL A   1      32.121  24.546  23.390  1.00  0.00    -0.016 C 
ATOM      7  C   UNL A   1      30.674  24.049  23.475  1.00  0.00     0.012 C 
ATOM      8  C   UNL A   1      32.584  24.812  24.864  1.00  0.00     0.012 C 
BRANCH   6   9
ATOM      9  C   UNL A   1      32.270  25.942  22.691  1.00  0.00     0.107 C 
BRANCH   9  10
ATOM     10  C   UNL A   1      31.385  27.093  23.048  1.00  0.00     0.227 A 
ATOM     11  N   UNL A   1      30.443  27.653  22.317  1.00  0.00    -0.193 NA
ATOM     12  O   UNL A   1      31.633  27.784  24.197  1.00  0.00    -0.339 OA
ATOM     13  C   UNL A   1      30.007  28.687  23.110  1.00  0.00     0.203 A 
ATOM     14  N   UNL A   1      30.700  28.826  24.253  1.00  0.00    -0.059 NA
BRANCH  13  15
ATOM     15  C   UNL A   1      28.786  29.517  22.770  1.00  0.00     0.128 C 
ATOM     16  C   UNL A   1      27.484  28.778  23.127  1.00  0.00     0.051 C 
ATOM     17  C   UNL A   1      28.816  30.885  23.472  1.00  0.00     0.046 C 
ATOM     18  O   UNL A   1      28.699  29.824  21.352  1.00  0.00    -0.367 OA
ATOM     19  C   UNL A   1      28.028  31.772  22.543  1.00  0.00     0.032 C 
ATOM     20  C   UNL A   1      28.385  31.212  21.185  1.00  0.00     0.161 C 
ENDBRANCH  13  15
ENDBRANCH   9  10
ENDBRANCH   6   9
ENDBRANCH   5   6
ENDBRANCH   3   5
ENDBRANCH   2   3
ENDBRANCH   1   2
BRANCH   1  21
ATOM     21  C   UNL A   1      36.583  20.743  25.000  1.00  0.00     0.275 C 
BRANCH  21  22
ATOM     22  O   UNL A   1      37.574  21.798  25.021  1.00  0.00    -0.458 OA
BRANCH  22  23
ATOM     23  C   UNL A   1      38.620  21.548  25.829  1.00  0.00     0.338 C 
ATOM     24  O   UNL A   1      39.096  20.457  26.087  1.00  0.00    -0.246 OA
BRANCH  23  25
ATOM     25  C   UNL A   1      39.254  22.694  26.448  1.00  0.00     0.060 A 
ATOM     26  C   UNL A   1      38.874  23.954  25.967  1.00  0.00     0.016 A 
ATOM     27  C   UNL A   1      40.412  22.516  27.201  1.00  0.00     0.016 A 
ATOM     28  C   UNL A   1      39.659  25.058  26.256  1.00  0.00     0.010 A 
ATOM     29  C   UNL A   1      41.191  23.627  27.500  1.00  0.00     0.010 A 
ATOM     30  C   UNL A   1      40.812  24.898  27.037  1.00  0.00    -0.014 A 
BRANCH  30  31
ATOM     31  C   UNL A   1      41.533  26.080  27.540  1.00  0.00     0.031 A 
ATOM     32  C   UNL A   1      40.842  27.138  28.336  1.00  0.00     0.074 A 
ATOM     33  C   UNL A   1      42.814  26.201  27.149  1.00  0.00     0.049 A 
ATOM     34  N   UNL A   1      41.289  28.313  28.694  1.00  0.00    -0.248 NA
ATOM     35  C   UNL A   1      39.472  26.848  28.778  1.00  0.00     0.031 C 
ATOM     36  C   UNL A   1      43.547  25.199  26.365  1.00  0.00     0.029 A 
ATOM     37  N   UNL A   1      43.709  27.219  27.314  1.00  0.00    -0.354 N 
ATOM     38  C   UNL A   1      40.255  28.914  29.400  1.00  0.00     0.074 A 
ATOM     39  C   UNL A   1      39.150  27.974  29.403  1.00  0.00     0.031 C 
ATOM     40  C   UNL A   1      44.768  25.671  26.087  1.00  0.00     0.029 A 
ATOM     41  C   UNL A   1      44.881  27.018  26.629  1.00  0.00     0.049 A 
ATOM     42  H   UNL A   1      43.531  28.015  27.866  1.00  0.00     0.167 HD
ATOM     43  C   UNL A   1      40.242  30.141  29.978  1.00  0.00     0.034 A 
ATOM     44  C   UNL A   1      45.916  27.849  26.420  1.00  0.00     0.034 A 
ATOM     45  C   UNL A   1      41.363  31.053  29.928  1.00  0.00     0.049 A 
ATOM     46  C   UNL A   1      45.865  29.213  27.037  1.00  0.00     0.074 A 
ATOM     47  C   UNL A   1      41.484  32.310  30.495  1.00  0.00     0.029 A 
ATOM     48  N   UNL A   1      42.554  30.808  29.253  1.00  0.00    -0.354 N 
ATOM     49  N   UNL A   1      44.887  29.768  27.716  1.00  0.00    -0.248 NA
ATOM     50  C   UNL A   1      47.052  30.054  26.875  1.00  0.00     0.031 C 
ATOM     51  C   UNL A   1      42.725  32.842  30.122  1.00  0.00     0.029 A 
ATOM     52  C   UNL A   1      43.404  31.896  29.370  1.00  0.00     0.049 A 
ATOM     53  H   UNL A   1      42.763  29.980  28.762  1.00  0.00     0.167 HD
ATOM     54  C   UNL A   1      45.354  31.021  28.088  1.00  0.00     0.074 A 
ATOM     55  C   UNL A   1      46.699  31.136  27.554  1.00  0.00     0.031 C 
ATOM     56  C   UNL A   1      44.734  31.983  28.815  1.00  0.00     0.034 A 
BRANCH  43  57
ATOM     57  C   UNL A   1      38.971  30.579  30.663  1.00  0.00     0.023 A 
ATOM     58  C   UNL A   1      37.995  31.342  29.998  1.00  0.00     0.031 A 
ATOM     59  C   UNL A   1      38.734  30.234  32.006  1.00  0.00     0.131 A 
ATOM     60  C   UNL A   1      36.853  31.777  30.691  1.00  0.00     0.055 A 
ATOM     61  C   UNL A   1      37.568  30.617  32.671  1.00  0.00     0.041 A 
ATOM     62  F   UNL A   1      39.639  29.525  32.698  1.00  0.00    -0.206 F 
ATOM     63  C   UNL A   1      36.624  31.402  32.018  1.00  0.00     0.022 A 
BRANCH  60  64
ATOM     64  S   UNL A   1      35.718  32.928  29.867  1.00  0.00     0.124 S 
ATOM     65  O   UNL A   1      34.628  32.039  29.471  1.00  0.00    -0.237 OA
ATOM     66  O   UNL A   1      35.411  33.882  30.926  1.00  0.00    -0.237 OA
ATOM     67  O   UNL A   1      36.511  33.459  28.761  1.00  0.00    -0.744 OA
ENDBRANCH  60  64
ENDBRANCH  43  57
BRANCH  44  68
ATOM     68  C   UNL A   1      47.048  27.403  25.570  1.00  0.00     0.023 A 
ATOM     69  C   UNL A   1      47.130  27.786  24.226  1.00  0.00     0.031 A 
ATOM     70  C   UNL A   1      48.094  26.634  26.113  1.00  0.00     0.131 A 
ATOM     71  C   UNL A   1      48.232  27.384  23.457  1.00  0.00     0.055 A 
ATOM     72  C   UNL A   1      49.204  26.266  25.353  1.00  0.00     0.041 A 
ATOM     73  F   UNL A   1      48.068  26.267  27.404  1.00  0.00    -0.206 F 
ATOM     74  C   UNL A   1      49.274  26.636  24.014  1.00  0.00     0.022 A 
BRANCH  71  75
ATOM     75  S   UNL A   1      48.268  27.829  21.701  1.00  0.00     0.124 S 
ATOM     76  O   UNL A   1      49.450  28.683  21.633  1.00  0.00    -0.237 OA
ATOM     77  O   UNL A   1      48.384  26.524  21.061  1.00  0.00    -0.237 OA
ATOM     78  O   UNL A   1      46.993  28.511  21.497  1.00  0.00    -0.744 OA
ENDBRANCH  71  75
ENDBRANCH  44  68
BRANCH  56  79
ATOM     79  C   UNL A   1      45.543  33.216  29.105  1.00  0.00     0.023 A 
ATOM     80  C   UNL A   1      45.614  34.279  28.191  1.00  0.00     0.031 A 
ATOM     81  C   UNL A   1      46.274  33.307  30.301  1.00  0.00     0.131 A 
ATOM     82  C   UNL A   1      46.441  35.377  28.469  1.00  0.00     0.055 A 
ATOM     83  C   UNL A   1      47.060  34.421  30.592  1.00  0.00     0.041 A 
ATOM     84  F   UNL A   1      46.239  32.310  31.200  1.00  0.00    -0.206 F 
ATOM     85  C   UNL A   1      47.155  35.459  29.669  1.00  0.00     0.022 A 
BRANCH  82  86
ATOM     86  S   UNL A   1      46.618  36.674  27.215  1.00  0.00     0.124 S 
ATOM     87  O   UNL A   1      48.068  36.805  27.120  1.00  0.00    -0.237 OA
ATOM     88  O   UNL A   1      45.955  36.086  26.056  1.00  0.00    -0.237 OA
ATOM     89  O   UNL A   1      45.928  37.818  27.807  1.00  0.00    -0.744 OA
ENDBRANCH  82  86
ENDBRANCH  56  79
ENDBRANCH  30  31
ENDBRANCH  23  25
ENDBRANCH  22  23
ENDBRANCH  21  22
ENDBRANCH   1  21
TORSDOF 18
ENDMDL
MODEL 3
REMARK VINA RESULT:     -10.8      5.334     10.132
REMARK SMILES CC(C)(CC(=O)OCCOC(=O)c1ccc(-c2c3nc(c(-c4cc(S(=O)(=O)[O-])ccc4F)c4ccc([nH]4)c(-c4cc(S(=O)(=O)[O-])ccc4F)c4nc(c(-c5cc(S(=O)(=O)[O-])ccc5F)c5ccc2[nH]5)C=C4)C=C3)cc1)Cc1nc([C@@]2(C)CCCO2)no1
REMARK SMILES IDX 8 1 7 2 5 3 6 4 4 5 2 6 1 7 3 8 76 9 77 10 78 11 87 12 79 13
REMARK SMILES IDX 86 14 80 15 81 16 82 17 85 18 83 19 84 20 9 21 10 22 11 23
REMARK SMILES IDX 12 24 13 25 14 26 75 27 15 28 74 29 16 30 17 31 18 32 68 33
REMARK SMILES IDX 19 34 73 35 67 36 69 37 20 38 72 39 66 40 65 41 21 43 53 44
REMARK SMILES IDX 33 45 52 46 34 47 37 48 51 49 70 50 35 51 36 52 50 54 71 55
REMARK SMILES IDX 38 56 22 57 23 58 31 59 24 60 30 61 32 62 29 63 25 64 26 65
REMARK SMILES IDX 27 66 28 67 54 68 55 69 63 70 56 71 62 72 64 73 61 74 57 75
REMARK SMILES IDX 58 76 59 77 60 78 39 79 40 80 48 81 41 82 47 83 49 84 46 85
REMARK SMILES IDX 42 86 43 87 44 88 45 89
REMARK H PARENT 69 42 37 53
REMARK Flexibility Score: inf
ROOT
ATOM      1  C   UNL A   1      35.305  20.858  25.171  1.00  0.00     0.274 C 
ENDROOT
BRANCH   1   2
ATOM      2  O   UNL A   1      34.397  19.784  24.839  1.00  0.00    -0.462 OA
BRANCH   2   3
ATOM      3  C   UNL A   1      33.130  20.163  24.553  1.00  0.00     0.306 C 
ATOM      4  O   UNL A   1      32.135  19.691  25.101  1.00  0.00    -0.252 OA
BRANCH   3   5
ATOM      5  C   UNL A   1      32.995  21.296  23.550  1.00  0.00     0.129 C 
BRANCH   5   6
ATOM      6  C   UNL A   1      32.670  22.783  23.888  1.00  0.00    -0.016 C 
ATOM      7  C   UNL A   1      33.544  23.746  23.077  1.00  0.00     0.012 C 
ATOM      8  C   UNL A   1      31.205  22.965  23.360  1.00  0.00     0.012 C 
BRANCH   6   9
ATOM      9  C   UNL A   1      32.571  23.149  25.409  1.00  0.00     0.107 C 
BRANCH   9  10
ATOM     10  C   UNL A   1      32.118  24.501  25.859  1.00  0.00     0.227 A 
ATOM     11  N   UNL A   1      32.827  25.608  25.957  1.00  0.00    -0.193 NA
ATOM     12  O   UNL A   1      30.867  24.636  26.385  1.00  0.00    -0.339 OA
ATOM     13  C   UNL A   1      31.928  26.510  26.472  1.00  0.00     0.203 A 
ATOM     14  N   UNL A   1      30.729  25.977  26.767  1.00  0.00    -0.059 NA
BRANCH  13  15
ATOM     15  C   UNL A   1      32.232  27.989  26.590  1.00  0.00     0.128 C 
ATOM     16  C   UNL A   1      31.348  28.663  27.655  1.00  0.00     0.051 C 
ATOM     17  C   UNL A   1      33.715  28.240  26.912  1.00  0.00     0.046 C 
ATOM     18  O   UNL A   1      31.990  28.708  25.351  1.00  0.00    -0.367 OA
ATOM     19  C   UNL A   1      33.979  29.596  26.310  1.00  0.00     0.032 C 
ATOM     20  C   UNL A   1      33.096  29.579  25.083  1.00  0.00     0.161 C 
ENDBRANCH  13  15
ENDBRANCH   9  10
ENDBRANCH   6   9
ENDBRANCH   5   6
ENDBRANCH   3   5
ENDBRANCH   2   3
ENDBRANCH   1   2
BRANCH   1  21
ATOM     21  C   UNL A   1      36.769  20.419  25.004  1.00  0.00     0.275 C 
BRANCH  21  22
ATOM     22  O   UNL A   1      37.746  21.488  25.026  1.00  0.00    -0.458 OA
BRANCH  22  23
ATOM     23  C   UNL A   1      38.786  21.259  25.847  1.00  0.00     0.338 C 
ATOM     24  O   UNL A   1      39.289  20.179  26.102  1.00  0.00    -0.246 OA
BRANCH  23  25
ATOM     25  C   UNL A   1      39.379  22.415  26.487  1.00  0.00     0.060 A 
ATOM     26  C   UNL A   1      39.006  23.668  25.982  1.00  0.00     0.016 A 
ATOM     27  C   UNL A   1      40.504  22.255  27.293  1.00  0.00     0.016 A 
ATOM     28  C   UNL A   1      39.764  24.783  26.300  1.00  0.00     0.010 A 
ATOM     29  C   UNL A   1      41.256  23.377  27.619  1.00  0.00     0.010 A 
ATOM     30  C   UNL A   1      40.883  24.641  27.133  1.00  0.00    -0.014 A 
BRANCH  30  31
ATOM     31  C   UNL A   1      41.567  25.834  27.660  1.00  0.00     0.031 A 
ATOM     32  C   UNL A   1      40.843  26.855  28.475  1.00  0.00     0.074 A 
ATOM     33  C   UNL A   1      42.844  26.001  27.275  1.00  0.00     0.049 A 
ATOM     34  N   UNL A   1      41.254  28.035  28.857  1.00  0.00    -0.248 NA
ATOM     35  C   UNL A   1      39.481  26.515  28.908  1.00  0.00     0.031 C 
ATOM     36  C   UNL A   1      43.609  25.038  26.473  1.00  0.00     0.029 A 
ATOM     37  N   UNL A   1      43.708  27.043  27.462  1.00  0.00    -0.354 N 
ATOM     38  C   UNL A   1      40.200  28.592  29.571  1.00  0.00     0.074 A 
ATOM     39  C   UNL A   1      39.124  27.618  29.554  1.00  0.00     0.031 C 
ATOM     40  C   UNL A   1      44.816  25.551  26.208  1.00  0.00     0.029 A 
ATOM     41  C   UNL A   1      44.887  26.890  26.776  1.00  0.00     0.049 A 
ATOM     42  H   UNL A   1      43.505  27.821  28.029  1.00  0.00     0.167 HD
ATOM     43  C   UNL A   1      40.149  29.806  30.174  1.00  0.00     0.034 A 
ATOM     44  C   UNL A   1      45.897  27.755  26.586  1.00  0.00     0.034 A 
ATOM     45  C   UNL A   1      41.242  30.752  30.143  1.00  0.00     0.049 A 
ATOM     46  C   UNL A   1      45.803  29.105  27.229  1.00  0.00     0.074 A 
ATOM     47  C   UNL A   1      41.325  32.001  30.735  1.00  0.00     0.029 A 
ATOM     48  N   UNL A   1      42.441  30.556  29.467  1.00  0.00    -0.354 N 
ATOM     49  N   UNL A   1      44.808  29.617  27.916  1.00  0.00    -0.248 NA
ATOM     50  C   UNL A   1      46.965  29.985  27.086  1.00  0.00     0.031 C 
ATOM     51  C   UNL A   1      42.550  32.577  30.376  1.00  0.00     0.029 A 
ATOM     52  C   UNL A   1      43.258  31.667  29.608  1.00  0.00     0.049 A 
ATOM     53  H   UNL A   1      42.677  29.745  28.961  1.00  0.00     0.167 HD
ATOM     54  C   UNL A   1      45.236  30.876  28.313  1.00  0.00     0.074 A 
ATOM     55  C   UNL A   1      46.578  31.042  27.785  1.00  0.00     0.031 C 
ATOM     56  C   UNL A   1      44.586  31.805  29.058  1.00  0.00     0.034 A 
BRANCH  43  57
ATOM     57  C   UNL A   1      38.865  30.192  30.864  1.00  0.00     0.023 A 
ATOM     58  C   UNL A   1      37.849  30.902  30.198  1.00  0.00     0.031 A 
ATOM     59  C   UNL A   1      38.654  29.851  32.212  1.00  0.00     0.131 A 
ATOM     60  C   UNL A   1      36.693  31.291  30.896  1.00  0.00     0.055 A 
ATOM     61  C   UNL A   1      37.476  30.187  32.882  1.00  0.00     0.041 A 
ATOM     62  F   UNL A   1      39.596  29.191  32.904  1.00  0.00    -0.206 F 
ATOM     63  C   UNL A   1      36.491  30.920  32.228  1.00  0.00     0.022 A 
BRANCH  60  64
ATOM     64  S   UNL A   1      35.500  32.380  30.068  1.00  0.00     0.124 S 
ATOM     65  O   UNL A   1      35.195  31.620  28.858  1.00  0.00    -0.237 OA
ATOM     66  O   UNL A   1      34.426  32.476  31.049  1.00  0.00    -0.237 OA
ATOM     67  O   UNL A   1      36.256  33.611  29.848  1.00  0.00    -0.744 OA
ENDBRANCH  60  64
ENDBRANCH  43  57
BRANCH  44  68
ATOM     68  C   UNL A   1      47.043  27.361  25.731  1.00  0.00     0.023 A 
ATOM     69  C   UNL A   1      47.099  27.742  24.384  1.00  0.00     0.031 A 
ATOM     70  C   UNL A   1      48.128  26.644  26.269  1.00  0.00     0.131 A 
ATOM     71  C   UNL A   1      48.214  27.390  23.610  1.00  0.00     0.055 A 
ATOM     72  C   UNL A   1      49.250  26.327  25.504  1.00  0.00     0.041 A 
ATOM     73  F   UNL A   1      48.128  26.282  27.562  1.00  0.00    -0.206 F 
ATOM     74  C   UNL A   1      49.293  26.695  24.163  1.00  0.00     0.022 A 
BRANCH  71  75
ATOM     75  S   UNL A   1      48.218  27.829  21.852  1.00  0.00     0.124 S 
ATOM     76  O   UNL A   1      49.339  28.760  21.778  1.00  0.00    -0.237 OA
ATOM     77  O   UNL A   1      48.420  26.532  21.217  1.00  0.00    -0.237 OA
ATOM     78  O   UNL A   1      46.900  28.423  21.647  1.00  0.00    -0.744 OA
ENDBRANCH  71  75
ENDBRANCH  44  68
BRANCH  56  79
ATOM     79  C   UNL A   1      45.357  33.056  29.373  1.00  0.00     0.023 A 
ATOM     80  C   UNL A   1      45.250  34.206  28.576  1.00  0.00     0.031 A 
ATOM     81  C   UNL A   1      46.232  33.079  30.473  1.00  0.00     0.131 A 
ATOM     82  C   UNL A   1      46.044  35.325  28.863  1.00  0.00     0.055 A 
ATOM     83  C   UNL A   1      46.987  34.209  30.780  1.00  0.00     0.041 A 
ATOM     84  F   UNL A   1      46.369  31.999  31.258  1.00  0.00    -0.206 F 
ATOM     85  C   UNL A   1      46.903  35.337  29.967  1.00  0.00     0.022 A 
BRANCH  82  86
ATOM     86  S   UNL A   1      45.984  36.747  27.741  1.00  0.00     0.124 S 
ATOM     87  O   UNL A   1      44.885  36.384  26.853  1.00  0.00    -0.237 OA
ATOM     88  O   UNL A   1      45.727  37.857  28.652  1.00  0.00    -0.237 OA
ATOM     89  O   UNL A   1      47.308  36.750  27.122  1.00  0.00    -0.744 OA
ENDBRANCH  82  86
ENDBRANCH  56  79
ENDBRANCH  30  31
ENDBRANCH  23  25
ENDBRANCH  22  23
ENDBRANCH  21  22
ENDBRANCH   1  21
TORSDOF 18
ENDMDL
