MODEL 1
REMARK VINA RESULT:     -10.5      0.000      0.000
REMARK SMILES C[C@@H](c1ccccc1)[C@@H]1[NH2+][C@@H](C(=O)OCCOC(=O)c2ccc(-c3c4nc(c(-c5cc(S(=O)(=O)[O-])ccc5F)c5ccc([nH]5)c(-c5cc(S(=O)(=O)[O-])ccc5F)c5nc(c(-c6cc(S(=O)(=O)[O-])ccc6F)c6ccc3[nH]6)C=C5)C=C4)cc2)CS1
REMARK SMILES IDX 16 1 15 2 14 3 12 4 13 5 11 6 9 7 10 8 84 9 83 12 2 13 1 14
REMARK SMILES IDX 3 15 4 16 8 17 5 18 7 19 6 20 17 21 18 22 19 23 20 24 21 25
REMARK SMILES IDX 82 26 22 27 81 28 23 29 24 30 25 31 75 32 26 33 80 34 74 35
REMARK SMILES IDX 76 36 27 37 79 38 73 39 72 40 28 42 60 43 40 44 59 45 41 46
REMARK SMILES IDX 44 47 58 48 77 49 42 50 43 51 57 53 78 54 45 55 29 56 30 57
REMARK SMILES IDX 38 58 31 59 37 60 39 61 36 62 32 63 33 64 34 65 35 66 61 67
REMARK SMILES IDX 62 68 70 69 63 70 69 71 71 72 68 73 64 74 65 75 66 76 67 77
REMARK SMILES IDX 46 78 47 79 55 80 48 81 54 82 56 83 53 84 49 85 50 86 51 87
REMARK SMILES IDX 52 88
REMARK H PARENT 10 10 10 11 76 41 44 52
REMARK Flexibility Score: inf
ROOT
ATOM      1  C   UNL A   1      40.482  19.583  26.212  1.00  0.00     0.275 C 
ENDROOT
BRANCH   1   2
ATOM      2  C   UNL A   1      41.938  19.161  25.984  1.00  0.00     0.274 C 
BRANCH   2   3
ATOM      3  O   UNL A   1      42.738  20.301  25.620  1.00  0.00    -0.458 OA
BRANCH   3   4
ATOM      4  C   UNL A   1      43.893  20.036  24.949  1.00  0.00     0.365 C 
ATOM      5  O   UNL A   1      44.013  19.198  24.061  1.00  0.00    -0.245 OA
BRANCH   4   6
ATOM      6  C   UNL A   1      45.017  20.987  25.387  1.00  0.00     0.304 C 
ATOM      7  C   UNL A   1      44.810  23.170  26.449  1.00  0.00     0.249 C 
ATOM      8  N   UNL A   1      44.588  21.728  26.612  1.00  0.00    -0.322 N 
ATOM      9  S   UNL A   1      44.732  23.499  24.664  1.00  0.00    -0.092 SA
ATOM     10  H   UNL A   1      43.597  21.558  26.776  1.00  0.00     0.348 HD
ATOM     11  H   UNL A   1      45.141  21.399  27.404  1.00  0.00     0.348 HD
ATOM     12  C   UNL A   1      45.455  21.906  24.257  1.00  0.00     0.153 C 
BRANCH   7  13
ATOM     13  C   UNL A   1      46.126  23.595  27.183  1.00  0.00     0.085 C 
ATOM     14  C   UNL A   1      47.054  24.507  26.366  1.00  0.00     0.020 C 
BRANCH  13  15
ATOM     15  C   UNL A   1      45.824  24.277  28.520  1.00  0.00    -0.038 A 
ATOM     16  C   UNL A   1      46.679  25.273  29.015  1.00  0.00     0.004 A 
ATOM     17  C   UNL A   1      44.680  23.945  29.268  1.00  0.00     0.004 A 
ATOM     18  C   UNL A   1      46.403  25.911  30.227  1.00  0.00     0.000 A 
ATOM     19  C   UNL A   1      44.410  24.579  30.483  1.00  0.00     0.000 A 
ATOM     20  C   UNL A   1      45.271  25.562  30.961  1.00  0.00     0.000 A 
ENDBRANCH  13  15
ENDBRANCH   7  13
ENDBRANCH   4   6
ENDBRANCH   3   4
ENDBRANCH   2   3
ENDBRANCH   1   2
BRANCH   1  21
ATOM     21  O   UNL A   1      40.391  20.810  26.962  1.00  0.00    -0.458 OA
BRANCH  21  22
ATOM     22  C   UNL A   1      39.522  21.726  26.465  1.00  0.00     0.338 C 
ATOM     23  O   UNL A   1      38.528  21.497  25.797  1.00  0.00    -0.246 OA
BRANCH  22  24
ATOM     24  C   UNL A   1      39.878  23.073  26.949  1.00  0.00     0.060 A 
ATOM     25  C   UNL A   1      39.342  24.179  26.282  1.00  0.00     0.016 A 
ATOM     26  C   UNL A   1      40.778  23.254  28.002  1.00  0.00     0.016 A 
ATOM     27  C   UNL A   1      39.705  25.469  26.658  1.00  0.00     0.010 A 
ATOM     28  C   UNL A   1      41.147  24.551  28.376  1.00  0.00     0.010 A 
ATOM     29  C   UNL A   1      40.622  25.665  27.697  1.00  0.00    -0.014 A 
BRANCH  29  30
ATOM     30  C   UNL A   1      41.078  27.038  28.019  1.00  0.00     0.031 A 
ATOM     31  C   UNL A   1      42.492  27.439  27.710  1.00  0.00     0.074 A 
ATOM     32  C   UNL A   1      40.220  27.925  28.551  1.00  0.00     0.049 A 
ATOM     33  N   UNL A   1      43.103  28.573  27.936  1.00  0.00    -0.248 NA
ATOM     34  C   UNL A   1      43.329  26.421  27.057  1.00  0.00     0.031 C 
ATOM     35  C   UNL A   1      38.810  27.663  28.838  1.00  0.00     0.029 A 
ATOM     36  N   UNL A   1      40.406  29.227  28.938  1.00  0.00    -0.354 N 
ATOM     37  C   UNL A   1      44.399  28.408  27.460  1.00  0.00     0.074 A 
ATOM     38  C   UNL A   1      44.492  27.048  26.969  1.00  0.00     0.031 C 
ATOM     39  C   UNL A   1      38.256  28.774  29.352  1.00  0.00     0.029 A 
ATOM     40  C   UNL A   1      39.280  29.809  29.471  1.00  0.00     0.049 A 
ATOM     41  H   UNL A   1      41.265  29.700  28.845  1.00  0.00     0.167 HD
ATOM     42  C   UNL A   1      45.413  29.310  27.431  1.00  0.00     0.034 A 
ATOM     43  C   UNL A   1      39.103  31.030  30.012  1.00  0.00     0.034 A 
ATOM     44  C   UNL A   1      45.302  30.657  27.940  1.00  0.00     0.049 A 
ATOM     45  C   UNL A   1      40.273  31.979  30.066  1.00  0.00     0.074 A 
ATOM     46  C   UNL A   1      46.258  31.658  27.953  1.00  0.00     0.029 A 
ATOM     47  N   UNL A   1      44.167  31.189  28.542  1.00  0.00    -0.354 N 
ATOM     48  N   UNL A   1      41.497  31.812  29.618  1.00  0.00    -0.248 NA
ATOM     49  C   UNL A   1      40.036  33.283  30.699  1.00  0.00     0.031 C 
ATOM     50  C   UNL A   1      45.727  32.767  28.624  1.00  0.00     0.029 A 
ATOM     51  C   UNL A   1      44.413  32.489  28.964  1.00  0.00     0.049 A 
ATOM     52  H   UNL A   1      43.313  30.712  28.654  1.00  0.00     0.167 HD
ATOM     53  C   UNL A   1      42.165  33.004  29.886  1.00  0.00     0.074 A 
ATOM     54  C   UNL A   1      41.206  33.881  30.528  1.00  0.00     0.031 C 
ATOM     55  C   UNL A   1      43.451  33.347  29.618  1.00  0.00     0.034 A 
BRANCH  42  56
ATOM     56  C   UNL A   1      46.739  28.835  26.887  1.00  0.00     0.023 A 
ATOM     57  C   UNL A   1      46.941  28.613  25.512  1.00  0.00     0.031 A 
ATOM     58  C   UNL A   1      47.800  28.543  27.761  1.00  0.00     0.131 A 
ATOM     59  C   UNL A   1      48.139  28.033  25.065  1.00  0.00     0.055 A 
ATOM     60  C   UNL A   1      49.021  28.045  27.301  1.00  0.00     0.041 A 
ATOM     61  F   UNL A   1      47.660  28.713  29.086  1.00  0.00    -0.206 F 
ATOM     62  C   UNL A   1      49.188  27.770  25.947  1.00  0.00     0.022 A 
BRANCH  59  63
ATOM     63  S   UNL A   1      48.239  27.471  23.343  1.00  0.00     0.124 S 
ATOM     64  O   UNL A   1      48.042  26.030  23.488  1.00  0.00    -0.237 OA
ATOM     65  O   UNL A   1      47.150  28.205  22.709  1.00  0.00    -0.237 OA
ATOM     66  O   UNL A   1      49.584  27.869  22.930  1.00  0.00    -0.744 OA
ENDBRANCH  59  63
ENDBRANCH  42  56
BRANCH  43  67
ATOM     67  C   UNL A   1      37.781  31.420  30.577  1.00  0.00     0.023 A 
ATOM     68  C   UNL A   1      36.846  32.129  29.806  1.00  0.00     0.031 A 
ATOM     69  C   UNL A   1      37.451  31.128  31.913  1.00  0.00     0.131 A 
ATOM     70  C   UNL A   1      35.642  32.555  30.387  1.00  0.00     0.055 A 
ATOM     71  C   UNL A   1      36.232  31.512  32.472  1.00  0.00     0.041 A 
ATOM     72  F   UNL A   1      38.312  30.455  32.693  1.00  0.00    -0.206 F 
ATOM     73  C   UNL A   1      35.323  32.240  31.710  1.00  0.00     0.022 A 
BRANCH  70  74
ATOM     74  S   UNL A   1      34.524  33.593  29.406  1.00  0.00     0.124 S 
ATOM     75  O   UNL A   1      33.644  34.137  30.435  1.00  0.00    -0.237 OA
ATOM     76  O   UNL A   1      35.448  34.538  28.789  1.00  0.00    -0.237 OA
ATOM     77  O   UNL A   1      33.898  32.645  28.487  1.00  0.00    -0.744 OA
ENDBRANCH  70  74
ENDBRANCH  43  67
BRANCH  55  78
ATOM     78  C   UNL A   1      43.872  34.750  29.981  1.00  0.00     0.023 A 
ATOM     79  C   UNL A   1      43.759  35.818  29.074  1.00  0.00     0.031 A 
ATOM     80  C   UNL A   1      44.418  35.016  31.249  1.00  0.00     0.131 A 
ATOM     81  C   UNL A   1      44.237  37.089  29.427  1.00  0.00     0.055 A 
ATOM     82  C   UNL A   1      44.839  36.295  31.616  1.00  0.00     0.041 A 
ATOM     83  F   UNL A   1      44.553  34.033  32.155  1.00  0.00    -0.206 F 
ATOM     84  C   UNL A   1      44.762  37.338  30.698  1.00  0.00     0.022 A 
BRANCH  81  85
ATOM     85  S   UNL A   1      44.248  38.398  28.170  1.00  0.00     0.124 S 
ATOM     86  O   UNL A   1      45.454  39.144  28.519  1.00  0.00    -0.237 OA
ATOM     87  O   UNL A   1      44.307  37.637  26.926  1.00  0.00    -0.237 OA
ATOM     88  O   UNL A   1      42.992  39.109  28.402  1.00  0.00    -0.744 OA
ENDBRANCH  81  85
ENDBRANCH  55  78
ENDBRANCH  29  30
ENDBRANCH  22  24
ENDBRANCH  21  22
ENDBRANCH   1  21
TORSDOF 16
ENDMDL
MODEL 2
REMARK VINA RESULT:     -10.3      4.620     12.243
REMARK SMILES C[C@@H](c1ccccc1)[C@@H]1[NH2+][C@@H](C(=O)OCCOC(=O)c2ccc(-c3c4nc(c(-c5cc(S(=O)(=O)[O-])ccc5F)c5ccc([nH]5)c(-c5cc(S(=O)(=O)[O-])ccc5F)c5nc(c(-c6cc(S(=O)(=O)[O-])ccc6F)c6ccc3[nH]6)C=C5)C=C4)cc2)CS1
REMARK SMILES IDX 16 1 15 2 14 3 12 4 13 5 11 6 9 7 10 8 84 9 83 12 2 13 1 14
REMARK SMILES IDX 3 15 4 16 8 17 5 18 7 19 6 20 17 21 18 22 19 23 20 24 21 25
REMARK SMILES IDX 82 26 22 27 81 28 23 29 24 30 25 31 75 32 26 33 80 34 74 35
REMARK SMILES IDX 76 36 27 37 79 38 73 39 72 40 28 42 60 43 40 44 59 45 41 46
REMARK SMILES IDX 44 47 58 48 77 49 42 50 43 51 57 53 78 54 45 55 29 56 30 57
REMARK SMILES IDX 38 58 31 59 37 60 39 61 36 62 32 63 33 64 34 65 35 66 61 67
REMARK SMILES IDX 62 68 70 69 63 70 69 71 71 72 68 73 64 74 65 75 66 76 67 77
REMARK SMILES IDX 46 78 47 79 55 80 48 81 54 82 56 83 53 84 49 85 50 86 51 87
REMARK SMILES IDX 52 88
REMARK H PARENT 10 10 10 11 76 41 44 52
REMARK Flexibility Score: inf
ROOT
ATOM      1  C   UNL A   1      33.857  34.191  28.037  1.00  0.00     0.275 C 
ENDROOT
BRANCH   1   2
ATOM      2  C   UNL A   1      33.275  35.322  28.892  1.00  0.00     0.274 C 
BRANCH   2   3
ATOM      3  O   UNL A   1      32.938  34.834  30.204  1.00  0.00    -0.458 OA
BRANCH   3   4
ATOM      4  C   UNL A   1      32.936  35.756  31.206  1.00  0.00     0.365 C 
ATOM      5  O   UNL A   1      32.167  36.708  31.283  1.00  0.00    -0.245 OA
BRANCH   4   6
ATOM      6  C   UNL A   1      33.971  35.401  32.285  1.00  0.00     0.304 C 
ATOM      7  C   UNL A   1      36.064  34.183  32.015  1.00  0.00     0.249 C 
ATOM      8  N   UNL A   1      35.338  35.414  31.682  1.00  0.00    -0.322 N 
ATOM      9  S   UNL A   1      34.802  32.906  32.290  1.00  0.00    -0.092 SA
ATOM     10  H   UNL A   1      35.256  35.490  30.668  1.00  0.00     0.348 HD
ATOM     11  H   UNL A   1      35.854  36.211  32.057  1.00  0.00     0.348 HD
ATOM     12  C   UNL A   1      33.639  34.089  32.979  1.00  0.00     0.153 C 
BRANCH   7  13
ATOM     13  C   UNL A   1      37.057  34.452  33.195  1.00  0.00     0.085 C 
ATOM     14  C   UNL A   1      36.962  33.452  34.359  1.00  0.00     0.020 C 
BRANCH  13  15
ATOM     15  C   UNL A   1      38.507  34.495  32.706  1.00  0.00    -0.038 A 
ATOM     16  C   UNL A   1      38.793  34.408  31.335  1.00  0.00     0.004 A 
ATOM     17  C   UNL A   1      39.578  34.646  33.604  1.00  0.00     0.004 A 
ATOM     18  C   UNL A   1      40.113  34.461  30.878  1.00  0.00     0.000 A 
ATOM     19  C   UNL A   1      40.896  34.692  33.146  1.00  0.00     0.000 A 
ATOM     20  C   UNL A   1      41.163  34.600  31.784  1.00  0.00     0.000 A 
ENDBRANCH  13  15
ENDBRANCH   7  13
ENDBRANCH   4   6
ENDBRANCH   3   4
ENDBRANCH   2   3
ENDBRANCH   1   2
BRANCH   1  21
ATOM     21  O   UNL A   1      34.201  33.039  28.832  1.00  0.00    -0.458 OA
BRANCH  21  22
ATOM     22  C   UNL A   1      34.333  31.880  28.140  1.00  0.00     0.338 C 
ATOM     23  O   UNL A   1      33.579  31.458  27.279  1.00  0.00    -0.246 OA
BRANCH  22  24
ATOM     24  C   UNL A   1      35.610  31.228  28.487  1.00  0.00     0.060 A 
ATOM     25  C   UNL A   1      35.568  29.953  29.057  1.00  0.00     0.016 A 
ATOM     26  C   UNL A   1      36.831  31.885  28.320  1.00  0.00     0.016 A 
ATOM     27  C   UNL A   1      36.743  29.327  29.466  1.00  0.00     0.010 A 
ATOM     28  C   UNL A   1      38.011  31.259  28.735  1.00  0.00     0.010 A 
ATOM     29  C   UNL A   1      37.971  29.982  29.323  1.00  0.00    -0.014 A 
BRANCH  29  30
ATOM     30  C   UNL A   1      39.201  29.351  29.856  1.00  0.00     0.031 A 
ATOM     31  C   UNL A   1      39.808  29.869  31.129  1.00  0.00     0.074 A 
ATOM     32  C   UNL A   1      39.747  28.299  29.221  1.00  0.00     0.049 A 
ATOM     33  N   UNL A   1      40.892  29.484  31.750  1.00  0.00    -0.248 NA
ATOM     34  C   UNL A   1      39.092  30.971  31.788  1.00  0.00     0.031 C 
ATOM     35  C   UNL A   1      39.212  27.676  28.012  1.00  0.00     0.029 A 
ATOM     36  N   UNL A   1      40.870  27.566  29.508  1.00  0.00    -0.354 N 
ATOM     37  C   UNL A   1      40.997  30.299  32.872  1.00  0.00     0.074 A 
ATOM     38  C   UNL A   1      39.883  31.224  32.820  1.00  0.00     0.031 C 
ATOM     39  C   UNL A   1      40.003  26.648  27.663  1.00  0.00     0.029 A 
ATOM     40  C   UNL A   1      41.124  26.569  28.597  1.00  0.00     0.049 A 
ATOM     41  H   UNL A   1      41.440  27.737  30.292  1.00  0.00     0.167 HD
ATOM     42  C   UNL A   1      41.932  30.271  33.855  1.00  0.00     0.034 A 
ATOM     43  C   UNL A   1      42.154  25.705  28.514  1.00  0.00     0.034 A 
ATOM     44  C   UNL A   1      43.043  29.349  33.879  1.00  0.00     0.049 A 
ATOM     45  C   UNL A   1      43.239  25.763  29.560  1.00  0.00     0.074 A 
ATOM     46  C   UNL A   1      44.043  29.224  34.829  1.00  0.00     0.029 A 
ATOM     47  N   UNL A   1      43.312  28.401  32.899  1.00  0.00    -0.354 N 
ATOM     48  N   UNL A   1      43.332  26.541  30.615  1.00  0.00    -0.248 NA
ATOM     49  C   UNL A   1      44.358  24.825  29.403  1.00  0.00     0.031 C 
ATOM     50  C   UNL A   1      44.951  28.254  34.388  1.00  0.00     0.029 A 
ATOM     51  C   UNL A   1      44.480  27.716  33.201  1.00  0.00     0.049 A 
ATOM     52  H   UNL A   1      42.753  28.239  32.103  1.00  0.00     0.167 HD
ATOM     53  C   UNL A   1      44.503  26.161  31.264  1.00  0.00     0.074 A 
ATOM     54  C   UNL A   1      45.077  25.081  30.485  1.00  0.00     0.031 C 
ATOM     55  C   UNL A   1      45.051  26.652  32.406  1.00  0.00     0.034 A 
BRANCH  42  56
ATOM     56  C   UNL A   1      41.816  31.313  34.942  1.00  0.00     0.023 A 
ATOM     57  C   UNL A   1      40.741  31.324  35.849  1.00  0.00     0.031 A 
ATOM     58  C   UNL A   1      42.763  32.348  35.036  1.00  0.00     0.131 A 
ATOM     59  C   UNL A   1      40.593  32.393  36.748  1.00  0.00     0.055 A 
ATOM     60  C   UNL A   1      42.656  33.364  35.989  1.00  0.00     0.041 A 
ATOM     61  F   UNL A   1      43.799  32.405  34.183  1.00  0.00    -0.206 F 
ATOM     62  C   UNL A   1      41.556  33.399  36.840  1.00  0.00     0.022 A 
BRANCH  59  63
ATOM     63  S   UNL A   1      39.040  32.536  37.675  1.00  0.00     0.124 S 
ATOM     64  O   UNL A   1      38.572  33.860  37.267  1.00  0.00    -0.237 OA
ATOM     65  O   UNL A   1      38.269  31.404  37.175  1.00  0.00    -0.237 OA
ATOM     66  O   UNL A   1      39.463  32.437  39.071  1.00  0.00    -0.744 OA
ENDBRANCH  59  63
ENDBRANCH  42  56
BRANCH  43  67
ATOM     67  C   UNL A   1      42.236  24.733  27.388  1.00  0.00     0.023 A 
ATOM     68  C   UNL A   1      41.511  23.531  27.418  1.00  0.00     0.031 A 
ATOM     69  C   UNL A   1      43.076  24.971  26.286  1.00  0.00     0.131 A 
ATOM     70  C   UNL A   1      41.668  22.596  26.383  1.00  0.00     0.055 A 
ATOM     71  C   UNL A   1      43.192  24.060  25.236  1.00  0.00     0.041 A 
ATOM     72  F   UNL A   1      43.793  26.104  26.212  1.00  0.00    -0.206 F 
ATOM     73  C   UNL A   1      42.493  22.858  25.286  1.00  0.00     0.022 A 
BRANCH  70  74
ATOM     74  S   UNL A   1      40.830  20.994  26.526  1.00  0.00     0.124 S 
ATOM     75  O   UNL A   1      40.779  20.813  27.973  1.00  0.00    -0.237 OA
ATOM     76  O   UNL A   1      39.555  21.256  25.867  1.00  0.00    -0.237 OA
ATOM     77  O   UNL A   1      41.720  20.079  25.814  1.00  0.00    -0.744 OA
ENDBRANCH  70  74
ENDBRANCH  43  67
BRANCH  55  78
ATOM     78  C   UNL A   1      46.313  25.986  32.898  1.00  0.00     0.023 A 
ATOM     79  C   UNL A   1      46.280  24.855  33.731  1.00  0.00     0.031 A 
ATOM     80  C   UNL A   1      47.569  26.510  32.544  1.00  0.00     0.131 A 
ATOM     81  C   UNL A   1      47.477  24.318  34.229  1.00  0.00     0.055 A 
ATOM     82  C   UNL A   1      48.759  25.937  32.995  1.00  0.00     0.041 A 
ATOM     83  F   UNL A   1      47.660  27.592  31.753  1.00  0.00    -0.206 F 
ATOM     84  C   UNL A   1      48.717  24.842  33.853  1.00  0.00     0.022 A 
BRANCH  81  85
ATOM     85  S   UNL A   1      47.392  22.978  35.449  1.00  0.00     0.124 S 
ATOM     86  O   UNL A   1      47.669  21.802  34.630  1.00  0.00    -0.237 OA
ATOM     87  O   UNL A   1      48.436  23.353  36.399  1.00  0.00    -0.237 OA
ATOM     88  O   UNL A   1      46.027  23.067  35.964  1.00  0.00    -0.744 OA
ENDBRANCH  81  85
ENDBRANCH  55  78
ENDBRANCH  29  30
ENDBRANCH  22  24
ENDBRANCH  21  22
ENDBRANCH   1  21
TORSDOF 16
ENDMDL
MODEL 3
REMARK VINA RESULT:      -9.8      4.430     12.012
REMARK SMILES C[C@@H](c1ccccc1)[C@@H]1[NH2+][C@@H](C(=O)OCCOC(=O)c2ccc(-c3c4nc(c(-c5cc(S(=O)(=O)[O-])ccc5F)c5ccc([nH]5)c(-c5cc(S(=O)(=O)[O-])ccc5F)c5nc(c(-c6cc(S(=O)(=O)[O-])ccc6F)c6ccc3[nH]6)C=C5)C=C4)cc2)CS1
REMARK SMILES IDX 16 1 15 2 14 3 12 4 13 5 11 6 9 7 10 8 84 9 83 12 2 13 1 14
REMARK SMILES IDX 3 15 4 16 8 17 5 18 7 19 6 20 17 21 18 22 19 23 20 24 21 25
REMARK SMILES IDX 82 26 22 27 81 28 23 29 24 30 25 31 75 32 26 33 80 34 74 35
REMARK SMILES IDX 76 36 27 37 79 38 73 39 72 40 28 42 60 43 40 44 59 45 41 46
REMARK SMILES IDX 44 47 58 48 77 49 42 50 43 51 57 53 78 54 45 55 29 56 30 57
REMARK SMILES IDX 38 58 31 59 37 60 39 61 36 62 32 63 33 64 34 65 35 66 61 67
REMARK SMILES IDX 62 68 70 69 63 70 69 71 71 72 68 73 64 74 65 75 66 76 67 77
REMARK SMILES IDX 46 78 47 79 55 80 48 81 54 82 56 83 53 84 49 85 50 86 51 87
REMARK SMILES IDX 52 88
REMARK H PARENT 10 10 10 11 76 41 44 52
REMARK Flexibility Score: inf
ROOT
ATOM      1  C   UNL A   1      34.257  33.954  28.147  1.00  0.00     0.275 C 
ENDROOT
BRANCH   1   2
ATOM      2  C   UNL A   1      33.310  34.986  28.768  1.00  0.00     0.274 C 
BRANCH   2   3
ATOM      3  O   UNL A   1      33.007  34.631  30.130  1.00  0.00    -0.458 OA
BRANCH   3   4
ATOM      4  C   UNL A   1      33.028  35.648  31.036  1.00  0.00     0.365 C 
ATOM      5  O   UNL A   1      32.286  36.624  31.014  1.00  0.00    -0.245 OA
BRANCH   4   6
ATOM      6  C   UNL A   1      34.051  35.373  32.150  1.00  0.00     0.304 C 
ATOM      7  C   UNL A   1      36.082  34.033  32.027  1.00  0.00     0.249 C 
ATOM      8  N   UNL A   1      35.414  35.250  31.550  1.00  0.00    -0.322 N 
ATOM      9  S   UNL A   1      34.762  32.859  32.450  1.00  0.00    -0.092 SA
ATOM     10  H   UNL A   1      35.331  35.210  30.535  1.00  0.00     0.348 HD
ATOM     11  H   UNL A   1      35.968  36.060  31.830  1.00  0.00     0.348 HD
ATOM     12  C   UNL A   1      33.660  34.169  32.993  1.00  0.00     0.153 C 
BRANCH   7  13
ATOM     13  C   UNL A   1      37.092  34.391  33.169  1.00  0.00     0.085 C 
ATOM     14  C   UNL A   1      37.025  33.476  34.401  1.00  0.00     0.020 C 
BRANCH  13  15
ATOM     15  C   UNL A   1      38.534  34.410  32.652  1.00  0.00    -0.038 A 
ATOM     16  C   UNL A   1      38.799  34.214  31.289  1.00  0.00     0.004 A 
ATOM     17  C   UNL A   1      39.617  34.645  33.517  1.00  0.00     0.004 A 
ATOM     18  C   UNL A   1      40.110  34.244  30.807  1.00  0.00     0.000 A 
ATOM     19  C   UNL A   1      40.927  34.668  33.034  1.00  0.00     0.000 A 
ATOM     20  C   UNL A   1      41.173  34.468  31.680  1.00  0.00     0.000 A 
ENDBRANCH  13  15
ENDBRANCH   7  13
ENDBRANCH   4   6
ENDBRANCH   3   4
ENDBRANCH   2   3
ENDBRANCH   1   2
BRANCH   1  21
ATOM     21  O   UNL A   1      34.417  32.797  28.990  1.00  0.00    -0.458 OA
BRANCH  21  22
ATOM     22  C   UNL A   1      34.738  31.650  28.340  1.00  0.00     0.338 C 
ATOM     23  O   UNL A   1      34.185  31.196  27.352  1.00  0.00    -0.246 OA
BRANCH  22  24
ATOM     24  C   UNL A   1      35.957  31.062  28.926  1.00  0.00     0.060 A 
ATOM     25  C   UNL A   1      37.183  31.675  28.655  1.00  0.00     0.016 A 
ATOM     26  C   UNL A   1      35.909  29.883  29.674  1.00  0.00     0.016 A 
ATOM     27  C   UNL A   1      38.367  31.116  29.127  1.00  0.00     0.010 A 
ATOM     28  C   UNL A   1      37.099  29.318  30.144  1.00  0.00     0.010 A 
ATOM     29  C   UNL A   1      38.336  29.925  29.862  1.00  0.00    -0.014 A 
BRANCH  29  30
ATOM     30  C   UNL A   1      39.609  29.284  30.269  1.00  0.00     0.031 A 
ATOM     31  C   UNL A   1      40.325  29.774  31.495  1.00  0.00     0.074 A 
ATOM     32  C   UNL A   1      40.098  28.250  29.563  1.00  0.00     0.049 A 
ATOM     33  N   UNL A   1      41.460  29.377  32.008  1.00  0.00    -0.248 NA
ATOM     34  C   UNL A   1      39.669  30.858  32.242  1.00  0.00     0.031 C 
ATOM     35  C   UNL A   1      39.458  27.654  28.390  1.00  0.00     0.029 A 
ATOM     36  N   UNL A   1      41.242  27.514  29.732  1.00  0.00    -0.354 N 
ATOM     37  C   UNL A   1      41.663  30.166  33.136  1.00  0.00     0.074 A 
ATOM     38  C   UNL A   1      40.547  31.088  33.205  1.00  0.00     0.031 C 
ATOM     39  C   UNL A   1      40.217  26.638  27.948  1.00  0.00     0.029 A 
ATOM     40  C   UNL A   1      41.416  26.540  28.777  1.00  0.00     0.049 A 
ATOM     41  H   UNL A   1      41.879  27.668  30.466  1.00  0.00     0.167 HD
ATOM     42  C   UNL A   1      42.681  30.117  34.032  1.00  0.00     0.034 A 
ATOM     43  C   UNL A   1      42.435  25.682  28.583  1.00  0.00     0.034 A 
ATOM     44  C   UNL A   1      43.791  29.198  33.936  1.00  0.00     0.049 A 
ATOM     45  C   UNL A   1      43.609  25.718  29.530  1.00  0.00     0.074 A 
ATOM     46  C   UNL A   1      44.871  29.053  34.790  1.00  0.00     0.029 A 
ATOM     47  N   UNL A   1      43.973  28.275  32.912  1.00  0.00    -0.354 N 
ATOM     48  N   UNL A   1      43.793  26.470  30.592  1.00  0.00    -0.248 NA
ATOM     49  C   UNL A   1      44.710  24.788  29.252  1.00  0.00     0.031 C 
ATOM     50  C   UNL A   1      45.737  28.097  34.248  1.00  0.00     0.029 A 
ATOM     51  C   UNL A   1      45.164  27.586  33.094  1.00  0.00     0.049 A 
ATOM     52  H   UNL A   1      43.347  28.131  32.166  1.00  0.00     0.167 HD
ATOM     53  C   UNL A   1      45.018  26.079  31.125  1.00  0.00     0.074 A 
ATOM     54  C   UNL A   1      45.522  25.020  30.273  1.00  0.00     0.031 C 
ATOM     55  C   UNL A   1      45.663  26.544  32.226  1.00  0.00     0.034 A 
BRANCH  42  56
ATOM     56  C   UNL A   1      42.660  31.132  35.150  1.00  0.00     0.023 A 
ATOM     57  C   UNL A   1      43.147  32.441  34.975  1.00  0.00     0.031 A 
ATOM     58  C   UNL A   1      42.202  30.769  36.429  1.00  0.00     0.131 A 
ATOM     59  C   UNL A   1      43.245  33.305  36.077  1.00  0.00     0.055 A 
ATOM     60  C   UNL A   1      42.224  31.662  37.503  1.00  0.00     0.041 A 
ATOM     61  F   UNL A   1      41.748  29.527  36.665  1.00  0.00    -0.206 F 
ATOM     62  C   UNL A   1      42.765  32.933  37.333  1.00  0.00     0.022 A 
BRANCH  59  63
ATOM     63  S   UNL A   1      44.163  34.858  35.880  1.00  0.00     0.124 S 
ATOM     64  O   UNL A   1      44.183  35.009  34.427  1.00  0.00    -0.237 OA
ATOM     65  O   UNL A   1      43.334  35.809  36.611  1.00  0.00    -0.237 OA
ATOM     66  O   UNL A   1      45.462  34.567  36.485  1.00  0.00    -0.744 OA
ENDBRANCH  59  63
ENDBRANCH  42  56
BRANCH  43  67
ATOM     67  C   UNL A   1      42.418  24.737  27.431  1.00  0.00     0.023 A 
ATOM     68  C   UNL A   1      41.648  23.564  27.470  1.00  0.00     0.031 A 
ATOM     69  C   UNL A   1      43.208  24.971  26.291  1.00  0.00     0.131 A 
ATOM     70  C   UNL A   1      41.712  22.651  26.406  1.00  0.00     0.055 A 
ATOM     71  C   UNL A   1      43.231  24.085  25.215  1.00  0.00     0.041 A 
ATOM     72  F   UNL A   1      43.965  26.077  26.206  1.00  0.00    -0.206 F 
ATOM     73  C   UNL A   1      42.488  22.910  25.273  1.00  0.00     0.022 A 
BRANCH  70  74
ATOM     74  S   UNL A   1      40.819  21.080  26.555  1.00  0.00     0.124 S 
ATOM     75  O   UNL A   1      40.834  20.865  27.998  1.00  0.00    -0.237 OA
ATOM     76  O   UNL A   1      39.524  21.408  25.969  1.00  0.00    -0.237 OA
ATOM     77  O   UNL A   1      41.635  20.149  25.777  1.00  0.00    -0.744 OA
ENDBRANCH  70  74
ENDBRANCH  43  67
BRANCH  55  78
ATOM     78  C   UNL A   1      46.965  25.870  32.588  1.00  0.00     0.023 A 
ATOM     79  C   UNL A   1      47.026  24.830  33.532  1.00  0.00     0.031 A 
ATOM     80  C   UNL A   1      48.167  26.296  31.995  1.00  0.00     0.131 A 
ATOM     81  C   UNL A   1      48.268  24.288  33.896  1.00  0.00     0.055 A 
ATOM     82  C   UNL A   1      49.393  25.714  32.318  1.00  0.00     0.041 A 
ATOM     83  F   UNL A   1      48.168  27.288  31.089  1.00  0.00    -0.206 F 
ATOM     84  C   UNL A   1      49.450  24.713  33.283  1.00  0.00     0.022 A 
BRANCH  81  85
ATOM     85  S   UNL A   1      48.332  23.081  35.249  1.00  0.00     0.124 S 
ATOM     86  O   UNL A   1      47.196  22.218  34.940  1.00  0.00    -0.237 OA
ATOM     87  O   UNL A   1      49.652  22.484  35.074  1.00  0.00    -0.237 OA
ATOM     88  O   UNL A   1      48.178  23.902  36.450  1.00  0.00    -0.744 OA
ENDBRANCH  81  85
ENDBRANCH  55  78
ENDBRANCH  29  30
ENDBRANCH  22  24
ENDBRANCH  21  22
ENDBRANCH   1  21
TORSDOF 16
ENDMDL
