MODEL 1
REMARK VINA RESULT:     -12.9      0.000      0.000
REMARK SMILES O=C(OCCOC(=O)c1ccc(N2C(=O)[C@@H]3N=NC(c4ccccc4)=C3[C@H]2c2cccc(Br)c2)cc1)c1ccc(-c2c3nc(c(-c4cc(S(=O)(=O)[O-])ccc4F)c4ccc([nH]4)c(-c4cc(S(=O)(=O)[O-])ccc4F)c4nc(c(-c5cc(S(=O)(=O)[O-])ccc5F)c5ccc2[nH]5)C=C4)C=C3)cc1
REMARK SMILES IDX 4 1 3 2 2 3 1 4 37 5 38 6 99 7 39 8 98 9 40 10 41 11 42 12
REMARK SMILES IDX 92 13 43 14 97 15 91 16 93 17 44 18 96 19 90 20 89 21 45 23
REMARK SMILES IDX 77 24 57 25 76 26 58 27 61 28 75 29 94 30 59 31 60 32 74 34
REMARK SMILES IDX 95 35 62 36 46 37 47 38 55 39 48 40 54 41 56 42 53 43 49 44
REMARK SMILES IDX 50 45 51 46 52 47 78 48 79 49 87 50 80 51 86 52 88 53 85 54
REMARK SMILES IDX 81 55 82 56 83 57 84 58 63 59 64 60 72 61 65 62 71 63 73 64
REMARK SMILES IDX 70 65 66 66 67 67 68 68 69 69 5 70 6 71 7 72 8 73 9 74 10 75
REMARK SMILES IDX 36 76 11 77 35 78 12 79 13 80 14 81 27 82 16 83 15 84 26 85
REMARK SMILES IDX 17 86 19 87 18 88 28 89 29 90 34 91 30 92 32 93 31 94 33 95
REMARK SMILES IDX 20 96 21 97 25 98 22 99 24 100 23 101
REMARK H PARENT 93 22 61 33
REMARK Flexibility Score: inf
ROOT
ATOM      1  C   UNL A   1      42.988  19.500  25.759  1.00  0.00     0.275 C 
ENDROOT
BRANCH   1   2
ATOM      2  O   UNL A   1      43.403  20.134  24.533  1.00  0.00    -0.458 OA
BRANCH   2   3
ATOM      3  C   UNL A   1      44.569  20.819  24.536  1.00  0.00     0.338 C 
ATOM      4  O   UNL A   1      45.547  20.523  23.868  1.00  0.00    -0.246 OA
BRANCH   3   5
ATOM      5  C   UNL A   1      44.478  22.045  25.360  1.00  0.00     0.060 A 
ATOM      6  C   UNL A   1      43.542  23.047  25.082  1.00  0.00     0.016 A 
ATOM      7  C   UNL A   1      45.338  22.171  26.459  1.00  0.00     0.016 A 
ATOM      8  C   UNL A   1      43.484  24.181  25.876  1.00  0.00     0.010 A 
ATOM      9  C   UNL A   1      45.279  23.308  27.256  1.00  0.00     0.010 A 
ATOM     10  C   UNL A   1      44.367  24.322  26.948  1.00  0.00    -0.014 A 
BRANCH  10  11
ATOM     11  C   UNL A   1      44.248  25.533  27.758  1.00  0.00     0.031 A 
ATOM     12  C   UNL A   1      45.385  26.490  27.702  1.00  0.00     0.074 A 
ATOM     13  C   UNL A   1      43.126  25.865  28.425  1.00  0.00     0.049 A 
ATOM     14  N   UNL A   1      46.120  26.926  28.675  1.00  0.00    -0.248 NA
ATOM     15  C   UNL A   1      45.800  26.971  26.382  1.00  0.00     0.031 C 
ATOM     16  C   UNL A   1      41.829  25.191  28.363  1.00  0.00     0.029 A 
ATOM     17  N   UNL A   1      42.882  26.960  29.203  1.00  0.00    -0.354 N 
ATOM     18  C   UNL A   1      46.950  27.902  28.124  1.00  0.00     0.074 A 
ATOM     19  C   UNL A   1      46.815  27.773  26.701  1.00  0.00     0.031 C 
ATOM     20  C   UNL A   1      40.886  26.012  28.872  1.00  0.00     0.029 A 
ATOM     21  C   UNL A   1      41.530  27.205  29.400  1.00  0.00     0.049 A 
ATOM     22  H   UNL A   1      43.594  27.522  29.585  1.00  0.00     0.167 HD
ATOM     23  C   UNL A   1      47.524  28.875  28.888  1.00  0.00     0.034 A 
ATOM     24  C   UNL A   1      40.961  28.336  29.884  1.00  0.00     0.034 A 
ATOM     25  C   UNL A   1      47.556  28.492  30.284  1.00  0.00     0.049 A 
ATOM     26  C   UNL A   1      41.982  29.051  30.686  1.00  0.00     0.074 A 
ATOM     27  C   UNL A   1      48.058  27.406  30.980  1.00  0.00     0.029 A 
ATOM     28  N   UNL A   1      46.726  29.134  31.176  1.00  0.00    -0.354 N 
ATOM     29  N   UNL A   1      42.476  28.591  31.802  1.00  0.00    -0.248 NA
ATOM     30  C   UNL A   1      42.765  30.103  30.055  1.00  0.00     0.031 C 
ATOM     31  C   UNL A   1      47.123  27.175  32.033  1.00  0.00     0.029 A 
ATOM     32  C   UNL A   1      46.142  28.163  31.947  1.00  0.00     0.049 A 
ATOM     33  H   UNL A   1      46.579  30.105  31.246  1.00  0.00     0.167 HD
ATOM     34  C   UNL A   1      43.808  28.970  31.788  1.00  0.00     0.074 A 
ATOM     35  C   UNL A   1      43.891  30.007  30.765  1.00  0.00     0.031 C 
ATOM     36  C   UNL A   1      44.767  28.213  32.401  1.00  0.00     0.034 A 
BRANCH  23  37
ATOM     37  C   UNL A   1      47.711  30.321  28.448  1.00  0.00     0.023 A 
ATOM     38  C   UNL A   1      46.537  31.053  28.176  1.00  0.00     0.031 A 
ATOM     39  C   UNL A   1      48.907  30.901  27.970  1.00  0.00     0.131 A 
ATOM     40  C   UNL A   1      46.554  32.155  27.305  1.00  0.00     0.055 A 
ATOM     41  C   UNL A   1      48.928  32.056  27.178  1.00  0.00     0.041 A 
ATOM     42  F   UNL A   1      50.111  30.359  28.165  1.00  0.00    -0.206 F 
ATOM     43  C   UNL A   1      47.743  32.660  26.795  1.00  0.00     0.022 A 
BRANCH  40  44
ATOM     44  S   UNL A   1      44.967  32.735  26.654  1.00  0.00     0.124 S 
ATOM     45  O   UNL A   1      44.910  32.031  25.376  1.00  0.00    -0.237 OA
ATOM     46  O   UNL A   1      44.037  32.281  27.682  1.00  0.00    -0.237 OA
ATOM     47  O   UNL A   1      45.145  34.182  26.565  1.00  0.00    -0.744 OA
ENDBRANCH  40  44
ENDBRANCH  23  37
BRANCH  24  48
ATOM     48  C   UNL A   1      39.661  28.918  29.464  1.00  0.00     0.023 A 
ATOM     49  C   UNL A   1      38.765  29.508  30.374  1.00  0.00     0.031 A 
ATOM     50  C   UNL A   1      39.370  29.079  28.089  1.00  0.00     0.131 A 
ATOM     51  C   UNL A   1      37.628  30.200  29.900  1.00  0.00     0.055 A 
ATOM     52  C   UNL A   1      38.234  29.744  27.626  1.00  0.00     0.041 A 
ATOM     53  F   UNL A   1      40.223  28.663  27.139  1.00  0.00    -0.206 F 
ATOM     54  C   UNL A   1      37.359  30.314  28.534  1.00  0.00     0.022 A 
BRANCH  51  55
ATOM     55  S   UNL A   1      36.531  31.067  31.066  1.00  0.00     0.124 S 
ATOM     56  O   UNL A   1      36.278  30.044  32.072  1.00  0.00    -0.237 OA
ATOM     57  O   UNL A   1      37.347  32.201  31.482  1.00  0.00    -0.237 OA
ATOM     58  O   UNL A   1      35.373  31.421  30.243  1.00  0.00    -0.744 OA
ENDBRANCH  51  55
ENDBRANCH  24  48
BRANCH  36  59
ATOM     59  C   UNL A   1      44.343  27.173  33.413  1.00  0.00     0.023 A 
ATOM     60  C   UNL A   1      44.080  27.442  34.774  1.00  0.00     0.031 A 
ATOM     61  C   UNL A   1      44.076  25.875  32.939  1.00  0.00     0.131 A 
ATOM     62  C   UNL A   1      43.585  26.424  35.609  1.00  0.00     0.055 A 
ATOM     63  C   UNL A   1      43.569  24.874  33.767  1.00  0.00     0.041 A 
ATOM     64  F   UNL A   1      44.269  25.566  31.646  1.00  0.00    -0.206 F 
ATOM     65  C   UNL A   1      43.328  25.143  35.108  1.00  0.00     0.022 A 
BRANCH  62  66
ATOM     66  S   UNL A   1      43.272  26.746  37.373  1.00  0.00     0.124 S 
ATOM     67  O   UNL A   1      44.022  25.697  38.055  1.00  0.00    -0.237 OA
ATOM     68  O   UNL A   1      43.779  28.106  37.539  1.00  0.00    -0.237 OA
ATOM     69  O   UNL A   1      41.818  26.625  37.487  1.00  0.00    -0.744 OA
ENDBRANCH  62  66
ENDBRANCH  36  59
ENDBRANCH  10  11
ENDBRANCH   3   5
ENDBRANCH   2   3
ENDBRANCH   1   2
BRANCH   1  70
ATOM     70  C   UNL A   1      41.525  19.677  26.162  1.00  0.00     0.275 C 
BRANCH  70  71
ATOM     71  O   UNL A   1      41.008  20.922  25.657  1.00  0.00    -0.458 OA
BRANCH  71  72
ATOM     72  C   UNL A   1      40.458  21.717  26.606  1.00  0.00     0.338 C 
ATOM     73  O   UNL A   1      40.922  22.004  27.697  1.00  0.00    -0.246 OA
BRANCH  72  74
ATOM     74  C   UNL A   1      39.108  22.127  26.191  1.00  0.00     0.060 A 
ATOM     75  C   UNL A   1      38.642  23.418  26.440  1.00  0.00     0.018 A 
ATOM     76  C   UNL A   1      38.260  21.163  25.644  1.00  0.00     0.018 A 
ATOM     77  C   UNL A   1      37.320  23.745  26.117  1.00  0.00     0.027 A 
ATOM     78  C   UNL A   1      36.928  21.484  25.359  1.00  0.00     0.027 A 
ATOM     79  C   UNL A   1      36.448  22.776  25.592  1.00  0.00     0.045 A 
BRANCH  79  80
ATOM     80  N   UNL A   1      35.113  23.127  25.267  1.00  0.00    -0.299 N 
ATOM     81  C   UNL A   1      34.120  23.134  26.294  1.00  0.00     0.259 C 
ATOM     82  C   UNL A   1      34.523  22.799  23.959  1.00  0.00     0.152 C 
ATOM     83  C   UNL A   1      32.790  22.830  25.643  1.00  0.00     0.248 C 
ATOM     84  O   UNL A   1      34.317  23.325  27.471  1.00  0.00    -0.271 OA
ATOM     85  C   UNL A   1      33.339  22.072  24.492  1.00  0.00     0.021 C 
ATOM     86  N   UNL A   1      31.976  21.824  26.332  1.00  0.00    -0.170 NA
ATOM     87  C   UNL A   1      32.777  20.864  24.545  1.00  0.00     0.097 C 
ATOM     88  N   UNL A   1      31.905  20.785  25.615  1.00  0.00    -0.154 NA
BRANCH  82  89
ATOM     89  C   UNL A   1      34.057  24.055  23.191  1.00  0.00    -0.020 A 
ATOM     90  C   UNL A   1      33.299  23.930  22.006  1.00  0.00     0.006 A 
ATOM     91  C   UNL A   1      34.268  25.353  23.684  1.00  0.00     0.022 A 
ATOM     92  C   UNL A   1      32.679  25.038  21.418  1.00  0.00     0.002 A 
ATOM     93  C   UNL A   1      33.669  26.462  23.076  1.00  0.00     0.018 A 
ATOM     94  C   UNL A   1      32.852  26.306  21.963  1.00  0.00     0.016 A 
ATOM     95  Br  UNL A   1      33.936  28.188  23.802  1.00  0.00    -0.051 Br
ENDBRANCH  82  89
BRANCH  87  96
ATOM     96  C   UNL A   1      33.137  19.606  23.891  1.00  0.00     0.002 A 
ATOM     97  C   UNL A   1      32.311  19.041  22.913  1.00  0.00     0.010 A 
ATOM     98  C   UNL A   1      34.171  18.832  24.441  1.00  0.00     0.010 A 
ATOM     99  C   UNL A   1      32.484  17.704  22.533  1.00  0.00     0.001 A 
ATOM    100  C   UNL A   1      34.340  17.499  24.062  1.00  0.00     0.001 A 
ATOM    101  C   UNL A   1      33.486  16.931  23.121  1.00  0.00     0.000 A 
ENDBRANCH  87  96
ENDBRANCH  79  80
ENDBRANCH  72  74
ENDBRANCH  71  72
ENDBRANCH  70  71
ENDBRANCH   1  70
TORSDOF 17
ENDMDL
MODEL 2
REMARK VINA RESULT:     -12.9      3.000      8.886
REMARK SMILES O=C(OCCOC(=O)c1ccc(N2C(=O)[C@@H]3N=NC(c4ccccc4)=C3[C@H]2c2cccc(Br)c2)cc1)c1ccc(-c2c3nc(c(-c4cc(S(=O)(=O)[O-])ccc4F)c4ccc([nH]4)c(-c4cc(S(=O)(=O)[O-])ccc4F)c4nc(c(-c5cc(S(=O)(=O)[O-])ccc5F)c5ccc2[nH]5)C=C4)C=C3)cc1
REMARK SMILES IDX 4 1 3 2 2 3 1 4 37 5 38 6 99 7 39 8 98 9 40 10 41 11 42 12
REMARK SMILES IDX 92 13 43 14 97 15 91 16 93 17 44 18 96 19 90 20 89 21 45 23
REMARK SMILES IDX 77 24 57 25 76 26 58 27 61 28 75 29 94 30 59 31 60 32 74 34
REMARK SMILES IDX 95 35 62 36 46 37 47 38 55 39 48 40 54 41 56 42 53 43 49 44
REMARK SMILES IDX 50 45 51 46 52 47 78 48 79 49 87 50 80 51 86 52 88 53 85 54
REMARK SMILES IDX 81 55 82 56 83 57 84 58 63 59 64 60 72 61 65 62 71 63 73 64
REMARK SMILES IDX 70 65 66 66 67 67 68 68 69 69 5 70 6 71 7 72 8 73 9 74 10 75
REMARK SMILES IDX 36 76 11 77 35 78 12 79 13 80 14 81 27 82 16 83 15 84 26 85
REMARK SMILES IDX 17 86 19 87 18 88 28 89 29 90 34 91 30 92 32 93 31 94 33 95
REMARK SMILES IDX 20 96 21 97 25 98 22 99 24 100 23 101
REMARK H PARENT 93 22 61 33
REMARK Flexibility Score: inf
ROOT
ATOM      1  C   UNL A   1      36.047  33.815  30.227  1.00  0.00     0.275 C 
ENDROOT
BRANCH   1   2
ATOM      2  O   UNL A   1      36.642  33.209  31.392  1.00  0.00    -0.458 OA
BRANCH   2   3
ATOM      3  C   UNL A   1      36.438  31.888  31.593  1.00  0.00     0.338 C 
ATOM      4  O   UNL A   1      35.344  31.376  31.774  1.00  0.00    -0.246 OA
BRANCH   3   5
ATOM      5  C   UNL A   1      37.692  31.115  31.450  1.00  0.00     0.060 A 
ATOM      6  C   UNL A   1      38.939  31.746  31.396  1.00  0.00     0.016 A 
ATOM      7  C   UNL A   1      37.607  29.717  31.401  1.00  0.00     0.016 A 
ATOM      8  C   UNL A   1      40.093  30.990  31.263  1.00  0.00     0.010 A 
ATOM      9  C   UNL A   1      38.764  28.959  31.268  1.00  0.00     0.010 A 
ATOM     10  C   UNL A   1      40.004  29.599  31.176  1.00  0.00    -0.014 A 
BRANCH  10  11
ATOM     11  C   UNL A   1      41.256  28.856  31.052  1.00  0.00     0.031 A 
ATOM     12  C   UNL A   1      42.002  28.588  32.310  1.00  0.00     0.074 A 
ATOM     13  C   UNL A   1      41.675  28.308  29.896  1.00  0.00     0.049 A 
ATOM     14  N   UNL A   1      43.214  28.926  32.615  1.00  0.00    -0.248 NA
ATOM     15  C   UNL A   1      41.282  27.914  33.394  1.00  0.00     0.031 C 
ATOM     16  C   UNL A   1      40.936  28.230  28.636  1.00  0.00     0.029 A 
ATOM     17  N   UNL A   1      42.809  27.588  29.647  1.00  0.00    -0.354 N 
ATOM     18  C   UNL A   1      43.486  28.321  33.843  1.00  0.00     0.074 A 
ATOM     19  C   UNL A   1      42.223  27.850  34.336  1.00  0.00     0.031 C 
ATOM     20  C   UNL A   1      41.524  27.312  27.840  1.00  0.00     0.029 A 
ATOM     21  C   UNL A   1      42.739  26.835  28.484  1.00  0.00     0.049 A 
ATOM     22  H   UNL A   1      43.598  27.601  30.236  1.00  0.00     0.167 HD
ATOM     23  C   UNL A   1      44.762  28.075  34.258  1.00  0.00     0.034 A 
ATOM     24  C   UNL A   1      43.565  25.830  28.104  1.00  0.00     0.034 A 
ATOM     25  C   UNL A   1      45.712  28.903  33.547  1.00  0.00     0.049 A 
ATOM     26  C   UNL A   1      44.856  26.013  28.808  1.00  0.00     0.074 A 
ATOM     27  C   UNL A   1      45.854  30.265  33.349  1.00  0.00     0.029 A 
ATOM     28  N   UNL A   1      46.551  28.319  32.623  1.00  0.00    -0.354 N 
ATOM     29  N   UNL A   1      45.661  27.016  28.591  1.00  0.00    -0.248 NA
ATOM     30  C   UNL A   1      45.089  25.296  30.053  1.00  0.00     0.031 C 
ATOM     31  C   UNL A   1      46.348  30.399  32.018  1.00  0.00     0.029 A 
ATOM     32  C   UNL A   1      46.527  29.113  31.506  1.00  0.00     0.049 A 
ATOM     33  H   UNL A   1      47.068  27.491  32.742  1.00  0.00     0.167 HD
ATOM     34  C   UNL A   1      46.197  27.321  29.831  1.00  0.00     0.074 A 
ATOM     35  C   UNL A   1      45.916  26.151  30.658  1.00  0.00     0.031 C 
ATOM     36  C   UNL A   1      46.560  28.600  30.152  1.00  0.00     0.034 A 
BRANCH  23  37
ATOM     37  C   UNL A   1      45.195  26.832  35.025  1.00  0.00     0.023 A 
ATOM     38  C   UNL A   1      44.913  25.590  34.421  1.00  0.00     0.031 A 
ATOM     39  C   UNL A   1      45.540  26.771  36.393  1.00  0.00     0.131 A 
ATOM     40  C   UNL A   1      44.775  24.423  35.191  1.00  0.00     0.055 A 
ATOM     41  C   UNL A   1      45.491  25.586  37.138  1.00  0.00     0.041 A 
ATOM     42  F   UNL A   1      45.865  27.848  37.113  1.00  0.00    -0.206 F 
ATOM     43  C   UNL A   1      45.055  24.412  36.551  1.00  0.00     0.022 A 
BRANCH  40  44
ATOM     44  S   UNL A   1      43.968  22.998  34.417  1.00  0.00     0.124 S 
ATOM     45  O   UNL A   1      44.331  23.192  33.016  1.00  0.00    -0.237 OA
ATOM     46  O   UNL A   1      44.611  21.882  35.101  1.00  0.00    -0.237 OA
ATOM     47  O   UNL A   1      42.556  23.196  34.732  1.00  0.00    -0.744 OA
ENDBRANCH  40  44
ENDBRANCH  23  37
BRANCH  24  48
ATOM     48  C   UNL A   1      43.178  24.605  27.359  1.00  0.00     0.023 A 
ATOM     49  C   UNL A   1      44.010  24.012  26.392  1.00  0.00     0.031 A 
ATOM     50  C   UNL A   1      42.032  23.873  27.747  1.00  0.00     0.131 A 
ATOM     51  C   UNL A   1      43.672  22.754  25.842  1.00  0.00     0.055 A 
ATOM     52  C   UNL A   1      41.690  22.644  27.185  1.00  0.00     0.041 A 
ATOM     53  F   UNL A   1      41.240  24.292  28.748  1.00  0.00    -0.206 F 
ATOM     54  C   UNL A   1      42.515  22.075  26.231  1.00  0.00     0.022 A 
BRANCH  51  55
ATOM     55  S   UNL A   1      44.804  21.927  24.682  1.00  0.00     0.124 S 
ATOM     56  O   UNL A   1      44.088  20.695  24.376  1.00  0.00    -0.237 OA
ATOM     57  O   UNL A   1      44.916  22.901  23.602  1.00  0.00    -0.237 OA
ATOM     58  O   UNL A   1      46.026  21.749  25.469  1.00  0.00    -0.744 OA
ENDBRANCH  51  55
ENDBRANCH  24  48
BRANCH  36  59
ATOM     59  C   UNL A   1      46.740  29.610  29.041  1.00  0.00     0.023 A 
ATOM     60  C   UNL A   1      45.680  30.259  28.373  1.00  0.00     0.031 A 
ATOM     61  C   UNL A   1      48.052  30.020  28.741  1.00  0.00     0.131 A 
ATOM     62  C   UNL A   1      45.955  31.265  27.428  1.00  0.00     0.055 A 
ATOM     63  C   UNL A   1      48.319  31.030  27.817  1.00  0.00     0.041 A 
ATOM     64  F   UNL A   1      49.102  29.468  29.372  1.00  0.00    -0.206 F 
ATOM     65  C   UNL A   1      47.271  31.652  27.152  1.00  0.00     0.022 A 
BRANCH  62  66
ATOM     66  S   UNL A   1      44.601  32.088  26.532  1.00  0.00     0.124 S 
ATOM     67  O   UNL A   1      44.125  33.095  27.473  1.00  0.00    -0.237 OA
ATOM     68  O   UNL A   1      45.275  32.594  25.339  1.00  0.00    -0.237 OA
ATOM     69  O   UNL A   1      43.654  31.001  26.276  1.00  0.00    -0.744 OA
ENDBRANCH  62  66
ENDBRANCH  36  59
ENDBRANCH  10  11
ENDBRANCH   3   5
ENDBRANCH   2   3
ENDBRANCH   1   2
BRANCH   1  70
ATOM     70  C   UNL A   1      36.771  33.606  28.899  1.00  0.00     0.275 C 
BRANCH  70  71
ATOM     71  O   UNL A   1      35.987  32.780  28.018  1.00  0.00    -0.458 OA
BRANCH  71  72
ATOM     72  C   UNL A   1      36.354  31.476  28.011  1.00  0.00     0.338 C 
ATOM     73  O   UNL A   1      37.466  31.014  28.211  1.00  0.00    -0.246 OA
BRANCH  72  74
ATOM     74  C   UNL A   1      35.217  30.639  27.598  1.00  0.00     0.060 A 
ATOM     75  C   UNL A   1      35.414  29.338  27.138  1.00  0.00     0.018 A 
ATOM     76  C   UNL A   1      33.946  31.215  27.570  1.00  0.00     0.018 A 
ATOM     77  C   UNL A   1      34.319  28.605  26.665  1.00  0.00     0.027 A 
ATOM     78  C   UNL A   1      32.862  30.491  27.060  1.00  0.00     0.027 A 
ATOM     79  C   UNL A   1      33.040  29.182  26.605  1.00  0.00     0.045 A 
BRANCH  79  80
ATOM     80  N   UNL A   1      31.941  28.423  26.126  1.00  0.00    -0.299 N 
ATOM     81  C   UNL A   1      31.222  27.584  27.032  1.00  0.00     0.259 C 
ATOM     82  C   UNL A   1      31.913  27.877  24.760  1.00  0.00     0.152 C 
ATOM     83  C   UNL A   1      30.650  26.436  26.232  1.00  0.00     0.248 C 
ATOM     84  O   UNL A   1      31.112  27.755  28.223  1.00  0.00    -0.271 OA
ATOM     85  C   UNL A   1      31.669  26.463  25.154  1.00  0.00     0.021 C 
ATOM     86  N   UNL A   1      30.845  25.109  26.825  1.00  0.00    -0.170 NA
ATOM     87  C   UNL A   1      32.228  25.252  25.145  1.00  0.00     0.097 C 
ATOM     88  N   UNL A   1      31.647  24.447  26.106  1.00  0.00    -0.154 NA
BRANCH  82  89
ATOM     89  C   UNL A   1      30.714  28.401  23.940  1.00  0.00    -0.020 A 
ATOM     90  C   UNL A   1      29.827  27.499  23.311  1.00  0.00     0.006 A 
ATOM     91  C   UNL A   1      30.393  29.767  23.876  1.00  0.00     0.022 A 
ATOM     92  C   UNL A   1      28.619  27.934  22.756  1.00  0.00     0.002 A 
ATOM     93  C   UNL A   1      29.196  30.200  23.294  1.00  0.00     0.018 A 
ATOM     94  C   UNL A   1      28.294  29.287  22.760  1.00  0.00     0.016 A 
ATOM     95  Br  UNL A   1      28.776  32.045  23.275  1.00  0.00    -0.051 Br
ENDBRANCH  82  89
BRANCH  87  96
ATOM     96  C   UNL A   1      33.470  24.771  24.538  1.00  0.00     0.002 A 
ATOM     97  C   UNL A   1      33.453  24.045  23.343  1.00  0.00     0.010 A 
ATOM     98  C   UNL A   1      34.648  24.803  25.301  1.00  0.00     0.010 A 
ATOM     99  C   UNL A   1      34.581  23.317  22.946  1.00  0.00     0.001 A 
ATOM    100  C   UNL A   1      35.772  24.076  24.904  1.00  0.00     0.001 A 
ATOM    101  C   UNL A   1      35.732  23.320  23.735  1.00  0.00     0.000 A 
ENDBRANCH  87  96
ENDBRANCH  79  80
ENDBRANCH  72  74
ENDBRANCH  71  72
ENDBRANCH  70  71
ENDBRANCH   1  70
TORSDOF 17
ENDMDL
MODEL 3
REMARK VINA RESULT:     -12.9      1.783      2.182
REMARK SMILES O=C(OCCOC(=O)c1ccc(N2C(=O)[C@@H]3N=NC(c4ccccc4)=C3[C@H]2c2cccc(Br)c2)cc1)c1ccc(-c2c3nc(c(-c4cc(S(=O)(=O)[O-])ccc4F)c4ccc([nH]4)c(-c4cc(S(=O)(=O)[O-])ccc4F)c4nc(c(-c5cc(S(=O)(=O)[O-])ccc5F)c5ccc2[nH]5)C=C4)C=C3)cc1
REMARK SMILES IDX 4 1 3 2 2 3 1 4 37 5 38 6 99 7 39 8 98 9 40 10 41 11 42 12
REMARK SMILES IDX 92 13 43 14 97 15 91 16 93 17 44 18 96 19 90 20 89 21 45 23
REMARK SMILES IDX 77 24 57 25 76 26 58 27 61 28 75 29 94 30 59 31 60 32 74 34
REMARK SMILES IDX 95 35 62 36 46 37 47 38 55 39 48 40 54 41 56 42 53 43 49 44
REMARK SMILES IDX 50 45 51 46 52 47 78 48 79 49 87 50 80 51 86 52 88 53 85 54
REMARK SMILES IDX 81 55 82 56 83 57 84 58 63 59 64 60 72 61 65 62 71 63 73 64
REMARK SMILES IDX 70 65 66 66 67 67 68 68 69 69 5 70 6 71 7 72 8 73 9 74 10 75
REMARK SMILES IDX 36 76 11 77 35 78 12 79 13 80 14 81 27 82 16 83 15 84 26 85
REMARK SMILES IDX 17 86 19 87 18 88 28 89 29 90 34 91 30 92 32 93 31 94 33 95
REMARK SMILES IDX 20 96 21 97 25 98 22 99 24 100 23 101
REMARK H PARENT 93 22 61 33
REMARK Flexibility Score: inf
ROOT
ATOM      1  C   UNL A   1      42.893  19.797  26.289  1.00  0.00     0.275 C 
ENDROOT
BRANCH   1   2
ATOM      2  O   UNL A   1      43.248  20.204  24.952  1.00  0.00    -0.458 OA
BRANCH   2   3
ATOM      3  C   UNL A   1      44.369  20.943  24.791  1.00  0.00     0.338 C 
ATOM      4  O   UNL A   1      45.321  20.614  24.101  1.00  0.00    -0.246 OA
BRANCH   3   5
ATOM      5  C   UNL A   1      44.254  22.259  25.458  1.00  0.00     0.060 A 
ATOM      6  C   UNL A   1      45.072  22.607  26.538  1.00  0.00     0.016 A 
ATOM      7  C   UNL A   1      43.319  23.176  24.959  1.00  0.00     0.016 A 
ATOM      8  C   UNL A   1      44.938  23.849  27.137  1.00  0.00     0.010 A 
ATOM      9  C   UNL A   1      43.186  24.422  25.559  1.00  0.00     0.010 A 
ATOM     10  C   UNL A   1      43.981  24.747  26.663  1.00  0.00    -0.014 A 
BRANCH  10  11
ATOM     11  C   UNL A   1      43.897  26.048  27.326  1.00  0.00     0.031 A 
ATOM     12  C   UNL A   1      44.932  27.052  26.961  1.00  0.00     0.074 A 
ATOM     13  C   UNL A   1      42.874  26.401  28.126  1.00  0.00     0.049 A 
ATOM     14  N   UNL A   1      45.775  27.656  27.736  1.00  0.00    -0.248 NA
ATOM     15  C   UNL A   1      45.092  27.374  25.541  1.00  0.00     0.031 C 
ATOM     16  C   UNL A   1      41.640  25.652  28.367  1.00  0.00     0.029 A 
ATOM     17  N   UNL A   1      42.670  27.575  28.793  1.00  0.00    -0.354 N 
ATOM     18  C   UNL A   1      46.428  28.596  26.937  1.00  0.00     0.074 A 
ATOM     19  C   UNL A   1      46.078  28.269  25.584  1.00  0.00     0.031 C 
ATOM     20  C   UNL A   1      40.729  26.478  28.922  1.00  0.00     0.029 A 
ATOM     21  C   UNL A   1      41.353  27.766  29.183  1.00  0.00     0.049 A 
ATOM     22  H   UNL A   1      43.388  28.223  28.978  1.00  0.00     0.167 HD
ATOM     23  C   UNL A   1      47.037  29.694  27.468  1.00  0.00     0.034 A 
ATOM     24  C   UNL A   1      40.781  28.917  29.613  1.00  0.00     0.034 A 
ATOM     25  C   UNL A   1      47.322  29.505  28.875  1.00  0.00     0.049 A 
ATOM     26  C   UNL A   1      41.857  29.791  30.136  1.00  0.00     0.074 A 
ATOM     27  C   UNL A   1      48.012  28.553  29.605  1.00  0.00     0.029 A 
ATOM     28  N   UNL A   1      46.596  30.213  29.808  1.00  0.00    -0.354 N 
ATOM     29  N   UNL A   1      42.556  29.515  31.202  1.00  0.00    -0.248 NA
ATOM     30  C   UNL A   1      42.443  30.792  29.258  1.00  0.00     0.031 C 
ATOM     31  C   UNL A   1      47.278  28.412  30.820  1.00  0.00     0.029 A 
ATOM     32  C   UNL A   1      46.221  29.322  30.780  1.00  0.00     0.049 A 
ATOM     33  H   UNL A   1      46.386  31.173  29.781  1.00  0.00     0.167 HD
ATOM     34  C   UNL A   1      43.835  29.965  30.918  1.00  0.00     0.074 A 
ATOM     35  C   UNL A   1      43.672  30.858  29.774  1.00  0.00     0.031 C 
ATOM     36  C   UNL A   1      44.937  29.353  31.449  1.00  0.00     0.034 A 
BRANCH  23  37
ATOM     37  C   UNL A   1      47.037  31.075  26.828  1.00  0.00     0.023 A 
ATOM     38  C   UNL A   1      48.262  31.773  26.835  1.00  0.00     0.031 A 
ATOM     39  C   UNL A   1      45.900  31.860  26.531  1.00  0.00     0.131 A 
ATOM     40  C   UNL A   1      48.299  33.176  26.769  1.00  0.00     0.055 A 
ATOM     41  C   UNL A   1      45.955  33.250  26.373  1.00  0.00     0.041 A 
ATOM     42  F   UNL A   1      44.666  31.356  26.453  1.00  0.00    -0.206 F 
ATOM     43  C   UNL A   1      47.151  33.924  26.546  1.00  0.00     0.022 A 
BRANCH  40  44
ATOM     44  S   UNL A   1      49.841  33.998  27.249  1.00  0.00     0.124 S 
ATOM     45  O   UNL A   1      50.640  32.862  27.700  1.00  0.00    -0.237 OA
ATOM     46  O   UNL A   1      50.252  34.618  25.995  1.00  0.00    -0.237 OA
ATOM     47  O   UNL A   1      49.420  34.923  28.297  1.00  0.00    -0.744 OA
ENDBRANCH  40  44
ENDBRANCH  23  37
BRANCH  24  48
ATOM     48  C   UNL A   1      39.389  29.362  29.349  1.00  0.00     0.023 A 
ATOM     49  C   UNL A   1      38.566  29.912  30.348  1.00  0.00     0.031 A 
ATOM     50  C   UNL A   1      38.908  29.432  28.020  1.00  0.00     0.131 A 
ATOM     51  C   UNL A   1      37.317  30.478  30.006  1.00  0.00     0.055 A 
ATOM     52  C   UNL A   1      37.666  29.972  27.689  1.00  0.00     0.041 A 
ATOM     53  F   UNL A   1      39.668  29.050  26.980  1.00  0.00    -0.206 F 
ATOM     54  C   UNL A   1      36.864  30.504  28.684  1.00  0.00     0.022 A 
BRANCH  51  55
ATOM     55  S   UNL A   1      36.303  31.297  31.276  1.00  0.00     0.124 S 
ATOM     56  O   UNL A   1      35.176  31.797  30.499  1.00  0.00    -0.237 OA
ATOM     57  O   UNL A   1      36.021  30.209  32.205  1.00  0.00    -0.237 OA
ATOM     58  O   UNL A   1      37.193  32.333  31.805  1.00  0.00    -0.744 OA
ENDBRANCH  51  55
ENDBRANCH  24  48
BRANCH  36  59
ATOM     59  C   UNL A   1      44.763  28.436  32.638  1.00  0.00     0.023 A 
ATOM     60  C   UNL A   1      44.651  27.032  32.555  1.00  0.00     0.031 A 
ATOM     61  C   UNL A   1      44.842  29.012  33.920  1.00  0.00     0.131 A 
ATOM     62  C   UNL A   1      44.602  26.259  33.730  1.00  0.00     0.055 A 
ATOM     63  C   UNL A   1      44.811  28.241  35.082  1.00  0.00     0.041 A 
ATOM     64  F   UNL A   1      44.988  30.340  34.066  1.00  0.00    -0.206 F 
ATOM     65  C   UNL A   1      44.684  26.861  34.991  1.00  0.00     0.022 A 
BRANCH  62  66
ATOM     66  S   UNL A   1      44.423  24.450  33.640  1.00  0.00     0.124 S 
ATOM     67  O   UNL A   1      45.638  23.950  34.273  1.00  0.00    -0.237 OA
ATOM     68  O   UNL A   1      43.180  24.221  34.371  1.00  0.00    -0.237 OA
ATOM     69  O   UNL A   1      44.335  24.189  32.202  1.00  0.00    -0.744 OA
ENDBRANCH  62  66
ENDBRANCH  36  59
ENDBRANCH  10  11
ENDBRANCH   3   5
ENDBRANCH   2   3
ENDBRANCH   1   2
BRANCH   1  70
ATOM     70  C   UNL A   1      41.408  19.826  26.644  1.00  0.00     0.275 C 
BRANCH  70  71
ATOM     71  O   UNL A   1      40.725  20.837  25.880  1.00  0.00    -0.458 OA
BRANCH  71  72
ATOM     72  C   UNL A   1      40.310  21.898  26.614  1.00  0.00     0.338 C 
ATOM     73  O   UNL A   1      40.879  22.414  27.563  1.00  0.00    -0.246 OA
BRANCH  72  74
ATOM     74  C   UNL A   1      38.965  22.307  26.184  1.00  0.00     0.060 A 
ATOM     75  C   UNL A   1      38.485  23.588  26.454  1.00  0.00     0.018 A 
ATOM     76  C   UNL A   1      38.135  21.350  25.599  1.00  0.00     0.018 A 
ATOM     77  C   UNL A   1      37.166  23.913  26.114  1.00  0.00     0.027 A 
ATOM     78  C   UNL A   1      36.806  21.668  25.297  1.00  0.00     0.027 A 
ATOM     79  C   UNL A   1      36.312  22.950  25.551  1.00  0.00     0.045 A 
BRANCH  79  80
ATOM     80  N   UNL A   1      34.980  23.297  25.209  1.00  0.00    -0.299 N 
ATOM     81  C   UNL A   1      33.974  23.300  26.222  1.00  0.00     0.259 C 
ATOM     82  C   UNL A   1      34.408  22.971  23.892  1.00  0.00     0.152 C 
ATOM     83  C   UNL A   1      32.653  22.995  25.554  1.00  0.00     0.248 C 
ATOM     84  O   UNL A   1      34.155  23.490  27.402  1.00  0.00    -0.271 OA
ATOM     85  C   UNL A   1      33.219  22.240  24.408  1.00  0.00     0.021 C 
ATOM     86  N   UNL A   1      31.833  21.985  26.230  1.00  0.00    -0.170 NA
ATOM     87  C   UNL A   1      32.660  21.030  24.452  1.00  0.00     0.097 C 
ATOM     88  N   UNL A   1      31.774  20.948  25.509  1.00  0.00    -0.154 NA
BRANCH  82  89
ATOM     89  C   UNL A   1      33.950  24.227  23.120  1.00  0.00    -0.020 A 
ATOM     90  C   UNL A   1      33.215  24.103  21.920  1.00  0.00     0.006 A 
ATOM     91  C   UNL A   1      34.142  25.525  23.624  1.00  0.00     0.022 A 
ATOM     92  C   UNL A   1      32.599  25.210  21.326  1.00  0.00     0.002 A 
ATOM     93  C   UNL A   1      33.548  26.632  23.009  1.00  0.00     0.018 A 
ATOM     94  C   UNL A   1      32.754  26.476  21.879  1.00  0.00     0.016 A 
ATOM     95  Br  UNL A   1      33.789  28.357  23.748  1.00  0.00    -0.051 Br
ENDBRANCH  82  89
BRANCH  87  96
ATOM     96  C   UNL A   1      33.032  19.774  23.799  1.00  0.00     0.002 A 
ATOM     97  C   UNL A   1      32.245  19.234  22.777  1.00  0.00     0.010 A 
ATOM     98  C   UNL A   1      34.027  18.978  24.389  1.00  0.00     0.010 A 
ATOM     99  C   UNL A   1      32.416  17.900  22.389  1.00  0.00     0.001 A 
ATOM    100  C   UNL A   1      34.194  17.647  24.001  1.00  0.00     0.001 A 
ATOM    101  C   UNL A   1      33.376  17.104  23.013  1.00  0.00     0.000 A 
ENDBRANCH  87  96
ENDBRANCH  79  80
ENDBRANCH  72  74
ENDBRANCH  71  72
ENDBRANCH  70  71
ENDBRANCH   1  70
TORSDOF 17
ENDMDL
