MODEL 1
REMARK VINA RESULT:     -10.4      0.000      0.000
REMARK SMILES Cc1ccc2oc(CCCC(=O)OCCOC(=O)c3ccc(-c4c5nc(c(-c6cc(S(=O)(=O)[O-])ccc6F)c6ccc([nH]6)c(-c6cc(S(=O)(=O)[O-])ccc6F)c6nc(c(-c7cc(S(=O)(=O)[O-])ccc7F)c7ccc4[nH]7)C=C6)C=C5)cc3)cc(=O)c2c1
REMARK SMILES IDX 14 1 13 2 11 3 12 4 10 5 9 6 8 7 7 8 1 9 2 10 3 11 86 12
REMARK SMILES IDX 4 13 85 14 5 15 83 16 6 17 82 18 84 19 15 20 16 21 17 22
REMARK SMILES IDX 18 23 19 24 20 25 81 26 21 27 80 28 22 29 23 30 24 31 74 32
REMARK SMILES IDX 25 33 79 34 73 35 75 36 26 37 78 38 72 39 71 40 27 42 59 43
REMARK SMILES IDX 39 44 58 45 40 46 43 47 57 48 76 49 41 50 42 51 56 53 77 54
REMARK SMILES IDX 44 55 28 56 29 57 37 58 30 59 36 60 38 61 35 62 31 63 32 64
REMARK SMILES IDX 33 65 34 66 60 67 61 68 69 69 62 70 68 71 70 72 67 73 63 74
REMARK SMILES IDX 64 75 65 76 66 77 45 78 46 79 54 80 47 81 53 82 55 83 52 84
REMARK SMILES IDX 48 85 49 86 50 87 51 88
REMARK H PARENT 75 41 43 52
REMARK Flexibility Score: inf
ROOT
ATOM      1  C   UNL A   1      33.674  34.727  28.654  1.00  0.00     0.274 C 
ENDROOT
BRANCH   1   2
ATOM      2  O   UNL A   1      32.776  34.937  29.760  1.00  0.00    -0.462 OA
BRANCH   2   3
ATOM      3  C   UNL A   1      32.782  36.157  30.347  1.00  0.00     0.305 C 
ATOM      4  O   UNL A   1      33.185  37.184  29.811  1.00  0.00    -0.252 OA
BRANCH   3   5
ATOM      5  C   UNL A   1      32.251  36.147  31.767  1.00  0.00     0.123 C 
BRANCH   5   6
ATOM      6  C   UNL A   1      33.223  35.782  32.894  1.00  0.00     0.020 C 
BRANCH   6   7
ATOM      7  C   UNL A   1      33.790  34.351  32.913  1.00  0.00     0.076 C 
BRANCH   7   8
ATOM      8  C   UNL A   1      35.284  34.274  32.751  1.00  0.00     0.108 A 
ATOM      9  C   UNL A   1      40.958  34.492  29.675  1.00  0.00     0.044 C 
ATOM     10  C   UNL A   1      39.564  34.279  30.184  1.00  0.00    -0.050 A 
ATOM     11  C   UNL A   1      38.547  33.838  29.324  1.00  0.00     0.007 A 
ATOM     12  C   UNL A   1      39.268  34.520  31.534  1.00  0.00     0.019 A 
ATOM     13  C   UNL A   1      37.253  33.630  29.805  1.00  0.00     0.048 A 
ATOM     14  C   UNL A   1      37.965  34.334  32.003  1.00  0.00     0.065 A 
ATOM     15  C   UNL A   1      36.969  33.881  31.145  1.00  0.00     0.138 A 
ATOM     16  C   UNL A   1      37.593  34.660  33.389  1.00  0.00     0.192 A 
ATOM     17  O   UNL A   1      35.682  33.676  31.564  1.00  0.00    -0.461 OA
ATOM     18  C   UNL A   1      36.147  34.720  33.674  1.00  0.00     0.095 A 
ATOM     19  O   UNL A   1      38.424  34.917  34.252  1.00  0.00    -0.289 OA
ENDBRANCH   7   8
ENDBRANCH   6   7
ENDBRANCH   5   6
ENDBRANCH   3   5
ENDBRANCH   2   3
ENDBRANCH   1   2
BRANCH   1  20
ATOM     20  C   UNL A   1      33.340  33.416  27.940  1.00  0.00     0.275 C 
BRANCH  20  21
ATOM     21  O   UNL A   1      34.524  32.620  27.753  1.00  0.00    -0.458 OA
BRANCH  21  22
ATOM     22  C   UNL A   1      34.324  31.282  27.813  1.00  0.00     0.338 C 
ATOM     23  O   UNL A   1      33.317  30.670  27.505  1.00  0.00    -0.246 OA
BRANCH  22  24
ATOM     24  C   UNL A   1      35.587  30.626  28.179  1.00  0.00     0.060 A 
ATOM     25  C   UNL A   1      35.629  29.912  29.377  1.00  0.00     0.016 A 
ATOM     26  C   UNL A   1      36.733  30.773  27.399  1.00  0.00     0.016 A 
ATOM     27  C   UNL A   1      36.821  29.347  29.816  1.00  0.00     0.010 A 
ATOM     28  C   UNL A   1      37.931  30.197  27.835  1.00  0.00     0.010 A 
ATOM     29  C   UNL A   1      37.984  29.492  29.053  1.00  0.00    -0.014 A 
BRANCH  29  30
ATOM     30  C   UNL A   1      39.268  28.963  29.574  1.00  0.00     0.031 A 
ATOM     31  C   UNL A   1      39.920  29.629  30.751  1.00  0.00     0.074 A 
ATOM     32  C   UNL A   1      39.820  27.870  29.015  1.00  0.00     0.049 A 
ATOM     33  N   UNL A   1      41.078  29.382  31.307  1.00  0.00    -0.248 NA
ATOM     34  C   UNL A   1      39.167  30.724  31.381  1.00  0.00     0.031 C 
ATOM     35  C   UNL A   1      39.244  27.109  27.904  1.00  0.00     0.029 A 
ATOM     36  N   UNL A   1      40.987  27.209  29.303  1.00  0.00    -0.354 N 
ATOM     37  C   UNL A   1      41.205  30.305  32.341  1.00  0.00     0.074 A 
ATOM     38  C   UNL A   1      40.016  31.131  32.313  1.00  0.00     0.031 C 
ATOM     39  C   UNL A   1      40.059  26.083  27.609  1.00  0.00     0.029 A 
ATOM     40  C   UNL A   1      41.237  26.145  28.468  1.00  0.00     0.049 A 
ATOM     41  H   UNL A   1      41.588  27.471  30.037  1.00  0.00     0.167 HD
ATOM     42  C   UNL A   1      42.222  30.445  33.227  1.00  0.00     0.034 A 
ATOM     43  C   UNL A   1      42.311  25.334  28.385  1.00  0.00     0.034 A 
ATOM     44  C   UNL A   1      43.397  29.607  33.237  1.00  0.00     0.049 A 
ATOM     45  C   UNL A   1      43.456  25.549  29.341  1.00  0.00     0.074 A 
ATOM     46  C   UNL A   1      44.491  29.660  34.084  1.00  0.00     0.029 A 
ATOM     47  N   UNL A   1      43.633  28.559  32.354  1.00  0.00    -0.354 N 
ATOM     48  N   UNL A   1      43.582  26.447  30.291  1.00  0.00    -0.248 NA
ATOM     49  C   UNL A   1      44.602  24.640  29.214  1.00  0.00     0.031 C 
ATOM     50  C   UNL A   1      45.411  28.687  33.678  1.00  0.00     0.029 A 
ATOM     51  C   UNL A   1      44.863  27.976  32.621  1.00  0.00     0.049 A 
ATOM     52  H   UNL A   1      43.017  28.273  31.643  1.00  0.00     0.167 HD
ATOM     53  C   UNL A   1      44.813  26.194  30.891  1.00  0.00     0.074 A 
ATOM     54  C   UNL A   1      45.382  25.052  30.204  1.00  0.00     0.031 C 
ATOM     55  C   UNL A   1      45.418  26.844  31.918  1.00  0.00     0.034 A 
BRANCH  42  56
ATOM     56  C   UNL A   1      42.127  31.587  34.210  1.00  0.00     0.023 A 
ATOM     57  C   UNL A   1      41.320  31.515  35.359  1.00  0.00     0.031 A 
ATOM     58  C   UNL A   1      42.823  32.785  33.969  1.00  0.00     0.131 A 
ATOM     59  C   UNL A   1      41.171  32.643  36.182  1.00  0.00     0.055 A 
ATOM     60  C   UNL A   1      42.732  33.878  34.834  1.00  0.00     0.041 A 
ATOM     61  F   UNL A   1      43.590  32.921  32.876  1.00  0.00    -0.206 F 
ATOM     62  C   UNL A   1      41.890  33.816  35.940  1.00  0.00     0.022 A 
BRANCH  59  63
ATOM     63  S   UNL A   1      39.916  32.604  37.491  1.00  0.00     0.124 S 
ATOM     64  O   UNL A   1      39.068  31.496  37.054  1.00  0.00    -0.237 OA
ATOM     65  O   UNL A   1      40.714  32.365  38.687  1.00  0.00    -0.237 OA
ATOM     66  O   UNL A   1      39.294  33.924  37.409  1.00  0.00    -0.744 OA
ENDBRANCH  59  63
ENDBRANCH  42  56
BRANCH  43  67
ATOM     67  C   UNL A   1      42.378  24.281  27.333  1.00  0.00     0.023 A 
ATOM     68  C   UNL A   1      41.613  23.108  27.426  1.00  0.00     0.031 A 
ATOM     69  C   UNL A   1      43.245  24.419  26.234  1.00  0.00     0.131 A 
ATOM     70  C   UNL A   1      41.756  22.103  26.456  1.00  0.00     0.055 A 
ATOM     71  C   UNL A   1      43.347  23.438  25.247  1.00  0.00     0.041 A 
ATOM     72  F   UNL A   1      44.001  25.521  26.098  1.00  0.00    -0.206 F 
ATOM     73  C   UNL A   1      42.608  22.265  25.361  1.00  0.00     0.022 A 
BRANCH  70  74
ATOM     74  S   UNL A   1      40.866  20.539  26.688  1.00  0.00     0.124 S 
ATOM     75  O   UNL A   1      40.898  20.389  28.138  1.00  0.00    -0.237 OA
ATOM     76  O   UNL A   1      39.564  20.842  26.102  1.00  0.00    -0.237 OA
ATOM     77  O   UNL A   1      41.673  19.575  25.942  1.00  0.00    -0.744 OA
ENDBRANCH  70  74
ENDBRANCH  43  67
BRANCH  55  78
ATOM     78  C   UNL A   1      46.742  26.294  32.383  1.00  0.00     0.023 A 
ATOM     79  C   UNL A   1      46.822  25.253  33.324  1.00  0.00     0.031 A 
ATOM     80  C   UNL A   1      47.942  26.834  31.887  1.00  0.00     0.131 A 
ATOM     81  C   UNL A   1      48.076  24.821  33.782  1.00  0.00     0.055 A 
ATOM     82  C   UNL A   1      49.187  26.363  32.305  1.00  0.00     0.041 A 
ATOM     83  F   UNL A   1      47.922  27.829  30.987  1.00  0.00    -0.206 F 
ATOM     84  C   UNL A   1      49.259  25.359  33.268  1.00  0.00     0.022 A 
BRANCH  81  85
ATOM     85  S   UNL A   1      48.143  23.603  35.125  1.00  0.00     0.124 S 
ATOM     86  O   UNL A   1      48.294  24.455  36.300  1.00  0.00    -0.237 OA
ATOM     87  O   UNL A   1      46.859  22.922  34.994  1.00  0.00    -0.237 OA
ATOM     88  O   UNL A   1      49.312  22.791  34.794  1.00  0.00    -0.744 OA
ENDBRANCH  81  85
ENDBRANCH  55  78
ENDBRANCH  29  30
ENDBRANCH  22  24
ENDBRANCH  21  22
ENDBRANCH  20  21
ENDBRANCH   1  20
TORSDOF 17
ENDMDL
MODEL 2
REMARK VINA RESULT:     -10.3      4.264     12.035
REMARK SMILES Cc1ccc2oc(CCCC(=O)OCCOC(=O)c3ccc(-c4c5nc(c(-c6cc(S(=O)(=O)[O-])ccc6F)c6ccc([nH]6)c(-c6cc(S(=O)(=O)[O-])ccc6F)c6nc(c(-c7cc(S(=O)(=O)[O-])ccc7F)c7ccc4[nH]7)C=C6)C=C5)cc3)cc(=O)c2c1
REMARK SMILES IDX 14 1 13 2 11 3 12 4 10 5 9 6 8 7 7 8 1 9 2 10 3 11 86 12
REMARK SMILES IDX 4 13 85 14 5 15 83 16 6 17 82 18 84 19 15 20 16 21 17 22
REMARK SMILES IDX 18 23 19 24 20 25 81 26 21 27 80 28 22 29 23 30 24 31 74 32
REMARK SMILES IDX 25 33 79 34 73 35 75 36 26 37 78 38 72 39 71 40 27 42 59 43
REMARK SMILES IDX 39 44 58 45 40 46 43 47 57 48 76 49 41 50 42 51 56 53 77 54
REMARK SMILES IDX 44 55 28 56 29 57 37 58 30 59 36 60 38 61 35 62 31 63 32 64
REMARK SMILES IDX 33 65 34 66 60 67 61 68 69 69 62 70 68 71 70 72 67 73 63 74
REMARK SMILES IDX 64 75 65 76 66 77 45 78 46 79 54 80 47 81 53 82 55 83 52 84
REMARK SMILES IDX 48 85 49 86 50 87 51 88
REMARK H PARENT 75 41 43 52
REMARK Flexibility Score: inf
ROOT
ATOM      1  C   UNL A   1      41.826  19.443  26.287  1.00  0.00     0.274 C 
ENDROOT
BRANCH   1   2
ATOM      2  O   UNL A   1      42.672  19.946  25.234  1.00  0.00    -0.462 OA
BRANCH   2   3
ATOM      3  C   UNL A   1      43.896  19.385  25.096  1.00  0.00     0.305 C 
ATOM      4  O   UNL A   1      44.098  18.186  24.943  1.00  0.00    -0.252 OA
BRANCH   3   5
ATOM      5  C   UNL A   1      45.031  20.389  25.164  1.00  0.00     0.123 C 
BRANCH   5   6
ATOM      6  C   UNL A   1      44.988  21.586  24.207  1.00  0.00     0.020 C 
BRANCH   6   7
ATOM      7  C   UNL A   1      44.254  22.854  24.681  1.00  0.00     0.076 C 
BRANCH   7   8
ATOM      8  C   UNL A   1      44.385  23.130  26.155  1.00  0.00     0.108 A 
ATOM      9  C   UNL A   1      46.428  26.138  31.491  1.00  0.00     0.044 C 
ATOM     10  C   UNL A   1      46.217  25.438  30.182  1.00  0.00    -0.050 A 
ATOM     11  C   UNL A   1      47.187  25.503  29.170  1.00  0.00     0.007 A 
ATOM     12  C   UNL A   1      45.042  24.706  29.962  1.00  0.00     0.019 A 
ATOM     13  C   UNL A   1      46.991  24.840  27.958  1.00  0.00     0.048 A 
ATOM     14  C   UNL A   1      44.841  24.066  28.737  1.00  0.00     0.065 A 
ATOM     15  C   UNL A   1      45.816  24.124  27.748  1.00  0.00     0.138 A 
ATOM     16  C   UNL A   1      43.584  23.363  28.434  1.00  0.00     0.192 A 
ATOM     17  O   UNL A   1      45.665  23.504  26.537  1.00  0.00    -0.461 OA
ATOM     18  C   UNL A   1      43.369  23.003  27.019  1.00  0.00     0.095 A 
ATOM     19  O   UNL A   1      42.737  23.129  29.287  1.00  0.00    -0.289 OA
ENDBRANCH   7   8
ENDBRANCH   6   7
ENDBRANCH   5   6
ENDBRANCH   3   5
ENDBRANCH   2   3
ENDBRANCH   1   2
BRANCH   1  20
ATOM     20  C   UNL A   1      40.464  20.139  26.251  1.00  0.00     0.275 C 
BRANCH  20  21
ATOM     21  O   UNL A   1      40.617  21.565  26.363  1.00  0.00    -0.458 OA
BRANCH  21  22
ATOM     22  C   UNL A   1      39.459  22.266  26.313  1.00  0.00     0.338 C 
ATOM     23  O   UNL A   1      38.350  21.843  26.039  1.00  0.00    -0.246 OA
BRANCH  22  24
ATOM     24  C   UNL A   1      39.706  23.632  26.795  1.00  0.00     0.060 A 
ATOM     25  C   UNL A   1      40.132  24.584  25.868  1.00  0.00     0.016 A 
ATOM     26  C   UNL A   1      39.596  23.956  28.146  1.00  0.00     0.016 A 
ATOM     27  C   UNL A   1      40.466  25.868  26.285  1.00  0.00     0.010 A 
ATOM     28  C   UNL A   1      39.923  25.250  28.565  1.00  0.00     0.010 A 
ATOM     29  C   UNL A   1      40.373  26.209  27.638  1.00  0.00    -0.014 A 
BRANCH  29  30
ATOM     30  C   UNL A   1      40.816  27.553  28.082  1.00  0.00     0.031 A 
ATOM     31  C   UNL A   1      42.271  27.917  28.000  1.00  0.00     0.074 A 
ATOM     32  C   UNL A   1      39.912  28.447  28.521  1.00  0.00     0.049 A 
ATOM     33  N   UNL A   1      42.879  28.998  28.413  1.00  0.00    -0.248 NA
ATOM     34  C   UNL A   1      43.157  26.925  27.373  1.00  0.00     0.031 C 
ATOM     35  C   UNL A   1      38.466  28.221  28.588  1.00  0.00     0.029 A 
ATOM     36  N   UNL A   1      40.071  29.726  28.991  1.00  0.00    -0.354 N 
ATOM     37  C   UNL A   1      44.226  28.811  28.116  1.00  0.00     0.074 A 
ATOM     38  C   UNL A   1      44.343  27.500  27.513  1.00  0.00     0.031 C 
ATOM     39  C   UNL A   1      37.873  29.326  29.069  1.00  0.00     0.029 A 
ATOM     40  C   UNL A   1      38.897  30.316  29.394  1.00  0.00     0.049 A 
ATOM     41  H   UNL A   1      40.944  30.179  29.035  1.00  0.00     0.167 HD
ATOM     42  C   UNL A   1      45.264  29.658  28.330  1.00  0.00     0.034 A 
ATOM     43  C   UNL A   1      38.675  31.505  29.987  1.00  0.00     0.034 A 
ATOM     44  C   UNL A   1      45.122  30.962  28.930  1.00  0.00     0.049 A 
ATOM     45  C   UNL A   1      39.851  32.403  30.271  1.00  0.00     0.074 A 
ATOM     46  C   UNL A   1      46.102  31.903  29.199  1.00  0.00     0.029 A 
ATOM     47  N   UNL A   1      43.920  31.514  29.358  1.00  0.00    -0.354 N 
ATOM     48  N   UNL A   1      41.125  32.201  30.019  1.00  0.00    -0.248 NA
ATOM     49  C   UNL A   1      39.561  33.689  30.917  1.00  0.00     0.031 C 
ATOM     50  C   UNL A   1      45.504  32.993  29.840  1.00  0.00     0.029 A 
ATOM     51  C   UNL A   1      44.138  32.768  29.909  1.00  0.00     0.049 A 
ATOM     52  H   UNL A   1      43.041  31.078  29.281  1.00  0.00     0.167 HD
ATOM     53  C   UNL A   1      41.784  33.347  30.455  1.00  0.00     0.074 A 
ATOM     54  C   UNL A   1      40.766  34.239  30.972  1.00  0.00     0.031 C 
ATOM     55  C   UNL A   1      43.110  33.639  30.429  1.00  0.00     0.034 A 
BRANCH  42  56
ATOM     56  C   UNL A   1      46.643  29.163  27.968  1.00  0.00     0.023 A 
ATOM     57  C   UNL A   1      46.996  28.842  26.645  1.00  0.00     0.031 A 
ATOM     58  C   UNL A   1      47.608  28.967  28.972  1.00  0.00     0.131 A 
ATOM     59  C   UNL A   1      48.250  28.274  26.373  1.00  0.00     0.055 A 
ATOM     60  C   UNL A   1      48.883  28.475  28.684  1.00  0.00     0.041 A 
ATOM     61  F   UNL A   1      47.322  29.234  30.256  1.00  0.00    -0.206 F 
ATOM     62  C   UNL A   1      49.205  28.111  27.380  1.00  0.00     0.022 A 
BRANCH  59  63
ATOM     63  S   UNL A   1      48.567  27.620  24.711  1.00  0.00     0.124 S 
ATOM     64  O   UNL A   1      49.878  28.194  24.413  1.00  0.00    -0.237 OA
ATOM     65  O   UNL A   1      48.535  26.179  24.927  1.00  0.00    -0.237 OA
ATOM     66  O   UNL A   1      47.465  28.156  23.915  1.00  0.00    -0.744 OA
ENDBRANCH  59  63
ENDBRANCH  42  56
BRANCH  43  67
ATOM     67  C   UNL A   1      37.297  31.896  30.399  1.00  0.00     0.023 A 
ATOM     68  C   UNL A   1      36.435  32.566  29.517  1.00  0.00     0.031 A 
ATOM     69  C   UNL A   1      36.836  31.635  31.703  1.00  0.00     0.131 A 
ATOM     70  C   UNL A   1      35.171  32.986  29.960  1.00  0.00     0.055 A 
ATOM     71  C   UNL A   1      35.559  32.011  32.122  1.00  0.00     0.041 A 
ATOM     72  F   UNL A   1      37.621  30.998  32.587  1.00  0.00    -0.206 F 
ATOM     73  C   UNL A   1      34.723  32.702  31.252  1.00  0.00     0.022 A 
BRANCH  70  74
ATOM     74  S   UNL A   1      34.145  33.981  28.843  1.00  0.00     0.124 S 
ATOM     75  O   UNL A   1      33.178  34.563  29.766  1.00  0.00    -0.237 OA
ATOM     76  O   UNL A   1      35.123  34.901  28.272  1.00  0.00    -0.237 OA
ATOM     77  O   UNL A   1      33.603  32.995  27.909  1.00  0.00    -0.744 OA
ENDBRANCH  70  74
ENDBRANCH  43  67
BRANCH  55  78
ATOM     78  C   UNL A   1      43.515  35.001  30.932  1.00  0.00     0.023 A 
ATOM     79  C   UNL A   1      43.585  36.115  30.079  1.00  0.00     0.031 A 
ATOM     80  C   UNL A   1      43.855  35.179  32.286  1.00  0.00     0.131 A 
ATOM     81  C   UNL A   1      44.036  37.347  30.575  1.00  0.00     0.055 A 
ATOM     82  C   UNL A   1      44.251  36.420  32.786  1.00  0.00     0.041 A 
ATOM     83  F   UNL A   1      43.806  34.147  33.143  1.00  0.00    -0.206 F 
ATOM     84  C   UNL A   1      44.356  37.510  31.927  1.00  0.00     0.022 A 
BRANCH  81  85
ATOM     85  S   UNL A   1      44.284  38.718  29.414  1.00  0.00     0.124 S 
ATOM     86  O   UNL A   1      45.036  38.075  28.341  1.00  0.00    -0.237 OA
ATOM     87  O   UNL A   1      42.914  39.104  29.089  1.00  0.00    -0.237 OA
ATOM     88  O   UNL A   1      45.035  39.699  30.195  1.00  0.00    -0.744 OA
ENDBRANCH  81  85
ENDBRANCH  55  78
ENDBRANCH  29  30
ENDBRANCH  22  24
ENDBRANCH  21  22
ENDBRANCH  20  21
ENDBRANCH   1  20
TORSDOF 17
ENDMDL
MODEL 3
REMARK VINA RESULT:     -10.3      4.090     11.966
REMARK SMILES Cc1ccc2oc(CCCC(=O)OCCOC(=O)c3ccc(-c4c5nc(c(-c6cc(S(=O)(=O)[O-])ccc6F)c6ccc([nH]6)c(-c6cc(S(=O)(=O)[O-])ccc6F)c6nc(c(-c7cc(S(=O)(=O)[O-])ccc7F)c7ccc4[nH]7)C=C6)C=C5)cc3)cc(=O)c2c1
REMARK SMILES IDX 14 1 13 2 11 3 12 4 10 5 9 6 8 7 7 8 1 9 2 10 3 11 86 12
REMARK SMILES IDX 4 13 85 14 5 15 83 16 6 17 82 18 84 19 15 20 16 21 17 22
REMARK SMILES IDX 18 23 19 24 20 25 81 26 21 27 80 28 22 29 23 30 24 31 74 32
REMARK SMILES IDX 25 33 79 34 73 35 75 36 26 37 78 38 72 39 71 40 27 42 59 43
REMARK SMILES IDX 39 44 58 45 40 46 43 47 57 48 76 49 41 50 42 51 56 53 77 54
REMARK SMILES IDX 44 55 28 56 29 57 37 58 30 59 36 60 38 61 35 62 31 63 32 64
REMARK SMILES IDX 33 65 34 66 60 67 61 68 69 69 62 70 68 71 70 72 67 73 63 74
REMARK SMILES IDX 64 75 65 76 66 77 45 78 46 79 54 80 47 81 53 82 55 83 52 84
REMARK SMILES IDX 48 85 49 86 50 87 51 88
REMARK H PARENT 75 41 43 52
REMARK Flexibility Score: inf
ROOT
ATOM      1  C   UNL A   1      42.117  19.887  26.458  1.00  0.00     0.274 C 
ENDROOT
BRANCH   1   2
ATOM      2  O   UNL A   1      42.730  19.580  25.192  1.00  0.00    -0.462 OA
BRANCH   2   3
ATOM      3  C   UNL A   1      44.035  19.222  25.199  1.00  0.00     0.305 C 
ATOM      4  O   UNL A   1      44.442  18.079  25.373  1.00  0.00    -0.252 OA
BRANCH   3   5
ATOM      5  C   UNL A   1      44.982  20.388  24.987  1.00  0.00     0.123 C 
BRANCH   5   6
ATOM      6  C   UNL A   1      44.574  21.470  23.981  1.00  0.00     0.020 C 
BRANCH   6   7
ATOM      7  C   UNL A   1      45.268  22.840  24.084  1.00  0.00     0.076 C 
BRANCH   7   8
ATOM      8  C   UNL A   1      45.335  23.396  25.481  1.00  0.00     0.108 A 
ATOM      9  C   UNL A   1      44.153  23.732  31.821  1.00  0.00     0.044 C 
ATOM     10  C   UNL A   1      44.158  23.620  30.326  1.00  0.00    -0.050 A 
ATOM     11  C   UNL A   1      43.079  23.035  29.647  1.00  0.00     0.007 A 
ATOM     12  C   UNL A   1      45.249  24.108  29.592  1.00  0.00     0.019 A 
ATOM     13  C   UNL A   1      43.083  22.944  28.254  1.00  0.00     0.048 A 
ATOM     14  C   UNL A   1      45.258  23.991  28.200  1.00  0.00     0.065 A 
ATOM     15  C   UNL A   1      44.175  23.424  27.537  1.00  0.00     0.138 A 
ATOM     16  C   UNL A   1      46.421  24.410  27.400  1.00  0.00     0.192 A 
ATOM     17  O   UNL A   1      44.138  23.299  26.174  1.00  0.00    -0.461 OA
ATOM     18  C   UNL A   1      46.439  23.954  25.997  1.00  0.00     0.095 A 
ATOM     19  O   UNL A   1      47.349  25.054  27.873  1.00  0.00    -0.289 OA
ENDBRANCH   7   8
ENDBRANCH   6   7
ENDBRANCH   5   6
ENDBRANCH   3   5
ENDBRANCH   2   3
ENDBRANCH   1   2
BRANCH   1  20
ATOM     20  C   UNL A   1      40.636  20.218  26.266  1.00  0.00     0.275 C 
BRANCH  20  21
ATOM     21  O   UNL A   1      40.275  21.394  27.012  1.00  0.00    -0.458 OA
BRANCH  21  22
ATOM     22  C   UNL A   1      39.394  22.213  26.390  1.00  0.00     0.338 C 
ATOM     23  O   UNL A   1      38.469  21.892  25.666  1.00  0.00    -0.246 OA
BRANCH  22  24
ATOM     24  C   UNL A   1      39.626  23.594  26.840  1.00  0.00     0.060 A 
ATOM     25  C   UNL A   1      40.086  24.517  25.900  1.00  0.00     0.016 A 
ATOM     26  C   UNL A   1      39.469  23.957  28.176  1.00  0.00     0.016 A 
ATOM     27  C   UNL A   1      40.406  25.813  26.290  1.00  0.00     0.010 A 
ATOM     28  C   UNL A   1      39.783  25.263  28.567  1.00  0.00     0.010 A 
ATOM     29  C   UNL A   1      40.266  26.194  27.628  1.00  0.00    -0.014 A 
BRANCH  29  30
ATOM     30  C   UNL A   1      40.695  27.550  28.049  1.00  0.00     0.031 A 
ATOM     31  C   UNL A   1      42.152  27.910  28.013  1.00  0.00     0.074 A 
ATOM     32  C   UNL A   1      39.776  28.459  28.423  1.00  0.00     0.049 A 
ATOM     33  N   UNL A   1      42.747  29.002  28.415  1.00  0.00    -0.248 NA
ATOM     34  C   UNL A   1      43.060  26.898  27.452  1.00  0.00     0.031 C 
ATOM     35  C   UNL A   1      38.329  28.237  28.440  1.00  0.00     0.029 A 
ATOM     36  N   UNL A   1      39.920  29.752  28.859  1.00  0.00    -0.354 N 
ATOM     37  C   UNL A   1      44.104  28.804  28.178  1.00  0.00     0.074 A 
ATOM     38  C   UNL A   1      44.241  27.474  27.621  1.00  0.00     0.031 C 
ATOM     39  C   UNL A   1      37.720  29.358  28.862  1.00  0.00     0.029 A 
ATOM     40  C   UNL A   1      38.732  30.355  29.197  1.00  0.00     0.049 A 
ATOM     41  H   UNL A   1      40.792  30.205  28.924  1.00  0.00     0.167 HD
ATOM     42  C   UNL A   1      45.135  29.656  28.406  1.00  0.00     0.034 A 
ATOM     43  C   UNL A   1      38.491  31.563  29.744  1.00  0.00     0.034 A 
ATOM     44  C   UNL A   1      44.973  30.978  28.960  1.00  0.00     0.049 A 
ATOM     45  C   UNL A   1      39.657  32.468  30.046  1.00  0.00     0.074 A 
ATOM     46  C   UNL A   1      45.944  31.925  29.238  1.00  0.00     0.029 A 
ATOM     47  N   UNL A   1      43.756  31.545  29.323  1.00  0.00    -0.354 N 
ATOM     48  N   UNL A   1      40.939  32.256  29.851  1.00  0.00    -0.248 NA
ATOM     49  C   UNL A   1      39.344  33.773  30.640  1.00  0.00     0.031 C 
ATOM     50  C   UNL A   1      45.324  33.036  29.821  1.00  0.00     0.029 A 
ATOM     51  C   UNL A   1      43.955  32.815  29.843  1.00  0.00     0.049 A 
ATOM     52  H   UNL A   1      42.880  31.107  29.224  1.00  0.00     0.167 HD
ATOM     53  C   UNL A   1      41.583  33.414  30.277  1.00  0.00     0.074 A 
ATOM     54  C   UNL A   1      40.548  34.323  30.726  1.00  0.00     0.031 C 
ATOM     55  C   UNL A   1      42.910  33.703  30.294  1.00  0.00     0.034 A 
BRANCH  42  56
ATOM     56  C   UNL A   1      46.526  29.148  28.115  1.00  0.00     0.023 A 
ATOM     57  C   UNL A   1      46.974  28.915  26.802  1.00  0.00     0.031 A 
ATOM     58  C   UNL A   1      47.404  28.850  29.172  1.00  0.00     0.131 A 
ATOM     59  C   UNL A   1      48.232  28.331  26.585  1.00  0.00     0.055 A 
ATOM     60  C   UNL A   1      48.686  28.343  28.946  1.00  0.00     0.041 A 
ATOM     61  F   UNL A   1      47.024  29.029  30.447  1.00  0.00    -0.206 F 
ATOM     62  C   UNL A   1      49.100  28.066  27.647  1.00  0.00     0.022 A 
BRANCH  59  63
ATOM     63  S   UNL A   1      48.662  27.793  24.907  1.00  0.00     0.124 S 
ATOM     64  O   UNL A   1      47.480  28.206  24.152  1.00  0.00    -0.237 OA
ATOM     65  O   UNL A   1      49.885  28.540  24.639  1.00  0.00    -0.237 OA
ATOM     66  O   UNL A   1      48.831  26.348  25.043  1.00  0.00    -0.744 OA
ENDBRANCH  59  63
ENDBRANCH  42  56
BRANCH  43  67
ATOM     67  C   UNL A   1      37.098  31.968  30.088  1.00  0.00     0.023 A 
ATOM     68  C   UNL A   1      36.237  32.512  29.122  1.00  0.00     0.031 A 
ATOM     69  C   UNL A   1      36.621  31.850  31.407  1.00  0.00     0.131 A 
ATOM     70  C   UNL A   1      34.958  32.953  29.497  1.00  0.00     0.055 A 
ATOM     71  C   UNL A   1      35.331  32.244  31.763  1.00  0.00     0.041 A 
ATOM     72  F   UNL A   1      37.404  31.338  32.370  1.00  0.00    -0.206 F 
ATOM     73  C   UNL A   1      34.495  32.811  30.807  1.00  0.00     0.022 A 
BRANCH  70  74
ATOM     74  S   UNL A   1      33.930  33.789  28.257  1.00  0.00     0.124 S 
ATOM     75  O   UNL A   1      33.251  32.664  27.625  1.00  0.00    -0.237 OA
ATOM     76  O   UNL A   1      33.100  34.655  29.088  1.00  0.00    -0.237 OA
ATOM     77  O   UNL A   1      34.905  34.483  27.418  1.00  0.00    -0.744 OA
ENDBRANCH  70  74
ENDBRANCH  43  67
BRANCH  55  78
ATOM     78  C   UNL A   1      43.299  35.079  30.771  1.00  0.00     0.023 A 
ATOM     79  C   UNL A   1      43.469  35.370  32.135  1.00  0.00     0.031 A 
ATOM     80  C   UNL A   1      43.484  36.119  29.842  1.00  0.00     0.131 A 
ATOM     81  C   UNL A   1      43.761  36.681  32.539  1.00  0.00     0.055 A 
ATOM     82  C   UNL A   1      43.828  37.410  30.246  1.00  0.00     0.041 A 
ATOM     83  F   UNL A   1      43.333  35.895  28.528  1.00  0.00    -0.206 F 
ATOM     84  C   UNL A   1      43.956  37.700  31.601  1.00  0.00     0.022 A 
BRANCH  81  85
ATOM     85  S   UNL A   1      43.799  37.062  34.312  1.00  0.00     0.124 S 
ATOM     86  O   UNL A   1      42.758  38.078  34.426  1.00  0.00    -0.237 OA
ATOM     87  O   UNL A   1      43.495  35.769  34.916  1.00  0.00    -0.237 OA
ATOM     88  O   UNL A   1      45.161  37.543  34.531  1.00  0.00    -0.744 OA
ENDBRANCH  81  85
ENDBRANCH  55  78
ENDBRANCH  29  30
ENDBRANCH  22  24
ENDBRANCH  21  22
ENDBRANCH  20  21
ENDBRANCH   1  20
TORSDOF 17
ENDMDL
