MODEL 1
REMARK VINA RESULT:      -9.9      0.000      0.000
REMARK SMILES C[C@@]([NH2+]CCCO)(C(=O)OCCOC(=O)c1ccc(-c2c3nc(c(-c4cc(S(=O)(=O)[O-])ccc4F)c4ccc([nH]4)c(-c4cc(S(=O)(=O)[O-])ccc4F)c4nc(c(-c5cc(S(=O)(=O)[O-])ccc5F)c5ccc2[nH]5)C=C4)C=C3)cc1)C(F)(F)F
REMARK SMILES IDX 11 1 10 2 8 3 9 4 2 5 1 6 3 7 4 10 5 11 6 12 7 13 79 15
REMARK SMILES IDX 80 16 81 17 82 18 12 19 13 20 14 21 15 22 16 23 17 24 78 25
REMARK SMILES IDX 18 26 77 27 19 28 20 29 21 30 71 31 22 32 76 33 70 34 72 35
REMARK SMILES IDX 23 36 75 37 69 38 68 39 24 41 56 42 36 43 55 44 37 45 40 46
REMARK SMILES IDX 54 47 73 48 38 49 39 50 53 52 74 53 41 54 25 55 26 56 34 57
REMARK SMILES IDX 27 58 33 59 35 60 32 61 28 62 29 63 30 64 31 65 57 66 58 67
REMARK SMILES IDX 66 68 59 69 65 70 67 71 64 72 60 73 61 74 62 75 63 76 42 77
REMARK SMILES IDX 43 78 51 79 44 80 50 81 52 82 49 83 45 84 46 85 47 86 48 87
REMARK H PARENT 3 8 3 9 7 14 72 40 40 51
REMARK Flexibility Score: inf
ROOT
ATOM      1  C   UNL A   1      33.079  34.842  28.682  1.00  0.00     0.274 C 
ENDROOT
BRANCH   1   2
ATOM      2  O   UNL A   1      33.206  34.831  30.120  1.00  0.00    -0.457 OA
BRANCH   2   3
ATOM      3  C   UNL A   1      32.832  35.971  30.771  1.00  0.00     0.377 C 
ATOM      4  O   UNL A   1      32.605  37.024  30.185  1.00  0.00    -0.244 OA
BRANCH   3   5
ATOM      5  C   UNL A   1      32.777  35.809  32.300  1.00  0.00     0.287 C 
ATOM      6  C   UNL A   1      31.358  36.103  32.839  1.00  0.00     0.103 C 
BRANCH   5   7
ATOM      7  N   UNL A   1      33.054  34.388  32.754  1.00  0.00    -0.325 N 
ATOM      8  H   UNL A   1      32.998  33.794  31.928  1.00  0.00     0.347 HD
ATOM      9  H   UNL A   1      32.356  34.222  33.480  1.00  0.00     0.347 HD
BRANCH   7  10
ATOM     10  C   UNL A   1      34.330  34.094  33.413  1.00  0.00     0.264 C 
BRANCH  10  11
ATOM     11  C   UNL A   1      35.517  33.609  32.570  1.00  0.00     0.089 C 
BRANCH  11  12
ATOM     12  C   UNL A   1      35.354  32.226  31.955  1.00  0.00     0.162 C 
BRANCH  12  13
ATOM     13  O   UNL A   1      34.188  32.166  31.146  1.00  0.00    -0.396 OA
ATOM     14  H   UNL A   1      33.594  31.477  31.484  1.00  0.00     0.210 HD
ENDBRANCH  12  13
ENDBRANCH  11  12
ENDBRANCH  10  11
ENDBRANCH   7  10
ENDBRANCH   5   7
BRANCH   5  15
ATOM     15  C   UNL A   1      33.698  36.898  32.890  1.00  0.00     0.455 C 
ATOM     16  F   UNL A   1      33.383  38.128  32.429  1.00  0.00    -0.164 F 
ATOM     17  F   UNL A   1      33.562  36.931  34.242  1.00  0.00    -0.164 F 
ATOM     18  F   UNL A   1      35.005  36.688  32.649  1.00  0.00    -0.164 F 
ENDBRANCH   5  15
ENDBRANCH   3   5
ENDBRANCH   2   3
ENDBRANCH   1   2
BRANCH   1  19
ATOM     19  C   UNL A   1      34.041  33.850  28.034  1.00  0.00     0.275 C 
BRANCH  19  20
ATOM     20  O   UNL A   1      33.703  32.521  28.457  1.00  0.00    -0.458 OA
BRANCH  20  21
ATOM     21  C   UNL A   1      34.163  31.513  27.680  1.00  0.00     0.338 C 
ATOM     22  O   UNL A   1      33.610  31.018  26.714  1.00  0.00    -0.246 OA
BRANCH  21  23
ATOM     23  C   UNL A   1      35.476  31.075  28.188  1.00  0.00     0.060 A 
ATOM     24  C   UNL A   1      35.629  29.783  28.685  1.00  0.00     0.016 A 
ATOM     25  C   UNL A   1      36.534  31.978  28.261  1.00  0.00     0.016 A 
ATOM     26  C   UNL A   1      36.801  29.409  29.335  1.00  0.00     0.010 A 
ATOM     27  C   UNL A   1      37.750  31.568  28.822  1.00  0.00     0.010 A 
ATOM     28  C   UNL A   1      37.886  30.289  29.394  1.00  0.00    -0.014 A 
BRANCH  28  29
ATOM     29  C   UNL A   1      39.138  29.888  30.092  1.00  0.00     0.031 A 
ATOM     30  C   UNL A   1      40.045  28.861  29.466  1.00  0.00     0.074 A 
ATOM     31  C   UNL A   1      39.480  30.453  31.268  1.00  0.00     0.049 A 
ATOM     32  N   UNL A   1      41.058  28.222  29.987  1.00  0.00    -0.248 NA
ATOM     33  C   UNL A   1      39.759  28.499  28.068  1.00  0.00     0.031 C 
ATOM     34  C   UNL A   1      38.730  31.510  31.951  1.00  0.00     0.029 A 
ATOM     35  N   UNL A   1      40.550  30.223  32.098  1.00  0.00    -0.354 N 
ATOM     36  C   UNL A   1      41.495  27.336  29.005  1.00  0.00     0.074 A 
ATOM     37  C   UNL A   1      40.634  27.526  27.857  1.00  0.00     0.031 C 
ATOM     38  C   UNL A   1      39.378  31.858  33.073  1.00  0.00     0.029 A 
ATOM     39  C   UNL A   1      40.533  30.986  33.244  1.00  0.00     0.049 A 
ATOM     40  H   UNL A   1      41.261  29.574  31.893  1.00  0.00     0.167 HD
ATOM     41  C   UNL A   1      42.514  26.444  29.067  1.00  0.00     0.034 A 
ATOM     42  C   UNL A   1      41.323  30.950  34.336  1.00  0.00     0.034 A 
ATOM     43  C   UNL A   1      43.389  26.304  30.206  1.00  0.00     0.049 A 
ATOM     44  C   UNL A   1      42.425  29.926  34.396  1.00  0.00     0.074 A 
ATOM     45  C   UNL A   1      44.449  25.430  30.379  1.00  0.00     0.029 A 
ATOM     46  N   UNL A   1      43.316  27.070  31.361  1.00  0.00    -0.354 N 
ATOM     47  N   UNL A   1      42.765  29.027  33.502  1.00  0.00    -0.248 NA
ATOM     48  C   UNL A   1      43.233  29.896  35.621  1.00  0.00     0.031 C 
ATOM     49  C   UNL A   1      44.984  25.635  31.656  1.00  0.00     0.029 A 
ATOM     50  C   UNL A   1      44.297  26.678  32.258  1.00  0.00     0.049 A 
ATOM     51  H   UNL A   1      42.661  27.787  31.521  1.00  0.00     0.167 HD
ATOM     52  C   UNL A   1      43.831  28.327  34.056  1.00  0.00     0.074 A 
ATOM     53  C   UNL A   1      44.093  28.925  35.350  1.00  0.00     0.031 C 
ATOM     54  C   UNL A   1      44.527  27.277  33.549  1.00  0.00     0.034 A 
BRANCH  41  55
ATOM     55  C   UNL A   1      42.683  25.503  27.899  1.00  0.00     0.023 A 
ATOM     56  C   UNL A   1      42.015  24.269  27.825  1.00  0.00     0.031 A 
ATOM     57  C   UNL A   1      43.559  25.844  26.852  1.00  0.00     0.131 A 
ATOM     58  C   UNL A   1      42.277  23.397  26.756  1.00  0.00     0.055 A 
ATOM     59  C   UNL A   1      43.763  25.002  25.758  1.00  0.00     0.041 A 
ATOM     60  F   UNL A   1      44.240  27.001  26.881  1.00  0.00    -0.206 F 
ATOM     61  C   UNL A   1      43.129  23.764  25.712  1.00  0.00     0.022 A 
BRANCH  58  62
ATOM     62  S   UNL A   1      41.580  21.722  26.805  1.00  0.00     0.124 S 
ATOM     63  O   UNL A   1      42.351  21.113  27.886  1.00  0.00    -0.237 OA
ATOM     64  O   UNL A   1      40.172  21.975  27.089  1.00  0.00    -0.237 OA
ATOM     65  O   UNL A   1      41.861  21.194  25.473  1.00  0.00    -0.744 OA
ENDBRANCH  58  62
ENDBRANCH  41  55
BRANCH  42  66
ATOM     66  C   UNL A   1      41.049  31.846  35.497  1.00  0.00     0.023 A 
ATOM     67  C   UNL A   1      39.887  31.703  36.271  1.00  0.00     0.031 A 
ATOM     68  C   UNL A   1      41.931  32.894  35.820  1.00  0.00     0.131 A 
ATOM     69  C   UNL A   1      39.621  32.611  37.308  1.00  0.00     0.055 A 
ATOM     70  C   UNL A   1      41.690  33.761  36.888  1.00  0.00     0.041 A 
ATOM     71  F   UNL A   1      43.054  33.081  35.109  1.00  0.00    -0.206 F 
ATOM     72  C   UNL A   1      40.522  33.629  37.631  1.00  0.00     0.022 A 
BRANCH  69  73
ATOM     73  S   UNL A   1      38.033  32.499  38.178  1.00  0.00     0.124 S 
ATOM     74  O   UNL A   1      37.278  33.585  37.563  1.00  0.00    -0.237 OA
ATOM     75  O   UNL A   1      37.600  31.147  37.845  1.00  0.00    -0.237 OA
ATOM     76  O   UNL A   1      38.398  32.707  39.579  1.00  0.00    -0.744 OA
ENDBRANCH  69  73
ENDBRANCH  42  66
BRANCH  54  77
ATOM     77  C   UNL A   1      45.651  26.744  34.397  1.00  0.00     0.023 A 
ATOM     78  C   UNL A   1      45.434  25.736  35.352  1.00  0.00     0.031 A 
ATOM     79  C   UNL A   1      46.947  27.273  34.269  1.00  0.00     0.131 A 
ATOM     80  C   UNL A   1      46.488  25.322  36.181  1.00  0.00     0.055 A 
ATOM     81  C   UNL A   1      48.002  26.824  35.062  1.00  0.00     0.041 A 
ATOM     82  F   UNL A   1      47.204  28.239  33.373  1.00  0.00    -0.206 F 
ATOM     83  C   UNL A   1      47.773  25.852  36.033  1.00  0.00     0.022 A 
BRANCH  80  84
ATOM     84  S   UNL A   1      46.139  24.138  37.510  1.00  0.00     0.124 S 
ATOM     85  O   UNL A   1      47.341  24.240  38.331  1.00  0.00    -0.237 OA
ATOM     86  O   UNL A   1      44.917  24.678  38.098  1.00  0.00    -0.237 OA
ATOM     87  O   UNL A   1      45.977  22.869  36.804  1.00  0.00    -0.744 OA
ENDBRANCH  80  84
ENDBRANCH  54  77
ENDBRANCH  28  29
ENDBRANCH  21  23
ENDBRANCH  20  21
ENDBRANCH  19  20
ENDBRANCH   1  19
TORSDOF 20
ENDMDL
MODEL 2
REMARK VINA RESULT:      -9.8      6.263     11.765
REMARK SMILES C[C@@]([NH2+]CCCO)(C(=O)OCCOC(=O)c1ccc(-c2c3nc(c(-c4cc(S(=O)(=O)[O-])ccc4F)c4ccc([nH]4)c(-c4cc(S(=O)(=O)[O-])ccc4F)c4nc(c(-c5cc(S(=O)(=O)[O-])ccc5F)c5ccc2[nH]5)C=C4)C=C3)cc1)C(F)(F)F
REMARK SMILES IDX 11 1 10 2 8 3 9 4 2 5 1 6 3 7 4 10 5 11 6 12 7 13 79 15
REMARK SMILES IDX 80 16 81 17 82 18 12 19 13 20 14 21 15 22 16 23 17 24 78 25
REMARK SMILES IDX 18 26 77 27 19 28 20 29 21 30 71 31 22 32 76 33 70 34 72 35
REMARK SMILES IDX 23 36 75 37 69 38 68 39 24 41 56 42 36 43 55 44 37 45 40 46
REMARK SMILES IDX 54 47 73 48 38 49 39 50 53 52 74 53 41 54 25 55 26 56 34 57
REMARK SMILES IDX 27 58 33 59 35 60 32 61 28 62 29 63 30 64 31 65 57 66 58 67
REMARK SMILES IDX 66 68 59 69 65 70 67 71 64 72 60 73 61 74 62 75 63 76 42 77
REMARK SMILES IDX 43 78 51 79 44 80 50 81 52 82 49 83 45 84 46 85 47 86 48 87
REMARK H PARENT 3 8 3 9 7 14 72 40 40 51
REMARK Flexibility Score: inf
ROOT
ATOM      1  C   UNL A   1      35.825  20.283  25.022  1.00  0.00     0.274 C 
ENDROOT
BRANCH   1   2
ATOM      2  O   UNL A   1      34.979  21.235  24.343  1.00  0.00    -0.457 OA
BRANCH   2   3
ATOM      3  C   UNL A   1      33.974  21.789  25.082  1.00  0.00     0.377 C 
ATOM      4  O   UNL A   1      33.448  21.209  26.025  1.00  0.00    -0.244 OA
BRANCH   3   5
ATOM      5  C   UNL A   1      33.544  23.179  24.580  1.00  0.00     0.287 C 
ATOM      6  C   UNL A   1      33.929  23.378  23.096  1.00  0.00     0.103 C 
BRANCH   5   7
ATOM      7  N   UNL A   1      32.039  23.374  24.595  1.00  0.00    -0.325 N 
ATOM      8  H   UNL A   1      31.640  22.581  25.098  1.00  0.00     0.347 HD
ATOM      9  H   UNL A   1      31.792  23.456  23.609  1.00  0.00     0.347 HD
BRANCH   7  10
ATOM     10  C   UNL A   1      31.491  24.590  25.203  1.00  0.00     0.264 C 
BRANCH  10  11
ATOM     11  C   UNL A   1      30.359  24.472  26.232  1.00  0.00     0.089 C 
BRANCH  11  12
ATOM     12  C   UNL A   1      30.192  23.093  26.856  1.00  0.00     0.162 C 
BRANCH  12  13
ATOM     13  O   UNL A   1      31.381  22.692  27.522  1.00  0.00    -0.396 OA
ATOM     14  H   UNL A   1      31.572  21.764  27.312  1.00  0.00     0.210 HD
ENDBRANCH  12  13
ENDBRANCH  11  12
ENDBRANCH  10  11
ENDBRANCH   7  10
ENDBRANCH   5   7
BRANCH   5  15
ATOM     15  C   UNL A   1      34.366  24.209  25.383  1.00  0.00     0.455 C 
ATOM     16  F   UNL A   1      35.682  23.904  25.395  1.00  0.00    -0.164 F 
ATOM     17  F   UNL A   1      34.246  25.437  24.812  1.00  0.00    -0.164 F 
ATOM     18  F   UNL A   1      33.961  24.346  26.659  1.00  0.00    -0.164 F 
ENDBRANCH   5  15
ENDBRANCH   3   5
ENDBRANCH   2   3
ENDBRANCH   1   2
BRANCH   1  19
ATOM     19  C   UNL A   1      37.295  20.505  24.679  1.00  0.00     0.275 C 
BRANCH  19  20
ATOM     20  O   UNL A   1      37.841  21.497  25.561  1.00  0.00    -0.458 OA
BRANCH  20  21
ATOM     21  C   UNL A   1      39.066  21.232  26.070  1.00  0.00     0.338 C 
ATOM     22  O   UNL A   1      39.639  20.157  26.086  1.00  0.00    -0.246 OA
BRANCH  21  23
ATOM     23  C   UNL A   1      39.632  22.473  26.630  1.00  0.00     0.060 A 
ATOM     24  C   UNL A   1      39.193  23.707  26.156  1.00  0.00     0.016 A 
ATOM     25  C   UNL A   1      40.668  22.413  27.559  1.00  0.00     0.016 A 
ATOM     26  C   UNL A   1      39.839  24.880  26.535  1.00  0.00     0.010 A 
ATOM     27  C   UNL A   1      41.249  23.601  28.019  1.00  0.00     0.010 A 
ATOM     28  C   UNL A   1      40.862  24.846  27.488  1.00  0.00    -0.014 A 
BRANCH  28  29
ATOM     29  C   UNL A   1      41.553  26.102  27.890  1.00  0.00     0.031 A 
ATOM     30  C   UNL A   1      40.818  27.127  28.713  1.00  0.00     0.074 A 
ATOM     31  C   UNL A   1      42.839  26.319  27.544  1.00  0.00     0.049 A 
ATOM     32  N   UNL A   1      41.149  28.360  28.990  1.00  0.00    -0.248 NA
ATOM     33  C   UNL A   1      39.529  26.707  29.286  1.00  0.00     0.031 C 
ATOM     34  C   UNL A   1      43.690  25.379  26.809  1.00  0.00     0.029 A 
ATOM     35  N   UNL A   1      43.659  27.397  27.769  1.00  0.00    -0.354 N 
ATOM     36  C   UNL A   1      40.085  28.885  29.719  1.00  0.00     0.074 A 
ATOM     37  C   UNL A   1      39.100  27.832  29.840  1.00  0.00     0.031 C 
ATOM     38  C   UNL A   1      44.916  25.906  26.675  1.00  0.00     0.029 A 
ATOM     39  C   UNL A   1      44.915  27.257  27.222  1.00  0.00     0.049 A 
ATOM     40  H   UNL A   1      43.377  28.194  28.273  1.00  0.00     0.167 HD
ATOM     41  C   UNL A   1      39.946  30.134  30.228  1.00  0.00     0.034 A 
ATOM     42  C   UNL A   1      45.933  28.136  27.120  1.00  0.00     0.034 A 
ATOM     43  C   UNL A   1      40.962  31.155  30.136  1.00  0.00     0.049 A 
ATOM     44  C   UNL A   1      45.740  29.528  27.660  1.00  0.00     0.074 A 
ATOM     45  C   UNL A   1      40.926  32.456  30.609  1.00  0.00     0.029 A 
ATOM     46  N   UNL A   1      42.205  30.985  29.542  1.00  0.00    -0.354 N 
ATOM     47  N   UNL A   1      44.692  30.043  28.259  1.00  0.00    -0.248 NA
ATOM     48  C   UNL A   1      46.859  30.463  27.491  1.00  0.00     0.031 C 
ATOM     49  C   UNL A   1      42.127  33.085  30.260  1.00  0.00     0.029 A 
ATOM     50  C   UNL A   1      42.937  32.160  29.620  1.00  0.00     0.049 A 
ATOM     51  H   UNL A   1      42.521  30.152  29.124  1.00  0.00     0.167 HD
ATOM     52  C   UNL A   1      45.027  31.363  28.541  1.00  0.00     0.074 A 
ATOM     53  C   UNL A   1      46.384  31.556  28.070  1.00  0.00     0.031 C 
ATOM     54  C   UNL A   1      44.281  32.334  29.127  1.00  0.00     0.034 A 
BRANCH  41  55
ATOM     55  C   UNL A   1      38.621  30.482  30.859  1.00  0.00     0.023 A 
ATOM     56  C   UNL A   1      37.591  31.116  30.145  1.00  0.00     0.031 A 
ATOM     57  C   UNL A   1      38.401  30.193  32.219  1.00  0.00     0.131 A 
ATOM     58  C   UNL A   1      36.411  31.493  30.808  1.00  0.00     0.055 A 
ATOM     59  C   UNL A   1      37.200  30.508  32.856  1.00  0.00     0.041 A 
ATOM     60  F   UNL A   1      39.358  29.607  32.956  1.00  0.00    -0.206 F 
ATOM     61  C   UNL A   1      36.200  31.174  32.152  1.00  0.00     0.022 A 
BRANCH  58  62
ATOM     62  S   UNL A   1      35.199  32.512  29.921  1.00  0.00     0.124 S 
ATOM     63  O   UNL A   1      34.784  31.611  28.849  1.00  0.00    -0.237 OA
ATOM     64  O   UNL A   1      34.202  32.784  30.950  1.00  0.00    -0.237 OA
ATOM     65  O   UNL A   1      35.977  33.670  29.487  1.00  0.00    -0.744 OA
ENDBRANCH  58  62
ENDBRANCH  41  55
BRANCH  42  66
ATOM     66  C   UNL A   1      47.186  27.761  26.404  1.00  0.00     0.023 A 
ATOM     67  C   UNL A   1      47.316  27.941  25.018  1.00  0.00     0.031 A 
ATOM     68  C   UNL A   1      48.261  27.171  27.095  1.00  0.00     0.131 A 
ATOM     69  C   UNL A   1      48.479  27.506  24.362  1.00  0.00     0.055 A 
ATOM     70  C   UNL A   1      49.438  26.792  26.448  1.00  0.00     0.041 A 
ATOM     71  F   UNL A   1      48.187  26.970  28.421  1.00  0.00    -0.206 F 
ATOM     72  C   UNL A   1      49.546  26.947  25.070  1.00  0.00     0.022 A 
BRANCH  69  73
ATOM     73  S   UNL A   1      48.546  27.600  22.552  1.00  0.00     0.124 S 
ATOM     74  O   UNL A   1      48.612  26.191  22.181  1.00  0.00    -0.237 OA
ATOM     75  O   UNL A   1      47.299  28.289  22.238  1.00  0.00    -0.237 OA
ATOM     76  O   UNL A   1      49.762  28.370  22.296  1.00  0.00    -0.744 OA
ENDBRANCH  69  73
ENDBRANCH  42  66
BRANCH  54  77
ATOM     77  C   UNL A   1      44.944  33.673  29.308  1.00  0.00     0.023 A 
ATOM     78  C   UNL A   1      44.804  34.695  28.354  1.00  0.00     0.031 A 
ATOM     79  C   UNL A   1      45.748  33.918  30.434  1.00  0.00     0.131 A 
ATOM     80  C   UNL A   1      45.504  35.900  28.516  1.00  0.00     0.055 A 
ATOM     81  C   UNL A   1      46.402  35.136  30.615  1.00  0.00     0.041 A 
ATOM     82  F   UNL A   1      45.914  32.972  31.374  1.00  0.00    -0.206 F 
ATOM     83  C   UNL A   1      46.292  36.132  29.647  1.00  0.00     0.022 A 
BRANCH  80  84
ATOM     84  S   UNL A   1      45.433  37.135  27.189  1.00  0.00     0.124 S 
ATOM     85  O   UNL A   1      46.259  36.518  26.156  1.00  0.00    -0.237 OA
ATOM     86  O   UNL A   1      44.003  37.206  26.904  1.00  0.00    -0.237 OA
ATOM     87  O   UNL A   1      46.001  38.332  27.804  1.00  0.00    -0.744 OA
ENDBRANCH  80  84
ENDBRANCH  54  77
ENDBRANCH  28  29
ENDBRANCH  21  23
ENDBRANCH  20  21
ENDBRANCH  19  20
ENDBRANCH   1  19
TORSDOF 20
ENDMDL
MODEL 3
REMARK VINA RESULT:      -9.7      6.574     12.028
REMARK SMILES C[C@@]([NH2+]CCCO)(C(=O)OCCOC(=O)c1ccc(-c2c3nc(c(-c4cc(S(=O)(=O)[O-])ccc4F)c4ccc([nH]4)c(-c4cc(S(=O)(=O)[O-])ccc4F)c4nc(c(-c5cc(S(=O)(=O)[O-])ccc5F)c5ccc2[nH]5)C=C4)C=C3)cc1)C(F)(F)F
REMARK SMILES IDX 11 1 10 2 8 3 9 4 2 5 1 6 3 7 4 10 5 11 6 12 7 13 79 15
REMARK SMILES IDX 80 16 81 17 82 18 12 19 13 20 14 21 15 22 16 23 17 24 78 25
REMARK SMILES IDX 18 26 77 27 19 28 20 29 21 30 71 31 22 32 76 33 70 34 72 35
REMARK SMILES IDX 23 36 75 37 69 38 68 39 24 41 56 42 36 43 55 44 37 45 40 46
REMARK SMILES IDX 54 47 73 48 38 49 39 50 53 52 74 53 41 54 25 55 26 56 34 57
REMARK SMILES IDX 27 58 33 59 35 60 32 61 28 62 29 63 30 64 31 65 57 66 58 67
REMARK SMILES IDX 66 68 59 69 65 70 67 71 64 72 60 73 61 74 62 75 63 76 42 77
REMARK SMILES IDX 43 78 51 79 44 80 50 81 52 82 49 83 45 84 46 85 47 86 48 87
REMARK H PARENT 3 8 3 9 7 14 72 40 40 51
REMARK Flexibility Score: inf
ROOT
ATOM      1  C   UNL A   1      36.042  22.482  23.903  1.00  0.00     0.274 C 
ENDROOT
BRANCH   1   2
ATOM      2  O   UNL A   1      35.087  22.601  24.980  1.00  0.00    -0.457 OA
BRANCH   2   3
ATOM      3  C   UNL A   1      33.793  22.282  24.681  1.00  0.00     0.377 C 
ATOM      4  O   UNL A   1      33.311  22.447  23.567  1.00  0.00    -0.244 OA
BRANCH   3   5
ATOM      5  C   UNL A   1      33.003  21.749  25.889  1.00  0.00     0.287 C 
ATOM      6  C   UNL A   1      31.483  21.759  25.607  1.00  0.00     0.103 C 
BRANCH   5   7
ATOM      7  N   UNL A   1      33.307  20.295  26.199  1.00  0.00    -0.325 N 
ATOM      8  H   UNL A   1      32.921  20.099  27.123  1.00  0.00     0.347 HD
ATOM      9  H   UNL A   1      34.321  20.231  26.109  1.00  0.00     0.347 HD
BRANCH   7  10
ATOM     10  C   UNL A   1      32.802  19.260  25.292  1.00  0.00     0.264 C 
BRANCH  10  11
ATOM     11  C   UNL A   1      33.772  18.572  24.322  1.00  0.00     0.089 C 
BRANCH  11  12
ATOM     12  C   UNL A   1      33.127  17.620  23.325  1.00  0.00     0.162 C 
BRANCH  12  13
ATOM     13  O   UNL A   1      34.105  16.796  22.706  1.00  0.00    -0.396 OA
ATOM     14  H   UNL A   1      34.719  17.350  22.197  1.00  0.00     0.210 HD
ENDBRANCH  12  13
ENDBRANCH  11  12
ENDBRANCH  10  11
ENDBRANCH   7  10
ENDBRANCH   5   7
BRANCH   5  15
ATOM     15  C   UNL A   1      33.236  22.748  27.042  1.00  0.00     0.455 C 
ATOM     16  F   UNL A   1      32.364  22.559  28.056  1.00  0.00    -0.164 F 
ATOM     17  F   UNL A   1      34.485  22.579  27.551  1.00  0.00    -0.164 F 
ATOM     18  F   UNL A   1      33.157  24.037  26.662  1.00  0.00    -0.164 F 
ENDBRANCH   5  15
ENDBRANCH   3   5
ENDBRANCH   2   3
ENDBRANCH   1   2
BRANCH   1  19
ATOM     19  C   UNL A   1      37.156  21.502  24.258  1.00  0.00     0.275 C 
BRANCH  19  20
ATOM     20  O   UNL A   1      37.502  21.660  25.642  1.00  0.00    -0.458 OA
BRANCH  20  21
ATOM     21  C   UNL A   1      38.777  21.355  25.976  1.00  0.00     0.338 C 
ATOM     22  O   UNL A   1      39.339  20.284  25.832  1.00  0.00    -0.246 OA
BRANCH  21  23
ATOM     23  C   UNL A   1      39.416  22.545  26.568  1.00  0.00     0.060 A 
ATOM     24  C   UNL A   1      39.001  23.816  26.180  1.00  0.00     0.016 A 
ATOM     25  C   UNL A   1      40.494  22.401  27.438  1.00  0.00     0.016 A 
ATOM     26  C   UNL A   1      39.708  24.945  26.584  1.00  0.00     0.010 A 
ATOM     27  C   UNL A   1      41.141  23.542  27.927  1.00  0.00     0.010 A 
ATOM     28  C   UNL A   1      40.775  24.826  27.479  1.00  0.00    -0.014 A 
BRANCH  28  29
ATOM     29  C   UNL A   1      41.532  26.034  27.908  1.00  0.00     0.031 A 
ATOM     30  C   UNL A   1      40.859  27.068  28.772  1.00  0.00     0.074 A 
ATOM     31  C   UNL A   1      42.821  26.200  27.548  1.00  0.00     0.049 A 
ATOM     32  N   UNL A   1      41.254  28.274  29.081  1.00  0.00    -0.248 NA
ATOM     33  C   UNL A   1      39.560  26.693  29.353  1.00  0.00     0.031 C 
ATOM     34  C   UNL A   1      43.615  25.243  26.773  1.00  0.00     0.029 A 
ATOM     35  N   UNL A   1      43.696  27.230  27.792  1.00  0.00    -0.354 N 
ATOM     36  C   UNL A   1      40.227  28.827  29.842  1.00  0.00     0.074 A 
ATOM     37  C   UNL A   1      39.194  27.819  29.947  1.00  0.00     0.031 C 
ATOM     38  C   UNL A   1      44.863  25.715  26.635  1.00  0.00     0.029 A 
ATOM     39  C   UNL A   1      44.936  27.047  27.221  1.00  0.00     0.049 A 
ATOM     40  H   UNL A   1      43.460  28.024  28.324  1.00  0.00     0.167 HD
ATOM     41  C   UNL A   1      40.156  30.066  30.390  1.00  0.00     0.034 A 
ATOM     42  C   UNL A   1      45.993  27.879  27.130  1.00  0.00     0.034 A 
ATOM     43  C   UNL A   1      41.218  31.039  30.313  1.00  0.00     0.049 A 
ATOM     44  C   UNL A   1      45.876  29.261  27.715  1.00  0.00     0.074 A 
ATOM     45  C   UNL A   1      41.252  32.325  30.825  1.00  0.00     0.029 A 
ATOM     46  N   UNL A   1      42.443  30.828  29.694  1.00  0.00    -0.354 N 
ATOM     47  N   UNL A   1      44.862  29.807  28.345  1.00  0.00    -0.248 NA
ATOM     48  C   UNL A   1      47.036  30.146  27.555  1.00  0.00     0.031 C 
ATOM     49  C   UNL A   1      42.477  32.906  30.476  1.00  0.00     0.029 A 
ATOM     50  C   UNL A   1      43.232  31.963  29.796  1.00  0.00     0.049 A 
ATOM     51  H   UNL A   1      42.713  29.993  29.247  1.00  0.00     0.167 HD
ATOM     52  C   UNL A   1      45.265  31.100  28.661  1.00  0.00     0.074 A 
ATOM     53  C   UNL A   1      46.624  31.242  28.175  1.00  0.00     0.031 C 
ATOM     54  C   UNL A   1      44.576  32.087  29.287  1.00  0.00     0.034 A 
BRANCH  41  55
ATOM     55  C   UNL A   1      38.858  30.457  31.053  1.00  0.00     0.023 A 
ATOM     56  C   UNL A   1      37.847  31.155  30.372  1.00  0.00     0.031 A 
ATOM     57  C   UNL A   1      38.647  30.145  32.409  1.00  0.00     0.131 A 
ATOM     58  C   UNL A   1      36.696  31.568  31.064  1.00  0.00     0.055 A 
ATOM     59  C   UNL A   1      37.472  30.498  33.073  1.00  0.00     0.041 A 
ATOM     60  F   UNL A   1      39.589  29.499  33.115  1.00  0.00    -0.206 F 
ATOM     61  C   UNL A   1      36.492  31.225  32.403  1.00  0.00     0.022 A 
BRANCH  58  62
ATOM     62  S   UNL A   1      35.518  32.661  30.223  1.00  0.00     0.124 S 
ATOM     63  O   UNL A   1      36.139  33.969  30.416  1.00  0.00    -0.237 OA
ATOM     64  O   UNL A   1      35.526  32.145  28.858  1.00  0.00    -0.237 OA
ATOM     65  O   UNL A   1      34.273  32.455  30.959  1.00  0.00    -0.744 OA
ENDBRANCH  58  62
ENDBRANCH  41  55
BRANCH  42  66
ATOM     66  C   UNL A   1      47.217  27.466  26.383  1.00  0.00     0.023 A 
ATOM     67  C   UNL A   1      47.378  27.769  25.022  1.00  0.00     0.031 A 
ATOM     68  C   UNL A   1      48.227  26.718  27.015  1.00  0.00     0.131 A 
ATOM     69  C   UNL A   1      48.505  27.299  24.329  1.00  0.00     0.055 A 
ATOM     70  C   UNL A   1      49.373  26.301  26.337  1.00  0.00     0.041 A 
ATOM     71  F   UNL A   1      48.122  26.395  28.314  1.00  0.00    -0.206 F 
ATOM     72  C   UNL A   1      49.510  26.581  24.981  1.00  0.00     0.022 A 
BRANCH  69  73
ATOM     73  S   UNL A   1      48.600  27.565  22.537  1.00  0.00     0.124 S 
ATOM     74  O   UNL A   1      49.813  28.366  22.418  1.00  0.00    -0.237 OA
ATOM     75  O   UNL A   1      48.680  26.199  22.032  1.00  0.00    -0.237 OA
ATOM     76  O   UNL A   1      47.355  28.268  22.231  1.00  0.00    -0.744 OA
ENDBRANCH  69  73
ENDBRANCH  42  66
BRANCH  54  77
ATOM     77  C   UNL A   1      45.305  33.387  29.498  1.00  0.00     0.023 A 
ATOM     78  C   UNL A   1      45.224  34.433  28.563  1.00  0.00     0.031 A 
ATOM     79  C   UNL A   1      46.114  33.569  30.633  1.00  0.00     0.131 A 
ATOM     80  C   UNL A   1      45.983  35.598  28.752  1.00  0.00     0.055 A 
ATOM     81  C   UNL A   1      46.828  34.748  30.841  1.00  0.00     0.041 A 
ATOM     82  F   UNL A   1      46.225  32.599  31.554  1.00  0.00    -0.206 F 
ATOM     83  C   UNL A   1      46.775  35.767  29.892  1.00  0.00     0.022 A 
BRANCH  80  84
ATOM     84  S   UNL A   1      45.984  36.859  27.449  1.00  0.00     0.124 S 
ATOM     85  O   UNL A   1      45.419  38.013  28.143  1.00  0.00    -0.237 OA
ATOM     86  O   UNL A   1      47.399  36.953  27.105  1.00  0.00    -0.237 OA
ATOM     87  O   UNL A   1      45.132  36.282  26.412  1.00  0.00    -0.744 OA
ENDBRANCH  80  84
ENDBRANCH  54  77
ENDBRANCH  28  29
ENDBRANCH  21  23
ENDBRANCH  20  21
ENDBRANCH  19  20
ENDBRANCH   1  19
TORSDOF 20
ENDMDL
