MODEL 1
REMARK VINA RESULT:     -11.5      0.000      0.000
REMARK SMILES CC[C@@](C)(NC(=O)c1cccc(Br)c1C)C(=O)OCCOC(=O)c1ccc(-c2c3nc(c(-c4cc(S(=O)(=O)[O-])ccc4F)c4ccc([nH]4)c(-c4cc(S(=O)(=O)[O-])ccc4F)c4nc(c(-c5cc(S(=O)(=O)[O-])ccc5F)c5ccc2[nH]5)C=C4)C=C3)cc1
REMARK SMILES IDX 20 1 19 2 18 3 16 4 17 5 3 6 4 7 2 8 1 9 5 10 6 11 7 13 8 14
REMARK SMILES IDX 9 15 14 16 10 17 12 18 15 19 11 20 13 21 21 22 22 23 23 24
REMARK SMILES IDX 24 25 25 26 86 27 26 28 85 29 27 30 28 31 29 32 79 33 30 34
REMARK SMILES IDX 84 35 78 36 80 37 31 38 83 39 77 40 76 41 32 43 64 44 44 45
REMARK SMILES IDX 63 46 45 47 48 48 62 49 81 50 46 51 47 52 61 54 82 55 49 56
REMARK SMILES IDX 33 57 34 58 42 59 35 60 41 61 43 62 40 63 36 64 37 65 38 66
REMARK SMILES IDX 39 67 65 68 66 69 74 70 67 71 73 72 75 73 72 74 68 75 69 76
REMARK SMILES IDX 70 77 71 78 50 79 51 80 59 81 52 82 58 83 60 84 57 85 53 86
REMARK SMILES IDX 54 87 55 88 56 89
REMARK H PARENT 5 12 80 42 48 53
REMARK Flexibility Score: inf
ROOT
ATOM      1  C   UNL A   1      36.699  20.611  25.005  1.00  0.00     0.275 C 
ENDROOT
BRANCH   1   2
ATOM      2  C   UNL A   1      35.251  21.078  24.927  1.00  0.00     0.274 C 
BRANCH   2   3
ATOM      3  O   UNL A   1      35.191  22.522  24.986  1.00  0.00    -0.460 OA
BRANCH   3   4
ATOM      4  C   UNL A   1      34.782  23.140  23.850  1.00  0.00     0.331 C 
ATOM      5  O   UNL A   1      35.406  23.076  22.794  1.00  0.00    -0.249 OA
BRANCH   4   6
ATOM      6  C   UNL A   1      33.497  24.007  24.016  1.00  0.00     0.135 C 
ATOM      7  C   UNL A   1      33.690  25.221  23.087  1.00  0.00     0.047 C 
BRANCH   6   8
ATOM      8  C   UNL A   1      32.245  23.207  23.506  1.00  0.00     0.037 C 
ATOM      9  C   UNL A   1      32.456  21.855  22.839  1.00  0.00     0.007 C 
ENDBRANCH   6   8
BRANCH   6  10
ATOM     10  N   UNL A   1      33.070  24.490  25.374  1.00  0.00    -0.336 N 
ATOM     11  C   UNL A   1      32.038  25.263  25.833  1.00  0.00     0.252 C 
ATOM     12  H   UNL A   1      33.666  24.181  26.095  1.00  0.00     0.165 HD
ATOM     13  O   UNL A   1      31.395  24.883  26.810  1.00  0.00    -0.269 OA
BRANCH  11  14
ATOM     14  C   UNL A   1      31.825  26.646  25.376  1.00  0.00     0.043 A 
ATOM     15  C   UNL A   1      32.598  27.622  26.027  1.00  0.00     0.014 A 
ATOM     16  C   UNL A   1      30.794  27.017  24.493  1.00  0.00    -0.024 A 
ATOM     17  C   UNL A   1      32.396  28.975  25.764  1.00  0.00     0.002 A 
ATOM     18  C   UNL A   1      30.654  28.387  24.195  1.00  0.00     0.021 A 
ATOM     19  C   UNL A   1      29.903  25.984  23.873  1.00  0.00     0.046 C 
ATOM     20  C   UNL A   1      31.437  29.356  24.834  1.00  0.00     0.016 A 
ATOM     21  Br  UNL A   1      29.419  29.014  22.890  1.00  0.00    -0.051 Br
ENDBRANCH  11  14
ENDBRANCH   6  10
ENDBRANCH   4   6
ENDBRANCH   3   4
ENDBRANCH   2   3
ENDBRANCH   1   2
BRANCH   1  22
ATOM     22  O   UNL A   1      37.444  21.629  25.685  1.00  0.00    -0.458 OA
BRANCH  22  23
ATOM     23  C   UNL A   1      38.727  21.312  25.970  1.00  0.00     0.338 C 
ATOM     24  O   UNL A   1      39.314  20.268  25.764  1.00  0.00    -0.246 OA
BRANCH  23  25
ATOM     25  C   UNL A   1      39.360  22.510  26.517  1.00  0.00     0.060 A 
ATOM     26  C   UNL A   1      38.920  23.757  26.072  1.00  0.00     0.016 A 
ATOM     27  C   UNL A   1      40.420  22.396  27.408  1.00  0.00     0.016 A 
ATOM     28  C   UNL A   1      39.576  24.910  26.482  1.00  0.00     0.010 A 
ATOM     29  C   UNL A   1      41.039  23.557  27.868  1.00  0.00     0.010 A 
ATOM     30  C   UNL A   1      40.637  24.819  27.390  1.00  0.00    -0.014 A 
BRANCH  30  31
ATOM     31  C   UNL A   1      41.371  26.036  27.809  1.00  0.00     0.031 A 
ATOM     32  C   UNL A   1      40.664  27.068  28.639  1.00  0.00     0.074 A 
ATOM     33  C   UNL A   1      42.652  26.205  27.434  1.00  0.00     0.049 A 
ATOM     34  N   UNL A   1      41.036  28.280  28.952  1.00  0.00    -0.248 NA
ATOM     35  C   UNL A   1      39.347  26.684  29.169  1.00  0.00     0.031 C 
ATOM     36  C   UNL A   1      43.445  25.234  26.677  1.00  0.00     0.029 A 
ATOM     37  N   UNL A   1      43.514  27.252  27.635  1.00  0.00    -0.354 N 
ATOM     38  C   UNL A   1      39.978  28.826  29.673  1.00  0.00     0.074 A 
ATOM     39  C   UNL A   1      38.948  27.811  29.740  1.00  0.00     0.031 C 
ATOM     40  C   UNL A   1      44.683  25.722  26.496  1.00  0.00     0.029 A 
ATOM     41  C   UNL A   1      44.746  27.068  27.051  1.00  0.00     0.049 A 
ATOM     42  H   UNL A   1      43.274  28.058  28.147  1.00  0.00     0.167 HD
ATOM     43  C   UNL A   1      39.881  30.067  30.213  1.00  0.00     0.034 A 
ATOM     44  C   UNL A   1      45.791  27.911  26.944  1.00  0.00     0.034 A 
ATOM     45  C   UNL A   1      40.941  31.046  30.136  1.00  0.00     0.049 A 
ATOM     46  C   UNL A   1      45.653  29.291  27.533  1.00  0.00     0.074 A 
ATOM     47  C   UNL A   1      40.963  32.343  30.618  1.00  0.00     0.029 A 
ATOM     48  N   UNL A   1      42.177  30.827  29.536  1.00  0.00    -0.354 N 
ATOM     49  N   UNL A   1      44.624  29.824  28.154  1.00  0.00    -0.248 NA
ATOM     50  C   UNL A   1      46.810  30.182  27.403  1.00  0.00     0.031 C 
ATOM     51  C   UNL A   1      42.189  32.921  30.266  1.00  0.00     0.029 A 
ATOM     52  C   UNL A   1      42.963  31.965  29.624  1.00  0.00     0.049 A 
ATOM     53  H   UNL A   1      42.454  29.983  29.110  1.00  0.00     0.167 HD
ATOM     54  C   UNL A   1      45.019  31.110  28.507  1.00  0.00     0.074 A 
ATOM     55  C   UNL A   1      46.387  31.259  28.048  1.00  0.00     0.031 C 
ATOM     56  C   UNL A   1      44.321  32.083  29.146  1.00  0.00     0.034 A 
BRANCH  43  57
ATOM     57  C   UNL A   1      38.562  30.442  30.850  1.00  0.00     0.023 A 
ATOM     58  C   UNL A   1      37.531  31.067  30.127  1.00  0.00     0.031 A 
ATOM     59  C   UNL A   1      38.361  30.233  32.228  1.00  0.00     0.131 A 
ATOM     60  C   UNL A   1      36.390  31.538  30.797  1.00  0.00     0.055 A 
ATOM     61  C   UNL A   1      37.187  30.629  32.873  1.00  0.00     0.041 A 
ATOM     62  F   UNL A   1      39.318  29.663  32.979  1.00  0.00    -0.206 F 
ATOM     63  C   UNL A   1      36.201  31.303  32.161  1.00  0.00     0.022 A 
BRANCH  60  64
ATOM     64  S   UNL A   1      35.231  32.607  29.896  1.00  0.00     0.124 S 
ATOM     65  O   UNL A   1      36.119  33.662  29.414  1.00  0.00    -0.237 OA
ATOM     66  O   UNL A   1      34.698  31.706  28.880  1.00  0.00    -0.237 OA
ATOM     67  O   UNL A   1      34.278  33.023  30.923  1.00  0.00    -0.744 OA
ENDBRANCH  60  64
ENDBRANCH  43  57
BRANCH  44  68
ATOM     68  C   UNL A   1      47.029  27.497  26.222  1.00  0.00     0.023 A 
ATOM     69  C   UNL A   1      47.203  27.785  24.859  1.00  0.00     0.031 A 
ATOM     70  C   UNL A   1      48.050  26.788  26.880  1.00  0.00     0.131 A 
ATOM     71  C   UNL A   1      48.354  27.337  24.190  1.00  0.00     0.055 A 
ATOM     72  C   UNL A   1      49.216  26.391  26.223  1.00  0.00     0.041 A 
ATOM     73  F   UNL A   1      47.938  26.487  28.184  1.00  0.00    -0.206 F 
ATOM     74  C   UNL A   1      49.368  26.655  24.866  1.00  0.00     0.022 A 
BRANCH  71  75
ATOM     75  S   UNL A   1      48.475  27.598  22.400  1.00  0.00     0.124 S 
ATOM     76  O   UNL A   1      47.259  28.358  22.127  1.00  0.00    -0.237 OA
ATOM     77  O   UNL A   1      49.730  28.334  22.285  1.00  0.00    -0.237 OA
ATOM     78  O   UNL A   1      48.498  26.241  21.858  1.00  0.00    -0.744 OA
ENDBRANCH  71  75
ENDBRANCH  44  68
BRANCH  56  79
ATOM     79  C   UNL A   1      45.061  33.367  29.419  1.00  0.00     0.023 A 
ATOM     80  C   UNL A   1      45.049  34.434  28.504  1.00  0.00     0.031 A 
ATOM     81  C   UNL A   1      45.824  33.505  30.592  1.00  0.00     0.131 A 
ATOM     82  C   UNL A   1      45.843  35.564  28.743  1.00  0.00     0.055 A 
ATOM     83  C   UNL A   1      46.563  34.658  30.853  1.00  0.00     0.041 A 
ATOM     84  F   UNL A   1      45.870  32.515  31.498  1.00  0.00    -0.206 F 
ATOM     85  C   UNL A   1      46.589  35.690  29.919  1.00  0.00     0.022 A 
BRANCH  82  86
ATOM     86  S   UNL A   1      45.978  36.821  27.442  1.00  0.00     0.124 S 
ATOM     87  O   UNL A   1      44.608  36.888  26.942  1.00  0.00    -0.237 OA
ATOM     88  O   UNL A   1      46.443  37.989  28.185  1.00  0.00    -0.237 OA
ATOM     89  O   UNL A   1      46.951  36.250  26.512  1.00  0.00    -0.744 OA
ENDBRANCH  82  86
ENDBRANCH  56  79
ENDBRANCH  30  31
ENDBRANCH  23  25
ENDBRANCH  22  23
ENDBRANCH   1  22
TORSDOF 17
ENDMDL
MODEL 2
REMARK VINA RESULT:     -11.5      1.425      1.664
REMARK SMILES CC[C@@](C)(NC(=O)c1cccc(Br)c1C)C(=O)OCCOC(=O)c1ccc(-c2c3nc(c(-c4cc(S(=O)(=O)[O-])ccc4F)c4ccc([nH]4)c(-c4cc(S(=O)(=O)[O-])ccc4F)c4nc(c(-c5cc(S(=O)(=O)[O-])ccc5F)c5ccc2[nH]5)C=C4)C=C3)cc1
REMARK SMILES IDX 20 1 19 2 18 3 16 4 17 5 3 6 4 7 2 8 1 9 5 10 6 11 7 13 8 14
REMARK SMILES IDX 9 15 14 16 10 17 12 18 15 19 11 20 13 21 21 22 22 23 23 24
REMARK SMILES IDX 24 25 25 26 86 27 26 28 85 29 27 30 28 31 29 32 79 33 30 34
REMARK SMILES IDX 84 35 78 36 80 37 31 38 83 39 77 40 76 41 32 43 64 44 44 45
REMARK SMILES IDX 63 46 45 47 48 48 62 49 81 50 46 51 47 52 61 54 82 55 49 56
REMARK SMILES IDX 33 57 34 58 42 59 35 60 41 61 43 62 40 63 36 64 37 65 38 66
REMARK SMILES IDX 39 67 65 68 66 69 74 70 67 71 73 72 75 73 72 74 68 75 69 76
REMARK SMILES IDX 70 77 71 78 50 79 51 80 59 81 52 82 58 83 60 84 57 85 53 86
REMARK SMILES IDX 54 87 55 88 56 89
REMARK H PARENT 5 12 80 42 48 53
REMARK Flexibility Score: inf
ROOT
ATOM      1  C   UNL A   1      36.494  20.606  24.982  1.00  0.00     0.275 C 
ENDROOT
BRANCH   1   2
ATOM      2  C   UNL A   1      35.062  21.122  24.921  1.00  0.00     0.274 C 
BRANCH   2   3
ATOM      3  O   UNL A   1      35.048  22.564  25.034  1.00  0.00    -0.460 OA
BRANCH   3   4
ATOM      4  C   UNL A   1      34.691  23.237  23.911  1.00  0.00     0.331 C 
ATOM      5  O   UNL A   1      35.307  23.142  22.852  1.00  0.00    -0.249 OA
BRANCH   4   6
ATOM      6  C   UNL A   1      33.485  24.206  24.098  1.00  0.00     0.135 C 
ATOM      7  C   UNL A   1      33.905  25.530  23.430  1.00  0.00     0.047 C 
BRANCH   6   8
ATOM      8  C   UNL A   1      32.234  23.655  23.324  1.00  0.00     0.037 C 
ATOM      9  C   UNL A   1      31.971  22.155  23.322  1.00  0.00     0.007 C 
ENDBRANCH   6   8
BRANCH   6  10
ATOM     10  N   UNL A   1      32.943  24.498  25.470  1.00  0.00    -0.336 N 
ATOM     11  C   UNL A   1      31.925  25.276  25.950  1.00  0.00     0.252 C 
ATOM     12  H   UNL A   1      33.430  24.022  26.182  1.00  0.00     0.165 HD
ATOM     13  O   UNL A   1      31.149  24.801  26.778  1.00  0.00    -0.269 OA
BRANCH  11  14
ATOM     14  C   UNL A   1      31.865  26.728  25.719  1.00  0.00     0.043 A 
ATOM     15  C   UNL A   1      32.628  27.510  26.601  1.00  0.00     0.014 A 
ATOM     16  C   UNL A   1      30.970  27.330  24.815  1.00  0.00    -0.024 A 
ATOM     17  C   UNL A   1      32.555  28.901  26.557  1.00  0.00     0.002 A 
ATOM     18  C   UNL A   1      30.965  28.737  24.744  1.00  0.00     0.021 A 
ATOM     19  C   UNL A   1      30.084  26.497  23.941  1.00  0.00     0.046 C 
ATOM     20  C   UNL A   1      31.738  29.514  25.615  1.00  0.00     0.016 A 
ATOM     21  Br  UNL A   1      29.934  29.678  23.450  1.00  0.00    -0.051 Br
ENDBRANCH  11  14
ENDBRANCH   6  10
ENDBRANCH   4   6
ENDBRANCH   3   4
ENDBRANCH   2   3
ENDBRANCH   1   2
BRANCH   1  22
ATOM     22  O   UNL A   1      37.286  21.609  25.631  1.00  0.00    -0.458 OA
BRANCH  22  23
ATOM     23  C   UNL A   1      38.557  21.247  25.914  1.00  0.00     0.338 C 
ATOM     24  O   UNL A   1      39.109  20.186  25.699  1.00  0.00    -0.246 OA
BRANCH  23  25
ATOM     25  C   UNL A   1      39.230  22.418  26.473  1.00  0.00     0.060 A 
ATOM     26  C   UNL A   1      38.782  23.685  26.095  1.00  0.00     0.016 A 
ATOM     27  C   UNL A   1      40.330  22.262  27.306  1.00  0.00     0.016 A 
ATOM     28  C   UNL A   1      39.470  24.816  26.513  1.00  0.00     0.010 A 
ATOM     29  C   UNL A   1      40.984  23.400  27.776  1.00  0.00     0.010 A 
ATOM     30  C   UNL A   1      40.573  24.682  27.364  1.00  0.00    -0.014 A 
BRANCH  30  31
ATOM     31  C   UNL A   1      41.341  25.876  27.791  1.00  0.00     0.031 A 
ATOM     32  C   UNL A   1      40.661  26.923  28.624  1.00  0.00     0.074 A 
ATOM     33  C   UNL A   1      42.626  26.011  27.418  1.00  0.00     0.049 A 
ATOM     34  N   UNL A   1      41.066  28.123  28.944  1.00  0.00    -0.248 NA
ATOM     35  C   UNL A   1      39.332  26.574  29.150  1.00  0.00     0.031 C 
ATOM     36  C   UNL A   1      43.393  25.021  26.658  1.00  0.00     0.029 A 
ATOM     37  N   UNL A   1      43.516  27.032  27.626  1.00  0.00    -0.354 N 
ATOM     38  C   UNL A   1      40.022  28.695  29.665  1.00  0.00     0.074 A 
ATOM     39  C   UNL A   1      38.965  27.709  29.726  1.00  0.00     0.031 C 
ATOM     40  C   UNL A   1      44.644  25.476  26.482  1.00  0.00     0.029 A 
ATOM     41  C   UNL A   1      44.744  26.817  27.043  1.00  0.00     0.049 A 
ATOM     42  H   UNL A   1      43.298  27.842  28.141  1.00  0.00     0.167 HD
ATOM     43  C   UNL A   1      39.959  29.936  30.212  1.00  0.00     0.034 A 
ATOM     44  C   UNL A   1      45.813  27.631  26.942  1.00  0.00     0.034 A 
ATOM     45  C   UNL A   1      41.046  30.885  30.141  1.00  0.00     0.049 A 
ATOM     46  C   UNL A   1      45.712  29.011  27.537  1.00  0.00     0.074 A 
ATOM     47  C   UNL A   1      41.104  32.179  30.629  1.00  0.00     0.029 A 
ATOM     48  N   UNL A   1      42.277  30.634  29.542  1.00  0.00    -0.354 N 
ATOM     49  N   UNL A   1      44.697  29.569  28.159  1.00  0.00    -0.248 NA
ATOM     50  C   UNL A   1      46.894  29.870  27.413  1.00  0.00     0.031 C 
ATOM     51  C   UNL A   1      42.346  32.723  30.281  1.00  0.00     0.029 A 
ATOM     52  C   UNL A   1      43.094  31.750  29.637  1.00  0.00     0.049 A 
ATOM     53  H   UNL A   1      42.531  29.785  29.112  1.00  0.00     0.167 HD
ATOM     54  C   UNL A   1      45.128  30.842  28.519  1.00  0.00     0.074 A 
ATOM     55  C   UNL A   1      46.500  30.955  28.063  1.00  0.00     0.031 C 
ATOM     56  C   UNL A   1      44.456  31.832  29.162  1.00  0.00     0.034 A 
BRANCH  43  57
ATOM     57  C   UNL A   1      38.650  30.344  30.848  1.00  0.00     0.023 A 
ATOM     58  C   UNL A   1      37.611  30.939  30.111  1.00  0.00     0.031 A 
ATOM     59  C   UNL A   1      38.468  30.200  32.236  1.00  0.00     0.131 A 
ATOM     60  C   UNL A   1      36.480  31.444  30.773  1.00  0.00     0.055 A 
ATOM     61  C   UNL A   1      37.304  30.630  32.878  1.00  0.00     0.041 A 
ATOM     62  F   UNL A   1      39.433  29.663  33.001  1.00  0.00    -0.206 F 
ATOM     63  C   UNL A   1      36.309  31.274  32.149  1.00  0.00     0.022 A 
BRANCH  60  64
ATOM     64  S   UNL A   1      35.313  32.473  29.839  1.00  0.00     0.124 S 
ATOM     65  O   UNL A   1      36.170  33.577  29.414  1.00  0.00    -0.237 OA
ATOM     66  O   UNL A   1      34.867  31.567  28.787  1.00  0.00    -0.237 OA
ATOM     67  O   UNL A   1      34.297  32.827  30.829  1.00  0.00    -0.744 OA
ENDBRANCH  60  64
ENDBRANCH  43  57
BRANCH  44  68
ATOM     68  C   UNL A   1      47.039  27.186  26.220  1.00  0.00     0.023 A 
ATOM     69  C   UNL A   1      48.059  26.488  26.887  1.00  0.00     0.031 A 
ATOM     70  C   UNL A   1      47.222  27.468  24.854  1.00  0.00     0.131 A 
ATOM     71  C   UNL A   1      49.228  26.126  26.198  1.00  0.00     0.055 A 
ATOM     72  C   UNL A   1      48.363  27.060  24.160  1.00  0.00     0.041 A 
ATOM     73  F   UNL A   1      46.279  28.131  24.165  1.00  0.00    -0.206 F 
ATOM     74  C   UNL A   1      49.380  26.395  24.836  1.00  0.00     0.022 A 
BRANCH  71  75
ATOM     75  S   UNL A   1      50.583  25.359  27.127  1.00  0.00     0.124 S 
ATOM     76  O   UNL A   1      51.030  26.465  27.968  1.00  0.00    -0.237 OA
ATOM     77  O   UNL A   1      49.900  24.268  27.814  1.00  0.00    -0.237 OA
ATOM     78  O   UNL A   1      51.521  24.948  26.085  1.00  0.00    -0.744 OA
ENDBRANCH  71  75
ENDBRANCH  44  68
BRANCH  56  79
ATOM     79  C   UNL A   1      45.231  33.093  29.442  1.00  0.00     0.023 A 
ATOM     80  C   UNL A   1      45.286  34.147  28.513  1.00  0.00     0.031 A 
ATOM     81  C   UNL A   1      45.960  33.221  30.637  1.00  0.00     0.131 A 
ATOM     82  C   UNL A   1      46.110  35.252  28.763  1.00  0.00     0.055 A 
ATOM     83  C   UNL A   1      46.730  34.351  30.907  1.00  0.00     0.041 A 
ATOM     84  F   UNL A   1      45.942  32.243  31.557  1.00  0.00    -0.206 F 
ATOM     85  C   UNL A   1      46.822  35.368  29.961  1.00  0.00     0.022 A 
BRANCH  82  86
ATOM     86  S   UNL A   1      46.331  36.486  27.451  1.00  0.00     0.124 S 
ATOM     87  O   UNL A   1      47.728  36.871  27.629  1.00  0.00    -0.237 OA
ATOM     88  O   UNL A   1      46.030  35.717  26.247  1.00  0.00    -0.237 OA
ATOM     89  O   UNL A   1      45.355  37.521  27.786  1.00  0.00    -0.744 OA
ENDBRANCH  82  86
ENDBRANCH  56  79
ENDBRANCH  30  31
ENDBRANCH  23  25
ENDBRANCH  22  23
ENDBRANCH   1  22
TORSDOF 17
ENDMDL
MODEL 3
REMARK VINA RESULT:     -11.5      5.155     10.114
REMARK SMILES CC[C@@](C)(NC(=O)c1cccc(Br)c1C)C(=O)OCCOC(=O)c1ccc(-c2c3nc(c(-c4cc(S(=O)(=O)[O-])ccc4F)c4ccc([nH]4)c(-c4cc(S(=O)(=O)[O-])ccc4F)c4nc(c(-c5cc(S(=O)(=O)[O-])ccc5F)c5ccc2[nH]5)C=C4)C=C3)cc1
REMARK SMILES IDX 20 1 19 2 18 3 16 4 17 5 3 6 4 7 2 8 1 9 5 10 6 11 7 13 8 14
REMARK SMILES IDX 9 15 14 16 10 17 12 18 15 19 11 20 13 21 21 22 22 23 23 24
REMARK SMILES IDX 24 25 25 26 86 27 26 28 85 29 27 30 28 31 29 32 79 33 30 34
REMARK SMILES IDX 84 35 78 36 80 37 31 38 83 39 77 40 76 41 32 43 64 44 44 45
REMARK SMILES IDX 63 46 45 47 48 48 62 49 81 50 46 51 47 52 61 54 82 55 49 56
REMARK SMILES IDX 33 57 34 58 42 59 35 60 41 61 43 62 40 63 36 64 37 65 38 66
REMARK SMILES IDX 39 67 65 68 66 69 74 70 67 71 73 72 75 73 72 74 68 75 69 76
REMARK SMILES IDX 70 77 71 78 50 79 51 80 59 81 52 82 58 83 60 84 57 85 53 86
REMARK SMILES IDX 54 87 55 88 56 89
REMARK H PARENT 5 12 80 42 48 53
REMARK Flexibility Score: inf
ROOT
ATOM      1  C   UNL A   1      31.585  30.443  25.714  1.00  0.00     0.275 C 
ENDROOT
BRANCH   1   2
ATOM      2  C   UNL A   1      31.406  29.173  24.891  1.00  0.00     0.274 C 
BRANCH   2   3
ATOM      3  O   UNL A   1      32.315  28.149  25.355  1.00  0.00    -0.460 OA
BRANCH   3   4
ATOM      4  C   UNL A   1      31.736  27.072  25.942  1.00  0.00     0.331 C 
ATOM      5  O   UNL A   1      31.030  27.159  26.944  1.00  0.00    -0.249 OA
BRANCH   4   6
ATOM      6  C   UNL A   1      32.109  25.706  25.292  1.00  0.00     0.135 C 
ATOM      7  C   UNL A   1      32.368  24.741  26.466  1.00  0.00     0.047 C 
BRANCH   6   8
ATOM      8  C   UNL A   1      30.885  25.152  24.478  1.00  0.00     0.037 C 
ATOM      9  C   UNL A   1      30.310  25.994  23.346  1.00  0.00     0.007 C 
ENDBRANCH   6   8
BRANCH   6  10
ATOM     10  N   UNL A   1      33.247  25.608  24.315  1.00  0.00    -0.336 N 
ATOM     11  C   UNL A   1      33.786  24.592  23.572  1.00  0.00     0.252 C 
ATOM     12  H   UNL A   1      33.708  26.468  24.178  1.00  0.00     0.165 HD
ATOM     13  O   UNL A   1      34.026  24.784  22.382  1.00  0.00    -0.269 OA
BRANCH  11  14
ATOM     14  C   UNL A   1      34.329  23.370  24.186  1.00  0.00     0.043 A 
ATOM     15  C   UNL A   1      35.592  23.506  24.786  1.00  0.00     0.014 A 
ATOM     16  C   UNL A   1      33.740  22.101  24.031  1.00  0.00    -0.024 A 
ATOM     17  C   UNL A   1      36.259  22.392  25.290  1.00  0.00     0.002 A 
ATOM     18  C   UNL A   1      34.404  21.000  24.609  1.00  0.00     0.021 A 
ATOM     19  C   UNL A   1      32.440  21.940  23.305  1.00  0.00     0.046 C 
ATOM     20  C   UNL A   1      35.656  21.142  25.219  1.00  0.00     0.016 A 
ATOM     21  Br  UNL A   1      33.640  19.257  24.626  1.00  0.00    -0.051 Br
ENDBRANCH  11  14
ENDBRANCH   6  10
ENDBRANCH   4   6
ENDBRANCH   3   4
ENDBRANCH   2   3
ENDBRANCH   1   2
BRANCH   1  22
ATOM     22  O   UNL A   1      32.909  30.419  26.261  1.00  0.00    -0.458 OA
BRANCH  22  23
ATOM     23  C   UNL A   1      33.229  31.473  27.044  1.00  0.00     0.338 C 
ATOM     24  O   UNL A   1      32.577  32.473  27.273  1.00  0.00    -0.246 OA
BRANCH  23  25
ATOM     25  C   UNL A   1      34.514  31.174  27.673  1.00  0.00     0.060 A 
ATOM     26  C   UNL A   1      34.802  29.848  27.998  1.00  0.00     0.016 A 
ATOM     27  C   UNL A   1      35.390  32.202  27.997  1.00  0.00     0.016 A 
ATOM     28  C   UNL A   1      35.960  29.543  28.700  1.00  0.00     0.010 A 
ATOM     29  C   UNL A   1      36.582  31.888  28.648  1.00  0.00     0.010 A 
ATOM     30  C   UNL A   1      36.863  30.561  29.025  1.00  0.00    -0.014 A 
BRANCH  30  31
ATOM     31  C   UNL A   1      38.086  30.258  29.806  1.00  0.00     0.031 A 
ATOM     32  C   UNL A   1      39.129  29.356  29.212  1.00  0.00     0.074 A 
ATOM     33  C   UNL A   1      38.240  30.784  31.036  1.00  0.00     0.049 A 
ATOM     34  N   UNL A   1      40.169  28.804  29.778  1.00  0.00    -0.248 NA
ATOM     35  C   UNL A   1      38.962  29.016  27.792  1.00  0.00     0.031 C 
ATOM     36  C   UNL A   1      37.310  31.717  31.677  1.00  0.00     0.029 A 
ATOM     37  N   UNL A   1      39.230  30.609  31.967  1.00  0.00    -0.354 N 
ATOM     38  C   UNL A   1      40.753  28.007  28.798  1.00  0.00     0.074 A 
ATOM     39  C   UNL A   1      39.943  28.147  27.606  1.00  0.00     0.031 C 
ATOM     40  C   UNL A   1      37.786  32.048  32.888  1.00  0.00     0.029 A 
ATOM     41  C   UNL A   1      39.006  31.292  33.140  1.00  0.00     0.049 A 
ATOM     42  H   UNL A   1      40.023  30.048  31.812  1.00  0.00     0.167 HD
ATOM     43  C   UNL A   1      41.858  27.226  28.898  1.00  0.00     0.034 A 
ATOM     44  C   UNL A   1      39.690  31.274  34.300  1.00  0.00     0.034 A 
ATOM     45  C   UNL A   1      42.648  27.128  30.104  1.00  0.00     0.049 A 
ATOM     46  C   UNL A   1      40.902  30.383  34.395  1.00  0.00     0.074 A 
ATOM     47  C   UNL A   1      43.773  26.359  30.346  1.00  0.00     0.029 A 
ATOM     48  N   UNL A   1      42.393  27.835  31.275  1.00  0.00    -0.354 N 
ATOM     49  N   UNL A   1      41.409  29.581  33.486  1.00  0.00    -0.248 NA
ATOM     50  C   UNL A   1      41.626  30.390  35.670  1.00  0.00     0.031 C 
ATOM     51  C   UNL A   1      44.164  26.562  31.676  1.00  0.00     0.029 A 
ATOM     52  C   UNL A   1      43.328  27.510  32.246  1.00  0.00     0.049 A 
ATOM     53  H   UNL A   1      41.653  28.474  31.398  1.00  0.00     0.167 HD
ATOM     54  C   UNL A   1      42.529  29.002  34.075  1.00  0.00     0.074 A 
ATOM     55  C   UNL A   1      42.630  29.567  35.407  1.00  0.00     0.031 C 
ATOM     56  C   UNL A   1      43.394  28.085  33.569  1.00  0.00     0.034 A 
BRANCH  43  57
ATOM     57  C   UNL A   1      42.209  26.369  27.703  1.00  0.00     0.023 A 
ATOM     58  C   UNL A   1      41.756  25.045  27.570  1.00  0.00     0.031 A 
ATOM     59  C   UNL A   1      43.076  26.866  26.711  1.00  0.00     0.131 A 
ATOM     60  C   UNL A   1      42.236  24.240  26.525  1.00  0.00     0.055 A 
ATOM     61  C   UNL A   1      43.484  26.086  25.627  1.00  0.00     0.041 A 
ATOM     62  F   UNL A   1      43.564  28.115  26.793  1.00  0.00    -0.206 F 
ATOM     63  C   UNL A   1      43.080  24.758  25.539  1.00  0.00     0.022 A 
BRANCH  60  64
ATOM     64  S   UNL A   1      41.877  22.461  26.561  1.00  0.00     0.124 S 
ATOM     65  O   UNL A   1      42.541  22.002  25.344  1.00  0.00    -0.237 OA
ATOM     66  O   UNL A   1      42.486  22.043  27.819  1.00  0.00    -0.237 OA
ATOM     67  O   UNL A   1      40.417  22.405  26.525  1.00  0.00    -0.744 OA
ENDBRANCH  60  64
ENDBRANCH  43  57
BRANCH  44  68
ATOM     68  C   UNL A   1      39.230  32.083  35.465  1.00  0.00     0.023 A 
ATOM     69  C   UNL A   1      39.678  33.399  35.656  1.00  0.00     0.031 A 
ATOM     70  C   UNL A   1      38.347  31.545  36.420  1.00  0.00     0.131 A 
ATOM     71  C   UNL A   1      39.271  34.121  36.790  1.00  0.00     0.055 A 
ATOM     72  C   UNL A   1      37.903  32.284  37.517  1.00  0.00     0.041 A 
ATOM     73  F   UNL A   1      37.884  30.291  36.286  1.00  0.00    -0.206 F 
ATOM     74  C   UNL A   1      38.375  33.577  37.714  1.00  0.00     0.022 A 
BRANCH  71  75
ATOM     75  S   UNL A   1      39.987  35.762  37.079  1.00  0.00     0.124 S 
ATOM     76  O   UNL A   1      41.397  35.441  37.274  1.00  0.00    -0.237 OA
ATOM     77  O   UNL A   1      39.653  36.460  35.842  1.00  0.00    -0.237 OA
ATOM     78  O   UNL A   1      39.284  36.235  38.270  1.00  0.00    -0.744 OA
ENDBRANCH  71  75
ENDBRANCH  44  68
BRANCH  56  79
ATOM     79  C   UNL A   1      44.543  27.689  34.460  1.00  0.00     0.023 A 
ATOM     80  C   UNL A   1      44.441  26.615  35.361  1.00  0.00     0.031 A 
ATOM     81  C   UNL A   1      45.740  28.425  34.435  1.00  0.00     0.131 A 
ATOM     82  C   UNL A   1      45.491  26.353  36.252  1.00  0.00     0.055 A 
ATOM     83  C   UNL A   1      46.805  28.120  35.281  1.00  0.00     0.041 A 
ATOM     84  F   UNL A   1      45.888  29.461  33.593  1.00  0.00    -0.206 F 
ATOM     85  C   UNL A   1      46.679  27.089  36.208  1.00  0.00     0.022 A 
BRANCH  82  86
ATOM     86  S   UNL A   1      45.241  25.107  37.547  1.00  0.00     0.124 S 
ATOM     87  O   UNL A   1      45.656  25.830  38.746  1.00  0.00    -0.237 OA
ATOM     88  O   UNL A   1      43.813  24.825  37.435  1.00  0.00    -0.237 OA
ATOM     89  O   UNL A   1      46.123  24.013  37.146  1.00  0.00    -0.744 OA
ENDBRANCH  82  86
ENDBRANCH  56  79
ENDBRANCH  30  31
ENDBRANCH  23  25
ENDBRANCH  22  23
ENDBRANCH   1  22
TORSDOF 17
ENDMDL
