MODEL 1
REMARK VINA RESULT:     -11.4      0.000      0.000
REMARK SMILES O=C(Cc1ccccc1Nc1c(Cl)cccc1C(F)(F)F)OCCOC(=O)c1ccc(-c2c3nc(c(-c4cc(S(=O)(=O)[O-])ccc4F)c4ccc([nH]4)c(-c4cc(S(=O)(=O)[O-])ccc4F)c4nc(c(-c5cc(S(=O)(=O)[O-])ccc5F)c5ccc2[nH]5)C=C4)C=C3)cc1
REMARK SMILES IDX 23 1 22 2 2 3 1 4 3 5 4 6 5 7 9 8 6 9 8 10 7 11 10 12 11 14
REMARK SMILES IDX 12 15 17 16 13 17 14 18 16 19 15 20 18 21 19 22 20 23 21 24
REMARK SMILES IDX 24 25 25 26 26 27 27 28 28 29 29 30 90 31 30 32 89 33 31 34
REMARK SMILES IDX 32 35 33 36 83 37 34 38 88 39 82 40 84 41 35 42 87 43 81 44
REMARK SMILES IDX 80 45 36 47 68 48 48 49 67 50 49 51 52 52 66 53 85 54 50 55
REMARK SMILES IDX 51 56 65 58 86 59 53 60 37 61 38 62 46 63 39 64 45 65 47 66
REMARK SMILES IDX 44 67 40 68 41 69 42 70 43 71 69 72 70 73 78 74 71 75 77 76
REMARK SMILES IDX 79 77 76 78 72 79 73 80 74 81 75 82 54 83 55 84 63 85 56 86
REMARK SMILES IDX 62 87 64 88 61 89 57 90 58 91 59 92 60 93
REMARK H PARENT 10 13 84 46 52 57
REMARK Flexibility Score: inf
ROOT
ATOM      1  C   UNL A   1      32.604  29.865  25.935  1.00  0.00     0.274 C 
ENDROOT
BRANCH   1   2
ATOM      2  O   UNL A   1      32.040  28.756  26.660  1.00  0.00    -0.462 OA
BRANCH   2   3
ATOM      3  C   UNL A   1      32.371  27.457  26.490  1.00  0.00     0.310 C 
ATOM      4  O   UNL A   1      31.587  26.577  26.848  1.00  0.00    -0.252 OA
BRANCH   3   5
ATOM      5  C   UNL A   1      33.660  27.089  25.793  1.00  0.00     0.160 C 
BRANCH   5   6
ATOM      6  C   UNL A   1      33.481  26.629  24.366  1.00  0.00    -0.013 A 
ATOM      7  C   UNL A   1      33.649  27.579  23.339  1.00  0.00     0.006 A 
ATOM      8  C   UNL A   1      33.229  25.279  24.042  1.00  0.00     0.042 A 
ATOM      9  C   UNL A   1      33.532  27.212  22.003  1.00  0.00     0.000 A 
ATOM     10  C   UNL A   1      33.115  24.936  22.688  1.00  0.00     0.026 A 
ATOM     11  C   UNL A   1      33.255  25.891  21.678  1.00  0.00     0.002 A 
BRANCH   8  12
ATOM     12  N   UNL A   1      33.185  24.298  25.049  1.00  0.00    -0.354 N 
ATOM     13  H   UNL A   1      32.984  24.652  25.946  1.00  0.00     0.167 HD
BRANCH  12  14
ATOM     14  C   UNL A   1      33.374  22.900  25.014  1.00  0.00     0.070 A 
ATOM     15  C   UNL A   1      32.260  22.062  25.272  1.00  0.00     0.065 A 
ATOM     16  C   UNL A   1      34.612  22.295  24.719  1.00  0.00     0.080 A 
ATOM     17  Cl  UNL A   1      30.708  22.734  25.656  1.00  0.00    -0.082 Cl
ATOM     18  C   UNL A   1      32.358  20.672  25.215  1.00  0.00     0.023 A 
ATOM     19  C   UNL A   1      34.683  20.884  24.642  1.00  0.00     0.015 A 
ATOM     20  C   UNL A   1      33.571  20.082  24.888  1.00  0.00     0.002 A 
BRANCH  16  21
ATOM     21  C   UNL A   1      35.898  23.071  24.537  1.00  0.00     0.418 C 
ATOM     22  F   UNL A   1      36.992  22.253  24.514  1.00  0.00    -0.166 F 
ATOM     23  F   UNL A   1      35.939  23.739  23.349  1.00  0.00    -0.166 F 
ATOM     24  F   UNL A   1      36.167  23.983  25.510  1.00  0.00    -0.166 F 
ENDBRANCH  16  21
ENDBRANCH  12  14
ENDBRANCH   8  12
ENDBRANCH   5   6
ENDBRANCH   3   5
ENDBRANCH   2   3
ENDBRANCH   1   2
BRANCH   1  25
ATOM     25  C   UNL A   1      32.373  31.183  26.674  1.00  0.00     0.275 C 
BRANCH  25  26
ATOM     26  O   UNL A   1      33.229  31.253  27.828  1.00  0.00    -0.458 OA
BRANCH  26  27
ATOM     27  C   UNL A   1      34.277  32.113  27.731  1.00  0.00     0.338 C 
ATOM     28  O   UNL A   1      34.210  33.310  27.513  1.00  0.00    -0.246 OA
BRANCH  27  29
ATOM     29  C   UNL A   1      35.512  31.412  28.154  1.00  0.00     0.060 A 
ATOM     30  C   UNL A   1      35.449  30.028  28.365  1.00  0.00     0.016 A 
ATOM     31  C   UNL A   1      36.730  32.087  28.293  1.00  0.00     0.016 A 
ATOM     32  C   UNL A   1      36.595  29.322  28.744  1.00  0.00     0.010 A 
ATOM     33  C   UNL A   1      37.874  31.380  28.676  1.00  0.00     0.010 A 
ATOM     34  C   UNL A   1      37.807  30.000  28.931  1.00  0.00    -0.014 A 
BRANCH  34  35
ATOM     35  C   UNL A   1      38.957  29.316  29.571  1.00  0.00     0.031 A 
ATOM     36  C   UNL A   1      39.411  29.803  30.920  1.00  0.00     0.074 A 
ATOM     37  C   UNL A   1      39.603  28.303  28.966  1.00  0.00     0.049 A 
ATOM     38  N   UNL A   1      40.418  29.409  31.654  1.00  0.00    -0.248 NA
ATOM     39  C   UNL A   1      38.623  30.896  31.511  1.00  0.00     0.031 C 
ATOM     40  C   UNL A   1      39.253  27.727  27.669  1.00  0.00     0.029 A 
ATOM     41  N   UNL A   1      40.708  27.592  29.364  1.00  0.00    -0.354 N 
ATOM     42  C   UNL A   1      40.382  30.197  32.799  1.00  0.00     0.074 A 
ATOM     43  C   UNL A   1      39.282  31.124  32.636  1.00  0.00     0.031 C 
ATOM     44  C   UNL A   1      40.143  26.763  27.367  1.00  0.00     0.029 A 
ATOM     45  C   UNL A   1      41.138  26.672  28.435  1.00  0.00     0.049 A 
ATOM     46  H   UNL A   1      41.152  27.725  30.233  1.00  0.00     0.167 HD
ATOM     47  C   UNL A   1      41.181  30.147  33.892  1.00  0.00     0.034 A 
ATOM     48  C   UNL A   1      42.224  25.871  28.439  1.00  0.00     0.034 A 
ATOM     49  C   UNL A   1      42.292  29.240  34.035  1.00  0.00     0.049 A 
ATOM     50  C   UNL A   1      43.160  25.894  29.626  1.00  0.00     0.074 A 
ATOM     51  C   UNL A   1      43.151  29.089  35.110  1.00  0.00     0.029 A 
ATOM     52  N   UNL A   1      42.715  28.344  33.061  1.00  0.00    -0.354 N 
ATOM     53  N   UNL A   1      43.090  26.614  30.723  1.00  0.00    -0.248 NA
ATOM     54  C   UNL A   1      44.317  24.988  29.579  1.00  0.00     0.031 C 
ATOM     55  C   UNL A   1      44.133  28.155  34.759  1.00  0.00     0.029 A 
ATOM     56  C   UNL A   1      43.845  27.668  33.494  1.00  0.00     0.049 A 
ATOM     57  H   UNL A   1      42.277  28.210  32.190  1.00  0.00     0.167 HD
ATOM     58  C   UNL A   1      44.174  26.221  31.507  1.00  0.00     0.074 A 
ATOM     59  C   UNL A   1      44.879  25.201  30.760  1.00  0.00     0.031 C 
ATOM     60  C   UNL A   1      44.546  26.658  32.737  1.00  0.00     0.034 A 
BRANCH  47  61
ATOM     61  C   UNL A   1      40.900  31.141  34.990  1.00  0.00     0.023 A 
ATOM     62  C   UNL A   1      39.815  30.979  35.870  1.00  0.00     0.031 A 
ATOM     63  C   UNL A   1      41.692  32.294  35.124  1.00  0.00     0.131 A 
ATOM     64  C   UNL A   1      39.504  31.990  36.790  1.00  0.00     0.055 A 
ATOM     65  C   UNL A   1      41.425  33.259  36.097  1.00  0.00     0.041 A 
ATOM     66  F   UNL A   1      42.726  32.514  34.297  1.00  0.00    -0.206 F 
ATOM     67  C   UNL A   1      40.315  33.118  36.926  1.00  0.00     0.022 A 
BRANCH  64  68
ATOM     68  S   UNL A   1      37.938  31.882  37.699  1.00  0.00     0.124 S 
ATOM     69  O   UNL A   1      37.499  30.527  37.371  1.00  0.00    -0.237 OA
ATOM     70  O   UNL A   1      38.359  32.101  39.079  1.00  0.00    -0.237 OA
ATOM     71  O   UNL A   1      37.129  32.948  37.116  1.00  0.00    -0.744 OA
ENDBRANCH  64  68
ENDBRANCH  47  61
BRANCH  48  72
ATOM     72  C   UNL A   1      42.529  25.007  27.262  1.00  0.00     0.023 A 
ATOM     73  C   UNL A   1      42.101  23.671  27.207  1.00  0.00     0.031 A 
ATOM     74  C   UNL A   1      43.319  25.493  26.205  1.00  0.00     0.131 A 
ATOM     75  C   UNL A   1      42.505  22.851  26.140  1.00  0.00     0.055 A 
ATOM     76  C   UNL A   1      43.677  24.688  25.122  1.00  0.00     0.041 A 
ATOM     77  F   UNL A   1      43.758  26.761  26.212  1.00  0.00    -0.206 F 
ATOM     78  C   UNL A   1      43.280  23.354  25.093  1.00  0.00     0.022 A 
BRANCH  75  79
ATOM     79  S   UNL A   1      42.073  21.090  26.185  1.00  0.00     0.124 S 
ATOM     80  O   UNL A   1      40.678  21.116  25.761  1.00  0.00    -0.237 OA
ATOM     81  O   UNL A   1      43.023  20.518  25.235  1.00  0.00    -0.237 OA
ATOM     82  O   UNL A   1      42.294  20.720  27.582  1.00  0.00    -0.744 OA
ENDBRANCH  75  79
ENDBRANCH  48  72
BRANCH  60  83
ATOM     83  C   UNL A   1      45.744  25.996  33.376  1.00  0.00     0.023 A 
ATOM     84  C   UNL A   1      45.614  24.881  34.222  1.00  0.00     0.031 A 
ATOM     85  C   UNL A   1      47.037  26.486  33.119  1.00  0.00     0.131 A 
ATOM     86  C   UNL A   1      46.756  24.316  34.814  1.00  0.00     0.055 A 
ATOM     87  C   UNL A   1      48.172  25.890  33.670  1.00  0.00     0.041 A 
ATOM     88  F   UNL A   1      47.219  27.548  32.320  1.00  0.00    -0.206 F 
ATOM     89  C   UNL A   1      48.035  24.804  34.530  1.00  0.00     0.022 A 
BRANCH  86  90
ATOM     90  S   UNL A   1      46.548  22.971  36.013  1.00  0.00     0.124 S 
ATOM     91  O   UNL A   1      46.258  21.833  35.147  1.00  0.00    -0.237 OA
ATOM     92  O   UNL A   1      47.844  22.947  36.685  1.00  0.00    -0.237 OA
ATOM     93  O   UNL A   1      45.431  23.419  36.842  1.00  0.00    -0.744 OA
ENDBRANCH  86  90
ENDBRANCH  60  83
ENDBRANCH  34  35
ENDBRANCH  27  29
ENDBRANCH  26  27
ENDBRANCH  25  26
ENDBRANCH   1  25
TORSDOF 18
ENDMDL
MODEL 2
REMARK VINA RESULT:     -11.4      1.812      7.729
REMARK SMILES O=C(Cc1ccccc1Nc1c(Cl)cccc1C(F)(F)F)OCCOC(=O)c1ccc(-c2c3nc(c(-c4cc(S(=O)(=O)[O-])ccc4F)c4ccc([nH]4)c(-c4cc(S(=O)(=O)[O-])ccc4F)c4nc(c(-c5cc(S(=O)(=O)[O-])ccc5F)c5ccc2[nH]5)C=C4)C=C3)cc1
REMARK SMILES IDX 23 1 22 2 2 3 1 4 3 5 4 6 5 7 9 8 6 9 8 10 7 11 10 12 11 14
REMARK SMILES IDX 12 15 17 16 13 17 14 18 16 19 15 20 18 21 19 22 20 23 21 24
REMARK SMILES IDX 24 25 25 26 26 27 27 28 28 29 29 30 90 31 30 32 89 33 31 34
REMARK SMILES IDX 32 35 33 36 83 37 34 38 88 39 82 40 84 41 35 42 87 43 81 44
REMARK SMILES IDX 80 45 36 47 68 48 48 49 67 50 49 51 52 52 66 53 85 54 50 55
REMARK SMILES IDX 51 56 65 58 86 59 53 60 37 61 38 62 46 63 39 64 45 65 47 66
REMARK SMILES IDX 44 67 40 68 41 69 42 70 43 71 69 72 70 73 78 74 71 75 77 76
REMARK SMILES IDX 79 77 76 78 72 79 73 80 74 81 75 82 54 83 55 84 63 85 56 86
REMARK SMILES IDX 62 87 64 88 61 89 57 90 58 91 59 92 60 93
REMARK H PARENT 10 13 84 46 52 57
REMARK Flexibility Score: inf
ROOT
ATOM      1  C   UNL A   1      31.551  30.271  26.276  1.00  0.00     0.274 C 
ENDROOT
BRANCH   1   2
ATOM      2  O   UNL A   1      31.940  29.295  27.261  1.00  0.00    -0.462 OA
BRANCH   2   3
ATOM      3  C   UNL A   1      32.233  28.000  27.008  1.00  0.00     0.310 C 
ATOM      4  O   UNL A   1      31.375  27.135  27.187  1.00  0.00    -0.252 OA
BRANCH   3   5
ATOM      5  C   UNL A   1      33.580  27.626  26.433  1.00  0.00     0.160 C 
BRANCH   5   6
ATOM      6  C   UNL A   1      33.540  27.219  24.980  1.00  0.00    -0.013 A 
ATOM      7  C   UNL A   1      33.499  28.238  24.007  1.00  0.00     0.006 A 
ATOM      8  C   UNL A   1      33.618  25.868  24.580  1.00  0.00     0.042 A 
ATOM      9  C   UNL A   1      33.495  27.930  22.652  1.00  0.00     0.000 A 
ATOM     10  C   UNL A   1      33.612  25.585  23.208  1.00  0.00     0.026 A 
ATOM     11  C   UNL A   1      33.543  26.602  22.252  1.00  0.00     0.002 A 
BRANCH   8  12
ATOM     12  N   UNL A   1      33.787  24.848  25.535  1.00  0.00    -0.354 N 
ATOM     13  H   UNL A   1      33.940  25.177  26.450  1.00  0.00     0.167 HD
BRANCH  12  14
ATOM     14  C   UNL A   1      33.778  23.441  25.424  1.00  0.00     0.070 A 
ATOM     15  C   UNL A   1      34.987  22.783  25.088  1.00  0.00     0.065 A 
ATOM     16  C   UNL A   1      32.629  22.656  25.648  1.00  0.00     0.080 A 
ATOM     17  Cl  UNL A   1      36.438  23.684  24.783  1.00  0.00    -0.082 Cl
ATOM     18  C   UNL A   1      35.067  21.394  25.001  1.00  0.00     0.023 A 
ATOM     19  C   UNL A   1      32.739  21.248  25.579  1.00  0.00     0.015 A 
ATOM     20  C   UNL A   1      33.942  20.623  25.258  1.00  0.00     0.002 A 
BRANCH  16  21
ATOM     21  C   UNL A   1      31.256  23.239  25.903  1.00  0.00     0.418 C 
ATOM     22  F   UNL A   1      31.206  23.945  27.071  1.00  0.00    -0.166 F 
ATOM     23  F   UNL A   1      30.882  24.131  24.942  1.00  0.00    -0.166 F 
ATOM     24  F   UNL A   1      30.251  22.327  26.005  1.00  0.00    -0.166 F 
ENDBRANCH  16  21
ENDBRANCH  12  14
ENDBRANCH   8  12
ENDBRANCH   5   6
ENDBRANCH   3   5
ENDBRANCH   2   3
ENDBRANCH   1   2
BRANCH   1  25
ATOM     25  C   UNL A   1      31.675  31.691  26.829  1.00  0.00     0.275 C 
BRANCH  25  26
ATOM     26  O   UNL A   1      33.018  32.171  26.647  1.00  0.00    -0.458 OA
BRANCH  26  27
ATOM     27  C   UNL A   1      33.473  33.024  27.602  1.00  0.00     0.338 C 
ATOM     28  O   UNL A   1      32.870  33.977  28.065  1.00  0.00    -0.246 OA
BRANCH  27  29
ATOM     29  C   UNL A   1      34.738  32.489  28.160  1.00  0.00     0.060 A 
ATOM     30  C   UNL A   1      34.753  31.163  28.613  1.00  0.00     0.016 A 
ATOM     31  C   UNL A   1      35.909  33.254  28.194  1.00  0.00     0.016 A 
ATOM     32  C   UNL A   1      35.928  30.610  29.128  1.00  0.00     0.010 A 
ATOM     33  C   UNL A   1      37.084  32.700  28.713  1.00  0.00     0.010 A 
ATOM     34  C   UNL A   1      37.092  31.385  29.208  1.00  0.00    -0.014 A 
BRANCH  34  35
ATOM     35  C   UNL A   1      38.265  30.899  29.977  1.00  0.00     0.031 A 
ATOM     36  C   UNL A   1      39.148  29.860  29.342  1.00  0.00     0.074 A 
ATOM     37  C   UNL A   1      38.533  31.348  31.216  1.00  0.00     0.049 A 
ATOM     38  N   UNL A   1      40.193  29.243  29.828  1.00  0.00    -0.248 NA
ATOM     39  C   UNL A   1      38.789  29.455  27.973  1.00  0.00     0.031 C 
ATOM     40  C   UNL A   1      37.767  32.364  31.935  1.00  0.00     0.029 A 
ATOM     41  N   UNL A   1      39.521  30.984  32.097  1.00  0.00    -0.354 N 
ATOM     42  C   UNL A   1      40.624  28.382  28.825  1.00  0.00     0.074 A 
ATOM     43  C   UNL A   1      39.696  28.525  27.722  1.00  0.00     0.031 C 
ATOM     44  C   UNL A   1      38.302  32.526  33.159  1.00  0.00     0.029 A 
ATOM     45  C   UNL A   1      39.430  31.609  33.320  1.00  0.00     0.049 A 
ATOM     46  H   UNL A   1      40.230  30.338  31.876  1.00  0.00     0.167 HD
ATOM     47  C   UNL A   1      41.701  27.560  28.814  1.00  0.00     0.034 A 
ATOM     48  C   UNL A   1      40.157  31.438  34.443  1.00  0.00     0.034 A 
ATOM     49  C   UNL A   1      42.603  27.402  29.926  1.00  0.00     0.049 A 
ATOM     50  C   UNL A   1      41.299  30.446  34.445  1.00  0.00     0.074 A 
ATOM     51  C   UNL A   1      43.738  26.615  30.012  1.00  0.00     0.029 A 
ATOM     52  N   UNL A   1      42.461  28.029  31.158  1.00  0.00    -0.354 N 
ATOM     53  N   UNL A   1      41.724  29.669  33.474  1.00  0.00    -0.248 NA
ATOM     54  C   UNL A   1      42.064  30.315  35.694  1.00  0.00     0.031 C 
ATOM     55  C   UNL A   1      44.241  26.710  31.315  1.00  0.00     0.029 A 
ATOM     56  C   UNL A   1      43.464  27.615  32.022  1.00  0.00     0.049 A 
ATOM     57  H   UNL A   1      41.753  28.673  31.385  1.00  0.00     0.167 HD
ATOM     58  C   UNL A   1      42.824  28.985  33.987  1.00  0.00     0.074 A 
ATOM     59  C   UNL A   1      43.000  29.442  35.350  1.00  0.00     0.031 C 
ATOM     60  C   UNL A   1      43.624  28.070  33.382  1.00  0.00     0.034 A 
BRANCH  47  61
ATOM     61  C   UNL A   1      41.917  26.734  27.571  1.00  0.00     0.023 A 
ATOM     62  C   UNL A   1      41.525  25.385  27.507  1.00  0.00     0.031 A 
ATOM     63  C   UNL A   1      42.573  27.284  26.458  1.00  0.00     0.131 A 
ATOM     64  C   UNL A   1      41.863  24.611  26.388  1.00  0.00     0.055 A 
ATOM     65  C   UNL A   1      42.836  26.530  25.313  1.00  0.00     0.041 A 
ATOM     66  F   UNL A   1      42.992  28.559  26.472  1.00  0.00    -0.206 F 
ATOM     67  C   UNL A   1      42.495  25.180  25.280  1.00  0.00     0.022 A 
BRANCH  64  68
ATOM     68  S   UNL A   1      41.604  22.818  26.464  1.00  0.00     0.124 S 
ATOM     69  O   UNL A   1      40.146  22.728  26.419  1.00  0.00    -0.237 OA
ATOM     70  O   UNL A   1      42.311  22.346  25.279  1.00  0.00    -0.237 OA
ATOM     71  O   UNL A   1      42.203  22.438  27.741  1.00  0.00    -0.744 OA
ENDBRANCH  64  68
ENDBRANCH  47  61
BRANCH  48  72
ATOM     72  C   UNL A   1      39.810  32.182  35.688  1.00  0.00     0.023 A 
ATOM     73  C   UNL A   1      38.890  31.666  36.615  1.00  0.00     0.031 A 
ATOM     74  C   UNL A   1      40.345  33.460  35.929  1.00  0.00     0.131 A 
ATOM     75  C   UNL A   1      38.496  32.444  37.716  1.00  0.00     0.055 A 
ATOM     76  C   UNL A   1      39.987  34.210  37.051  1.00  0.00     0.041 A 
ATOM     77  F   UNL A   1      41.224  34.001  35.072  1.00  0.00    -0.206 F 
ATOM     78  C   UNL A   1      39.047  33.707  37.946  1.00  0.00     0.022 A 
BRANCH  75  79
ATOM     79  S   UNL A   1      37.185  31.816  38.801  1.00  0.00     0.124 S 
ATOM     80  O   UNL A   1      37.784  31.986  40.120  1.00  0.00    -0.237 OA
ATOM     81  O   UNL A   1      36.072  32.704  38.481  1.00  0.00    -0.237 OA
ATOM     82  O   UNL A   1      37.017  30.430  38.366  1.00  0.00    -0.744 OA
ENDBRANCH  75  79
ENDBRANCH  48  72
BRANCH  60  83
ATOM     83  C   UNL A   1      44.795  27.539  34.175  1.00  0.00     0.023 A 
ATOM     84  C   UNL A   1      44.710  26.353  34.924  1.00  0.00     0.031 A 
ATOM     85  C   UNL A   1      46.019  28.231  34.167  1.00  0.00     0.131 A 
ATOM     86  C   UNL A   1      45.819  25.914  35.666  1.00  0.00     0.055 A 
ATOM     87  C   UNL A   1      47.133  27.764  34.866  1.00  0.00     0.041 A 
ATOM     88  F   UNL A   1      46.156  29.370  33.469  1.00  0.00    -0.206 F 
ATOM     89  C   UNL A   1      47.034  26.604  35.629  1.00  0.00     0.022 A 
BRANCH  86  90
ATOM     90  S   UNL A   1      45.637  24.460  36.737  1.00  0.00     0.124 S 
ATOM     91  O   UNL A   1      47.000  23.940  36.776  1.00  0.00    -0.237 OA
ATOM     92  O   UNL A   1      45.143  25.047  37.979  1.00  0.00    -0.237 OA
ATOM     93  O   UNL A   1      44.675  23.625  36.022  1.00  0.00    -0.744 OA
ENDBRANCH  86  90
ENDBRANCH  60  83
ENDBRANCH  34  35
ENDBRANCH  27  29
ENDBRANCH  26  27
ENDBRANCH  25  26
ENDBRANCH   1  25
TORSDOF 18
ENDMDL
MODEL 3
REMARK VINA RESULT:     -11.4      4.797     10.093
REMARK SMILES O=C(Cc1ccccc1Nc1c(Cl)cccc1C(F)(F)F)OCCOC(=O)c1ccc(-c2c3nc(c(-c4cc(S(=O)(=O)[O-])ccc4F)c4ccc([nH]4)c(-c4cc(S(=O)(=O)[O-])ccc4F)c4nc(c(-c5cc(S(=O)(=O)[O-])ccc5F)c5ccc2[nH]5)C=C4)C=C3)cc1
REMARK SMILES IDX 23 1 22 2 2 3 1 4 3 5 4 6 5 7 9 8 6 9 8 10 7 11 10 12 11 14
REMARK SMILES IDX 12 15 17 16 13 17 14 18 16 19 15 20 18 21 19 22 20 23 21 24
REMARK SMILES IDX 24 25 25 26 26 27 27 28 28 29 29 30 90 31 30 32 89 33 31 34
REMARK SMILES IDX 32 35 33 36 83 37 34 38 88 39 82 40 84 41 35 42 87 43 81 44
REMARK SMILES IDX 80 45 36 47 68 48 48 49 67 50 49 51 52 52 66 53 85 54 50 55
REMARK SMILES IDX 51 56 65 58 86 59 53 60 37 61 38 62 46 63 39 64 45 65 47 66
REMARK SMILES IDX 44 67 40 68 41 69 42 70 43 71 69 72 70 73 78 74 71 75 77 76
REMARK SMILES IDX 79 77 76 78 72 79 73 80 74 81 75 82 54 83 55 84 63 85 56 86
REMARK SMILES IDX 62 87 64 88 61 89 57 90 58 91 59 92 60 93
REMARK H PARENT 10 13 84 46 52 57
REMARK Flexibility Score: inf
ROOT
ATOM      1  C   UNL A   1      36.962  20.778  24.889  1.00  0.00     0.274 C 
ENDROOT
BRANCH   1   2
ATOM      2  O   UNL A   1      37.022  21.811  23.887  1.00  0.00    -0.462 OA
BRANCH   2   3
ATOM      3  C   UNL A   1      36.314  22.962  23.904  1.00  0.00     0.310 C 
ATOM      4  O   UNL A   1      35.730  23.332  22.884  1.00  0.00    -0.252 OA
BRANCH   3   5
ATOM      5  C   UNL A   1      36.176  23.748  25.187  1.00  0.00     0.160 C 
BRANCH   5   6
ATOM      6  C   UNL A   1      34.803  23.675  25.811  1.00  0.00    -0.013 A 
ATOM      7  C   UNL A   1      34.555  22.653  26.749  1.00  0.00     0.006 A 
ATOM      8  C   UNL A   1      33.805  24.635  25.537  1.00  0.00     0.042 A 
ATOM      9  C   UNL A   1      33.323  22.551  27.384  1.00  0.00     0.000 A 
ATOM     10  C   UNL A   1      32.572  24.510  26.190  1.00  0.00     0.026 A 
ATOM     11  C   UNL A   1      32.327  23.475  27.098  1.00  0.00     0.002 A 
BRANCH   8  12
ATOM     12  N   UNL A   1      34.079  25.732  24.701  1.00  0.00    -0.354 N 
ATOM     13  H   UNL A   1      34.998  25.748  24.347  1.00  0.00     0.167 HD
BRANCH  12  14
ATOM     14  C   UNL A   1      33.282  26.816  24.273  1.00  0.00     0.070 A 
ATOM     15  C   UNL A   1      33.292  28.006  25.043  1.00  0.00     0.065 A 
ATOM     16  C   UNL A   1      32.489  26.779  23.109  1.00  0.00     0.080 A 
ATOM     17  Cl  UNL A   1      34.233  28.121  26.496  1.00  0.00    -0.082 Cl
ATOM     18  C   UNL A   1      32.564  29.132  24.663  1.00  0.00     0.023 A 
ATOM     19  C   UNL A   1      31.777  27.941  22.729  1.00  0.00     0.015 A 
ATOM     20  C   UNL A   1      31.812  29.103  23.496  1.00  0.00     0.002 A 
BRANCH  16  21
ATOM     21  C   UNL A   1      32.302  25.538  22.264  1.00  0.00     0.418 C 
ATOM     22  F   UNL A   1      31.523  25.775  21.168  1.00  0.00    -0.166 F 
ATOM     23  F   UNL A   1      33.480  25.071  21.758  1.00  0.00    -0.166 F 
ATOM     24  F   UNL A   1      31.704  24.491  22.896  1.00  0.00    -0.166 F 
ENDBRANCH  16  21
ENDBRANCH  12  14
ENDBRANCH   8  12
ENDBRANCH   5   6
ENDBRANCH   3   5
ENDBRANCH   2   3
ENDBRANCH   1   2
BRANCH   1  25
ATOM     25  C   UNL A   1      38.364  20.340  25.315  1.00  0.00     0.275 C 
BRANCH  25  26
ATOM     26  O   UNL A   1      39.177  21.496  25.581  1.00  0.00    -0.458 OA
BRANCH  26  27
ATOM     27  C   UNL A   1      40.026  21.387  26.636  1.00  0.00     0.338 C 
ATOM     28  O   UNL A   1      40.581  20.369  27.014  1.00  0.00    -0.246 OA
BRANCH  27  29
ATOM     29  C   UNL A   1      40.354  22.745  27.131  1.00  0.00     0.060 A 
ATOM     30  C   UNL A   1      39.601  23.825  26.649  1.00  0.00     0.016 A 
ATOM     31  C   UNL A   1      41.349  22.958  28.092  1.00  0.00     0.016 A 
ATOM     32  C   UNL A   1      39.862  25.121  27.103  1.00  0.00     0.010 A 
ATOM     33  C   UNL A   1      41.610  24.256  28.542  1.00  0.00     0.010 A 
ATOM     34  C   UNL A   1      40.888  25.347  28.030  1.00  0.00    -0.014 A 
BRANCH  34  35
ATOM     35  C   UNL A   1      41.339  26.729  28.327  1.00  0.00     0.031 A 
ATOM     36  C   UNL A   1      42.752  27.105  27.972  1.00  0.00     0.074 A 
ATOM     37  C   UNL A   1      40.529  27.625  28.918  1.00  0.00     0.049 A 
ATOM     38  N   UNL A   1      43.394  28.225  28.179  1.00  0.00    -0.248 NA
ATOM     39  C   UNL A   1      43.549  26.065  27.303  1.00  0.00     0.031 C 
ATOM     40  C   UNL A   1      39.137  27.391  29.295  1.00  0.00     0.029 A 
ATOM     41  N   UNL A   1      40.776  28.914  29.321  1.00  0.00    -0.354 N 
ATOM     42  C   UNL A   1      44.669  28.030  27.659  1.00  0.00     0.074 A 
ATOM     43  C   UNL A   1      44.720  26.667  27.172  1.00  0.00     0.031 C 
ATOM     44  C   UNL A   1      38.659  28.496  29.898  1.00  0.00     0.029 A 
ATOM     45  C   UNL A   1      39.717  29.504  29.971  1.00  0.00     0.049 A 
ATOM     46  H   UNL A   1      41.631  29.375  29.159  1.00  0.00     0.167 HD
ATOM     47  C   UNL A   1      45.698  28.908  27.580  1.00  0.00     0.034 A 
ATOM     48  C   UNL A   1      39.624  30.706  30.576  1.00  0.00     0.034 A 
ATOM     49  C   UNL A   1      45.649  30.253  28.092  1.00  0.00     0.049 A 
ATOM     50  C   UNL A   1      40.814  31.638  30.561  1.00  0.00     0.074 A 
ATOM     51  C   UNL A   1      46.626  31.232  28.043  1.00  0.00     0.029 A 
ATOM     52  N   UNL A   1      44.569  30.804  28.770  1.00  0.00    -0.354 N 
ATOM     53  N   UNL A   1      42.001  31.459  30.027  1.00  0.00    -0.248 NA
ATOM     54  C   UNL A   1      40.648  32.940  31.224  1.00  0.00     0.031 C 
ATOM     55  C   UNL A   1      46.165  32.348  28.752  1.00  0.00     0.029 A 
ATOM     56  C   UNL A   1      44.871  32.094  29.180  1.00  0.00     0.049 A 
ATOM     57  H   UNL A   1      43.714  30.346  28.937  1.00  0.00     0.167 HD
ATOM     58  C   UNL A   1      42.707  32.638  30.262  1.00  0.00     0.074 A 
ATOM     59  C   UNL A   1      41.814  33.521  30.982  1.00  0.00     0.031 C 
ATOM     60  C   UNL A   1      43.976  32.963  29.906  1.00  0.00     0.034 A 
BRANCH  47  61
ATOM     61  C   UNL A   1      46.977  28.406  26.958  1.00  0.00     0.023 A 
ATOM     62  C   UNL A   1      47.137  28.332  25.563  1.00  0.00     0.031 A 
ATOM     63  C   UNL A   1      48.028  27.945  27.768  1.00  0.00     0.131 A 
ATOM     64  C   UNL A   1      48.284  27.735  25.021  1.00  0.00     0.055 A 
ATOM     65  C   UNL A   1      49.203  27.425  27.222  1.00  0.00     0.041 A 
ATOM     66  F   UNL A   1      47.921  27.968  29.106  1.00  0.00    -0.206 F 
ATOM     67  C   UNL A   1      49.329  27.302  25.841  1.00  0.00     0.022 A 
BRANCH  64  68
ATOM     68  S   UNL A   1      48.324  27.392  23.241  1.00  0.00     0.124 S 
ATOM     69  O   UNL A   1      47.180  28.166  22.765  1.00  0.00    -0.237 OA
ATOM     70  O   UNL A   1      49.639  27.890  22.853  1.00  0.00    -0.237 OA
ATOM     71  O   UNL A   1      48.159  25.943  23.167  1.00  0.00    -0.744 OA
ENDBRANCH  64  68
ENDBRANCH  47  61
BRANCH  48  72
ATOM     72  C   UNL A   1      38.378  31.094  31.297  1.00  0.00     0.023 A 
ATOM     73  C   UNL A   1      37.298  31.685  30.623  1.00  0.00     0.031 A 
ATOM     74  C   UNL A   1      38.283  30.942  32.693  1.00  0.00     0.131 A 
ATOM     75  C   UNL A   1      36.188  32.146  31.350  1.00  0.00     0.055 A 
ATOM     76  C   UNL A   1      37.157  31.358  33.405  1.00  0.00     0.041 A 
ATOM     77  F   UNL A   1      39.290  30.389  33.385  1.00  0.00    -0.206 F 
ATOM     78  C   UNL A   1      36.106  31.977  32.734  1.00  0.00     0.022 A 
BRANCH  75  79
ATOM     79  S   UNL A   1      34.886  33.051  30.469  1.00  0.00     0.124 S 
ATOM     80  O   UNL A   1      35.611  34.223  29.990  1.00  0.00    -0.237 OA
ATOM     81  O   UNL A   1      34.479  32.088  29.451  1.00  0.00    -0.237 OA
ATOM     82  O   UNL A   1      33.891  33.315  31.507  1.00  0.00    -0.744 OA
ENDBRANCH  75  79
ENDBRANCH  48  72
BRANCH  60  83
ATOM     83  C   UNL A   1      44.456  34.355  30.244  1.00  0.00     0.023 A 
ATOM     84  C   UNL A   1      44.221  35.450  29.396  1.00  0.00     0.031 A 
ATOM     85  C   UNL A   1      45.151  34.585  31.445  1.00  0.00     0.131 A 
ATOM     86  C   UNL A   1      44.711  36.720  29.741  1.00  0.00     0.055 A 
ATOM     87  C   UNL A   1      45.593  35.858  31.808  1.00  0.00     0.041 A 
ATOM     88  F   UNL A   1      45.404  33.575  32.292  1.00  0.00    -0.206 F 
ATOM     89  C   UNL A   1      45.381  36.933  30.949  1.00  0.00     0.022 A 
BRANCH  86  90
ATOM     90  S   UNL A   1      44.519  38.086  28.562  1.00  0.00     0.124 S 
ATOM     91  O   UNL A   1      43.798  37.444  27.468  1.00  0.00    -0.237 OA
ATOM     92  O   UNL A   1      43.762  39.064  29.337  1.00  0.00    -0.237 OA
ATOM     93  O   UNL A   1      45.894  38.471  28.255  1.00  0.00    -0.744 OA
ENDBRANCH  86  90
ENDBRANCH  60  83
ENDBRANCH  34  35
ENDBRANCH  27  29
ENDBRANCH  26  27
ENDBRANCH  25  26
ENDBRANCH   1  25
TORSDOF 18
ENDMDL
