MODEL 1
REMARK VINA RESULT:     -11.4      0.000      0.000
REMARK SMILES Cc1ccc(C(N)=O)c(NCc2ccc(C(=O)OCCOC(=O)c3ccc(-c4c5nc(c(-c6cc(S(=O)(=O)[O-])ccc6F)c6ccc([nH]6)c(-c6cc(S(=O)(=O)[O-])ccc6F)c6nc(c(-c7cc(S(=O)(=O)[O-])ccc7F)c7ccc4[nH]7)C=C6)C=C5)cc3)o2)n1
REMARK SMILES IDX 19 1 18 2 16 3 17 4 15 5 12 6 13 7 87 8 14 9 11 10 10 11
REMARK SMILES IDX 9 13 1 14 2 15 3 16 88 17 4 18 5 19 6 20 7 21 8 22 20 25
REMARK SMILES IDX 21 26 22 27 23 28 24 29 25 30 86 31 26 32 85 33 27 34 28 35
REMARK SMILES IDX 29 36 79 37 30 38 84 39 78 40 80 41 31 42 83 43 77 44 76 45
REMARK SMILES IDX 32 47 64 48 44 49 63 50 45 51 48 52 62 53 81 54 46 55 47 56
REMARK SMILES IDX 61 58 82 59 49 60 33 61 34 62 42 63 35 64 41 65 43 66 40 67
REMARK SMILES IDX 36 68 37 69 38 70 39 71 65 72 66 73 74 74 67 75 73 76 75 77
REMARK SMILES IDX 72 78 68 79 69 80 70 81 71 82 50 83 51 84 59 85 52 86 58 87
REMARK SMILES IDX 60 88 57 89 53 90 54 91 55 92 56 93
REMARK H PARENT 10 12 7 23 7 24 80 46 48 57
REMARK Flexibility Score: inf
ROOT
ATOM      1  C   UNL A   1      31.109  29.575  24.584  1.00  0.00     0.275 C 
ENDROOT
BRANCH   1   2
ATOM      2  O   UNL A   1      30.680  28.232  24.290  1.00  0.00    -0.456 OA
BRANCH   2   3
ATOM      3  C   UNL A   1      30.895  27.815  23.003  1.00  0.00     0.374 C 
ATOM      4  O   UNL A   1      30.277  28.232  22.036  1.00  0.00    -0.242 OA
BRANCH   3   5
ATOM      5  C   UNL A   1      32.009  26.893  22.959  1.00  0.00     0.211 A 
ATOM      6  C   UNL A   1      33.618  25.716  23.917  1.00  0.00     0.124 A 
ATOM      7  C   UNL A   1      33.535  25.275  22.613  1.00  0.00     0.048 A 
ATOM      8  O   UNL A   1      32.746  26.747  24.105  1.00  0.00    -0.452 OA
ATOM      9  C   UNL A   1      32.490  26.018  22.002  1.00  0.00     0.058 A 
BRANCH   6  10
ATOM     10  C   UNL A   1      34.374  25.279  25.131  1.00  0.00     0.190 C 
BRANCH  10  11
ATOM     11  N   UNL A   1      33.662  24.341  25.992  1.00  0.00    -0.362 N 
ATOM     12  H   UNL A   1      33.254  24.649  26.833  1.00  0.00     0.162 HD
BRANCH  11  13
ATOM     13  C   UNL A   1      33.568  23.005  25.611  1.00  0.00     0.139 A 
ATOM     14  C   UNL A   1      36.049  20.351  25.000  1.00  0.00     0.067 C 
ATOM     15  C   UNL A   1      34.714  21.016  25.133  1.00  0.00     0.040 A 
ATOM     16  C   UNL A   1      33.536  20.296  25.043  1.00  0.00     0.024 A 
ATOM     17  N   UNL A   1      34.730  22.345  25.389  1.00  0.00    -0.236 NA
ATOM     18  C   UNL A   1      32.336  20.973  25.218  1.00  0.00     0.019 A 
ATOM     19  C   UNL A   1      32.335  22.347  25.502  1.00  0.00     0.081 A 
BRANCH  19  20
ATOM     20  C   UNL A   1      31.002  22.997  25.650  1.00  0.00     0.252 C 
ATOM     21  N   UNL A   1      30.094  22.434  26.501  1.00  0.00    -0.365 N 
ATOM     22  O   UNL A   1      30.728  24.036  25.057  1.00  0.00    -0.269 OA
ATOM     23  H   UNL A   1      30.316  21.601  26.975  1.00  0.00     0.159 HD
ATOM     24  H   UNL A   1      29.219  22.862  26.640  1.00  0.00     0.159 HD
ENDBRANCH  19  20
ENDBRANCH  11  13
ENDBRANCH  10  11
ENDBRANCH   6  10
ENDBRANCH   3   5
ENDBRANCH   2   3
ENDBRANCH   1   2
BRANCH   1  25
ATOM     25  C   UNL A   1      31.740  29.679  25.978  1.00  0.00     0.275 C 
BRANCH  25  26
ATOM     26  O   UNL A   1      33.043  30.294  25.947  1.00  0.00    -0.458 OA
BRANCH  26  27
ATOM     27  C   UNL A   1      33.262  31.230  26.902  1.00  0.00     0.338 C 
ATOM     28  O   UNL A   1      32.493  32.116  27.239  1.00  0.00    -0.246 OA
BRANCH  27  29
ATOM     29  C   UNL A   1      34.531  30.953  27.601  1.00  0.00     0.060 A 
ATOM     30  C   UNL A   1      34.747  29.652  28.058  1.00  0.00     0.016 A 
ATOM     31  C   UNL A   1      35.467  31.954  27.866  1.00  0.00     0.016 A 
ATOM     32  C   UNL A   1      35.896  29.337  28.776  1.00  0.00     0.010 A 
ATOM     33  C   UNL A   1      36.623  31.640  28.594  1.00  0.00     0.010 A 
ATOM     34  C   UNL A   1      36.840  30.329  29.060  1.00  0.00    -0.014 A 
BRANCH  34  35
ATOM     35  C   UNL A   1      38.022  29.989  29.892  1.00  0.00     0.031 A 
ATOM     36  C   UNL A   1      39.070  29.055  29.356  1.00  0.00     0.074 A 
ATOM     37  C   UNL A   1      38.176  30.557  31.103  1.00  0.00     0.049 A 
ATOM     38  N   UNL A   1      40.156  28.610  29.931  1.00  0.00    -0.248 NA
ATOM     39  C   UNL A   1      38.863  28.558  27.988  1.00  0.00     0.031 C 
ATOM     40  C   UNL A   1      37.250  31.518  31.705  1.00  0.00     0.029 A 
ATOM     41  N   UNL A   1      39.166  30.413  32.042  1.00  0.00    -0.354 N 
ATOM     42  C   UNL A   1      40.763  27.772  29.002  1.00  0.00     0.074 A 
ATOM     43  C   UNL A   1      39.902  27.751  27.836  1.00  0.00     0.031 C 
ATOM     44  C   UNL A   1      37.719  31.878  32.912  1.00  0.00     0.029 A 
ATOM     45  C   UNL A   1      38.950  31.141  33.188  1.00  0.00     0.049 A 
ATOM     46  H   UNL A   1      39.957  29.842  31.908  1.00  0.00     0.167 HD
ATOM     47  C   UNL A   1      41.931  27.090  29.111  1.00  0.00     0.034 A 
ATOM     48  C   UNL A   1      39.648  31.188  34.340  1.00  0.00     0.034 A 
ATOM     49  C   UNL A   1      42.773  27.117  30.283  1.00  0.00     0.049 A 
ATOM     50  C   UNL A   1      40.900  30.358  34.468  1.00  0.00     0.074 A 
ATOM     51  C   UNL A   1      43.977  26.468  30.498  1.00  0.00     0.029 A 
ATOM     52  N   UNL A   1      42.494  27.823  31.448  1.00  0.00    -0.354 N 
ATOM     53  N   UNL A   1      41.457  29.560  33.585  1.00  0.00    -0.248 NA
ATOM     54  C   UNL A   1      41.619  30.436  35.747  1.00  0.00     0.031 C 
ATOM     55  C   UNL A   1      44.392  26.729  31.808  1.00  0.00     0.029 A 
ATOM     56  C   UNL A   1      43.486  27.600  32.392  1.00  0.00     0.049 A 
ATOM     57  H   UNL A   1      41.707  28.399  31.582  1.00  0.00     0.167 HD
ATOM     58  C   UNL A   1      42.604  29.061  34.196  1.00  0.00     0.074 A 
ATOM     59  C   UNL A   1      42.667  29.658  35.514  1.00  0.00     0.031 C 
ATOM     60  C   UNL A   1      43.526  28.190  33.709  1.00  0.00     0.034 A 
BRANCH  47  61
ATOM     61  C   UNL A   1      42.329  26.214  27.947  1.00  0.00     0.023 A 
ATOM     62  C   UNL A   1      41.809  24.918  27.783  1.00  0.00     0.031 A 
ATOM     63  C   UNL A   1      43.272  26.670  27.009  1.00  0.00     0.131 A 
ATOM     64  C   UNL A   1      42.286  24.099  26.748  1.00  0.00     0.055 A 
ATOM     65  C   UNL A   1      43.687  25.876  25.937  1.00  0.00     0.041 A 
ATOM     66  F   UNL A   1      43.821  27.888  27.128  1.00  0.00    -0.206 F 
ATOM     67  C   UNL A   1      43.204  24.577  25.812  1.00  0.00     0.022 A 
BRANCH  64  68
ATOM     68  S   UNL A   1      41.797  22.352  26.730  1.00  0.00     0.124 S 
ATOM     69  O   UNL A   1      42.645  21.797  27.782  1.00  0.00    -0.237 OA
ATOM     70  O   UNL A   1      40.371  22.421  27.028  1.00  0.00    -0.237 OA
ATOM     71  O   UNL A   1      42.133  21.917  25.376  1.00  0.00    -0.744 OA
ENDBRANCH  64  68
ENDBRANCH  47  61
BRANCH  48  72
ATOM     72  C   UNL A   1      39.158  32.008  35.486  1.00  0.00     0.023 A 
ATOM     73  C   UNL A   1      38.521  31.416  36.588  1.00  0.00     0.031 A 
ATOM     74  C   UNL A   1      39.284  33.409  35.470  1.00  0.00     0.131 A 
ATOM     75  C   UNL A   1      37.997  32.225  37.608  1.00  0.00     0.055 A 
ATOM     76  C   UNL A   1      38.807  34.205  36.511  1.00  0.00     0.041 A 
ATOM     77  F   UNL A   1      39.883  34.025  34.438  1.00  0.00    -0.206 F 
ATOM     78  C   UNL A   1      38.147  33.614  37.584  1.00  0.00     0.022 A 
BRANCH  75  79
ATOM     79  S   UNL A   1      37.041  31.441  38.937  1.00  0.00     0.124 S 
ATOM     80  O   UNL A   1      35.831  32.255  38.953  1.00  0.00    -0.237 OA
ATOM     81  O   UNL A   1      36.891  30.078  38.437  1.00  0.00    -0.237 OA
ATOM     82  O   UNL A   1      37.905  31.582  40.107  1.00  0.00    -0.744 OA
ENDBRANCH  75  79
ENDBRANCH  48  72
BRANCH  60  83
ATOM     83  C   UNL A   1      44.699  27.870  34.603  1.00  0.00     0.023 A 
ATOM     84  C   UNL A   1      44.705  26.738  35.439  1.00  0.00     0.031 A 
ATOM     85  C   UNL A   1      45.819  28.719  34.630  1.00  0.00     0.131 A 
ATOM     86  C   UNL A   1      45.787  26.517  36.304  1.00  0.00     0.055 A 
ATOM     87  C   UNL A   1      46.915  28.464  35.453  1.00  0.00     0.041 A 
ATOM     88  F   UNL A   1      45.864  29.814  33.853  1.00  0.00    -0.206 F 
ATOM     89  C   UNL A   1      46.899  27.364  36.306  1.00  0.00     0.022 A 
BRANCH  86  90
ATOM     90  S   UNL A   1      45.688  25.150  37.493  1.00  0.00     0.124 S 
ATOM     91  O   UNL A   1      46.040  25.811  38.746  1.00  0.00    -0.237 OA
ATOM     92  O   UNL A   1      44.297  24.726  37.366  1.00  0.00    -0.237 OA
ATOM     93  O   UNL A   1      46.675  24.192  37.000  1.00  0.00    -0.744 OA
ENDBRANCH  86  90
ENDBRANCH  60  83
ENDBRANCH  34  35
ENDBRANCH  27  29
ENDBRANCH  26  27
ENDBRANCH  25  26
ENDBRANCH   1  25
TORSDOF 18
ENDMDL
MODEL 2
REMARK VINA RESULT:     -11.1      1.673      2.213
REMARK SMILES Cc1ccc(C(N)=O)c(NCc2ccc(C(=O)OCCOC(=O)c3ccc(-c4c5nc(c(-c6cc(S(=O)(=O)[O-])ccc6F)c6ccc([nH]6)c(-c6cc(S(=O)(=O)[O-])ccc6F)c6nc(c(-c7cc(S(=O)(=O)[O-])ccc7F)c7ccc4[nH]7)C=C6)C=C5)cc3)o2)n1
REMARK SMILES IDX 19 1 18 2 16 3 17 4 15 5 12 6 13 7 87 8 14 9 11 10 10 11
REMARK SMILES IDX 9 13 1 14 2 15 3 16 88 17 4 18 5 19 6 20 7 21 8 22 20 25
REMARK SMILES IDX 21 26 22 27 23 28 24 29 25 30 86 31 26 32 85 33 27 34 28 35
REMARK SMILES IDX 29 36 79 37 30 38 84 39 78 40 80 41 31 42 83 43 77 44 76 45
REMARK SMILES IDX 32 47 64 48 44 49 63 50 45 51 48 52 62 53 81 54 46 55 47 56
REMARK SMILES IDX 61 58 82 59 49 60 33 61 34 62 42 63 35 64 41 65 43 66 40 67
REMARK SMILES IDX 36 68 37 69 38 70 39 71 65 72 66 73 74 74 67 75 73 76 75 77
REMARK SMILES IDX 72 78 68 79 69 80 70 81 71 82 50 83 51 84 59 85 52 86 58 87
REMARK SMILES IDX 60 88 57 89 53 90 54 91 55 92 56 93
REMARK H PARENT 10 12 7 23 7 24 80 46 48 57
REMARK Flexibility Score: inf
ROOT
ATOM      1  C   UNL A   1      32.043  28.205  25.472  1.00  0.00     0.275 C 
ENDROOT
BRANCH   1   2
ATOM      2  O   UNL A   1      30.804  27.470  25.449  1.00  0.00    -0.456 OA
BRANCH   2   3
ATOM      3  C   UNL A   1      30.418  27.007  24.220  1.00  0.00     0.374 C 
ATOM      4  O   UNL A   1      29.885  27.697  23.364  1.00  0.00    -0.242 OA
BRANCH   3   5
ATOM      5  C   UNL A   1      30.817  25.626  24.060  1.00  0.00     0.211 A 
ATOM      6  C   UNL A   1      30.971  23.536  24.770  1.00  0.00     0.124 A 
ATOM      7  C   UNL A   1      31.333  23.525  23.439  1.00  0.00     0.048 A 
ATOM      8  O   UNL A   1      30.731  24.819  25.165  1.00  0.00    -0.452 OA
ATOM      9  C   UNL A   1      31.218  24.863  22.979  1.00  0.00     0.058 A 
BRANCH   6  10
ATOM     10  C   UNL A   1      30.727  22.485  25.804  1.00  0.00     0.190 C 
BRANCH  10  11
ATOM     11  N   UNL A   1      31.915  22.059  26.537  1.00  0.00    -0.362 N 
ATOM     12  H   UNL A   1      32.086  22.395  27.447  1.00  0.00     0.162 HD
BRANCH  11  13
ATOM     13  C   UNL A   1      32.804  21.174  25.935  1.00  0.00     0.139 A 
ATOM     14  C   UNL A   1      32.416  17.907  24.276  1.00  0.00     0.067 C 
ATOM     15  C   UNL A   1      33.084  19.140  24.802  1.00  0.00     0.040 A 
ATOM     16  C   UNL A   1      34.417  19.405  24.545  1.00  0.00     0.024 A 
ATOM     17  N   UNL A   1      32.300  19.994  25.501  1.00  0.00    -0.236 NA
ATOM     18  C   UNL A   1      34.959  20.588  25.032  1.00  0.00     0.019 A 
ATOM     19  C   UNL A   1      34.156  21.493  25.742  1.00  0.00     0.081 A 
BRANCH  19  20
ATOM     20  C   UNL A   1      34.825  22.725  26.248  1.00  0.00     0.252 C 
ATOM     21  N   UNL A   1      36.176  22.698  26.443  1.00  0.00    -0.365 N 
ATOM     22  O   UNL A   1      34.194  23.758  26.449  1.00  0.00    -0.269 OA
ATOM     23  H   UNL A   1      36.680  21.868  26.281  1.00  0.00     0.159 HD
ATOM     24  H   UNL A   1      36.646  23.508  26.746  1.00  0.00     0.159 HD
ENDBRANCH  19  20
ENDBRANCH  11  13
ENDBRANCH  10  11
ENDBRANCH   6  10
ENDBRANCH   3   5
ENDBRANCH   2   3
ENDBRANCH   1   2
BRANCH   1  25
ATOM     25  C   UNL A   1      31.858  29.614  26.047  1.00  0.00     0.275 C 
BRANCH  25  26
ATOM     26  O   UNL A   1      33.042  30.424  25.907  1.00  0.00    -0.458 OA
BRANCH  26  27
ATOM     27  C   UNL A   1      33.236  31.338  26.889  1.00  0.00     0.338 C 
ATOM     28  O   UNL A   1      32.440  32.189  27.254  1.00  0.00    -0.246 OA
BRANCH  27  29
ATOM     29  C   UNL A   1      34.515  31.080  27.576  1.00  0.00     0.060 A 
ATOM     30  C   UNL A   1      34.769  29.776  28.002  1.00  0.00     0.016 A 
ATOM     31  C   UNL A   1      35.424  32.101  27.861  1.00  0.00     0.016 A 
ATOM     32  C   UNL A   1      35.930  29.476  28.708  1.00  0.00     0.010 A 
ATOM     33  C   UNL A   1      36.592  31.802  28.577  1.00  0.00     0.010 A 
ATOM     34  C   UNL A   1      36.848  30.488  29.011  1.00  0.00    -0.014 A 
BRANCH  34  35
ATOM     35  C   UNL A   1      38.043  30.162  29.830  1.00  0.00     0.031 A 
ATOM     36  C   UNL A   1      39.074  29.206  29.301  1.00  0.00     0.074 A 
ATOM     37  C   UNL A   1      38.223  30.760  31.023  1.00  0.00     0.049 A 
ATOM     38  N   UNL A   1      40.168  28.769  29.867  1.00  0.00    -0.248 NA
ATOM     39  C   UNL A   1      38.838  28.674  27.950  1.00  0.00     0.031 C 
ATOM     40  C   UNL A   1      37.315  31.743  31.615  1.00  0.00     0.029 A 
ATOM     41  N   UNL A   1      39.229  30.634  31.946  1.00  0.00    -0.354 N 
ATOM     42  C   UNL A   1      40.752  27.902  28.950  1.00  0.00     0.074 A 
ATOM     43  C   UNL A   1      39.870  27.856  27.801  1.00  0.00     0.031 C 
ATOM     44  C   UNL A   1      37.808  32.132  32.803  1.00  0.00     0.029 A 
ATOM     45  C   UNL A   1      39.038  31.394  33.077  1.00  0.00     0.049 A 
ATOM     46  H   UNL A   1      40.014  30.055  31.814  1.00  0.00     0.167 HD
ATOM     47  C   UNL A   1      41.917  27.216  29.055  1.00  0.00     0.034 A 
ATOM     48  C   UNL A   1      39.758  31.467  34.214  1.00  0.00     0.034 A 
ATOM     49  C   UNL A   1      42.781  27.267  30.211  1.00  0.00     0.049 A 
ATOM     50  C   UNL A   1      41.007  30.631  34.342  1.00  0.00     0.074 A 
ATOM     51  C   UNL A   1      43.984  26.616  30.421  1.00  0.00     0.029 A 
ATOM     52  N   UNL A   1      42.528  28.006  31.361  1.00  0.00    -0.354 N 
ATOM     53  N   UNL A   1      41.542  29.806  33.470  1.00  0.00    -0.248 NA
ATOM     54  C   UNL A   1      41.750  30.738  35.604  1.00  0.00     0.031 C 
ATOM     55  C   UNL A   1      44.426  26.909  31.716  1.00  0.00     0.029 A 
ATOM     56  C   UNL A   1      43.535  27.801  32.293  1.00  0.00     0.049 A 
ATOM     57  H   UNL A   1      41.747  28.590  31.495  1.00  0.00     0.167 HD
ATOM     58  C   UNL A   1      42.697  29.315  34.073  1.00  0.00     0.074 A 
ATOM     59  C   UNL A   1      42.788  29.947  35.373  1.00  0.00     0.031 C 
ATOM     60  C   UNL A   1      43.604  28.425  33.593  1.00  0.00     0.034 A 
BRANCH  47  61
ATOM     61  C   UNL A   1      42.288  26.306  27.909  1.00  0.00     0.023 A 
ATOM     62  C   UNL A   1      41.797  24.992  27.816  1.00  0.00     0.031 A 
ATOM     63  C   UNL A   1      43.177  26.749  26.913  1.00  0.00     0.131 A 
ATOM     64  C   UNL A   1      42.251  24.146  26.792  1.00  0.00     0.055 A 
ATOM     65  C   UNL A   1      43.566  25.926  25.854  1.00  0.00     0.041 A 
ATOM     66  F   UNL A   1      43.696  27.985  26.961  1.00  0.00    -0.206 F 
ATOM     67  C   UNL A   1      43.114  24.611  25.798  1.00  0.00     0.022 A 
BRANCH  64  68
ATOM     68  S   UNL A   1      41.810  22.387  26.861  1.00  0.00     0.124 S 
ATOM     69  O   UNL A   1      40.400  22.451  27.239  1.00  0.00    -0.237 OA
ATOM     70  O   UNL A   1      42.087  21.939  25.501  1.00  0.00    -0.237 OA
ATOM     71  O   UNL A   1      42.699  21.851  27.889  1.00  0.00    -0.744 OA
ENDBRANCH  64  68
ENDBRANCH  47  61
BRANCH  48  72
ATOM     72  C   UNL A   1      39.295  32.320  35.347  1.00  0.00     0.023 A 
ATOM     73  C   UNL A   1      39.746  33.640  35.498  1.00  0.00     0.031 A 
ATOM     74  C   UNL A   1      38.424  31.803  36.324  1.00  0.00     0.131 A 
ATOM     75  C   UNL A   1      39.356  34.386  36.622  1.00  0.00     0.055 A 
ATOM     76  C   UNL A   1      38.000  32.566  37.411  1.00  0.00     0.041 A 
ATOM     77  F   UNL A   1      37.966  30.544  36.228  1.00  0.00    -0.206 F 
ATOM     78  C   UNL A   1      38.476  33.863  37.572  1.00  0.00     0.022 A 
BRANCH  75  79
ATOM     79  S   UNL A   1      40.082  36.031  36.868  1.00  0.00     0.124 S 
ATOM     80  O   UNL A   1      39.725  36.704  35.624  1.00  0.00    -0.237 OA
ATOM     81  O   UNL A   1      39.390  36.490  38.068  1.00  0.00    -0.237 OA
ATOM     82  O   UNL A   1      41.506  35.752  37.041  1.00  0.00    -0.744 OA
ENDBRANCH  75  79
ENDBRANCH  48  72
BRANCH  60  83
ATOM     83  C   UNL A   1      44.791  28.121  34.473  1.00  0.00     0.023 A 
ATOM     84  C   UNL A   1      44.769  27.069  35.407  1.00  0.00     0.031 A 
ATOM     85  C   UNL A   1      45.954  28.905  34.387  1.00  0.00     0.131 A 
ATOM     86  C   UNL A   1      45.869  26.866  36.254  1.00  0.00     0.055 A 
ATOM     87  C   UNL A   1      47.066  28.663  35.194  1.00  0.00     0.041 A 
ATOM     88  F   UNL A   1      46.028  29.924  33.513  1.00  0.00    -0.206 F 
ATOM     89  C   UNL A   1      47.023  27.646  36.143  1.00  0.00     0.022 A 
BRANCH  86  90
ATOM     90  S   UNL A   1      45.743  25.617  37.564  1.00  0.00     0.124 S 
ATOM     91  O   UNL A   1      45.911  26.423  38.770  1.00  0.00    -0.237 OA
ATOM     92  O   UNL A   1      44.408  25.069  37.345  1.00  0.00    -0.237 OA
ATOM     93  O   UNL A   1      46.843  24.700  37.274  1.00  0.00    -0.744 OA
ENDBRANCH  86  90
ENDBRANCH  60  83
ENDBRANCH  34  35
ENDBRANCH  27  29
ENDBRANCH  26  27
ENDBRANCH  25  26
ENDBRANCH   1  25
TORSDOF 18
ENDMDL
MODEL 3
REMARK VINA RESULT:     -11.0      2.472      8.380
REMARK SMILES Cc1ccc(C(N)=O)c(NCc2ccc(C(=O)OCCOC(=O)c3ccc(-c4c5nc(c(-c6cc(S(=O)(=O)[O-])ccc6F)c6ccc([nH]6)c(-c6cc(S(=O)(=O)[O-])ccc6F)c6nc(c(-c7cc(S(=O)(=O)[O-])ccc7F)c7ccc4[nH]7)C=C6)C=C5)cc3)o2)n1
REMARK SMILES IDX 19 1 18 2 16 3 17 4 15 5 12 6 13 7 87 8 14 9 11 10 10 11
REMARK SMILES IDX 9 13 1 14 2 15 3 16 88 17 4 18 5 19 6 20 7 21 8 22 20 25
REMARK SMILES IDX 21 26 22 27 23 28 24 29 25 30 86 31 26 32 85 33 27 34 28 35
REMARK SMILES IDX 29 36 79 37 30 38 84 39 78 40 80 41 31 42 83 43 77 44 76 45
REMARK SMILES IDX 32 47 64 48 44 49 63 50 45 51 48 52 62 53 81 54 46 55 47 56
REMARK SMILES IDX 61 58 82 59 49 60 33 61 34 62 42 63 35 64 41 65 43 66 40 67
REMARK SMILES IDX 36 68 37 69 38 70 39 71 65 72 66 73 74 74 67 75 73 76 75 77
REMARK SMILES IDX 72 78 68 79 69 80 70 81 71 82 50 83 51 84 59 85 52 86 58 87
REMARK SMILES IDX 60 88 57 89 53 90 54 91 55 92 56 93
REMARK H PARENT 10 12 7 23 7 24 80 46 48 57
REMARK Flexibility Score: inf
ROOT
ATOM      1  C   UNL A   1      31.343  30.857  26.310  1.00  0.00     0.275 C 
ENDROOT
BRANCH   1   2
ATOM      2  O   UNL A   1      32.106  29.943  27.119  1.00  0.00    -0.456 OA
BRANCH   2   3
ATOM      3  C   UNL A   1      33.078  29.242  26.457  1.00  0.00     0.374 C 
ATOM      4  O   UNL A   1      34.169  29.701  26.156  1.00  0.00    -0.242 OA
BRANCH   3   5
ATOM      5  C   UNL A   1      32.655  27.873  26.258  1.00  0.00     0.211 A 
ATOM      6  C   UNL A   1      31.136  26.343  25.762  1.00  0.00     0.124 A 
ATOM      7  C   UNL A   1      32.352  25.692  25.790  1.00  0.00     0.048 A 
ATOM      8  O   UNL A   1      31.311  27.648  26.119  1.00  0.00    -0.452 OA
ATOM      9  C   UNL A   1      33.329  26.677  26.092  1.00  0.00     0.058 A 
BRANCH   6  10
ATOM     10  C   UNL A   1      29.745  25.960  25.373  1.00  0.00     0.190 C 
BRANCH  10  11
ATOM     11  N   UNL A   1      29.459  26.054  23.945  1.00  0.00    -0.362 N 
ATOM     12  H   UNL A   1      29.224  25.247  23.430  1.00  0.00     0.162 HD
BRANCH  11  13
ATOM     13  C   UNL A   1      29.525  27.294  23.317  1.00  0.00     0.139 A 
ATOM     14  C   UNL A   1      27.378  30.288  23.362  1.00  0.00     0.067 C 
ATOM     15  C   UNL A   1      28.534  29.399  23.022  1.00  0.00     0.040 A 
ATOM     16  C   UNL A   1      29.613  29.865  22.292  1.00  0.00     0.024 A 
ATOM     17  N   UNL A   1      28.480  28.135  23.505  1.00  0.00    -0.236 NA
ATOM     18  C   UNL A   1      30.667  28.994  22.049  1.00  0.00     0.019 A 
ATOM     19  C   UNL A   1      30.637  27.686  22.558  1.00  0.00     0.081 A 
BRANCH  19  20
ATOM     20  C   UNL A   1      31.799  26.814  22.228  1.00  0.00     0.252 C 
ATOM     21  N   UNL A   1      33.009  27.402  21.996  1.00  0.00    -0.365 N 
ATOM     22  O   UNL A   1      31.693  25.592  22.201  1.00  0.00    -0.269 OA
ATOM     23  H   UNL A   1      33.091  28.383  22.018  1.00  0.00     0.159 HD
ATOM     24  H   UNL A   1      33.799  26.846  21.808  1.00  0.00     0.159 HD
ENDBRANCH  19  20
ENDBRANCH  11  13
ENDBRANCH  10  11
ENDBRANCH   6  10
ENDBRANCH   3   5
ENDBRANCH   2   3
ENDBRANCH   1   2
BRANCH   1  25
ATOM     25  C   UNL A   1      31.415  32.291  26.848  1.00  0.00     0.275 C 
BRANCH  25  26
ATOM     26  O   UNL A   1      32.714  32.886  26.655  1.00  0.00    -0.458 OA
BRANCH  26  27
ATOM     27  C   UNL A   1      33.181  33.606  27.703  1.00  0.00     0.338 C 
ATOM     28  O   UNL A   1      32.633  34.563  28.227  1.00  0.00    -0.246 OA
BRANCH  27  29
ATOM     29  C   UNL A   1      34.407  32.985  28.238  1.00  0.00     0.060 A 
ATOM     30  C   UNL A   1      34.278  31.761  28.896  1.00  0.00     0.016 A 
ATOM     31  C   UNL A   1      35.652  33.612  28.160  1.00  0.00     0.016 A 
ATOM     32  C   UNL A   1      35.386  31.150  29.475  1.00  0.00     0.010 A 
ATOM     33  C   UNL A   1      36.768  33.001  28.748  1.00  0.00     0.010 A 
ATOM     34  C   UNL A   1      36.640  31.768  29.416  1.00  0.00    -0.014 A 
BRANCH  34  35
ATOM     35  C   UNL A   1      37.793  31.137  30.105  1.00  0.00     0.031 A 
ATOM     36  C   UNL A   1      38.108  31.505  31.527  1.00  0.00     0.074 A 
ATOM     37  C   UNL A   1      38.524  30.200  29.470  1.00  0.00     0.049 A 
ATOM     38  N   UNL A   1      39.083  31.093  32.294  1.00  0.00    -0.248 NA
ATOM     39  C   UNL A   1      37.200  32.468  32.167  1.00  0.00     0.031 C 
ATOM     40  C   UNL A   1      38.280  29.724  28.108  1.00  0.00     0.029 A 
ATOM     41  N   UNL A   1      39.613  29.478  29.887  1.00  0.00    -0.354 N 
ATOM     42  C   UNL A   1      38.915  31.750  33.509  1.00  0.00     0.074 A 
ATOM     43  C   UNL A   1      37.759  32.611  33.360  1.00  0.00     0.031 C 
ATOM     44  C   UNL A   1      39.194  28.788  27.803  1.00  0.00     0.029 A 
ATOM     45  C   UNL A   1      40.114  28.631  28.926  1.00  0.00     0.049 A 
ATOM     46  H   UNL A   1      40.001  29.559  30.788  1.00  0.00     0.167 HD
ATOM     47  C   UNL A   1      39.653  31.639  34.641  1.00  0.00     0.034 A 
ATOM     48  C   UNL A   1      41.204  27.839  28.940  1.00  0.00     0.034 A 
ATOM     49  C   UNL A   1      40.807  30.782  34.770  1.00  0.00     0.049 A 
ATOM     50  C   UNL A   1      42.057  27.794  30.183  1.00  0.00     0.074 A 
ATOM     51  C   UNL A   1      41.624  30.591  35.871  1.00  0.00     0.029 A 
ATOM     52  N   UNL A   1      41.318  29.977  33.757  1.00  0.00    -0.354 N 
ATOM     53  N   UNL A   1      41.893  28.430  31.321  1.00  0.00    -0.248 NA
ATOM     54  C   UNL A   1      43.240  26.924  30.144  1.00  0.00     0.031 C 
ATOM     55  C   UNL A   1      42.661  29.724  35.507  1.00  0.00     0.029 A 
ATOM     56  C   UNL A   1      42.455  29.315  34.199  1.00  0.00     0.049 A 
ATOM     57  H   UNL A   1      40.929  29.891  32.857  1.00  0.00     0.167 HD
ATOM     58  C   UNL A   1      42.942  28.016  32.140  1.00  0.00     0.074 A 
ATOM     59  C   UNL A   1      43.720  27.067  31.371  1.00  0.00     0.031 C 
ATOM     60  C   UNL A   1      43.231  28.384  33.415  1.00  0.00     0.034 A 
BRANCH  47  61
ATOM     61  C   UNL A   1      39.262  32.514  35.808  1.00  0.00     0.023 A 
ATOM     62  C   UNL A   1      39.668  33.858  35.896  1.00  0.00     0.031 A 
ATOM     63  C   UNL A   1      38.503  31.984  36.866  1.00  0.00     0.131 A 
ATOM     64  C   UNL A   1      39.372  34.603  37.048  1.00  0.00     0.055 A 
ATOM     65  C   UNL A   1      38.147  32.755  37.976  1.00  0.00     0.041 A 
ATOM     66  F   UNL A   1      38.107  30.702  36.849  1.00  0.00    -0.206 F 
ATOM     67  C   UNL A   1      38.596  34.068  38.077  1.00  0.00     0.022 A 
BRANCH  64  68
ATOM     68  S   UNL A   1      40.140  36.236  37.244  1.00  0.00     0.124 S 
ATOM     69  O   UNL A   1      41.480  35.879  37.701  1.00  0.00    -0.237 OA
ATOM     70  O   UNL A   1      40.049  36.790  35.899  1.00  0.00    -0.237 OA
ATOM     71  O   UNL A   1      39.301  36.889  38.247  1.00  0.00    -0.744 OA
ENDBRANCH  64  68
ENDBRANCH  47  61
BRANCH  48  72
ATOM     72  C   UNL A   1      41.588  27.062  27.726  1.00  0.00     0.023 A 
ATOM     73  C   UNL A   1      41.355  25.680  27.640  1.00  0.00     0.031 A 
ATOM     74  C   UNL A   1      42.238  27.691  26.649  1.00  0.00     0.131 A 
ATOM     75  C   UNL A   1      41.805  24.966  26.519  1.00  0.00     0.055 A 
ATOM     76  C   UNL A   1      42.638  26.985  25.514  1.00  0.00     0.041 A 
ATOM     77  F   UNL A   1      42.488  29.010  26.683  1.00  0.00    -0.206 F 
ATOM     78  C   UNL A   1      42.433  25.610  25.450  1.00  0.00     0.022 A 
BRANCH  75  79
ATOM     79  S   UNL A   1      41.630  23.159  26.510  1.00  0.00     0.124 S 
ATOM     80  O   UNL A   1      42.335  22.786  27.731  1.00  0.00    -0.237 OA
ATOM     81  O   UNL A   1      40.181  22.996  26.529  1.00  0.00    -0.237 OA
ATOM     82  O   UNL A   1      42.285  22.761  25.265  1.00  0.00    -0.744 OA
ENDBRANCH  75  79
ENDBRANCH  48  72
BRANCH  60  83
ATOM     83  C   UNL A   1      44.422  27.721  34.061  1.00  0.00     0.023 A 
ATOM     84  C   UNL A   1      44.341  26.428  34.611  1.00  0.00     0.031 A 
ATOM     85  C   UNL A   1      45.651  28.398  34.142  1.00  0.00     0.131 A 
ATOM     86  C   UNL A   1      45.454  25.878  35.265  1.00  0.00     0.055 A 
ATOM     87  C   UNL A   1      46.769  27.823  34.745  1.00  0.00     0.041 A 
ATOM     88  F   UNL A   1      45.783  29.635  33.635  1.00  0.00    -0.206 F 
ATOM     89  C   UNL A   1      46.672  26.560  35.322  1.00  0.00     0.022 A 
BRANCH  86  90
ATOM     90  S   UNL A   1      45.267  24.286  36.116  1.00  0.00     0.124 S 
ATOM     91  O   UNL A   1      45.791  23.349  35.127  1.00  0.00    -0.237 OA
ATOM     92  O   UNL A   1      46.083  24.474  37.311  1.00  0.00    -0.237 OA
ATOM     93  O   UNL A   1      43.828  24.191  36.357  1.00  0.00    -0.744 OA
ENDBRANCH  86  90
ENDBRANCH  60  83
ENDBRANCH  34  35
ENDBRANCH  27  29
ENDBRANCH  26  27
ENDBRANCH  25  26
ENDBRANCH   1  25
TORSDOF 18
ENDMDL
