MODEL 1
REMARK VINA RESULT:     -12.0      0.000      0.000
REMARK SMILES O=C(OCCOC(=O)C1(C[C@@H]2COc3ccccc32)CC[NH2+]CC1)c1ccc(-c2c3nc(c(-c4cc(S(=O)(=O)[O-])ccc4F)c4ccc([nH]4)c(-c4cc(S(=O)(=O)[O-])ccc4F)c4nc(c(-c5cc(S(=O)(=O)[O-])ccc5F)c5ccc2[nH]5)C=C4)C=C3)cc1
REMARK SMILES IDX 4 1 3 2 2 3 1 4 25 5 26 6 87 7 27 8 86 9 28 10 29 11 30 12
REMARK SMILES IDX 80 13 31 14 85 15 79 16 81 17 32 18 84 19 78 20 77 21 33 23
REMARK SMILES IDX 65 24 45 25 64 26 46 27 49 28 63 29 82 30 47 31 48 32 62 34
REMARK SMILES IDX 83 35 50 36 34 37 35 38 43 39 36 40 42 41 44 42 41 43 37 44
REMARK SMILES IDX 38 45 39 46 40 47 66 48 67 49 75 50 68 51 74 52 76 53 73 54
REMARK SMILES IDX 69 55 70 56 71 57 72 58 51 59 52 60 60 61 53 62 59 63 61 64
REMARK SMILES IDX 58 65 54 66 55 67 56 68 57 69 5 70 6 71 7 72 8 73 9 74 20 75
REMARK SMILES IDX 24 76 21 77 23 78 22 79 10 82 11 83 12 84 19 85 13 86 14 87
REMARK SMILES IDX 18 88 15 89 17 90 16 91
REMARK H PARENT 81 22 49 33 22 80 22 81
REMARK Flexibility Score: inf
ROOT
ATOM      1  C   UNL A   1      31.980  30.137  26.921  1.00  0.00     0.275 C 
ENDROOT
BRANCH   1   2
ATOM      2  O   UNL A   1      33.332  30.580  26.713  1.00  0.00    -0.458 OA
BRANCH   2   3
ATOM      3  C   UNL A   1      33.938  31.471  27.516  1.00  0.00     0.338 C 
ATOM      4  O   UNL A   1      33.327  32.463  27.923  1.00  0.00    -0.246 OA
BRANCH   3   5
ATOM      5  C   UNL A   1      35.323  31.179  27.991  1.00  0.00     0.060 A 
ATOM      6  C   UNL A   1      36.349  32.115  28.145  1.00  0.00     0.016 A 
ATOM      7  C   UNL A   1      35.575  29.864  28.378  1.00  0.00     0.016 A 
ATOM      8  C   UNL A   1      37.566  31.750  28.740  1.00  0.00     0.010 A 
ATOM      9  C   UNL A   1      36.728  29.534  29.084  1.00  0.00     0.010 A 
ATOM     10  C   UNL A   1      37.766  30.457  29.234  1.00  0.00    -0.014 A 
BRANCH  10  11
ATOM     11  C   UNL A   1      39.092  30.022  29.756  1.00  0.00     0.031 A 
ATOM     12  C   UNL A   1      39.545  30.528  31.109  1.00  0.00     0.074 A 
ATOM     13  C   UNL A   1      39.892  29.204  29.040  1.00  0.00     0.049 A 
ATOM     14  N   UNL A   1      40.623  30.232  31.788  1.00  0.00    -0.248 NA
ATOM     15  C   UNL A   1      38.719  31.566  31.749  1.00  0.00     0.031 C 
ATOM     16  C   UNL A   1      39.646  28.751  27.667  1.00  0.00     0.029 A 
ATOM     17  N   UNL A   1      41.075  28.590  29.371  1.00  0.00    -0.354 N 
ATOM     18  C   UNL A   1      40.589  31.061  32.906  1.00  0.00     0.074 A 
ATOM     19  C   UNL A   1      39.521  32.004  32.700  1.00  0.00     0.031 C 
ATOM     20  C   UNL A   1      40.613  27.890  27.299  1.00  0.00     0.029 A 
ATOM     21  C   UNL A   1      41.543  27.721  28.410  1.00  0.00     0.049 A 
ATOM     22  H   UNL A   1      41.547  28.756  30.220  1.00  0.00     0.167 HD
ATOM     23  C   UNL A   1      41.290  30.975  34.062  1.00  0.00     0.034 A 
ATOM     24  C   UNL A   1      42.573  26.850  28.451  1.00  0.00     0.034 A 
ATOM     25  C   UNL A   1      42.305  29.984  34.270  1.00  0.00     0.049 A 
ATOM     26  C   UNL A   1      43.336  26.725  29.749  1.00  0.00     0.074 A 
ATOM     27  C   UNL A   1      43.062  29.729  35.396  1.00  0.00     0.029 A 
ATOM     28  N   UNL A   1      42.696  29.066  33.302  1.00  0.00    -0.354 N 
ATOM     29  N   UNL A   1      43.192  27.407  30.864  1.00  0.00    -0.248 NA
ATOM     30  C   UNL A   1      44.363  25.677  29.814  1.00  0.00     0.031 C 
ATOM     31  C   UNL A   1      43.944  28.683  35.092  1.00  0.00     0.029 A 
ATOM     32  C   UNL A   1      43.692  28.249  33.797  1.00  0.00     0.049 A 
ATOM     33  H   UNL A   1      42.318  29.007  32.395  1.00  0.00     0.167 HD
ATOM     34  C   UNL A   1      44.067  26.831  31.781  1.00  0.00     0.074 A 
ATOM     35  C   UNL A   1      44.730  25.744  31.086  1.00  0.00     0.031 C 
ATOM     36  C   UNL A   1      44.304  27.158  33.078  1.00  0.00     0.034 A 
BRANCH  23  37
ATOM     37  C   UNL A   1      40.925  31.961  35.151  1.00  0.00     0.023 A 
ATOM     38  C   UNL A   1      39.846  31.711  36.024  1.00  0.00     0.031 A 
ATOM     39  C   UNL A   1      41.549  33.215  35.228  1.00  0.00     0.131 A 
ATOM     40  C   UNL A   1      39.327  32.746  36.816  1.00  0.00     0.055 A 
ATOM     41  C   UNL A   1      41.097  34.206  36.105  1.00  0.00     0.041 A 
ATOM     42  F   UNL A   1      42.575  33.520  34.417  1.00  0.00    -0.206 F 
ATOM     43  C   UNL A   1      39.962  33.986  36.881  1.00  0.00     0.022 A 
BRANCH  40  44
ATOM     44  S   UNL A   1      37.692  32.514  37.573  1.00  0.00     0.124 S 
ATOM     45  O   UNL A   1      37.577  31.057  37.578  1.00  0.00    -0.237 OA
ATOM     46  O   UNL A   1      37.856  33.144  38.878  1.00  0.00    -0.237 OA
ATOM     47  O   UNL A   1      36.789  33.202  36.653  1.00  0.00    -0.744 OA
ENDBRANCH  40  44
ENDBRANCH  23  37
BRANCH  24  48
ATOM     48  C   UNL A   1      42.882  25.961  27.289  1.00  0.00     0.023 A 
ATOM     49  C   UNL A   1      42.375  24.650  27.226  1.00  0.00     0.031 A 
ATOM     50  C   UNL A   1      43.719  26.386  26.244  1.00  0.00     0.131 A 
ATOM     51  C   UNL A   1      42.749  23.797  26.174  1.00  0.00     0.055 A 
ATOM     52  C   UNL A   1      44.057  25.547  25.177  1.00  0.00     0.041 A 
ATOM     53  F   UNL A   1      44.220  27.632  26.242  1.00  0.00    -0.206 F 
ATOM     54  C   UNL A   1      43.582  24.240  25.145  1.00  0.00     0.022 A 
BRANCH  51  55
ATOM     55  S   UNL A   1      42.189  22.070  26.209  1.00  0.00     0.124 S 
ATOM     56  O   UNL A   1      42.503  21.681  27.579  1.00  0.00    -0.237 OA
ATOM     57  O   UNL A   1      40.772  22.208  25.890  1.00  0.00    -0.237 OA
ATOM     58  O   UNL A   1      42.998  21.428  25.175  1.00  0.00    -0.744 OA
ENDBRANCH  51  55
ENDBRANCH  24  48
BRANCH  36  59
ATOM     59  C   UNL A   1      45.262  26.284  33.838  1.00  0.00     0.023 A 
ATOM     60  C   UNL A   1      44.868  25.045  34.366  1.00  0.00     0.031 A 
ATOM     61  C   UNL A   1      46.594  26.697  34.022  1.00  0.00     0.131 A 
ATOM     62  C   UNL A   1      45.781  24.287  35.110  1.00  0.00     0.055 A 
ATOM     63  C   UNL A   1      47.516  25.908  34.707  1.00  0.00     0.041 A 
ATOM     64  F   UNL A   1      47.019  27.873  33.531  1.00  0.00    -0.206 F 
ATOM     65  C   UNL A   1      47.107  24.700  35.267  1.00  0.00     0.022 A 
BRANCH  62  66
ATOM     66  S   UNL A   1      45.181  22.798  35.949  1.00  0.00     0.124 S 
ATOM     67  O   UNL A   1      45.292  23.177  37.354  1.00  0.00    -0.237 OA
ATOM     68  O   UNL A   1      43.824  22.672  35.428  1.00  0.00    -0.237 OA
ATOM     69  O   UNL A   1      46.113  21.760  35.511  1.00  0.00    -0.744 OA
ENDBRANCH  62  66
ENDBRANCH  36  59
ENDBRANCH  10  11
ENDBRANCH   3   5
ENDBRANCH   2   3
ENDBRANCH   1   2
BRANCH   1  70
ATOM     70  C   UNL A   1      31.730  28.732  27.486  1.00  0.00     0.274 C 
BRANCH  70  71
ATOM     71  O   UNL A   1      32.533  27.667  26.933  1.00  0.00    -0.462 OA
BRANCH  71  72
ATOM     72  C   UNL A   1      32.011  27.029  25.838  1.00  0.00     0.312 C 
ATOM     73  O   UNL A   1      30.832  26.698  25.757  1.00  0.00    -0.252 OA
BRANCH  72  74
ATOM     74  C   UNL A   1      33.071  26.646  24.773  1.00  0.00     0.079 C 
ATOM     75  C   UNL A   1      33.796  27.935  24.335  1.00  0.00     0.080 C 
ATOM     76  C   UNL A   1      32.366  26.049  23.509  1.00  0.00     0.080 C 
ATOM     77  C   UNL A   1      32.923  28.880  23.517  1.00  0.00     0.261 C 
ATOM     78  C   UNL A   1      31.585  27.066  22.682  1.00  0.00     0.261 C 
ATOM     79  N   UNL A   1      32.423  28.203  22.326  1.00  0.00    -0.346 N 
ATOM     80  H   UNL A   1      33.215  27.874  21.774  1.00  0.00     0.346 HD
ATOM     81  H   UNL A   1      31.862  28.864  21.789  1.00  0.00     0.346 HD
BRANCH  74  82
ATOM     82  C   UNL A   1      34.075  25.547  25.248  1.00  0.00     0.031 C 
BRANCH  82  83
ATOM     83  C   UNL A   1      33.941  24.013  25.109  1.00  0.00     0.062 C 
ATOM     84  C   UNL A   1      33.473  23.247  26.356  1.00  0.00     0.238 C 
ATOM     85  C   UNL A   1      35.101  23.183  24.723  1.00  0.00     0.001 A 
ATOM     86  O   UNL A   1      34.345  22.136  26.641  1.00  0.00    -0.493 OA
ATOM     87  C   UNL A   1      35.282  22.175  25.654  1.00  0.00     0.122 A 
ATOM     88  C   UNL A   1      35.927  23.267  23.616  1.00  0.00     0.008 A 
ATOM     89  C   UNL A   1      36.327  21.281  25.579  1.00  0.00     0.047 A 
ATOM     90  C   UNL A   1      37.008  22.385  23.529  1.00  0.00     0.001 A 
ATOM     91  C   UNL A   1      37.215  21.406  24.513  1.00  0.00     0.004 A 
ENDBRANCH  82  83
ENDBRANCH  74  82
ENDBRANCH  72  74
ENDBRANCH  71  72
ENDBRANCH  70  71
ENDBRANCH   1  70
TORSDOF 16
ENDMDL
MODEL 2
REMARK VINA RESULT:     -12.0      2.229      3.864
REMARK SMILES O=C(OCCOC(=O)C1(C[C@@H]2COc3ccccc32)CC[NH2+]CC1)c1ccc(-c2c3nc(c(-c4cc(S(=O)(=O)[O-])ccc4F)c4ccc([nH]4)c(-c4cc(S(=O)(=O)[O-])ccc4F)c4nc(c(-c5cc(S(=O)(=O)[O-])ccc5F)c5ccc2[nH]5)C=C4)C=C3)cc1
REMARK SMILES IDX 4 1 3 2 2 3 1 4 25 5 26 6 87 7 27 8 86 9 28 10 29 11 30 12
REMARK SMILES IDX 80 13 31 14 85 15 79 16 81 17 32 18 84 19 78 20 77 21 33 23
REMARK SMILES IDX 65 24 45 25 64 26 46 27 49 28 63 29 82 30 47 31 48 32 62 34
REMARK SMILES IDX 83 35 50 36 34 37 35 38 43 39 36 40 42 41 44 42 41 43 37 44
REMARK SMILES IDX 38 45 39 46 40 47 66 48 67 49 75 50 68 51 74 52 76 53 73 54
REMARK SMILES IDX 69 55 70 56 71 57 72 58 51 59 52 60 60 61 53 62 59 63 61 64
REMARK SMILES IDX 58 65 54 66 55 67 56 68 57 69 5 70 6 71 7 72 8 73 9 74 20 75
REMARK SMILES IDX 24 76 21 77 23 78 22 79 10 82 11 83 12 84 19 85 13 86 14 87
REMARK SMILES IDX 18 88 15 89 17 90 16 91
REMARK H PARENT 81 22 49 33 22 80 22 81
REMARK Flexibility Score: inf
ROOT
ATOM      1  C   UNL A   1      31.709  29.119  26.542  1.00  0.00     0.275 C 
ENDROOT
BRANCH   1   2
ATOM      2  O   UNL A   1      32.715  30.055  26.120  1.00  0.00    -0.458 OA
BRANCH   2   3
ATOM      3  C   UNL A   1      33.147  31.060  26.900  1.00  0.00     0.338 C 
ATOM      4  O   UNL A   1      32.398  31.998  27.186  1.00  0.00    -0.246 OA
BRANCH   3   5
ATOM      5  C   UNL A   1      34.511  30.963  27.500  1.00  0.00     0.060 A 
ATOM      6  C   UNL A   1      35.352  32.037  27.800  1.00  0.00     0.016 A 
ATOM      7  C   UNL A   1      34.939  29.682  27.849  1.00  0.00     0.016 A 
ATOM      8  C   UNL A   1      36.552  31.834  28.498  1.00  0.00     0.010 A 
ATOM      9  C   UNL A   1      36.059  29.496  28.653  1.00  0.00     0.010 A 
ATOM     10  C   UNL A   1      36.914  30.561  28.950  1.00  0.00    -0.014 A 
BRANCH  10  11
ATOM     11  C   UNL A   1      38.239  30.309  29.584  1.00  0.00     0.031 A 
ATOM     12  C   UNL A   1      38.480  30.807  30.992  1.00  0.00     0.074 A 
ATOM     13  C   UNL A   1      39.221  29.665  28.919  1.00  0.00     0.049 A 
ATOM     14  N   UNL A   1      39.524  30.646  31.763  1.00  0.00    -0.248 NA
ATOM     15  C   UNL A   1      37.443  31.668  31.587  1.00  0.00     0.031 C 
ATOM     16  C   UNL A   1      39.177  29.252  27.512  1.00  0.00     0.029 A 
ATOM     17  N   UNL A   1      40.452  29.226  29.342  1.00  0.00    -0.354 N 
ATOM     18  C   UNL A   1      39.255  31.399  32.903  1.00  0.00     0.074 A 
ATOM     19  C   UNL A   1      38.075  32.175  32.629  1.00  0.00     0.031 C 
ATOM     20  C   UNL A   1      40.298  28.574  27.210  1.00  0.00     0.029 A 
ATOM     21  C   UNL A   1      41.138  28.492  28.399  1.00  0.00     0.049 A 
ATOM     22  H   UNL A   1      40.811  29.417  30.239  1.00  0.00     0.167 HD
ATOM     23  C   UNL A   1      39.852  31.361  34.118  1.00  0.00     0.034 A 
ATOM     24  C   UNL A   1      42.286  27.791  28.508  1.00  0.00     0.034 A 
ATOM     25  C   UNL A   1      40.989  30.530  34.388  1.00  0.00     0.049 A 
ATOM     26  C   UNL A   1      42.937  27.716  29.870  1.00  0.00     0.074 A 
ATOM     27  C   UNL A   1      41.671  30.336  35.573  1.00  0.00     0.029 A 
ATOM     28  N   UNL A   1      41.609  29.737  33.429  1.00  0.00    -0.354 N 
ATOM     29  N   UNL A   1      42.584  28.307  30.991  1.00  0.00    -0.248 NA
ATOM     30  C   UNL A   1      44.107  26.839  29.996  1.00  0.00     0.031 C 
ATOM     31  C   UNL A   1      42.733  29.458  35.317  1.00  0.00     0.029 A 
ATOM     32  C   UNL A   1      42.673  29.060  33.989  1.00  0.00     0.049 A 
ATOM     33  H   UNL A   1      41.330  29.669  32.487  1.00  0.00     0.167 HD
ATOM     34  C   UNL A   1      43.453  27.826  31.966  1.00  0.00     0.074 A 
ATOM     35  C   UNL A   1      44.342  26.894  31.300  1.00  0.00     0.031 C 
ATOM     36  C   UNL A   1      43.514  28.117  33.292  1.00  0.00     0.034 A 
BRANCH  23  37
ATOM     37  C   UNL A   1      39.237  32.219  35.203  1.00  0.00     0.023 A 
ATOM     38  C   UNL A   1      39.591  33.578  35.341  1.00  0.00     0.031 A 
ATOM     39  C   UNL A   1      38.415  31.656  36.190  1.00  0.00     0.131 A 
ATOM     40  C   UNL A   1      39.260  34.275  36.512  1.00  0.00     0.055 A 
ATOM     41  C   UNL A   1      37.993  32.393  37.301  1.00  0.00     0.041 A 
ATOM     42  F   UNL A   1      38.051  30.365  36.124  1.00  0.00    -0.206 F 
ATOM     43  C   UNL A   1      38.440  33.699  37.483  1.00  0.00     0.022 A 
BRANCH  40  44
ATOM     44  S   UNL A   1      40.102  35.851  36.843  1.00  0.00     0.124 S 
ATOM     45  O   UNL A   1      41.495  35.420  36.944  1.00  0.00    -0.237 OA
ATOM     46  O   UNL A   1      39.764  36.644  35.668  1.00  0.00    -0.237 OA
ATOM     47  O   UNL A   1      39.503  36.301  38.098  1.00  0.00    -0.744 OA
ENDBRANCH  40  44
ENDBRANCH  23  37
BRANCH  24  48
ATOM     48  C   UNL A   1      42.838  27.023  27.350  1.00  0.00     0.023 A 
ATOM     49  C   UNL A   1      42.493  25.675  27.145  1.00  0.00     0.031 A 
ATOM     50  C   UNL A   1      43.748  27.606  26.453  1.00  0.00     0.131 A 
ATOM     51  C   UNL A   1      43.091  24.942  26.105  1.00  0.00     0.055 A 
ATOM     52  C   UNL A   1      44.311  26.885  25.395  1.00  0.00     0.041 A 
ATOM     53  F   UNL A   1      44.103  28.894  26.589  1.00  0.00    -0.206 F 
ATOM     54  C   UNL A   1      43.994  25.541  25.225  1.00  0.00     0.022 A 
BRANCH  51  55
ATOM     55  S   UNL A   1      42.728  23.168  25.966  1.00  0.00     0.124 S 
ATOM     56  O   UNL A   1      41.295  23.134  26.229  1.00  0.00    -0.237 OA
ATOM     57  O   UNL A   1      43.137  22.885  24.594  1.00  0.00    -0.237 OA
ATOM     58  O   UNL A   1      43.569  22.566  27.000  1.00  0.00    -0.744 OA
ENDBRANCH  51  55
ENDBRANCH  24  48
BRANCH  36  59
ATOM     59  C   UNL A   1      44.527  27.363  34.109  1.00  0.00     0.023 A 
ATOM     60  C   UNL A   1      44.243  26.098  34.646  1.00  0.00     0.031 A 
ATOM     61  C   UNL A   1      45.797  27.919  34.340  1.00  0.00     0.131 A 
ATOM     62  C   UNL A   1      45.199  25.453  35.443  1.00  0.00     0.055 A 
ATOM     63  C   UNL A   1      46.767  27.244  35.079  1.00  0.00     0.041 A 
ATOM     64  F   UNL A   1      46.116  29.125  33.843  1.00  0.00    -0.206 F 
ATOM     65  C   UNL A   1      46.465  26.009  35.647  1.00  0.00     0.022 A 
BRANCH  62  66
ATOM     66  S   UNL A   1      44.725  23.923  36.287  1.00  0.00     0.124 S 
ATOM     67  O   UNL A   1      44.601  24.367  37.672  1.00  0.00    -0.237 OA
ATOM     68  O   UNL A   1      43.477  23.571  35.618  1.00  0.00    -0.237 OA
ATOM     69  O   UNL A   1      45.847  23.024  36.022  1.00  0.00    -0.744 OA
ENDBRANCH  62  66
ENDBRANCH  36  59
ENDBRANCH  10  11
ENDBRANCH   3   5
ENDBRANCH   2   3
ENDBRANCH   1   2
BRANCH   1  70
ATOM     70  C   UNL A   1      32.132  27.868  27.326  1.00  0.00     0.274 C 
BRANCH  70  71
ATOM     71  O   UNL A   1      31.298  26.701  27.167  1.00  0.00    -0.462 OA
BRANCH  71  72
ATOM     72  C   UNL A   1      31.702  25.801  26.215  1.00  0.00     0.312 C 
ATOM     73  O   UNL A   1      32.876  25.656  25.888  1.00  0.00    -0.252 OA
BRANCH  72  74
ATOM     74  C   UNL A   1      30.531  25.082  25.497  1.00  0.00     0.079 C 
ATOM     75  C   UNL A   1      29.801  24.205  26.533  1.00  0.00     0.080 C 
ATOM     76  C   UNL A   1      31.090  24.131  24.385  1.00  0.00     0.080 C 
ATOM     77  C   UNL A   1      30.613  22.999  26.996  1.00  0.00     0.261 C 
ATOM     78  C   UNL A   1      31.810  22.896  24.914  1.00  0.00     0.261 C 
ATOM     79  N   UNL A   1      30.972  22.165  25.856  1.00  0.00    -0.346 N 
ATOM     80  H   UNL A   1      30.120  21.866  25.380  1.00  0.00     0.346 HD
ATOM     81  H   UNL A   1      31.494  21.358  26.197  1.00  0.00     0.346 HD
BRANCH  74  82
ATOM     82  C   UNL A   1      29.550  26.051  24.761  1.00  0.00     0.031 C 
BRANCH  82  83
ATOM     83  C   UNL A   1      29.823  26.904  23.500  1.00  0.00     0.062 C 
ATOM     84  C   UNL A   1      31.261  27.408  23.308  1.00  0.00     0.238 C 
ATOM     85  C   UNL A   1      29.080  28.158  23.260  1.00  0.00     0.001 A 
ATOM     86  O   UNL A   1      31.285  28.823  23.043  1.00  0.00    -0.493 OA
ATOM     87  C   UNL A   1      29.975  29.194  23.048  1.00  0.00     0.122 A 
ATOM     88  C   UNL A   1      27.718  28.387  23.187  1.00  0.00     0.008 A 
ATOM     89  C   UNL A   1      29.564  30.494  22.854  1.00  0.00     0.047 A 
ATOM     90  C   UNL A   1      27.277  29.702  23.013  1.00  0.00     0.001 A 
ATOM     91  C   UNL A   1      28.196  30.752  22.861  1.00  0.00     0.004 A 
ENDBRANCH  82  83
ENDBRANCH  74  82
ENDBRANCH  72  74
ENDBRANCH  71  72
ENDBRANCH  70  71
ENDBRANCH   1  70
TORSDOF 16
ENDMDL
MODEL 3
REMARK VINA RESULT:     -11.9      4.615     10.172
REMARK SMILES O=C(OCCOC(=O)C1(C[C@@H]2COc3ccccc32)CC[NH2+]CC1)c1ccc(-c2c3nc(c(-c4cc(S(=O)(=O)[O-])ccc4F)c4ccc([nH]4)c(-c4cc(S(=O)(=O)[O-])ccc4F)c4nc(c(-c5cc(S(=O)(=O)[O-])ccc5F)c5ccc2[nH]5)C=C4)C=C3)cc1
REMARK SMILES IDX 4 1 3 2 2 3 1 4 25 5 26 6 87 7 27 8 86 9 28 10 29 11 30 12
REMARK SMILES IDX 80 13 31 14 85 15 79 16 81 17 32 18 84 19 78 20 77 21 33 23
REMARK SMILES IDX 65 24 45 25 64 26 46 27 49 28 63 29 82 30 47 31 48 32 62 34
REMARK SMILES IDX 83 35 50 36 34 37 35 38 43 39 36 40 42 41 44 42 41 43 37 44
REMARK SMILES IDX 38 45 39 46 40 47 66 48 67 49 75 50 68 51 74 52 76 53 73 54
REMARK SMILES IDX 69 55 70 56 71 57 72 58 51 59 52 60 60 61 53 62 59 63 61 64
REMARK SMILES IDX 58 65 54 66 55 67 56 68 57 69 5 70 6 71 7 72 8 73 9 74 20 75
REMARK SMILES IDX 24 76 21 77 23 78 22 79 10 82 11 83 12 84 19 85 13 86 14 87
REMARK SMILES IDX 18 88 15 89 17 90 16 91
REMARK H PARENT 81 22 49 33 22 80 22 81
REMARK Flexibility Score: inf
ROOT
ATOM      1  C   UNL A   1      37.144  20.891  25.003  1.00  0.00     0.275 C 
ENDROOT
BRANCH   1   2
ATOM      2  O   UNL A   1      37.858  21.991  25.592  1.00  0.00    -0.458 OA
BRANCH   2   3
ATOM      3  C   UNL A   1      39.074  21.856  26.147  1.00  0.00     0.338 C 
ATOM      4  O   UNL A   1      39.709  20.806  26.015  1.00  0.00    -0.246 OA
BRANCH   3   5
ATOM      5  C   UNL A   1      39.684  23.037  26.828  1.00  0.00     0.060 A 
ATOM      6  C   UNL A   1      40.723  22.997  27.761  1.00  0.00     0.016 A 
ATOM      7  C   UNL A   1      39.207  24.287  26.435  1.00  0.00     0.016 A 
ATOM      8  C   UNL A   1      41.315  24.181  28.224  1.00  0.00     0.010 A 
ATOM      9  C   UNL A   1      39.877  25.453  26.792  1.00  0.00     0.010 A 
ATOM     10  C   UNL A   1      40.911  25.427  27.732  1.00  0.00    -0.014 A 
BRANCH  10  11
ATOM     11  C   UNL A   1      41.442  26.697  28.303  1.00  0.00     0.031 A 
ATOM     12  C   UNL A   1      42.885  27.068  28.036  1.00  0.00     0.074 A 
ATOM     13  C   UNL A   1      40.667  27.503  29.059  1.00  0.00     0.049 A 
ATOM     14  N   UNL A   1      43.541  28.149  28.373  1.00  0.00    -0.248 NA
ATOM     15  C   UNL A   1      43.728  26.058  27.374  1.00  0.00     0.031 C 
ATOM     16  C   UNL A   1      39.304  27.205  29.510  1.00  0.00     0.029 A 
ATOM     17  N   UNL A   1      40.907  28.754  29.573  1.00  0.00    -0.354 N 
ATOM     18  C   UNL A   1      44.854  27.918  27.973  1.00  0.00     0.074 A 
ATOM     19  C   UNL A   1      44.939  26.536  27.579  1.00  0.00     0.031 C 
ATOM     20  C   UNL A   1      38.813  28.263  30.180  1.00  0.00     0.029 A 
ATOM     21  C   UNL A   1      39.818  29.319  30.200  1.00  0.00     0.049 A 
ATOM     22  H   UNL A   1      41.779  29.206  29.500  1.00  0.00     0.167 HD
ATOM     23  C   UNL A   1      45.873  28.797  27.819  1.00  0.00     0.034 A 
ATOM     24  C   UNL A   1      39.643  30.567  30.682  1.00  0.00     0.034 A 
ATOM     25  C   UNL A   1      45.744  30.185  28.156  1.00  0.00     0.049 A 
ATOM     26  C   UNL A   1      40.762  31.562  30.482  1.00  0.00     0.074 A 
ATOM     27  C   UNL A   1      46.657  31.211  28.008  1.00  0.00     0.029 A 
ATOM     28  N   UNL A   1      44.598  30.740  28.714  1.00  0.00    -0.354 N 
ATOM     29  N   UNL A   1      41.952  31.375  29.953  1.00  0.00    -0.248 NA
ATOM     30  C   UNL A   1      40.497  32.946  30.891  1.00  0.00     0.031 C 
ATOM     31  C   UNL A   1      46.075  32.378  28.519  1.00  0.00     0.029 A 
ATOM     32  C   UNL A   1      44.781  32.091  28.928  1.00  0.00     0.049 A 
ATOM     33  H   UNL A   1      43.775  30.242  28.925  1.00  0.00     0.167 HD
ATOM     34  C   UNL A   1      42.553  32.630  29.913  1.00  0.00     0.074 A 
ATOM     35  C   UNL A   1      41.592  33.563  30.467  1.00  0.00     0.031 C 
ATOM     36  C   UNL A   1      43.782  32.988  29.457  1.00  0.00     0.034 A 
BRANCH  23  37
ATOM     37  C   UNL A   1      47.157  28.251  27.234  1.00  0.00     0.023 A 
ATOM     38  C   UNL A   1      47.357  28.204  25.839  1.00  0.00     0.031 A 
ATOM     39  C   UNL A   1      48.120  27.639  28.051  1.00  0.00     0.131 A 
ATOM     40  C   UNL A   1      48.396  27.430  25.302  1.00  0.00     0.055 A 
ATOM     41  C   UNL A   1      49.219  26.965  27.511  1.00  0.00     0.041 A 
ATOM     42  F   UNL A   1      47.983  27.638  29.387  1.00  0.00    -0.206 F 
ATOM     43  C   UNL A   1      49.345  26.830  26.130  1.00  0.00     0.022 A 
BRANCH  40  44
ATOM     44  S   UNL A   1      48.351  27.037  23.529  1.00  0.00     0.124 S 
ATOM     45  O   UNL A   1      49.741  27.271  23.143  1.00  0.00    -0.237 OA
ATOM     46  O   UNL A   1      47.915  25.646  23.524  1.00  0.00    -0.237 OA
ATOM     47  O   UNL A   1      47.390  27.997  22.990  1.00  0.00    -0.744 OA
ENDBRANCH  40  44
ENDBRANCH  23  37
BRANCH  24  48
ATOM     48  C   UNL A   1      38.345  30.985  31.296  1.00  0.00     0.023 A 
ATOM     49  C   UNL A   1      37.343  31.601  30.524  1.00  0.00     0.031 A 
ATOM     50  C   UNL A   1      38.097  30.814  32.668  1.00  0.00     0.131 A 
ATOM     51  C   UNL A   1      36.168  32.069  31.135  1.00  0.00     0.055 A 
ATOM     52  C   UNL A   1      36.908  31.246  33.266  1.00  0.00     0.041 A 
ATOM     53  F   UNL A   1      39.009  30.218  33.454  1.00  0.00    -0.206 F 
ATOM     54  C   UNL A   1      35.941  31.890  32.500  1.00  0.00     0.022 A 
BRANCH  51  55
ATOM     55  S   UNL A   1      34.968  32.988  30.127  1.00  0.00     0.124 S 
ATOM     56  O   UNL A   1      34.038  33.475  31.139  1.00  0.00    -0.237 OA
ATOM     57  O   UNL A   1      35.815  33.995  29.496  1.00  0.00    -0.237 OA
ATOM     58  O   UNL A   1      34.433  31.972  29.223  1.00  0.00    -0.744 OA
ENDBRANCH  51  55
ENDBRANCH  24  48
BRANCH  36  59
ATOM     59  C   UNL A   1      44.115  34.455  29.474  1.00  0.00     0.023 A 
ATOM     60  C   UNL A   1      43.550  35.348  28.551  1.00  0.00     0.031 A 
ATOM     61  C   UNL A   1      45.002  34.962  30.440  1.00  0.00     0.131 A 
ATOM     62  C   UNL A   1      43.927  36.697  28.573  1.00  0.00     0.055 A 
ATOM     63  C   UNL A   1      45.322  36.317  30.498  1.00  0.00     0.041 A 
ATOM     64  F   UNL A   1      45.564  34.146  31.347  1.00  0.00    -0.206 F 
ATOM     65  C   UNL A   1      44.794  37.191  29.551  1.00  0.00     0.022 A 
BRANCH  62  66
ATOM     66  S   UNL A   1      43.340  37.776  27.242  1.00  0.00     0.124 S 
ATOM     67  O   UNL A   1      42.722  36.821  26.328  1.00  0.00    -0.237 OA
ATOM     68  O   UNL A   1      42.425  38.669  27.945  1.00  0.00    -0.237 OA
ATOM     69  O   UNL A   1      44.564  38.405  26.747  1.00  0.00    -0.744 OA
ENDBRANCH  62  66
ENDBRANCH  36  59
ENDBRANCH  10  11
ENDBRANCH   3   5
ENDBRANCH   2   3
ENDBRANCH   1   2
BRANCH   1  70
ATOM     70  C   UNL A   1      35.610  20.935  24.954  1.00  0.00     0.274 C 
BRANCH  70  71
ATOM     71  O   UNL A   1      34.993  22.186  25.323  1.00  0.00    -0.462 OA
BRANCH  71  72
ATOM     72  C   UNL A   1      33.865  22.528  24.624  1.00  0.00     0.312 C 
ATOM     73  O   UNL A   1      33.524  21.963  23.589  1.00  0.00    -0.252 OA
BRANCH  72  74
ATOM     74  C   UNL A   1      33.135  23.775  25.185  1.00  0.00     0.079 C 
ATOM     75  C   UNL A   1      33.206  23.719  26.724  1.00  0.00     0.080 C 
ATOM     76  C   UNL A   1      31.622  23.735  24.782  1.00  0.00     0.080 C 
ATOM     77  C   UNL A   1      32.355  22.611  27.337  1.00  0.00     0.261 C 
ATOM     78  C   UNL A   1      30.806  22.665  25.500  1.00  0.00     0.261 C 
ATOM     79  N   UNL A   1      30.960  22.772  26.945  1.00  0.00    -0.346 N 
ATOM     80  H   UNL A   1      30.632  23.689  27.248  1.00  0.00     0.346 HD
ATOM     81  H   UNL A   1      30.413  22.032  27.385  1.00  0.00     0.346 HD
BRANCH  74  82
ATOM     82  C   UNL A   1      33.678  25.130  24.627  1.00  0.00     0.031 C 
BRANCH  82  83
ATOM     83  C   UNL A   1      32.883  26.423  24.330  1.00  0.00     0.062 C 
ATOM     84  C   UNL A   1      33.528  27.418  23.352  1.00  0.00     0.238 C 
ATOM     85  C   UNL A   1      32.506  27.347  25.420  1.00  0.00     0.001 A 
ATOM     86  O   UNL A   1      33.542  28.749  23.900  1.00  0.00    -0.493 OA
ATOM     87  C   UNL A   1      32.945  28.625  25.118  1.00  0.00     0.122 A 
ATOM     88  C   UNL A   1      31.794  27.110  26.582  1.00  0.00     0.008 A 
ATOM     89  C   UNL A   1      32.782  29.684  25.983  1.00  0.00     0.047 A 
ATOM     90  C   UNL A   1      31.635  28.164  27.486  1.00  0.00     0.001 A 
ATOM     91  C   UNL A   1      32.138  29.441  27.194  1.00  0.00     0.004 A 
ENDBRANCH  82  83
ENDBRANCH  74  82
ENDBRANCH  72  74
ENDBRANCH  71  72
ENDBRANCH  70  71
ENDBRANCH   1  70
TORSDOF 16
ENDMDL
