MODEL 1
REMARK VINA RESULT:     -10.8      0.000      0.000
REMARK SMILES C[C@H](CNc1cccc(F)c1C(=O)OCCOC(=O)c1ccc(-c2c3nc(c(-c4cc(S(=O)(=O)[O-])ccc4F)c4ccc([nH]4)c(-c4cc(S(=O)(=O)[O-])ccc4F)c4nc(c(-c5cc(S(=O)(=O)[O-])ccc5F)c5ccc2[nH]5)C=C4)C=C3)cc1)C[NH+]1CCCC1
REMARK SMILES IDX 15 1 14 2 12 3 13 4 11 5 5 6 6 7 7 8 9 9 8 10 10 11 4 12
REMARK SMILES IDX 3 14 2 15 1 16 83 17 84 18 85 19 88 20 86 22 87 23 16 24
REMARK SMILES IDX 17 25 18 26 19 27 20 28 21 29 82 30 22 31 81 32 23 33 24 34
REMARK SMILES IDX 25 35 75 36 26 37 80 38 74 39 76 40 27 41 79 42 73 43 72 44
REMARK SMILES IDX 28 46 60 47 40 48 59 49 41 50 44 51 58 52 77 53 42 54 43 55
REMARK SMILES IDX 57 57 78 58 45 59 29 60 30 61 38 62 31 63 37 64 39 65 36 66
REMARK SMILES IDX 32 67 33 68 34 69 35 70 61 71 62 72 70 73 63 74 69 75 71 76
REMARK SMILES IDX 68 77 64 78 65 79 66 80 67 81 46 82 47 83 55 84 48 85 54 86
REMARK SMILES IDX 56 87 53 88 49 89 50 90 51 91 52 92
REMARK H PARENT 4 13 84 21 76 45 44 56
REMARK Flexibility Score: inf
ROOT
ATOM      1  C   UNL A   1      31.909  28.369  27.427  1.00  0.00     0.275 C 
ENDROOT
BRANCH   1   2
ATOM      2  O   UNL A   1      32.436  27.347  26.566  1.00  0.00    -0.458 OA
BRANCH   2   3
ATOM      3  C   UNL A   1      31.493  26.490  26.085  1.00  0.00     0.343 C 
ATOM      4  O   UNL A   1      30.657  25.941  26.768  1.00  0.00    -0.246 OA
BRANCH   3   5
ATOM      5  C   UNL A   1      31.612  26.327  24.615  1.00  0.00     0.118 A 
ATOM      6  C   UNL A   1      32.357  25.249  24.080  1.00  0.00     0.052 A 
ATOM      7  C   UNL A   1      32.402  25.121  22.679  1.00  0.00     0.027 A 
ATOM      8  C   UNL A   1      31.766  26.043  21.836  1.00  0.00     0.005 A 
ATOM      9  C   UNL A   1      31.012  27.264  23.762  1.00  0.00     0.139 A 
ATOM     10  C   UNL A   1      31.077  27.122  22.380  1.00  0.00     0.040 A 
ATOM     11  F   UNL A   1      30.364  28.337  24.244  1.00  0.00    -0.206 F 
BRANCH   6  12
ATOM     12  N   UNL A   1      32.800  24.203  24.886  1.00  0.00    -0.384 N 
ATOM     13  H   UNL A   1      32.317  24.058  25.731  1.00  0.00     0.160 HD
BRANCH  12  14
ATOM     14  C   UNL A   1      33.906  23.304  24.597  1.00  0.00     0.122 C 
BRANCH  14  15
ATOM     15  C   UNL A   1      33.494  21.794  24.520  1.00  0.00     0.060 C 
ATOM     16  C   UNL A   1      32.623  21.576  23.271  1.00  0.00     0.015 C 
BRANCH  15  17
ATOM     17  C   UNL A   1      34.591  20.665  24.599  1.00  0.00     0.267 C 
BRANCH  17  18
ATOM     18  N   UNL A   1      34.199  19.374  25.183  1.00  0.00    -0.335 N 
ATOM     19  C   UNL A   1      34.582  18.185  24.403  1.00  0.00     0.262 C 
ATOM     20  C   UNL A   1      32.798  19.201  25.559  1.00  0.00     0.262 C 
ATOM     21  H   UNL A   1      34.752  19.434  26.038  1.00  0.00     0.348 HD
ATOM     22  C   UNL A   1      33.413  17.215  24.430  1.00  0.00     0.067 C 
ATOM     23  C   UNL A   1      32.639  17.689  25.633  1.00  0.00     0.067 C 
ENDBRANCH  17  18
ENDBRANCH  15  17
ENDBRANCH  14  15
ENDBRANCH  12  14
ENDBRANCH   6  12
ENDBRANCH   3   5
ENDBRANCH   2   3
ENDBRANCH   1   2
BRANCH   1  24
ATOM     24  C   UNL A   1      31.966  29.738  26.747  1.00  0.00     0.275 C 
BRANCH  24  25
ATOM     25  O   UNL A   1      33.325  30.184  26.529  1.00  0.00    -0.458 OA
BRANCH  25  26
ATOM     26  C   UNL A   1      33.719  31.254  27.269  1.00  0.00     0.338 C 
ATOM     27  O   UNL A   1      33.079  32.273  27.476  1.00  0.00    -0.246 OA
BRANCH  26  28
ATOM     28  C   UNL A   1      35.024  30.996  27.919  1.00  0.00     0.060 A 
ATOM     29  C   UNL A   1      35.212  29.767  28.554  1.00  0.00     0.016 A 
ATOM     30  C   UNL A   1      36.022  31.960  28.010  1.00  0.00     0.016 A 
ATOM     31  C   UNL A   1      36.444  29.430  29.152  1.00  0.00     0.010 A 
ATOM     32  C   UNL A   1      37.232  31.639  28.660  1.00  0.00     0.010 A 
ATOM     33  C   UNL A   1      37.495  30.343  29.177  1.00  0.00    -0.014 A 
BRANCH  33  34
ATOM     34  C   UNL A   1      38.807  30.049  29.863  1.00  0.00     0.031 A 
ATOM     35  C   UNL A   1      39.630  28.938  29.299  1.00  0.00     0.074 A 
ATOM     36  C   UNL A   1      39.339  30.723  30.913  1.00  0.00     0.049 A 
ATOM     37  N   UNL A   1      40.673  28.344  29.807  1.00  0.00    -0.248 NA
ATOM     38  C   UNL A   1      39.258  28.488  27.949  1.00  0.00     0.031 C 
ATOM     39  C   UNL A   1      38.876  31.998  31.426  1.00  0.00     0.029 A 
ATOM     40  N   UNL A   1      40.364  30.404  31.790  1.00  0.00    -0.354 N 
ATOM     41  C   UNL A   1      41.139  27.512  28.804  1.00  0.00     0.074 A 
ATOM     42  C   UNL A   1      40.192  27.582  27.711  1.00  0.00     0.031 C 
ATOM     43  C   UNL A   1      39.471  32.279  32.599  1.00  0.00     0.029 A 
ATOM     44  C   UNL A   1      40.375  31.194  32.932  1.00  0.00     0.049 A 
ATOM     45  H   UNL A   1      41.019  29.689  31.620  1.00  0.00     0.167 HD
ATOM     46  C   UNL A   1      42.297  26.819  28.768  1.00  0.00     0.034 A 
ATOM     47  C   UNL A   1      40.986  31.028  34.128  1.00  0.00     0.034 A 
ATOM     48  C   UNL A   1      43.235  26.749  29.854  1.00  0.00     0.049 A 
ATOM     49  C   UNL A   1      42.012  29.943  34.249  1.00  0.00     0.074 A 
ATOM     50  C   UNL A   1      44.425  26.049  29.915  1.00  0.00     0.029 A 
ATOM     51  N   UNL A   1      43.086  27.392  31.076  1.00  0.00    -0.354 N 
ATOM     52  N   UNL A   1      42.390  29.085  33.337  1.00  0.00    -0.248 NA
ATOM     53  C   UNL A   1      42.749  29.854  35.517  1.00  0.00     0.031 C 
ATOM     54  C   UNL A   1      44.962  26.211  31.195  1.00  0.00     0.029 A 
ATOM     55  C   UNL A   1      44.143  27.066  31.913  1.00  0.00     0.049 A 
ATOM     56  H   UNL A   1      42.342  27.991  31.313  1.00  0.00     0.167 HD
ATOM     57  C   UNL A   1      43.485  28.428  33.876  1.00  0.00     0.074 A 
ATOM     58  C   UNL A   1      43.655  28.929  35.226  1.00  0.00     0.031 C 
ATOM     59  C   UNL A   1      44.311  27.546  33.263  1.00  0.00     0.034 A 
BRANCH  46  60
ATOM     60  C   UNL A   1      42.586  26.082  27.496  1.00  0.00     0.023 A 
ATOM     61  C   UNL A   1      42.202  24.739  27.336  1.00  0.00     0.031 A 
ATOM     62  C   UNL A   1      43.298  26.706  26.462  1.00  0.00     0.131 A 
ATOM     63  C   UNL A   1      42.585  24.043  26.184  1.00  0.00     0.055 A 
ATOM     64  C   UNL A   1      43.618  26.027  25.288  1.00  0.00     0.041 A 
ATOM     65  F   UNL A   1      43.712  27.977  26.588  1.00  0.00    -0.206 F 
ATOM     66  C   UNL A   1      43.270  24.684  25.149  1.00  0.00     0.022 A 
BRANCH  63  67
ATOM     67  S   UNL A   1      42.266  22.260  26.101  1.00  0.00     0.124 S 
ATOM     68  O   UNL A   1      40.810  22.227  25.990  1.00  0.00    -0.237 OA
ATOM     69  O   UNL A   1      43.007  21.858  24.911  1.00  0.00    -0.237 OA
ATOM     70  O   UNL A   1      42.802  21.760  27.366  1.00  0.00    -0.744 OA
ENDBRANCH  63  67
ENDBRANCH  46  60
BRANCH  47  71
ATOM     71  C   UNL A   1      40.630  31.841  35.333  1.00  0.00     0.023 A 
ATOM     72  C   UNL A   1      39.534  31.544  36.155  1.00  0.00     0.031 A 
ATOM     73  C   UNL A   1      41.345  33.024  35.604  1.00  0.00     0.131 A 
ATOM     74  C   UNL A   1      39.207  32.407  37.223  1.00  0.00     0.055 A 
ATOM     75  C   UNL A   1      41.062  33.837  36.705  1.00  0.00     0.041 A 
ATOM     76  F   UNL A   1      42.294  33.447  34.757  1.00  0.00    -0.206 F 
ATOM     77  C   UNL A   1      39.986  33.527  37.526  1.00  0.00     0.022 A 
BRANCH  74  78
ATOM     78  S   UNL A   1      37.691  32.100  38.175  1.00  0.00     0.124 S 
ATOM     79  O   UNL A   1      36.817  33.160  37.686  1.00  0.00    -0.237 OA
ATOM     80  O   UNL A   1      37.344  30.742  37.773  1.00  0.00    -0.237 OA
ATOM     81  O   UNL A   1      38.126  32.243  39.564  1.00  0.00    -0.744 OA
ENDBRANCH  74  78
ENDBRANCH  47  71
BRANCH  59  82
ATOM     82  C   UNL A   1      45.535  27.117  34.015  1.00  0.00     0.023 A 
ATOM     83  C   UNL A   1      45.517  26.019  34.887  1.00  0.00     0.031 A 
ATOM     84  C   UNL A   1      46.747  27.803  33.824  1.00  0.00     0.131 A 
ATOM     85  C   UNL A   1      46.691  25.651  35.557  1.00  0.00     0.055 A 
ATOM     86  C   UNL A   1      47.924  27.399  34.452  1.00  0.00     0.041 A 
ATOM     87  F   UNL A   1      46.809  28.867  33.006  1.00  0.00    -0.206 F 
ATOM     88  C   UNL A   1      47.899  26.318  35.328  1.00  0.00     0.022 A 
BRANCH  85  89
ATOM     89  S   UNL A   1      46.612  24.302  36.765  1.00  0.00     0.124 S 
ATOM     90  O   UNL A   1      47.586  23.359  36.224  1.00  0.00    -0.237 OA
ATOM     91  O   UNL A   1      46.992  24.967  38.008  1.00  0.00    -0.237 OA
ATOM     92  O   UNL A   1      45.219  23.864  36.700  1.00  0.00    -0.744 OA
ENDBRANCH  85  89
ENDBRANCH  59  82
ENDBRANCH  33  34
ENDBRANCH  26  28
ENDBRANCH  25  26
ENDBRANCH  24  25
ENDBRANCH   1  24
TORSDOF 19
ENDMDL
MODEL 2
REMARK VINA RESULT:     -10.7      5.232      8.434
REMARK SMILES C[C@H](CNc1cccc(F)c1C(=O)OCCOC(=O)c1ccc(-c2c3nc(c(-c4cc(S(=O)(=O)[O-])ccc4F)c4ccc([nH]4)c(-c4cc(S(=O)(=O)[O-])ccc4F)c4nc(c(-c5cc(S(=O)(=O)[O-])ccc5F)c5ccc2[nH]5)C=C4)C=C3)cc1)C[NH+]1CCCC1
REMARK SMILES IDX 15 1 14 2 12 3 13 4 11 5 5 6 6 7 7 8 9 9 8 10 10 11 4 12
REMARK SMILES IDX 3 14 2 15 1 16 83 17 84 18 85 19 88 20 86 22 87 23 16 24
REMARK SMILES IDX 17 25 18 26 19 27 20 28 21 29 82 30 22 31 81 32 23 33 24 34
REMARK SMILES IDX 25 35 75 36 26 37 80 38 74 39 76 40 27 41 79 42 73 43 72 44
REMARK SMILES IDX 28 46 60 47 40 48 59 49 41 50 44 51 58 52 77 53 42 54 43 55
REMARK SMILES IDX 57 57 78 58 45 59 29 60 30 61 38 62 31 63 37 64 39 65 36 66
REMARK SMILES IDX 32 67 33 68 34 69 35 70 61 71 62 72 70 73 63 74 69 75 71 76
REMARK SMILES IDX 68 77 64 78 65 79 66 80 67 81 46 82 47 83 55 84 48 85 54 86
REMARK SMILES IDX 56 87 53 88 49 89 50 90 51 91 52 92
REMARK H PARENT 4 13 84 21 76 45 44 56
REMARK Flexibility Score: inf
ROOT
ATOM      1  C   UNL A   1      38.007  21.105  25.405  1.00  0.00     0.275 C 
ENDROOT
BRANCH   1   2
ATOM      2  O   UNL A   1      36.819  20.893  24.626  1.00  0.00    -0.458 OA
BRANCH   2   3
ATOM      3  C   UNL A   1      35.664  20.989  25.343  1.00  0.00     0.343 C 
ATOM      4  O   UNL A   1      35.519  21.703  26.311  1.00  0.00    -0.246 OA
BRANCH   3   5
ATOM      5  C   UNL A   1      34.604  20.119  24.777  1.00  0.00     0.118 A 
ATOM      6  C   UNL A   1      33.324  20.655  24.495  1.00  0.00     0.052 A 
ATOM      7  C   UNL A   1      32.371  19.793  23.922  1.00  0.00     0.027 A 
ATOM      8  C   UNL A   1      32.657  18.443  23.670  1.00  0.00     0.005 A 
ATOM      9  C   UNL A   1      34.866  18.760  24.556  1.00  0.00     0.139 A 
ATOM     10  C   UNL A   1      33.905  17.924  23.997  1.00  0.00     0.040 A 
ATOM     11  F   UNL A   1      36.047  18.211  24.886  1.00  0.00    -0.206 F 
BRANCH   6  12
ATOM     12  N   UNL A   1      33.091  22.027  24.520  1.00  0.00    -0.384 N 
ATOM     13  H   UNL A   1      33.831  22.599  24.826  1.00  0.00     0.160 HD
BRANCH  12  14
ATOM     14  C   UNL A   1      31.857  22.696  24.138  1.00  0.00     0.122 C 
BRANCH  14  15
ATOM     15  C   UNL A   1      31.235  23.579  25.274  1.00  0.00     0.060 C 
ATOM     16  C   UNL A   1      30.544  22.662  26.298  1.00  0.00     0.015 C 
BRANCH  15  17
ATOM     17  C   UNL A   1      32.120  24.640  26.032  1.00  0.00     0.267 C 
BRANCH  17  18
ATOM     18  N   UNL A   1      32.154  26.008  25.496  1.00  0.00    -0.335 N 
ATOM     19  C   UNL A   1      32.550  27.053  26.455  1.00  0.00     0.262 C 
ATOM     20  C   UNL A   1      30.958  26.493  24.811  1.00  0.00     0.262 C 
ATOM     21  H   UNL A   1      32.884  25.867  24.798  1.00  0.00     0.348 HD
ATOM     22  C   UNL A   1      31.640  28.251  26.238  1.00  0.00     0.067 C 
ATOM     23  C   UNL A   1      31.123  28.006  24.845  1.00  0.00     0.067 C 
ENDBRANCH  17  18
ENDBRANCH  15  17
ENDBRANCH  14  15
ENDBRANCH  12  14
ENDBRANCH   6  12
ENDBRANCH   3   5
ENDBRANCH   2   3
ENDBRANCH   1   2
BRANCH   1  24
ATOM     24  C   UNL A   1      38.934  19.891  25.328  1.00  0.00     0.275 C 
BRANCH  24  25
ATOM     25  O   UNL A   1      39.639  19.661  26.571  1.00  0.00    -0.458 OA
BRANCH  25  26
ATOM     26  C   UNL A   1      40.976  19.900  26.542  1.00  0.00     0.338 C 
ATOM     27  O   UNL A   1      41.856  19.093  26.288  1.00  0.00    -0.246 OA
BRANCH  26  28
ATOM     28  C   UNL A   1      41.261  21.337  26.755  1.00  0.00     0.060 A 
ATOM     29  C   UNL A   1      41.841  22.055  25.708  1.00  0.00     0.016 A 
ATOM     30  C   UNL A   1      41.069  21.968  27.979  1.00  0.00     0.016 A 
ATOM     31  C   UNL A   1      42.097  23.438  25.818  1.00  0.00     0.010 A 
ATOM     32  C   UNL A   1      41.381  23.338  28.103  1.00  0.00     0.010 A 
ATOM     33  C   UNL A   1      41.829  24.117  27.004  1.00  0.00    -0.014 A 
BRANCH  33  34
ATOM     34  C   UNL A   1      42.147  25.581  27.188  1.00  0.00     0.031 A 
ATOM     35  C   UNL A   1      43.554  26.005  26.925  1.00  0.00     0.074 A 
ATOM     36  C   UNL A   1      41.272  26.563  27.522  1.00  0.00     0.049 A 
ATOM     37  N   UNL A   1      44.142  27.135  27.205  1.00  0.00    -0.248 NA
ATOM     38  C   UNL A   1      44.385  25.042  26.186  1.00  0.00     0.031 C 
ATOM     39  C   UNL A   1      39.827  26.444  27.531  1.00  0.00     0.029 A 
ATOM     40  N   UNL A   1      41.468  27.856  27.981  1.00  0.00    -0.354 N 
ATOM     41  C   UNL A   1      45.383  27.056  26.599  1.00  0.00     0.074 A 
ATOM     42  C   UNL A   1      45.511  25.722  26.050  1.00  0.00     0.031 C 
ATOM     43  C   UNL A   1      39.269  27.518  28.120  1.00  0.00     0.029 A 
ATOM     44  C   UNL A   1      40.327  28.420  28.536  1.00  0.00     0.049 A 
ATOM     45  H   UNL A   1      42.330  28.328  27.919  1.00  0.00     0.167 HD
ATOM     46  C   UNL A   1      46.297  28.037  26.443  1.00  0.00     0.034 A 
ATOM     47  C   UNL A   1      40.162  29.496  29.340  1.00  0.00     0.034 A 
ATOM     48  C   UNL A   1      46.169  29.359  26.990  1.00  0.00     0.049 A 
ATOM     49  C   UNL A   1      41.331  30.411  29.539  1.00  0.00     0.074 A 
ATOM     50  C   UNL A   1      47.060  30.413  26.903  1.00  0.00     0.029 A 
ATOM     51  N   UNL A   1      45.089  29.810  27.737  1.00  0.00    -0.354 N 
ATOM     52  N   UNL A   1      42.539  30.294  29.051  1.00  0.00    -0.248 NA
ATOM     53  C   UNL A   1      41.101  31.636  30.318  1.00  0.00     0.031 C 
ATOM     54  C   UNL A   1      46.553  31.477  27.654  1.00  0.00     0.029 A 
ATOM     55  C   UNL A   1      45.314  31.113  28.155  1.00  0.00     0.049 A 
ATOM     56  H   UNL A   1      44.283  29.284  27.940  1.00  0.00     0.167 HD
ATOM     57  C   UNL A   1      43.183  31.481  29.365  1.00  0.00     0.074 A 
ATOM     58  C   UNL A   1      42.257  32.266  30.159  1.00  0.00     0.031 C 
ATOM     59  C   UNL A   1      44.406  31.896  28.958  1.00  0.00     0.034 A 
BRANCH  46  60
ATOM     60  C   UNL A   1      47.515  27.684  25.645  1.00  0.00     0.023 A 
ATOM     61  C   UNL A   1      47.568  27.930  24.261  1.00  0.00     0.031 A 
ATOM     62  C   UNL A   1      48.604  27.050  26.258  1.00  0.00     0.131 A 
ATOM     63  C   UNL A   1      48.670  27.486  23.522  1.00  0.00     0.055 A 
ATOM     64  C   UNL A   1      49.729  26.671  25.528  1.00  0.00     0.041 A 
ATOM     65  F   UNL A   1      48.580  26.768  27.570  1.00  0.00    -0.206 F 
ATOM     66  C   UNL A   1      49.762  26.879  24.149  1.00  0.00     0.022 A 
BRANCH  63  67
ATOM     67  S   UNL A   1      48.615  27.620  21.715  1.00  0.00     0.124 S 
ATOM     68  O   UNL A   1      49.663  28.605  21.462  1.00  0.00    -0.237 OA
ATOM     69  O   UNL A   1      48.902  26.257  21.284  1.00  0.00    -0.237 OA
ATOM     70  O   UNL A   1      47.254  28.083  21.451  1.00  0.00    -0.744 OA
ENDBRANCH  63  67
ENDBRANCH  46  60
BRANCH  47  71
ATOM     71  C   UNL A   1      38.886  29.763  30.075  1.00  0.00     0.023 A 
ATOM     72  C   UNL A   1      37.897  30.632  29.594  1.00  0.00     0.031 A 
ATOM     73  C   UNL A   1      38.700  29.214  31.359  1.00  0.00     0.131 A 
ATOM     74  C   UNL A   1      36.759  30.903  30.384  1.00  0.00     0.055 A 
ATOM     75  C   UNL A   1      37.539  29.428  32.107  1.00  0.00     0.041 A 
ATOM     76  F   UNL A   1      39.683  28.512  31.940  1.00  0.00    -0.206 F 
ATOM     77  C   UNL A   1      36.556  30.276  31.617  1.00  0.00     0.022 A 
BRANCH  74  78
ATOM     78  S   UNL A   1      35.571  32.156  29.822  1.00  0.00     0.124 S 
ATOM     79  O   UNL A   1      34.745  31.387  28.899  1.00  0.00    -0.237 OA
ATOM     80  O   UNL A   1      34.935  32.560  31.072  1.00  0.00    -0.237 OA
ATOM     81  O   UNL A   1      36.417  33.175  29.202  1.00  0.00    -0.744 OA
ENDBRANCH  74  78
ENDBRANCH  47  71
BRANCH  59  82
ATOM     82  C   UNL A   1      44.798  33.305  29.291  1.00  0.00     0.023 A 
ATOM     83  C   UNL A   1      44.427  34.385  28.478  1.00  0.00     0.031 A 
ATOM     84  C   UNL A   1      45.528  33.567  30.464  1.00  0.00     0.131 A 
ATOM     85  C   UNL A   1      44.808  35.684  28.839  1.00  0.00     0.055 A 
ATOM     86  C   UNL A   1      45.857  34.866  30.847  1.00  0.00     0.041 A 
ATOM     87  F   UNL A   1      45.913  32.562  31.268  1.00  0.00    -0.206 F 
ATOM     88  C   UNL A   1      45.500  35.934  30.029  1.00  0.00     0.022 A 
BRANCH  85  89
ATOM     89  S   UNL A   1      44.416  37.047  27.711  1.00  0.00     0.124 S 
ATOM     90  O   UNL A   1      43.922  38.065  28.633  1.00  0.00    -0.237 OA
ATOM     91  O   UNL A   1      45.707  37.324  27.089  1.00  0.00    -0.237 OA
ATOM     92  O   UNL A   1      43.410  36.475  26.819  1.00  0.00    -0.744 OA
ENDBRANCH  85  89
ENDBRANCH  59  82
ENDBRANCH  33  34
ENDBRANCH  26  28
ENDBRANCH  25  26
ENDBRANCH  24  25
ENDBRANCH   1  24
TORSDOF 19
ENDMDL
MODEL 3
REMARK VINA RESULT:     -10.6      1.790      2.327
REMARK SMILES C[C@H](CNc1cccc(F)c1C(=O)OCCOC(=O)c1ccc(-c2c3nc(c(-c4cc(S(=O)(=O)[O-])ccc4F)c4ccc([nH]4)c(-c4cc(S(=O)(=O)[O-])ccc4F)c4nc(c(-c5cc(S(=O)(=O)[O-])ccc5F)c5ccc2[nH]5)C=C4)C=C3)cc1)C[NH+]1CCCC1
REMARK SMILES IDX 15 1 14 2 12 3 13 4 11 5 5 6 6 7 7 8 9 9 8 10 10 11 4 12
REMARK SMILES IDX 3 14 2 15 1 16 83 17 84 18 85 19 88 20 86 22 87 23 16 24
REMARK SMILES IDX 17 25 18 26 19 27 20 28 21 29 82 30 22 31 81 32 23 33 24 34
REMARK SMILES IDX 25 35 75 36 26 37 80 38 74 39 76 40 27 41 79 42 73 43 72 44
REMARK SMILES IDX 28 46 60 47 40 48 59 49 41 50 44 51 58 52 77 53 42 54 43 55
REMARK SMILES IDX 57 57 78 58 45 59 29 60 30 61 38 62 31 63 37 64 39 65 36 66
REMARK SMILES IDX 32 67 33 68 34 69 35 70 61 71 62 72 70 73 63 74 69 75 71 76
REMARK SMILES IDX 68 77 64 78 65 79 66 80 67 81 46 82 47 83 55 84 48 85 54 86
REMARK SMILES IDX 56 87 53 88 49 89 50 90 51 91 52 92
REMARK H PARENT 4 13 84 21 76 45 44 56
REMARK Flexibility Score: inf
ROOT
ATOM      1  C   UNL A   1      31.768  28.580  26.732  1.00  0.00     0.275 C 
ENDROOT
BRANCH   1   2
ATOM      2  O   UNL A   1      31.690  27.462  25.833  1.00  0.00    -0.458 OA
BRANCH   2   3
ATOM      3  C   UNL A   1      32.899  26.916  25.525  1.00  0.00     0.343 C 
ATOM      4  O   UNL A   1      33.907  27.074  26.179  1.00  0.00    -0.246 OA
BRANCH   3   5
ATOM      5  C   UNL A   1      32.821  26.092  24.294  1.00  0.00     0.118 A 
ATOM      6  C   UNL A   1      32.185  24.828  24.327  1.00  0.00     0.052 A 
ATOM      7  C   UNL A   1      32.105  24.108  23.120  1.00  0.00     0.027 A 
ATOM      8  C   UNL A   1      32.664  24.601  21.932  1.00  0.00     0.005 A 
ATOM      9  C   UNL A   1      33.410  26.557  23.109  1.00  0.00     0.139 A 
ATOM     10  C   UNL A   1      33.326  25.824  21.930  1.00  0.00     0.040 A 
ATOM     11  F   UNL A   1      34.085  27.717  23.070  1.00  0.00    -0.206 F 
BRANCH   6  12
ATOM     12  N   UNL A   1      31.430  24.425  25.425  1.00  0.00    -0.384 N 
ATOM     13  H   UNL A   1      30.743  25.052  25.747  1.00  0.00     0.160 HD
BRANCH  12  14
ATOM     14  C   UNL A   1      31.558  23.165  26.140  1.00  0.00     0.122 C 
BRANCH  14  15
ATOM     15  C   UNL A   1      33.034  22.796  26.517  1.00  0.00     0.060 C 
ATOM     16  C   UNL A   1      33.078  22.344  27.986  1.00  0.00     0.015 C 
BRANCH  15  17
ATOM     17  C   UNL A   1      33.852  21.782  25.631  1.00  0.00     0.267 C 
BRANCH  17  18
ATOM     18  N   UNL A   1      35.084  22.271  24.994  1.00  0.00    -0.335 N 
ATOM     19  C   UNL A   1      36.258  21.394  25.134  1.00  0.00     0.262 C 
ATOM     20  C   UNL A   1      35.523  23.624  25.328  1.00  0.00     0.262 C 
ATOM     21  H   UNL A   1      34.752  22.274  24.030  1.00  0.00     0.348 HD
ATOM     22  C   UNL A   1      37.462  22.273  25.429  1.00  0.00     0.067 C 
ATOM     23  C   UNL A   1      36.995  23.619  24.941  1.00  0.00     0.067 C 
ENDBRANCH  17  18
ENDBRANCH  15  17
ENDBRANCH  14  15
ENDBRANCH  12  14
ENDBRANCH   6  12
ENDBRANCH   3   5
ENDBRANCH   2   3
ENDBRANCH   1   2
BRANCH   1  24
ATOM     24  C   UNL A   1      31.953  29.887  25.962  1.00  0.00     0.275 C 
BRANCH  24  25
ATOM     25  O   UNL A   1      33.305  30.394  26.060  1.00  0.00    -0.458 OA
BRANCH  25  26
ATOM     26  C   UNL A   1      33.516  31.326  27.026  1.00  0.00     0.338 C 
ATOM     27  O   UNL A   1      32.739  32.198  27.380  1.00  0.00    -0.246 OA
BRANCH  26  28
ATOM     28  C   UNL A   1      34.807  31.093  27.712  1.00  0.00     0.060 A 
ATOM     29  C   UNL A   1      35.055  29.823  28.236  1.00  0.00     0.016 A 
ATOM     30  C   UNL A   1      35.730  32.107  27.943  1.00  0.00     0.016 A 
ATOM     31  C   UNL A   1      36.280  29.511  28.860  1.00  0.00     0.010 A 
ATOM     32  C   UNL A   1      36.930  31.805  28.619  1.00  0.00     0.010 A 
ATOM     33  C   UNL A   1      37.262  30.485  29.023  1.00  0.00    -0.014 A 
BRANCH  33  34
ATOM     34  C   UNL A   1      38.561  30.214  29.742  1.00  0.00     0.031 A 
ATOM     35  C   UNL A   1      39.416  29.116  29.201  1.00  0.00     0.074 A 
ATOM     36  C   UNL A   1      39.056  30.898  30.804  1.00  0.00     0.049 A 
ATOM     37  N   UNL A   1      40.456  28.539  29.735  1.00  0.00    -0.248 NA
ATOM     38  C   UNL A   1      39.085  28.658  27.843  1.00  0.00     0.031 C 
ATOM     39  C   UNL A   1      38.559  32.165  31.303  1.00  0.00     0.029 A 
ATOM     40  N   UNL A   1      40.063  30.596  31.707  1.00  0.00    -0.354 N 
ATOM     41  C   UNL A   1      40.959  27.714  28.746  1.00  0.00     0.074 A 
ATOM     42  C   UNL A   1      40.039  27.767  27.629  1.00  0.00     0.031 C 
ATOM     43  C   UNL A   1      39.120  32.457  32.491  1.00  0.00     0.029 A 
ATOM     44  C   UNL A   1      40.033  31.387  32.848  1.00  0.00     0.049 A 
ATOM     45  H   UNL A   1      40.734  29.892  31.554  1.00  0.00     0.167 HD
ATOM     46  C   UNL A   1      42.130  27.040  28.740  1.00  0.00     0.034 A 
ATOM     47  C   UNL A   1      40.616  31.233  34.059  1.00  0.00     0.034 A 
ATOM     48  C   UNL A   1      43.041  26.986  29.849  1.00  0.00     0.049 A 
ATOM     49  C   UNL A   1      41.656  30.165  34.207  1.00  0.00     0.074 A 
ATOM     50  C   UNL A   1      44.240  26.305  29.941  1.00  0.00     0.029 A 
ATOM     51  N   UNL A   1      42.851  27.628  31.066  1.00  0.00    -0.354 N 
ATOM     52  N   UNL A   1      42.072  29.312  33.306  1.00  0.00    -0.248 NA
ATOM     53  C   UNL A   1      42.363  30.089  35.493  1.00  0.00     0.031 C 
ATOM     54  C   UNL A   1      44.742  26.478  31.234  1.00  0.00     0.029 A 
ATOM     55  C   UNL A   1      43.891  27.321  31.930  1.00  0.00     0.049 A 
ATOM     56  H   UNL A   1      42.092  28.215  31.283  1.00  0.00     0.167 HD
ATOM     57  C   UNL A   1      43.163  28.674  33.874  1.00  0.00     0.074 A 
ATOM     58  C   UNL A   1      43.291  29.179  35.227  1.00  0.00     0.031 C 
ATOM     59  C   UNL A   1      44.018  27.805  33.283  1.00  0.00     0.034 A 
BRANCH  46  60
ATOM     60  C   UNL A   1      42.462  26.306  27.477  1.00  0.00     0.023 A 
ATOM     61  C   UNL A   1      42.128  24.949  27.320  1.00  0.00     0.031 A 
ATOM     62  C   UNL A   1      43.165  26.949  26.449  1.00  0.00     0.131 A 
ATOM     63  C   UNL A   1      42.552  24.260  26.178  1.00  0.00     0.055 A 
ATOM     64  C   UNL A   1      43.526  26.275  25.284  1.00  0.00     0.041 A 
ATOM     65  F   UNL A   1      43.532  28.234  26.572  1.00  0.00    -0.206 F 
ATOM     66  C   UNL A   1      43.228  24.919  25.148  1.00  0.00     0.022 A 
BRANCH  63  67
ATOM     67  S   UNL A   1      42.298  22.467  26.102  1.00  0.00     0.124 S 
ATOM     68  O   UNL A   1      42.923  22.136  24.824  1.00  0.00    -0.237 OA
ATOM     69  O   UNL A   1      42.991  21.994  27.294  1.00  0.00    -0.237 OA
ATOM     70  O   UNL A   1      40.842  22.329  26.132  1.00  0.00    -0.744 OA
ENDBRANCH  63  67
ENDBRANCH  46  60
BRANCH  47  71
ATOM     71  C   UNL A   1      40.217  32.042  35.253  1.00  0.00     0.023 A 
ATOM     72  C   UNL A   1      39.260  31.609  36.181  1.00  0.00     0.031 A 
ATOM     73  C   UNL A   1      40.730  33.345  35.408  1.00  0.00     0.131 A 
ATOM     74  C   UNL A   1      38.869  32.463  37.234  1.00  0.00     0.055 A 
ATOM     75  C   UNL A   1      40.393  34.160  36.493  1.00  0.00     0.041 A 
ATOM     76  F   UNL A   1      41.518  33.875  34.463  1.00  0.00    -0.206 F 
ATOM     77  C   UNL A   1      39.458  33.717  37.417  1.00  0.00     0.022 A 
BRANCH  74  78
ATOM     78  S   UNL A   1      37.512  31.955  38.328  1.00  0.00     0.124 S 
ATOM     79  O   UNL A   1      37.251  30.598  37.863  1.00  0.00    -0.237 OA
ATOM     80  O   UNL A   1      38.117  32.078  39.649  1.00  0.00    -0.237 OA
ATOM     81  O   UNL A   1      36.458  32.926  38.037  1.00  0.00    -0.744 OA
ENDBRANCH  74  78
ENDBRANCH  47  71
BRANCH  59  82
ATOM     82  C   UNL A   1      45.230  27.396  34.066  1.00  0.00     0.023 A 
ATOM     83  C   UNL A   1      46.411  28.151  34.046  1.00  0.00     0.031 A 
ATOM     84  C   UNL A   1      45.182  26.245  34.873  1.00  0.00     0.131 A 
ATOM     85  C   UNL A   1      47.511  27.732  34.804  1.00  0.00     0.055 A 
ATOM     86  C   UNL A   1      46.261  25.864  35.668  1.00  0.00     0.041 A 
ATOM     87  F   UNL A   1      44.075  25.486  34.917  1.00  0.00    -0.206 F 
ATOM     88  C   UNL A   1      47.437  26.608  35.633  1.00  0.00     0.022 A 
BRANCH  85  89
ATOM     89  S   UNL A   1      49.061  28.661  34.668  1.00  0.00     0.124 S 
ATOM     90  O   UNL A   1      49.243  28.729  33.221  1.00  0.00    -0.237 OA
ATOM     91  O   UNL A   1      48.735  29.920  35.329  1.00  0.00    -0.237 OA
ATOM     92  O   UNL A   1      50.026  27.823  35.377  1.00  0.00    -0.744 OA
ENDBRANCH  85  89
ENDBRANCH  59  82
ENDBRANCH  33  34
ENDBRANCH  26  28
ENDBRANCH  25  26
ENDBRANCH  24  25
ENDBRANCH   1  24
TORSDOF 19
ENDMDL
