MODEL 1
REMARK VINA RESULT:     -11.5      0.000      0.000
REMARK SMILES CCC[C@@]1(C(=O)OCCOC(=O)c2ccc(-c3c4nc(c(-c5cc(S(=O)(=O)[O-])ccc5F)c5ccc([nH]5)c(-c5cc(S(=O)(=O)[O-])ccc5F)c5nc(c(-c6cc(S(=O)(=O)[O-])ccc6F)c6ccc3[nH]6)C=C5)C=C4)cc2)CCCN(C(=O)CCn2cncn2)C1
REMARK SMILES IDX 8 1 7 2 5 3 6 4 4 5 76 6 89 7 77 8 79 9 78 10 3 11 2 12 1 13
REMARK SMILES IDX 80 14 81 15 82 16 83 17 84 18 85 19 88 20 86 21 87 22 9 23
REMARK SMILES IDX 10 24 11 25 12 26 13 27 14 28 75 29 15 30 74 31 16 32 17 33
REMARK SMILES IDX 18 34 68 35 19 36 73 37 67 38 69 39 20 40 72 41 66 42 65 43
REMARK SMILES IDX 21 45 53 46 33 47 52 48 34 49 37 50 51 51 70 52 35 53 36 54
REMARK SMILES IDX 50 56 71 57 38 58 22 59 23 60 31 61 24 62 30 63 32 64 29 65
REMARK SMILES IDX 25 66 26 67 27 68 28 69 54 70 55 71 63 72 56 73 62 74 64 75
REMARK SMILES IDX 61 76 57 77 58 78 59 79 60 80 39 81 40 82 48 83 41 84 47 85
REMARK SMILES IDX 49 86 46 87 42 88 43 89 44 90 45 91
REMARK H PARENT 69 44 37 55
REMARK Flexibility Score: inf
ROOT
ATOM      1  C   UNL A   1      31.896  28.449  27.291  1.00  0.00     0.274 C 
ENDROOT
BRANCH   1   2
ATOM      2  O   UNL A   1      32.566  27.293  26.731  1.00  0.00    -0.462 OA
BRANCH   2   3
ATOM      3  C   UNL A   1      31.763  26.331  26.193  1.00  0.00     0.314 C 
ATOM      4  O   UNL A   1      30.637  26.079  26.605  1.00  0.00    -0.252 OA
BRANCH   3   5
ATOM      5  C   UNL A   1      32.462  25.537  25.075  1.00  0.00     0.086 C 
ATOM      6  C   UNL A   1      33.824  26.200  24.712  1.00  0.00     0.022 C 
ATOM      7  C   UNL A   1      31.555  25.563  23.826  1.00  0.00     0.138 C 
ATOM      8  C   UNL A   1      33.683  27.544  23.981  1.00  0.00     0.023 C 
ATOM      9  N   UNL A   1      31.427  26.895  23.244  1.00  0.00    -0.341 N 
ATOM     10  C   UNL A   1      32.696  27.484  22.817  1.00  0.00     0.119 C 
BRANCH   5  11
ATOM     11  C   UNL A   1      32.679  24.041  25.428  1.00  0.00     0.020 C 
BRANCH  11  12
ATOM     12  C   UNL A   1      33.561  23.714  26.633  1.00  0.00    -0.002 C 
ATOM     13  C   UNL A   1      32.943  22.621  27.484  1.00  0.00     0.004 C 
ENDBRANCH  11  12
ENDBRANCH   5  11
BRANCH   9  14
ATOM     14  C   UNL A   1      30.170  27.461  23.169  1.00  0.00     0.224 C 
ATOM     15  O   UNL A   1      29.195  26.976  23.753  1.00  0.00    -0.275 OA
BRANCH  14  16
ATOM     16  C   UNL A   1      29.952  28.719  22.369  1.00  0.00     0.124 C 
BRANCH  16  17
ATOM     17  C   UNL A   1      29.618  29.872  23.302  1.00  0.00     0.156 C 
BRANCH  17  18
ATOM     18  N   UNL A   1      28.994  30.983  22.620  1.00  0.00    -0.252 N 
ATOM     19  C   UNL A   1      28.539  32.148  23.147  1.00  0.00     0.219 A 
ATOM     20  N   UNL A   1      28.778  30.929  21.292  1.00  0.00    -0.160 NA
ATOM     21  N   UNL A   1      28.022  32.882  22.188  1.00  0.00    -0.224 NA
ATOM     22  C   UNL A   1      28.192  32.110  21.077  1.00  0.00     0.246 A 
ENDBRANCH  17  18
ENDBRANCH  16  17
ENDBRANCH  14  16
ENDBRANCH   9  14
ENDBRANCH   3   5
ENDBRANCH   2   3
ENDBRANCH   1   2
BRANCH   1  23
ATOM     23  C   UNL A   1      31.933  29.638  26.333  1.00  0.00     0.275 C 
BRANCH  23  24
ATOM     24  O   UNL A   1      33.276  30.131  26.294  1.00  0.00    -0.458 OA
BRANCH  24  25
ATOM     25  C   UNL A   1      33.568  31.156  27.126  1.00  0.00     0.338 C 
ATOM     26  O   UNL A   1      32.807  32.063  27.441  1.00  0.00    -0.246 OA
BRANCH  25  27
ATOM     27  C   UNL A   1      34.913  30.927  27.720  1.00  0.00     0.060 A 
ATOM     28  C   UNL A   1      35.265  29.670  28.229  1.00  0.00     0.016 A 
ATOM     29  C   UNL A   1      35.785  32.004  27.904  1.00  0.00     0.016 A 
ATOM     30  C   UNL A   1      36.435  29.506  28.965  1.00  0.00     0.010 A 
ATOM     31  C   UNL A   1      37.013  31.806  28.551  1.00  0.00     0.010 A 
ATOM     32  C   UNL A   1      37.358  30.550  29.080  1.00  0.00    -0.014 A 
BRANCH  32  33
ATOM     33  C   UNL A   1      38.712  30.317  29.660  1.00  0.00     0.031 A 
ATOM     34  C   UNL A   1      39.670  29.351  29.018  1.00  0.00     0.074 A 
ATOM     35  C   UNL A   1      39.058  30.924  30.815  1.00  0.00     0.049 A 
ATOM     36  N   UNL A   1      40.699  28.737  29.541  1.00  0.00    -0.248 NA
ATOM     37  C   UNL A   1      39.432  29.031  27.603  1.00  0.00     0.031 C 
ATOM     38  C   UNL A   1      38.278  31.953  31.508  1.00  0.00     0.029 A 
ATOM     39  N   UNL A   1      40.151  30.741  31.631  1.00  0.00    -0.354 N 
ATOM     40  C   UNL A   1      41.198  27.907  28.542  1.00  0.00     0.074 A 
ATOM     41  C   UNL A   1      40.367  28.117  27.374  1.00  0.00     0.031 C 
ATOM     42  C   UNL A   1      38.914  32.316  32.628  1.00  0.00     0.029 A 
ATOM     43  C   UNL A   1      40.064  31.446  32.812  1.00  0.00     0.049 A 
ATOM     44  H   UNL A   1      40.914  30.168  31.396  1.00  0.00     0.167 HD
ATOM     45  C   UNL A   1      42.239  27.040  28.616  1.00  0.00     0.034 A 
ATOM     46  C   UNL A   1      40.752  31.335  33.965  1.00  0.00     0.034 A 
ATOM     47  C   UNL A   1      43.069  26.882  29.789  1.00  0.00     0.049 A 
ATOM     48  C   UNL A   1      41.813  30.280  34.072  1.00  0.00     0.074 A 
ATOM     49  C   UNL A   1      44.170  26.059  29.965  1.00  0.00     0.029 A 
ATOM     50  N   UNL A   1      42.891  27.560  30.988  1.00  0.00    -0.354 N 
ATOM     51  N   UNL A   1      42.222  29.427  33.162  1.00  0.00    -0.248 NA
ATOM     52  C   UNL A   1      42.483  30.149  35.372  1.00  0.00     0.031 C 
ATOM     53  C   UNL A   1      44.609  26.187  31.288  1.00  0.00     0.029 A 
ATOM     54  C   UNL A   1      43.831  27.143  31.919  1.00  0.00     0.049 A 
ATOM     55  H   UNL A   1      42.197  28.239  31.154  1.00  0.00     0.167 HD
ATOM     56  C   UNL A   1      43.205  28.661  33.779  1.00  0.00     0.074 A 
ATOM     57  C   UNL A   1      43.339  29.166  35.131  1.00  0.00     0.031 C 
ATOM     58  C   UNL A   1      43.932  27.635  33.272  1.00  0.00     0.034 A 
BRANCH  45  59
ATOM     59  C   UNL A   1      42.490  26.131  27.435  1.00  0.00     0.023 A 
ATOM     60  C   UNL A   1      42.015  24.810  27.381  1.00  0.00     0.031 A 
ATOM     61  C   UNL A   1      43.219  26.613  26.332  1.00  0.00     0.131 A 
ATOM     62  C   UNL A   1      42.313  24.005  26.266  1.00  0.00     0.055 A 
ATOM     63  C   UNL A   1      43.454  25.831  25.200  1.00  0.00     0.041 A 
ATOM     64  F   UNL A   1      43.716  27.861  26.335  1.00  0.00    -0.206 F 
ATOM     65  C   UNL A   1      43.009  24.515  25.167  1.00  0.00     0.022 A 
BRANCH  62  66
ATOM     66  S   UNL A   1      41.875  22.246  26.319  1.00  0.00     0.124 S 
ATOM     67  O   UNL A   1      42.719  21.697  25.261  1.00  0.00    -0.237 OA
ATOM     68  O   UNL A   1      42.234  21.872  27.681  1.00  0.00    -0.237 OA
ATOM     69  O   UNL A   1      40.443  22.239  26.028  1.00  0.00    -0.744 OA
ENDBRANCH  62  66
ENDBRANCH  45  59
BRANCH  46  70
ATOM     70  C   UNL A   1      40.362  32.157  35.147  1.00  0.00     0.023 A 
ATOM     71  C   UNL A   1      39.374  31.716  36.037  1.00  0.00     0.031 A 
ATOM     72  C   UNL A   1      40.969  33.403  35.394  1.00  0.00     0.131 A 
ATOM     73  C   UNL A   1      39.007  32.524  37.124  1.00  0.00     0.055 A 
ATOM     74  C   UNL A   1      40.643  34.174  36.509  1.00  0.00     0.041 A 
ATOM     75  F   UNL A   1      41.916  33.876  34.567  1.00  0.00    -0.206 F 
ATOM     76  C   UNL A   1      39.649  33.740  37.377  1.00  0.00     0.022 A 
BRANCH  73  77
ATOM     77  S   UNL A   1      37.620  31.997  38.166  1.00  0.00     0.124 S 
ATOM     78  O   UNL A   1      37.404  30.631  37.704  1.00  0.00    -0.237 OA
ATOM     79  O   UNL A   1      38.179  32.139  39.507  1.00  0.00    -0.237 OA
ATOM     80  O   UNL A   1      36.562  32.946  37.829  1.00  0.00    -0.744 OA
ENDBRANCH  73  77
ENDBRANCH  46  70
BRANCH  58  81
ATOM     81  C   UNL A   1      44.959  27.023  34.188  1.00  0.00     0.023 A 
ATOM     82  C   UNL A   1      44.702  25.832  34.888  1.00  0.00     0.031 A 
ATOM     83  C   UNL A   1      46.196  27.661  34.388  1.00  0.00     0.131 A 
ATOM     84  C   UNL A   1      45.650  25.340  35.797  1.00  0.00     0.055 A 
ATOM     85  C   UNL A   1      47.157  27.137  35.253  1.00  0.00     0.041 A 
ATOM     86  F   UNL A   1      46.487  28.804  33.748  1.00  0.00    -0.206 F 
ATOM     87  C   UNL A   1      46.883  25.977  35.972  1.00  0.00     0.022 A 
BRANCH  84  88
ATOM     88  S   UNL A   1      45.223  23.896  36.807  1.00  0.00     0.124 S 
ATOM     89  O   UNL A   1      44.589  24.514  37.966  1.00  0.00    -0.237 OA
ATOM     90  O   UNL A   1      44.340  23.143  35.922  1.00  0.00    -0.237 OA
ATOM     91  O   UNL A   1      46.517  23.267  37.069  1.00  0.00    -0.744 OA
ENDBRANCH  84  88
ENDBRANCH  58  81
ENDBRANCH  32  33
ENDBRANCH  25  27
ENDBRANCH  24  25
ENDBRANCH  23  24
ENDBRANCH   1  23
TORSDOF 20
ENDMDL
MODEL 2
REMARK VINA RESULT:     -11.2      1.775      2.153
REMARK SMILES CCC[C@@]1(C(=O)OCCOC(=O)c2ccc(-c3c4nc(c(-c5cc(S(=O)(=O)[O-])ccc5F)c5ccc([nH]5)c(-c5cc(S(=O)(=O)[O-])ccc5F)c5nc(c(-c6cc(S(=O)(=O)[O-])ccc6F)c6ccc3[nH]6)C=C5)C=C4)cc2)CCCN(C(=O)CCn2cncn2)C1
REMARK SMILES IDX 8 1 7 2 5 3 6 4 4 5 76 6 89 7 77 8 79 9 78 10 3 11 2 12 1 13
REMARK SMILES IDX 80 14 81 15 82 16 83 17 84 18 85 19 88 20 86 21 87 22 9 23
REMARK SMILES IDX 10 24 11 25 12 26 13 27 14 28 75 29 15 30 74 31 16 32 17 33
REMARK SMILES IDX 18 34 68 35 19 36 73 37 67 38 69 39 20 40 72 41 66 42 65 43
REMARK SMILES IDX 21 45 53 46 33 47 52 48 34 49 37 50 51 51 70 52 35 53 36 54
REMARK SMILES IDX 50 56 71 57 38 58 22 59 23 60 31 61 24 62 30 63 32 64 29 65
REMARK SMILES IDX 25 66 26 67 27 68 28 69 54 70 55 71 63 72 56 73 62 74 64 75
REMARK SMILES IDX 61 76 57 77 58 78 59 79 60 80 39 81 40 82 48 83 41 84 47 85
REMARK SMILES IDX 49 86 46 87 42 88 43 89 44 90 45 91
REMARK H PARENT 69 44 37 55
REMARK Flexibility Score: inf
ROOT
ATOM      1  C   UNL A   1      31.929  28.311  27.597  1.00  0.00     0.274 C 
ENDROOT
BRANCH   1   2
ATOM      2  O   UNL A   1      32.485  27.176  26.889  1.00  0.00    -0.462 OA
BRANCH   2   3
ATOM      3  C   UNL A   1      31.593  26.363  26.255  1.00  0.00     0.314 C 
ATOM      4  O   UNL A   1      30.439  26.196  26.634  1.00  0.00    -0.252 OA
BRANCH   3   5
ATOM      5  C   UNL A   1      32.222  25.610  25.069  1.00  0.00     0.086 C 
ATOM      6  C   UNL A   1      33.610  26.222  24.715  1.00  0.00     0.022 C 
ATOM      7  C   UNL A   1      31.290  25.768  23.848  1.00  0.00     0.138 C 
ATOM      8  C   UNL A   1      33.526  27.617  24.078  1.00  0.00     0.023 C 
ATOM      9  N   UNL A   1      31.222  27.141  23.359  1.00  0.00    -0.341 N 
ATOM     10  C   UNL A   1      32.511  27.689  22.939  1.00  0.00     0.119 C 
BRANCH   5  11
ATOM     11  C   UNL A   1      32.364  24.084  25.317  1.00  0.00     0.020 C 
BRANCH  11  12
ATOM     12  C   UNL A   1      33.706  23.569  25.838  1.00  0.00    -0.002 C 
ATOM     13  C   UNL A   1      33.520  22.343  26.713  1.00  0.00     0.004 C 
ENDBRANCH  11  12
ENDBRANCH   5  11
BRANCH   9  14
ATOM     14  C   UNL A   1      29.997  27.777  23.355  1.00  0.00     0.224 C 
ATOM     15  O   UNL A   1      28.934  27.155  23.453  1.00  0.00    -0.275 OA
BRANCH  14  16
ATOM     16  C   UNL A   1      29.923  29.278  23.240  1.00  0.00     0.124 C 
BRANCH  16  17
ATOM     17  C   UNL A   1      28.892  29.663  22.191  1.00  0.00     0.156 C 
BRANCH  17  18
ATOM     18  N   UNL A   1      28.631  31.084  22.157  1.00  0.00    -0.252 N 
ATOM     19  C   UNL A   1      28.060  31.815  21.165  1.00  0.00     0.219 A 
ATOM     20  N   UNL A   1      28.988  31.864  23.196  1.00  0.00    -0.160 NA
ATOM     21  N   UNL A   1      28.025  33.077  21.525  1.00  0.00    -0.224 NA
ATOM     22  C   UNL A   1      28.592  33.066  22.765  1.00  0.00     0.246 A 
ENDBRANCH  17  18
ENDBRANCH  16  17
ENDBRANCH  14  16
ENDBRANCH   9  14
ENDBRANCH   3   5
ENDBRANCH   2   3
ENDBRANCH   1   2
BRANCH   1  23
ATOM     23  C   UNL A   1      31.701  29.498  26.663  1.00  0.00     0.275 C 
BRANCH  23  24
ATOM     24  O   UNL A   1      32.975  30.081  26.371  1.00  0.00    -0.458 OA
BRANCH  24  25
ATOM     25  C   UNL A   1      33.298  31.201  27.056  1.00  0.00     0.338 C 
ATOM     26  O   UNL A   1      32.586  32.190  27.191  1.00  0.00    -0.246 OA
BRANCH  25  27
ATOM     27  C   UNL A   1      34.596  30.985  27.750  1.00  0.00     0.060 A 
ATOM     28  C   UNL A   1      35.446  32.063  28.029  1.00  0.00     0.016 A 
ATOM     29  C   UNL A   1      35.043  29.685  28.001  1.00  0.00     0.016 A 
ATOM     30  C   UNL A   1      36.742  31.844  28.488  1.00  0.00     0.010 A 
ATOM     31  C   UNL A   1      36.309  29.477  28.567  1.00  0.00     0.010 A 
ATOM     32  C   UNL A   1      37.170  30.557  28.828  1.00  0.00    -0.014 A 
BRANCH  32  33
ATOM     33  C   UNL A   1      38.463  30.341  29.539  1.00  0.00     0.031 A 
ATOM     34  C   UNL A   1      39.514  29.429  28.968  1.00  0.00     0.074 A 
ATOM     35  C   UNL A   1      38.667  30.913  30.745  1.00  0.00     0.049 A 
ATOM     36  N   UNL A   1      40.502  28.826  29.575  1.00  0.00    -0.248 NA
ATOM     37  C   UNL A   1      39.436  29.157  27.526  1.00  0.00     0.031 C 
ATOM     38  C   UNL A   1      37.785  31.892  31.387  1.00  0.00     0.029 A 
ATOM     39  N   UNL A   1      39.673  30.731  31.665  1.00  0.00    -0.354 N 
ATOM     40  C   UNL A   1      41.131  28.049  28.607  1.00  0.00     0.074 A 
ATOM     41  C   UNL A   1      40.419  28.280  27.365  1.00  0.00     0.031 C 
ATOM     42  C   UNL A   1      38.289  32.230  32.580  1.00  0.00     0.029 A 
ATOM     43  C   UNL A   1      39.441  31.387  32.854  1.00  0.00     0.049 A 
ATOM     44  H   UNL A   1      40.476  30.190  31.492  1.00  0.00     0.167 HD
ATOM     45  C   UNL A   1      42.186  27.210  28.759  1.00  0.00     0.034 A 
ATOM     46  C   UNL A   1      40.008  31.252  34.068  1.00  0.00     0.034 A 
ATOM     47  C   UNL A   1      42.894  27.032  30.007  1.00  0.00     0.049 A 
ATOM     48  C   UNL A   1      41.087  30.225  34.250  1.00  0.00     0.074 A 
ATOM     49  C   UNL A   1      43.996  26.235  30.269  1.00  0.00     0.029 A 
ATOM     50  N   UNL A   1      42.569  27.657  31.204  1.00  0.00    -0.354 N 
ATOM     51  N   UNL A   1      41.616  29.420  33.359  1.00  0.00    -0.248 NA
ATOM     52  C   UNL A   1      41.621  30.064  35.608  1.00  0.00     0.031 C 
ATOM     53  C   UNL A   1      44.291  26.325  31.635  1.00  0.00     0.029 A 
ATOM     54  C   UNL A   1      43.419  27.232  32.214  1.00  0.00     0.049 A 
ATOM     55  H   UNL A   1      41.840  28.309  31.319  1.00  0.00     0.167 HD
ATOM     56  C   UNL A   1      42.553  28.660  34.049  1.00  0.00     0.074 A 
ATOM     57  C   UNL A   1      42.529  29.116  35.425  1.00  0.00     0.031 C 
ATOM     58  C   UNL A   1      43.363  27.675  33.586  1.00  0.00     0.034 A 
BRANCH  45  59
ATOM     59  C   UNL A   1      42.589  26.355  27.580  1.00  0.00     0.023 A 
ATOM     60  C   UNL A   1      42.122  25.042  27.401  1.00  0.00     0.031 A 
ATOM     61  C   UNL A   1      43.458  26.882  26.606  1.00  0.00     0.131 A 
ATOM     62  C   UNL A   1      42.562  24.287  26.299  1.00  0.00     0.055 A 
ATOM     63  C   UNL A   1      43.839  26.151  25.480  1.00  0.00     0.041 A 
ATOM     64  F   UNL A   1      43.953  28.124  26.734  1.00  0.00    -0.206 F 
ATOM     65  C   UNL A   1      43.399  24.842  25.327  1.00  0.00     0.022 A 
BRANCH  62  66
ATOM     66  S   UNL A   1      42.118  22.531  26.211  1.00  0.00     0.124 S 
ATOM     67  O   UNL A   1      42.674  22.019  27.461  1.00  0.00    -0.237 OA
ATOM     68  O   UNL A   1      40.664  22.577  26.131  1.00  0.00    -0.237 OA
ATOM     69  O   UNL A   1      42.795  22.066  25.002  1.00  0.00    -0.744 OA
ENDBRANCH  62  66
ENDBRANCH  45  59
BRANCH  46  70
ATOM     70  C   UNL A   1      39.469  32.016  35.231  1.00  0.00     0.023 A 
ATOM     71  C   UNL A   1      39.865  33.339  35.470  1.00  0.00     0.031 A 
ATOM     72  C   UNL A   1      38.556  31.425  36.124  1.00  0.00     0.131 A 
ATOM     73  C   UNL A   1      39.362  34.022  36.588  1.00  0.00     0.055 A 
ATOM     74  C   UNL A   1      38.014  32.129  37.199  1.00  0.00     0.041 A 
ATOM     75  F   UNL A   1      38.151  30.157  35.945  1.00  0.00    -0.206 F 
ATOM     76  C   UNL A   1      38.425  33.434  37.442  1.00  0.00     0.022 A 
BRANCH  73  77
ATOM     77  S   UNL A   1      40.011  35.675  36.957  1.00  0.00     0.124 S 
ATOM     78  O   UNL A   1      39.279  36.018  38.171  1.00  0.00    -0.237 OA
ATOM     79  O   UNL A   1      41.437  35.411  37.121  1.00  0.00    -0.237 OA
ATOM     80  O   UNL A   1      39.655  36.452  35.772  1.00  0.00    -0.744 OA
ENDBRANCH  73  77
ENDBRANCH  46  70
BRANCH  58  81
ATOM     81  C   UNL A   1      44.308  27.059  34.583  1.00  0.00     0.023 A 
ATOM     82  C   UNL A   1      45.582  27.602  34.821  1.00  0.00     0.031 A 
ATOM     83  C   UNL A   1      43.940  25.894  35.278  1.00  0.00     0.131 A 
ATOM     84  C   UNL A   1      46.465  26.951  35.694  1.00  0.00     0.055 A 
ATOM     85  C   UNL A   1      44.803  25.281  36.187  1.00  0.00     0.041 A 
ATOM     86  F   UNL A   1      42.737  25.332  35.082  1.00  0.00    -0.206 F 
ATOM     87  C   UNL A   1      46.077  25.802  36.391  1.00  0.00     0.022 A 
BRANCH  84  88
ATOM     88  S   UNL A   1      48.159  27.581  35.853  1.00  0.00     0.124 S 
ATOM     89  O   UNL A   1      48.237  28.520  34.740  1.00  0.00    -0.237 OA
ATOM     90  O   UNL A   1      48.151  28.171  37.187  1.00  0.00    -0.237 OA
ATOM     91  O   UNL A   1      48.984  26.382  35.713  1.00  0.00    -0.744 OA
ENDBRANCH  84  88
ENDBRANCH  58  81
ENDBRANCH  32  33
ENDBRANCH  25  27
ENDBRANCH  24  25
ENDBRANCH  23  24
ENDBRANCH   1  23
TORSDOF 20
ENDMDL
MODEL 3
REMARK VINA RESULT:     -11.1      1.719      2.266
REMARK SMILES CCC[C@@]1(C(=O)OCCOC(=O)c2ccc(-c3c4nc(c(-c5cc(S(=O)(=O)[O-])ccc5F)c5ccc([nH]5)c(-c5cc(S(=O)(=O)[O-])ccc5F)c5nc(c(-c6cc(S(=O)(=O)[O-])ccc6F)c6ccc3[nH]6)C=C5)C=C4)cc2)CCCN(C(=O)CCn2cncn2)C1
REMARK SMILES IDX 8 1 7 2 5 3 6 4 4 5 76 6 89 7 77 8 79 9 78 10 3 11 2 12 1 13
REMARK SMILES IDX 80 14 81 15 82 16 83 17 84 18 85 19 88 20 86 21 87 22 9 23
REMARK SMILES IDX 10 24 11 25 12 26 13 27 14 28 75 29 15 30 74 31 16 32 17 33
REMARK SMILES IDX 18 34 68 35 19 36 73 37 67 38 69 39 20 40 72 41 66 42 65 43
REMARK SMILES IDX 21 45 53 46 33 47 52 48 34 49 37 50 51 51 70 52 35 53 36 54
REMARK SMILES IDX 50 56 71 57 38 58 22 59 23 60 31 61 24 62 30 63 32 64 29 65
REMARK SMILES IDX 25 66 26 67 27 68 28 69 54 70 55 71 63 72 56 73 62 74 64 75
REMARK SMILES IDX 61 76 57 77 58 78 59 79 60 80 39 81 40 82 48 83 41 84 47 85
REMARK SMILES IDX 49 86 46 87 42 88 43 89 44 90 45 91
REMARK H PARENT 69 44 37 55
REMARK Flexibility Score: inf
ROOT
ATOM      1  C   UNL A   1      33.101  28.786  24.193  1.00  0.00     0.274 C 
ENDROOT
BRANCH   1   2
ATOM      2  O   UNL A   1      33.343  27.463  24.729  1.00  0.00    -0.462 OA
BRANCH   2   3
ATOM      3  C   UNL A   1      33.591  26.478  23.820  1.00  0.00     0.314 C 
ATOM      4  O   UNL A   1      33.644  26.669  22.610  1.00  0.00    -0.252 OA
BRANCH   3   5
ATOM      5  C   UNL A   1      33.705  25.088  24.473  1.00  0.00     0.086 C 
ATOM      6  C   UNL A   1      33.561  23.971  23.397  1.00  0.00     0.022 C 
ATOM      7  C   UNL A   1      32.556  24.940  25.493  1.00  0.00     0.138 C 
ATOM      8  C   UNL A   1      32.139  23.838  22.831  1.00  0.00     0.023 C 
ATOM      9  N   UNL A   1      31.240  24.893  24.864  1.00  0.00    -0.341 N 
ATOM     10  C   UNL A   1      31.069  23.789  23.921  1.00  0.00     0.119 C 
BRANCH   5  11
ATOM     11  C   UNL A   1      35.025  24.890  25.267  1.00  0.00     0.020 C 
BRANCH  11  12
ATOM     12  C   UNL A   1      35.886  23.676  24.924  1.00  0.00    -0.002 C 
ATOM     13  C   UNL A   1      37.185  23.685  25.710  1.00  0.00     0.004 C 
ENDBRANCH  11  12
ENDBRANCH   5  11
BRANCH   9  14
ATOM     14  C   UNL A   1      30.320  25.868  25.193  1.00  0.00     0.224 C 
ATOM     15  O   UNL A   1      30.293  26.397  26.309  1.00  0.00    -0.275 OA
BRANCH  14  16
ATOM     16  C   UNL A   1      29.311  26.332  24.174  1.00  0.00     0.124 C 
BRANCH  16  17
ATOM     17  C   UNL A   1      29.996  27.202  23.132  1.00  0.00     0.156 C 
BRANCH  17  18
ATOM     18  N   UNL A   1      29.264  28.416  22.846  1.00  0.00    -0.252 N 
ATOM     19  C   UNL A   1      29.726  29.573  22.309  1.00  0.00     0.219 A 
ATOM     20  N   UNL A   1      27.952  28.502  23.140  1.00  0.00    -0.160 NA
ATOM     21  N   UNL A   1      28.741  30.438  22.234  1.00  0.00    -0.224 NA
ATOM     22  C   UNL A   1      27.680  29.748  22.742  1.00  0.00     0.246 A 
ENDBRANCH  17  18
ENDBRANCH  16  17
ENDBRANCH  14  16
ENDBRANCH   9  14
ENDBRANCH   3   5
ENDBRANCH   2   3
ENDBRANCH   1   2
BRANCH   1  23
ATOM     23  C   UNL A   1      32.239  29.624  25.135  1.00  0.00     0.275 C 
BRANCH  23  24
ATOM     24  O   UNL A   1      32.837  29.584  26.434  1.00  0.00    -0.458 OA
BRANCH  24  25
ATOM     25  C   UNL A   1      33.180  30.773  26.979  1.00  0.00     0.338 C 
ATOM     26  O   UNL A   1      32.465  31.766  27.043  1.00  0.00    -0.246 OA
BRANCH  25  27
ATOM     27  C   UNL A   1      34.513  30.639  27.629  1.00  0.00     0.060 A 
ATOM     28  C   UNL A   1      35.327  31.762  27.827  1.00  0.00     0.016 A 
ATOM     29  C   UNL A   1      35.023  29.370  27.916  1.00  0.00     0.016 A 
ATOM     30  C   UNL A   1      36.648  31.616  28.243  1.00  0.00     0.010 A 
ATOM     31  C   UNL A   1      36.317  29.239  28.439  1.00  0.00     0.010 A 
ATOM     32  C   UNL A   1      37.142  30.363  28.619  1.00  0.00    -0.014 A 
BRANCH  32  33
ATOM     33  C   UNL A   1      38.470  30.231  29.286  1.00  0.00     0.031 A 
ATOM     34  C   UNL A   1      39.524  29.316  28.728  1.00  0.00     0.074 A 
ATOM     35  C   UNL A   1      38.704  30.884  30.444  1.00  0.00     0.049 A 
ATOM     36  N   UNL A   1      40.556  28.781  29.328  1.00  0.00    -0.248 NA
ATOM     37  C   UNL A   1      39.396  28.950  27.310  1.00  0.00     0.031 C 
ATOM     38  C   UNL A   1      37.819  31.875  31.061  1.00  0.00     0.029 A 
ATOM     39  N   UNL A   1      39.753  30.790  31.328  1.00  0.00    -0.354 N 
ATOM     40  C   UNL A   1      41.168  27.963  28.383  1.00  0.00     0.074 A 
ATOM     41  C   UNL A   1      40.399  28.094  27.161  1.00  0.00     0.031 C 
ATOM     42  C   UNL A   1      38.360  32.303  32.208  1.00  0.00     0.029 A 
ATOM     43  C   UNL A   1      39.549  31.513  32.484  1.00  0.00     0.049 A 
ATOM     44  H   UNL A   1      40.565  30.262  31.155  1.00  0.00     0.167 HD
ATOM     45  C   UNL A   1      42.255  27.167  28.541  1.00  0.00     0.034 A 
ATOM     46  C   UNL A   1      40.170  31.472  33.678  1.00  0.00     0.034 A 
ATOM     47  C   UNL A   1      43.019  27.089  29.766  1.00  0.00     0.049 A 
ATOM     48  C   UNL A   1      41.287  30.490  33.877  1.00  0.00     0.074 A 
ATOM     49  C   UNL A   1      44.156  26.343  30.030  1.00  0.00     0.029 A 
ATOM     50  N   UNL A   1      42.724  27.779  30.935  1.00  0.00    -0.354 N 
ATOM     51  N   UNL A   1      41.804  29.647  33.016  1.00  0.00    -0.248 NA
ATOM     52  C   UNL A   1      41.882  30.432  35.218  1.00  0.00     0.031 C 
ATOM     53  C   UNL A   1      44.504  26.528  31.373  1.00  0.00     0.029 A 
ATOM     54  C   UNL A   1      43.629  27.444  31.932  1.00  0.00     0.049 A 
ATOM     55  H   UNL A   1      41.980  28.415  31.041  1.00  0.00     0.167 HD
ATOM     56  C   UNL A   1      42.793  28.960  33.711  1.00  0.00     0.074 A 
ATOM     57  C   UNL A   1      42.811  29.501  35.055  1.00  0.00     0.031 C 
ATOM     58  C   UNL A   1      43.615  27.972  33.275  1.00  0.00     0.034 A 
BRANCH  45  59
ATOM     59  C   UNL A   1      42.636  26.250  27.402  1.00  0.00     0.023 A 
ATOM     60  C   UNL A   1      42.151  24.937  27.291  1.00  0.00     0.031 A 
ATOM     61  C   UNL A   1      43.503  26.719  26.396  1.00  0.00     0.131 A 
ATOM     62  C   UNL A   1      42.572  24.124  26.223  1.00  0.00     0.055 A 
ATOM     63  C   UNL A   1      43.864  25.930  25.303  1.00  0.00     0.041 A 
ATOM     64  F   UNL A   1      44.014  27.959  26.460  1.00  0.00    -0.206 F 
ATOM     65  C   UNL A   1      43.406  24.620  25.217  1.00  0.00     0.022 A 
BRANCH  62  66
ATOM     66  S   UNL A   1      42.105  22.372  26.223  1.00  0.00     0.124 S 
ATOM     67  O   UNL A   1      42.643  21.920  27.503  1.00  0.00    -0.237 OA
ATOM     68  O   UNL A   1      40.652  22.432  26.127  1.00  0.00    -0.237 OA
ATOM     69  O   UNL A   1      42.785  21.835  25.046  1.00  0.00    -0.744 OA
ENDBRANCH  62  66
ENDBRANCH  45  59
BRANCH  46  70
ATOM     70  C   UNL A   1      39.655  32.292  34.813  1.00  0.00     0.023 A 
ATOM     71  C   UNL A   1      40.259  33.509  35.156  1.00  0.00     0.031 A 
ATOM     72  C   UNL A   1      38.553  31.861  35.577  1.00  0.00     0.131 A 
ATOM     73  C   UNL A   1      39.770  34.244  36.247  1.00  0.00     0.055 A 
ATOM     74  C   UNL A   1      38.035  32.625  36.621  1.00  0.00     0.041 A 
ATOM     75  F   UNL A   1      37.943  30.697  35.295  1.00  0.00    -0.206 F 
ATOM     76  C   UNL A   1      38.651  33.821  36.969  1.00  0.00     0.022 A 
BRANCH  73  77
ATOM     77  S   UNL A   1      40.669  35.733  36.760  1.00  0.00     0.124 S 
ATOM     78  O   UNL A   1      41.101  35.371  38.105  1.00  0.00    -0.237 OA
ATOM     79  O   UNL A   1      41.719  35.816  35.750  1.00  0.00    -0.237 OA
ATOM     80  O   UNL A   1      39.655  36.783  36.691  1.00  0.00    -0.744 OA
ENDBRANCH  73  77
ENDBRANCH  46  70
BRANCH  58  81
ATOM     81  C   UNL A   1      44.619  27.448  34.267  1.00  0.00     0.023 A 
ATOM     82  C   UNL A   1      44.279  26.456  35.202  1.00  0.00     0.031 A 
ATOM     83  C   UNL A   1      45.922  27.975  34.298  1.00  0.00     0.131 A 
ATOM     84  C   UNL A   1      45.218  26.055  36.164  1.00  0.00     0.055 A 
ATOM     85  C   UNL A   1      46.867  27.534  35.224  1.00  0.00     0.041 A 
ATOM     86  F   UNL A   1      46.294  28.929  33.431  1.00  0.00    -0.206 F 
ATOM     87  C   UNL A   1      46.515  26.577  36.171  1.00  0.00     0.022 A 
BRANCH  84  88
ATOM     88  S   UNL A   1      44.698  24.896  37.459  1.00  0.00     0.124 S 
ATOM     89  O   UNL A   1      44.526  25.781  38.606  1.00  0.00    -0.237 OA
ATOM     90  O   UNL A   1      43.476  24.328  36.902  1.00  0.00    -0.237 OA
ATOM     91  O   UNL A   1      45.823  23.966  37.557  1.00  0.00    -0.744 OA
ENDBRANCH  84  88
ENDBRANCH  58  81
ENDBRANCH  32  33
ENDBRANCH  25  27
ENDBRANCH  24  25
ENDBRANCH  23  24
ENDBRANCH   1  23
TORSDOF 20
ENDMDL
