MODEL 1
REMARK VINA RESULT:     -13.5      0.000      0.000
REMARK SMILES O=C(OCCOC(=O)[C@@H]1[C@@H](C(=O)Nc2nc(-c3ccc(F)cc3)cs2)[C@H]2C=C[C@@H]1O2)c1ccc(-c2c3nc(c(-c4cc(S(=O)(=O)[O-])ccc4F)c4ccc([nH]4)c(-c4cc(S(=O)(=O)[O-])ccc4F)c4nc(c(-c5cc(S(=O)(=O)[O-])ccc5F)c5ccc2[nH]5)C=C4)C=C3)cc1
REMARK SMILES IDX 4 1 3 2 2 3 1 4 31 5 32 6 93 7 33 8 92 9 34 10 35 11 36 12
REMARK SMILES IDX 86 13 37 14 91 15 85 16 87 17 38 18 90 19 84 20 83 21 39 23
REMARK SMILES IDX 71 24 51 25 70 26 52 27 55 28 69 29 88 30 53 31 54 32 68 34
REMARK SMILES IDX 89 35 56 36 40 37 41 38 49 39 42 40 48 41 50 42 47 43 43 44
REMARK SMILES IDX 44 45 45 46 46 47 72 48 73 49 81 50 74 51 80 52 82 53 79 54
REMARK SMILES IDX 75 55 76 56 77 57 78 58 57 59 58 60 66 61 59 62 65 63 67 64
REMARK SMILES IDX 64 65 60 66 61 67 62 68 63 69 5 70 6 71 7 72 8 73 9 74 10 75
REMARK SMILES IDX 29 76 26 77 28 78 30 79 27 80 11 81 12 82 13 83 14 85 15 86
REMARK SMILES IDX 25 87 16 88 24 89 17 90 18 91 23 92 19 93 22 94 20 95 21 96
REMARK H PARENT 87 22 55 33 13 84
REMARK Flexibility Score: inf
ROOT
ATOM      1  C   UNL A   1      32.974  30.303  26.714  1.00  0.00     0.275 C 
ENDROOT
BRANCH   1   2
ATOM      2  O   UNL A   1      33.597  30.980  27.818  1.00  0.00    -0.458 OA
BRANCH   2   3
ATOM      3  C   UNL A   1      34.884  31.379  27.797  1.00  0.00     0.338 C 
ATOM      4  O   UNL A   1      35.178  32.551  27.621  1.00  0.00    -0.246 OA
BRANCH   3   5
ATOM      5  C   UNL A   1      35.975  30.398  28.010  1.00  0.00     0.060 A 
ATOM      6  C   UNL A   1      37.097  30.278  27.190  1.00  0.00     0.016 A 
ATOM      7  C   UNL A   1      35.935  29.716  29.237  1.00  0.00     0.016 A 
ATOM      8  C   UNL A   1      38.243  29.651  27.672  1.00  0.00     0.010 A 
ATOM      9  C   UNL A   1      37.085  29.121  29.730  1.00  0.00     0.010 A 
ATOM     10  C   UNL A   1      38.261  29.133  28.967  1.00  0.00    -0.014 A 
BRANCH  10  11
ATOM     11  C   UNL A   1      39.493  28.548  29.527  1.00  0.00     0.031 A 
ATOM     12  C   UNL A   1      40.116  29.240  30.692  1.00  0.00     0.074 A 
ATOM     13  C   UNL A   1      40.051  27.450  28.976  1.00  0.00     0.049 A 
ATOM     14  N   UNL A   1      41.150  28.879  31.398  1.00  0.00    -0.248 NA
ATOM     15  C   UNL A   1      39.490  30.501  31.130  1.00  0.00     0.031 C 
ATOM     16  C   UNL A   1      39.527  26.717  27.825  1.00  0.00     0.029 A 
ATOM     17  N   UNL A   1      41.205  26.778  29.285  1.00  0.00    -0.354 N 
ATOM     18  C   UNL A   1      41.220  29.809  32.422  1.00  0.00     0.074 A 
ATOM     19  C   UNL A   1      40.276  30.859  32.128  1.00  0.00     0.031 C 
ATOM     20  C   UNL A   1      40.399  25.762  27.463  1.00  0.00     0.029 A 
ATOM     21  C   UNL A   1      41.515  25.771  28.396  1.00  0.00     0.049 A 
ATOM     22  H   UNL A   1      41.761  26.994  30.068  1.00  0.00     0.167 HD
ATOM     23  C   UNL A   1      41.910  29.713  33.578  1.00  0.00     0.034 A 
ATOM     24  C   UNL A   1      42.574  24.941  28.359  1.00  0.00     0.034 A 
ATOM     25  C   UNL A   1      42.859  28.667  33.819  1.00  0.00     0.049 A 
ATOM     26  C   UNL A   1      43.506  24.971  29.538  1.00  0.00     0.074 A 
ATOM     27  C   UNL A   1      43.629  28.431  34.939  1.00  0.00     0.029 A 
ATOM     28  N   UNL A   1      43.182  27.686  32.886  1.00  0.00    -0.354 N 
ATOM     29  N   UNL A   1      43.483  25.778  30.575  1.00  0.00    -0.248 NA
ATOM     30  C   UNL A   1      44.551  23.944  29.592  1.00  0.00     0.031 C 
ATOM     31  C   UNL A   1      44.459  27.338  34.661  1.00  0.00     0.029 A 
ATOM     32  C   UNL A   1      44.169  26.861  33.389  1.00  0.00     0.049 A 
ATOM     33  H   UNL A   1      42.770  27.594  31.998  1.00  0.00     0.167 HD
ATOM     34  C   UNL A   1      44.452  25.307  31.447  1.00  0.00     0.074 A 
ATOM     35  C   UNL A   1      45.083  24.176  30.787  1.00  0.00     0.031 C 
ATOM     36  C   UNL A   1      44.759  25.738  32.696  1.00  0.00     0.034 A 
BRANCH  23  37
ATOM     37  C   UNL A   1      41.585  30.749  34.615  1.00  0.00     0.023 A 
ATOM     38  C   UNL A   1      40.418  30.621  35.399  1.00  0.00     0.031 A 
ATOM     39  C   UNL A   1      42.324  31.934  34.713  1.00  0.00     0.131 A 
ATOM     40  C   UNL A   1      39.964  31.705  36.157  1.00  0.00     0.055 A 
ATOM     41  C   UNL A   1      41.910  32.982  35.539  1.00  0.00     0.041 A 
ATOM     42  F   UNL A   1      43.423  32.119  33.965  1.00  0.00    -0.206 F 
ATOM     43  C   UNL A   1      40.713  32.880  36.250  1.00  0.00     0.022 A 
BRANCH  40  44
ATOM     44  S   UNL A   1      38.303  31.622  36.884  1.00  0.00     0.124 S 
ATOM     45  O   UNL A   1      38.497  32.340  38.142  1.00  0.00    -0.237 OA
ATOM     46  O   UNL A   1      37.481  32.296  35.886  1.00  0.00    -0.237 OA
ATOM     47  O   UNL A   1      38.062  30.188  37.022  1.00  0.00    -0.744 OA
ENDBRANCH  40  44
ENDBRANCH  23  37
BRANCH  24  48
ATOM     48  C   UNL A   1      42.756  23.997  27.222  1.00  0.00     0.023 A 
ATOM     49  C   UNL A   1      42.263  22.683  27.266  1.00  0.00     0.031 A 
ATOM     50  C   UNL A   1      43.402  24.420  26.046  1.00  0.00     0.131 A 
ATOM     51  C   UNL A   1      42.432  21.833  26.157  1.00  0.00     0.055 A 
ATOM     52  C   UNL A   1      43.559  23.577  24.944  1.00  0.00     0.041 A 
ATOM     53  F   UNL A   1      43.880  25.671  25.948  1.00  0.00    -0.206 F 
ATOM     54  C   UNL A   1      43.075  22.273  24.996  1.00  0.00     0.022 A 
BRANCH  51  55
ATOM     55  S   UNL A   1      41.790  20.137  26.242  1.00  0.00     0.124 S 
ATOM     56  O   UNL A   1      40.376  20.337  25.942  1.00  0.00    -0.237 OA
ATOM     57  O   UNL A   1      42.574  19.461  25.214  1.00  0.00    -0.237 OA
ATOM     58  O   UNL A   1      42.084  19.727  27.613  1.00  0.00    -0.744 OA
ENDBRANCH  51  55
ENDBRANCH  24  48
BRANCH  36  59
ATOM     59  C   UNL A   1      45.780  24.952  33.460  1.00  0.00     0.023 A 
ATOM     60  C   UNL A   1      45.429  23.792  34.164  1.00  0.00     0.031 A 
ATOM     61  C   UNL A   1      47.137  25.310  33.377  1.00  0.00     0.131 A 
ATOM     62  C   UNL A   1      46.431  23.023  34.765  1.00  0.00     0.055 A 
ATOM     63  C   UNL A   1      48.134  24.518  33.940  1.00  0.00     0.041 A 
ATOM     64  F   UNL A   1      47.512  26.411  32.705  1.00  0.00    -0.206 F 
ATOM     65  C   UNL A   1      47.782  23.365  34.637  1.00  0.00     0.022 A 
BRANCH  62  66
ATOM     66  S   UNL A   1      45.950  21.553  35.706  1.00  0.00     0.124 S 
ATOM     67  O   UNL A   1      47.201  20.801  35.746  1.00  0.00    -0.237 OA
ATOM     68  O   UNL A   1      45.506  22.118  36.976  1.00  0.00    -0.237 OA
ATOM     69  O   UNL A   1      44.893  20.958  34.891  1.00  0.00    -0.744 OA
ENDBRANCH  62  66
ENDBRANCH  36  59
ENDBRANCH  10  11
ENDBRANCH   3   5
ENDBRANCH   2   3
ENDBRANCH   1   2
BRANCH   1  70
ATOM     70  C   UNL A   1      32.992  28.764  26.634  1.00  0.00     0.274 C 
BRANCH  70  71
ATOM     71  O   UNL A   1      33.632  28.217  25.473  1.00  0.00    -0.462 OA
BRANCH  71  72
ATOM     72  C   UNL A   1      33.196  26.988  25.075  1.00  0.00     0.312 C 
ATOM     73  O   UNL A   1      33.944  26.027  24.903  1.00  0.00    -0.252 OA
BRANCH  72  74
ATOM     74  C   UNL A   1      31.689  26.886  24.929  1.00  0.00     0.147 C 
ATOM     75  C   UNL A   1      31.257  25.393  24.891  1.00  0.00     0.129 C 
ATOM     76  C   UNL A   1      31.163  27.373  23.590  1.00  0.00     0.157 C 
ATOM     77  C   UNL A   1      30.450  25.336  23.578  1.00  0.00     0.155 C 
ATOM     78  C   UNL A   1      29.665  27.467  23.655  1.00  0.00     0.004 C 
ATOM     79  O   UNL A   1      31.308  26.185  22.786  1.00  0.00    -0.365 OA
ATOM     80  C   UNL A   1      29.225  26.203  23.633  1.00  0.00     0.004 C 
BRANCH  75  81
ATOM     81  C   UNL A   1      30.495  24.708  26.013  1.00  0.00     0.233 C 
ATOM     82  O   UNL A   1      29.614  25.322  26.630  1.00  0.00    -0.274 OA
ATOM     83  N   UNL A   1      30.496  23.353  26.144  1.00  0.00    -0.302 N 
ATOM     84  H   UNL A   1      29.632  22.937  26.366  1.00  0.00     0.172 HD
BRANCH  83  85
ATOM     85  C   UNL A   1      31.553  22.510  26.003  1.00  0.00     0.189 A 
ATOM     86  N   UNL A   1      31.720  21.552  25.134  1.00  0.00    -0.220 NA
ATOM     87  S   UNL A   1      32.867  22.818  27.041  1.00  0.00    -0.105 S 
ATOM     88  C   UNL A   1      32.885  20.862  25.412  1.00  0.00     0.084 A 
ATOM     89  C   UNL A   1      33.629  21.394  26.448  1.00  0.00     0.097 A 
BRANCH  88  90
ATOM     90  C   UNL A   1      33.252  19.662  24.670  1.00  0.00     0.001 A 
ATOM     91  C   UNL A   1      32.362  19.114  23.731  1.00  0.00     0.013 A 
ATOM     92  C   UNL A   1      34.466  19.001  24.926  1.00  0.00     0.013 A 
ATOM     93  C   UNL A   1      32.686  17.934  23.051  1.00  0.00     0.040 A 
ATOM     94  C   UNL A   1      34.784  17.819  24.250  1.00  0.00     0.040 A 
ATOM     95  C   UNL A   1      33.893  17.296  23.319  1.00  0.00     0.123 A 
ATOM     96  F   UNL A   1      34.181  16.138  22.710  1.00  0.00    -0.207 F 
ENDBRANCH  88  90
ENDBRANCH  83  85
ENDBRANCH  75  81
ENDBRANCH  72  74
ENDBRANCH  71  72
ENDBRANCH  70  71
ENDBRANCH   1  70
TORSDOF 17
ENDMDL
MODEL 2
REMARK VINA RESULT:     -13.4      2.283      4.396
REMARK SMILES O=C(OCCOC(=O)[C@@H]1[C@@H](C(=O)Nc2nc(-c3ccc(F)cc3)cs2)[C@H]2C=C[C@@H]1O2)c1ccc(-c2c3nc(c(-c4cc(S(=O)(=O)[O-])ccc4F)c4ccc([nH]4)c(-c4cc(S(=O)(=O)[O-])ccc4F)c4nc(c(-c5cc(S(=O)(=O)[O-])ccc5F)c5ccc2[nH]5)C=C4)C=C3)cc1
REMARK SMILES IDX 4 1 3 2 2 3 1 4 31 5 32 6 93 7 33 8 92 9 34 10 35 11 36 12
REMARK SMILES IDX 86 13 37 14 91 15 85 16 87 17 38 18 90 19 84 20 83 21 39 23
REMARK SMILES IDX 71 24 51 25 70 26 52 27 55 28 69 29 88 30 53 31 54 32 68 34
REMARK SMILES IDX 89 35 56 36 40 37 41 38 49 39 42 40 48 41 50 42 47 43 43 44
REMARK SMILES IDX 44 45 45 46 46 47 72 48 73 49 81 50 74 51 80 52 82 53 79 54
REMARK SMILES IDX 75 55 76 56 77 57 78 58 57 59 58 60 66 61 59 62 65 63 67 64
REMARK SMILES IDX 64 65 60 66 61 67 62 68 63 69 5 70 6 71 7 72 8 73 9 74 10 75
REMARK SMILES IDX 29 76 26 77 28 78 30 79 27 80 11 81 12 82 13 83 14 85 15 86
REMARK SMILES IDX 25 87 16 88 24 89 17 90 18 91 23 92 19 93 22 94 20 95 21 96
REMARK H PARENT 87 22 55 33 13 84
REMARK Flexibility Score: inf
ROOT
ATOM      1  C   UNL A   1      32.910  29.083  25.676  1.00  0.00     0.275 C 
ENDROOT
BRANCH   1   2
ATOM      2  O   UNL A   1      34.187  29.186  26.327  1.00  0.00    -0.458 OA
BRANCH   2   3
ATOM      3  C   UNL A   1      34.460  30.125  27.253  1.00  0.00     0.338 C 
ATOM      4  O   UNL A   1      33.681  31.038  27.475  1.00  0.00    -0.246 OA
BRANCH   3   5
ATOM      5  C   UNL A   1      35.714  30.055  28.042  1.00  0.00     0.060 A 
ATOM      6  C   UNL A   1      35.779  29.688  29.386  1.00  0.00     0.016 A 
ATOM      7  C   UNL A   1      36.897  30.171  27.295  1.00  0.00     0.016 A 
ATOM      8  C   UNL A   1      36.985  29.248  29.926  1.00  0.00     0.010 A 
ATOM      9  C   UNL A   1      38.091  29.704  27.822  1.00  0.00     0.010 A 
ATOM     10  C   UNL A   1      38.127  29.191  29.126  1.00  0.00    -0.014 A 
BRANCH  10  11
ATOM     11  C   UNL A   1      39.389  28.644  29.654  1.00  0.00     0.031 A 
ATOM     12  C   UNL A   1      40.023  29.359  30.800  1.00  0.00     0.074 A 
ATOM     13  C   UNL A   1      39.964  27.561  29.092  1.00  0.00     0.049 A 
ATOM     14  N   UNL A   1      41.086  29.031  31.479  1.00  0.00    -0.248 NA
ATOM     15  C   UNL A   1      39.373  30.603  31.250  1.00  0.00     0.031 C 
ATOM     16  C   UNL A   1      39.430  26.807  27.959  1.00  0.00     0.029 A 
ATOM     17  N   UNL A   1      41.144  26.923  29.372  1.00  0.00    -0.354 N 
ATOM     18  C   UNL A   1      41.157  29.967  32.496  1.00  0.00     0.074 A 
ATOM     19  C   UNL A   1      40.176  30.988  32.224  1.00  0.00     0.031 C 
ATOM     20  C   UNL A   1      40.319  25.876  27.576  1.00  0.00     0.029 A 
ATOM     21  C   UNL A   1      41.459  25.922  28.479  1.00  0.00     0.049 A 
ATOM     22  H   UNL A   1      41.715  27.158  30.139  1.00  0.00     0.167 HD
ATOM     23  C   UNL A   1      41.881  29.896  33.633  1.00  0.00     0.034 A 
ATOM     24  C   UNL A   1      42.541  25.122  28.416  1.00  0.00     0.034 A 
ATOM     25  C   UNL A   1      42.866  28.879  33.853  1.00  0.00     0.049 A 
ATOM     26  C   UNL A   1      43.503  25.184  29.569  1.00  0.00     0.074 A 
ATOM     27  C   UNL A   1      43.673  28.670  34.952  1.00  0.00     0.029 A 
ATOM     28  N   UNL A   1      43.192  27.903  32.915  1.00  0.00    -0.354 N 
ATOM     29  N   UNL A   1      43.484  25.994  30.604  1.00  0.00    -0.248 NA
ATOM     30  C   UNL A   1      44.578  24.188  29.598  1.00  0.00     0.031 C 
ATOM     31  C   UNL A   1      44.526  27.601  34.656  1.00  0.00     0.029 A 
ATOM     32  C   UNL A   1      44.215  27.109  33.394  1.00  0.00     0.049 A 
ATOM     33  H   UNL A   1      42.758  27.795  32.039  1.00  0.00     0.167 HD
ATOM     34  C   UNL A   1      44.490  25.555  31.451  1.00  0.00     0.074 A 
ATOM     35  C   UNL A   1      45.136  24.440  30.778  1.00  0.00     0.031 C 
ATOM     36  C   UNL A   1      44.819  26.001  32.689  1.00  0.00     0.034 A 
BRANCH  23  37
ATOM     37  C   UNL A   1      41.555  30.927  34.675  1.00  0.00     0.023 A 
ATOM     38  C   UNL A   1      40.413  30.769  35.491  1.00  0.00     0.031 A 
ATOM     39  C   UNL A   1      42.262  32.133  34.749  1.00  0.00     0.131 A 
ATOM     40  C   UNL A   1      39.949  31.844  36.258  1.00  0.00     0.055 A 
ATOM     41  C   UNL A   1      41.840  33.172  35.583  1.00  0.00     0.041 A 
ATOM     42  F   UNL A   1      43.334  32.346  33.971  1.00  0.00    -0.206 F 
ATOM     43  C   UNL A   1      40.666  33.040  36.325  1.00  0.00     0.022 A 
BRANCH  40  44
ATOM     44  S   UNL A   1      38.311  31.717  37.029  1.00  0.00     0.124 S 
ATOM     45  O   UNL A   1      37.509  32.570  36.156  1.00  0.00    -0.237 OA
ATOM     46  O   UNL A   1      38.031  30.288  36.956  1.00  0.00    -0.237 OA
ATOM     47  O   UNL A   1      38.527  32.241  38.376  1.00  0.00    -0.744 OA
ENDBRANCH  40  44
ENDBRANCH  23  37
BRANCH  24  48
ATOM     48  C   UNL A   1      42.719  24.178  27.279  1.00  0.00     0.023 A 
ATOM     49  C   UNL A   1      42.227  22.864  27.324  1.00  0.00     0.031 A 
ATOM     50  C   UNL A   1      43.358  24.603  26.100  1.00  0.00     0.131 A 
ATOM     51  C   UNL A   1      42.393  22.014  26.214  1.00  0.00     0.055 A 
ATOM     52  C   UNL A   1      43.511  23.760  24.996  1.00  0.00     0.041 A 
ATOM     53  F   UNL A   1      43.834  25.855  26.000  1.00  0.00    -0.206 F 
ATOM     54  C   UNL A   1      43.030  22.455  25.050  1.00  0.00     0.022 A 
BRANCH  51  55
ATOM     55  S   UNL A   1      41.754  20.318  26.302  1.00  0.00     0.124 S 
ATOM     56  O   UNL A   1      42.232  19.884  27.609  1.00  0.00    -0.237 OA
ATOM     57  O   UNL A   1      40.314  20.527  26.183  1.00  0.00    -0.237 OA
ATOM     58  O   UNL A   1      42.378  19.656  25.158  1.00  0.00    -0.744 OA
ENDBRANCH  51  55
ENDBRANCH  24  48
BRANCH  36  59
ATOM     59  C   UNL A   1      45.882  25.248  33.428  1.00  0.00     0.023 A 
ATOM     60  C   UNL A   1      45.580  24.092  34.160  1.00  0.00     0.031 A 
ATOM     61  C   UNL A   1      47.228  25.633  33.292  1.00  0.00     0.131 A 
ATOM     62  C   UNL A   1      46.620  23.353  34.736  1.00  0.00     0.055 A 
ATOM     63  C   UNL A   1      48.260  24.870  33.830  1.00  0.00     0.041 A 
ATOM     64  F   UNL A   1      47.555  26.732  32.591  1.00  0.00    -0.206 F 
ATOM     65  C   UNL A   1      47.958  23.721  34.556  1.00  0.00     0.022 A 
BRANCH  62  66
ATOM     66  S   UNL A   1      46.203  21.888  35.715  1.00  0.00     0.124 S 
ATOM     67  O   UNL A   1      47.242  20.948  35.303  1.00  0.00    -0.237 OA
ATOM     68  O   UNL A   1      46.297  22.381  37.085  1.00  0.00    -0.237 OA
ATOM     69  O   UNL A   1      44.851  21.554  35.270  1.00  0.00    -0.744 OA
ENDBRANCH  62  66
ENDBRANCH  36  59
ENDBRANCH  10  11
ENDBRANCH   3   5
ENDBRANCH   2   3
ENDBRANCH   1   2
BRANCH   1  70
ATOM     70  C   UNL A   1      31.854  28.084  26.189  1.00  0.00     0.274 C 
BRANCH  70  71
ATOM     71  O   UNL A   1      32.360  26.802  26.582  1.00  0.00    -0.462 OA
BRANCH  71  72
ATOM     72  C   UNL A   1      31.535  25.740  26.360  1.00  0.00     0.312 C 
ATOM     73  O   UNL A   1      30.308  25.815  26.405  1.00  0.00    -0.252 OA
BRANCH  72  74
ATOM     74  C   UNL A   1      32.261  24.463  25.979  1.00  0.00     0.147 C 
ATOM     75  C   UNL A   1      31.355  23.585  25.071  1.00  0.00     0.129 C 
ATOM     76  C   UNL A   1      32.504  23.519  27.143  1.00  0.00     0.157 C 
ATOM     77  C   UNL A   1      31.350  22.246  25.837  1.00  0.00     0.155 C 
ATOM     78  C   UNL A   1      33.442  22.430  26.705  1.00  0.00     0.004 C 
ATOM     79  O   UNL A   1      31.262  22.788  27.172  1.00  0.00    -0.365 OA
ATOM     80  C   UNL A   1      32.720  21.635  25.907  1.00  0.00     0.004 C 
BRANCH  75  81
ATOM     81  C   UNL A   1      31.617  23.350  23.592  1.00  0.00     0.233 C 
ATOM     82  O   UNL A   1      31.980  22.234  23.198  1.00  0.00    -0.274 OA
ATOM     83  N   UNL A   1      31.146  24.206  22.646  1.00  0.00    -0.302 N 
ATOM     84  H   UNL A   1      30.766  23.793  21.837  1.00  0.00     0.172 HD
BRANCH  83  85
ATOM     85  C   UNL A   1      31.139  25.564  22.689  1.00  0.00     0.189 A 
ATOM     86  N   UNL A   1      30.167  26.363  23.033  1.00  0.00    -0.220 NA
ATOM     87  S   UNL A   1      32.631  26.306  22.340  1.00  0.00    -0.105 S 
ATOM     88  C   UNL A   1      30.543  27.678  22.825  1.00  0.00     0.084 A 
ATOM     89  C   UNL A   1      31.853  27.838  22.413  1.00  0.00     0.097 A 
BRANCH  88  90
ATOM     90  C   UNL A   1      29.600  28.774  23.010  1.00  0.00     0.001 A 
ATOM     91  C   UNL A   1      30.054  30.027  23.457  1.00  0.00     0.013 A 
ATOM     92  C   UNL A   1      28.223  28.580  22.808  1.00  0.00     0.013 A 
ATOM     93  C   UNL A   1      29.148  31.070  23.684  1.00  0.00     0.040 A 
ATOM     94  C   UNL A   1      27.319  29.622  23.042  1.00  0.00     0.040 A 
ATOM     95  C   UNL A   1      27.789  30.856  23.479  1.00  0.00     0.123 A 
ATOM     96  F   UNL A   1      26.916  31.836  23.747  1.00  0.00    -0.207 F 
ENDBRANCH  88  90
ENDBRANCH  83  85
ENDBRANCH  75  81
ENDBRANCH  72  74
ENDBRANCH  71  72
ENDBRANCH  70  71
ENDBRANCH   1  70
TORSDOF 17
ENDMDL
MODEL 3
REMARK VINA RESULT:     -13.2      4.684      9.816
REMARK SMILES O=C(OCCOC(=O)[C@@H]1[C@@H](C(=O)Nc2nc(-c3ccc(F)cc3)cs2)[C@H]2C=C[C@@H]1O2)c1ccc(-c2c3nc(c(-c4cc(S(=O)(=O)[O-])ccc4F)c4ccc([nH]4)c(-c4cc(S(=O)(=O)[O-])ccc4F)c4nc(c(-c5cc(S(=O)(=O)[O-])ccc5F)c5ccc2[nH]5)C=C4)C=C3)cc1
REMARK SMILES IDX 4 1 3 2 2 3 1 4 31 5 32 6 93 7 33 8 92 9 34 10 35 11 36 12
REMARK SMILES IDX 86 13 37 14 91 15 85 16 87 17 38 18 90 19 84 20 83 21 39 23
REMARK SMILES IDX 71 24 51 25 70 26 52 27 55 28 69 29 88 30 53 31 54 32 68 34
REMARK SMILES IDX 89 35 56 36 40 37 41 38 49 39 42 40 48 41 50 42 47 43 43 44
REMARK SMILES IDX 44 45 45 46 46 47 72 48 73 49 81 50 74 51 80 52 82 53 79 54
REMARK SMILES IDX 75 55 76 56 77 57 78 58 57 59 58 60 66 61 59 62 65 63 67 64
REMARK SMILES IDX 64 65 60 66 61 67 62 68 63 69 5 70 6 71 7 72 8 73 9 74 10 75
REMARK SMILES IDX 29 76 26 77 28 78 30 79 27 80 11 81 12 82 13 83 14 85 15 86
REMARK SMILES IDX 25 87 16 88 24 89 17 90 18 91 23 92 19 93 22 94 20 95 21 96
REMARK H PARENT 87 22 55 33 13 84
REMARK Flexibility Score: inf
ROOT
ATOM      1  C   UNL A   1      37.224  22.343  25.775  1.00  0.00     0.275 C 
ENDROOT
BRANCH   1   2
ATOM      2  O   UNL A   1      38.642  22.125  25.693  1.00  0.00    -0.458 OA
BRANCH   2   3
ATOM      3  C   UNL A   1      39.512  22.635  26.585  1.00  0.00     0.338 C 
ATOM      4  O   UNL A   1      40.396  21.945  27.069  1.00  0.00    -0.246 OA
BRANCH   3   5
ATOM      5  C   UNL A   1      39.424  24.060  26.986  1.00  0.00     0.060 A 
ATOM      6  C   UNL A   1      39.079  24.498  28.265  1.00  0.00     0.016 A 
ATOM      7  C   UNL A   1      39.930  24.976  26.050  1.00  0.00     0.016 A 
ATOM      8  C   UNL A   1      39.418  25.786  28.670  1.00  0.00     0.010 A 
ATOM      9  C   UNL A   1      40.297  26.247  26.463  1.00  0.00     0.010 A 
ATOM     10  C   UNL A   1      40.089  26.639  27.793  1.00  0.00    -0.014 A 
BRANCH  10  11
ATOM     11  C   UNL A   1      40.537  27.972  28.233  1.00  0.00     0.031 A 
ATOM     12  C   UNL A   1      42.007  28.219  28.297  1.00  0.00     0.074 A 
ATOM     13  C   UNL A   1      39.646  28.916  28.600  1.00  0.00     0.049 A 
ATOM     14  N   UNL A   1      42.637  29.322  28.580  1.00  0.00    -0.248 NA
ATOM     15  C   UNL A   1      42.887  27.075  27.994  1.00  0.00     0.031 C 
ATOM     16  C   UNL A   1      38.192  28.762  28.590  1.00  0.00     0.029 A 
ATOM     17  N   UNL A   1      39.830  30.183  29.090  1.00  0.00    -0.354 N 
ATOM     18  C   UNL A   1      43.975  29.027  28.378  1.00  0.00     0.074 A 
ATOM     19  C   UNL A   1      44.084  27.604  28.165  1.00  0.00     0.031 C 
ATOM     20  C   UNL A   1      37.620  29.845  29.141  1.00  0.00     0.029 A 
ATOM     21  C   UNL A   1      38.662  30.800  29.484  1.00  0.00     0.049 A 
ATOM     22  H   UNL A   1      40.713  30.612  29.156  1.00  0.00     0.167 HD
ATOM     23  C   UNL A   1      44.999  29.894  28.237  1.00  0.00     0.034 A 
ATOM     24  C   UNL A   1      38.464  32.010  30.040  1.00  0.00     0.034 A 
ATOM     25  C   UNL A   1      44.855  31.298  28.483  1.00  0.00     0.049 A 
ATOM     26  C   UNL A   1      39.651  32.930  30.114  1.00  0.00     0.074 A 
ATOM     27  C   UNL A   1      45.794  32.302  28.377  1.00  0.00     0.029 A 
ATOM     28  N   UNL A   1      43.673  31.889  28.920  1.00  0.00    -0.354 N 
ATOM     29  N   UNL A   1      40.899  32.677  29.791  1.00  0.00    -0.248 NA
ATOM     30  C   UNL A   1      39.403  34.309  30.543  1.00  0.00     0.031 C 
ATOM     31  C   UNL A   1      45.194  33.493  28.804  1.00  0.00     0.029 A 
ATOM     32  C   UNL A   1      43.865  33.240  29.124  1.00  0.00     0.049 A 
ATOM     33  H   UNL A   1      42.824  31.413  29.063  1.00  0.00     0.167 HD
ATOM     34  C   UNL A   1      41.573  33.884  29.896  1.00  0.00     0.074 A 
ATOM     35  C   UNL A   1      40.602  34.856  30.369  1.00  0.00     0.031 C 
ATOM     36  C   UNL A   1      42.862  34.172  29.586  1.00  0.00     0.034 A 
BRANCH  23  37
ATOM     37  C   UNL A   1      46.293  29.298  27.760  1.00  0.00     0.023 A 
ATOM     38  C   UNL A   1      46.463  28.984  26.394  1.00  0.00     0.031 A 
ATOM     39  C   UNL A   1      47.279  28.886  28.664  1.00  0.00     0.131 A 
ATOM     40  C   UNL A   1      47.537  28.181  25.991  1.00  0.00     0.055 A 
ATOM     41  C   UNL A   1      48.393  28.157  28.241  1.00  0.00     0.041 A 
ATOM     42  F   UNL A   1      47.148  29.131  29.977  1.00  0.00    -0.206 F 
ATOM     43  C   UNL A   1      48.515  27.781  26.902  1.00  0.00     0.022 A 
BRANCH  40  44
ATOM     44  S   UNL A   1      47.544  27.528  24.298  1.00  0.00     0.124 S 
ATOM     45  O   UNL A   1      48.976  27.377  24.048  1.00  0.00    -0.237 OA
ATOM     46  O   UNL A   1      46.786  26.290  24.427  1.00  0.00    -0.237 OA
ATOM     47  O   UNL A   1      46.891  28.581  23.523  1.00  0.00    -0.744 OA
ENDBRANCH  40  44
ENDBRANCH  23  37
BRANCH  24  48
ATOM     48  C   UNL A   1      37.107  32.422  30.493  1.00  0.00     0.023 A 
ATOM     49  C   UNL A   1      36.206  33.072  29.634  1.00  0.00     0.031 A 
ATOM     50  C   UNL A   1      36.677  32.128  31.800  1.00  0.00     0.131 A 
ATOM     51  C   UNL A   1      34.922  33.418  30.096  1.00  0.00     0.055 A 
ATOM     52  C   UNL A   1      35.397  32.464  32.251  1.00  0.00     0.041 A 
ATOM     53  F   UNL A   1      37.495  31.496  32.656  1.00  0.00    -0.206 F 
ATOM     54  C   UNL A   1      34.512  33.115  31.397  1.00  0.00     0.022 A 
BRANCH  51  55
ATOM     55  S   UNL A   1      33.779  34.262  28.966  1.00  0.00     0.124 S 
ATOM     56  O   UNL A   1      34.637  35.286  28.380  1.00  0.00    -0.237 OA
ATOM     57  O   UNL A   1      33.373  33.179  28.076  1.00  0.00    -0.237 OA
ATOM     58  O   UNL A   1      32.728  34.761  29.850  1.00  0.00    -0.744 OA
ENDBRANCH  51  55
ENDBRANCH  24  48
BRANCH  36  59
ATOM     59  C   UNL A   1      43.286  35.605  29.685  1.00  0.00     0.023 A 
ATOM     60  C   UNL A   1      42.975  36.528  28.678  1.00  0.00     0.031 A 
ATOM     61  C   UNL A   1      43.902  36.067  30.862  1.00  0.00     0.131 A 
ATOM     62  C   UNL A   1      43.285  37.880  28.865  1.00  0.00     0.055 A 
ATOM     63  C   UNL A   1      44.169  37.419  31.061  1.00  0.00     0.041 A 
ATOM     64  F   UNL A   1      44.209  35.212  31.852  1.00  0.00    -0.206 F 
ATOM     65  C   UNL A   1      43.858  38.334  30.058  1.00  0.00     0.022 A 
BRANCH  62  66
ATOM     66  S   UNL A   1      42.915  39.047  27.532  1.00  0.00     0.124 S 
ATOM     67  O   UNL A   1      42.085  38.236  26.646  1.00  0.00    -0.237 OA
ATOM     68  O   UNL A   1      42.230  40.128  28.234  1.00  0.00    -0.237 OA
ATOM     69  O   UNL A   1      44.234  39.392  27.005  1.00  0.00    -0.744 OA
ENDBRANCH  62  66
ENDBRANCH  36  59
ENDBRANCH  10  11
ENDBRANCH   3   5
ENDBRANCH   2   3
ENDBRANCH   1   2
BRANCH   1  70
ATOM     70  C   UNL A   1      36.576  23.535  25.044  1.00  0.00     0.274 C 
BRANCH  70  71
ATOM     71  O   UNL A   1      35.323  23.978  25.582  1.00  0.00    -0.462 OA
BRANCH  71  72
ATOM     72  C   UNL A   1      34.560  24.753  24.760  1.00  0.00     0.312 C 
ATOM     73  O   UNL A   1      34.555  24.640  23.535  1.00  0.00    -0.252 OA
BRANCH  72  74
ATOM     74  C   UNL A   1      33.657  25.728  25.493  1.00  0.00     0.147 C 
ATOM     75  C   UNL A   1      32.171  25.455  25.129  1.00  0.00     0.129 C 
ATOM     76  C   UNL A   1      33.805  27.170  25.039  1.00  0.00     0.157 C 
ATOM     77  C   UNL A   1      31.709  26.844  24.642  1.00  0.00     0.155 C 
ATOM     78  C   UNL A   1      33.068  28.064  25.994  1.00  0.00     0.004 C 
ATOM     79  O   UNL A   1      32.904  27.200  23.914  1.00  0.00    -0.365 OA
ATOM     80  C   UNL A   1      31.769  27.871  25.736  1.00  0.00     0.004 C 
BRANCH  75  81
ATOM     81  C   UNL A   1      31.159  24.869  26.100  1.00  0.00     0.233 C 
ATOM     82  O   UNL A   1      30.301  25.598  26.615  1.00  0.00    -0.274 OA
ATOM     83  N   UNL A   1      30.937  23.529  26.166  1.00  0.00    -0.302 N 
ATOM     84  H   UNL A   1      29.997  23.247  26.246  1.00  0.00     0.172 HD
BRANCH  83  85
ATOM     85  C   UNL A   1      31.863  22.534  26.135  1.00  0.00     0.189 A 
ATOM     86  N   UNL A   1      32.078  21.650  25.200  1.00  0.00    -0.220 NA
ATOM     87  S   UNL A   1      32.942  22.510  27.451  1.00  0.00    -0.105 S 
ATOM     88  C   UNL A   1      33.038  20.747  25.617  1.00  0.00     0.084 A 
ATOM     89  C   UNL A   1      33.601  21.041  26.845  1.00  0.00     0.097 A 
BRANCH  88  90
ATOM     90  C   UNL A   1      33.381  19.580  24.815  1.00  0.00     0.001 A 
ATOM     91  C   UNL A   1      32.444  19.041  23.916  1.00  0.00     0.013 A 
ATOM     92  C   UNL A   1      34.622  18.940  24.971  1.00  0.00     0.013 A 
ATOM     93  C   UNL A   1      32.749  17.891  23.178  1.00  0.00     0.040 A 
ATOM     94  C   UNL A   1      34.922  17.787  24.238  1.00  0.00     0.040 A 
ATOM     95  C   UNL A   1      33.983  17.272  23.349  1.00  0.00     0.123 A 
ATOM     96  F   UNL A   1      34.256  16.142  22.685  1.00  0.00    -0.207 F 
ENDBRANCH  88  90
ENDBRANCH  83  85
ENDBRANCH  75  81
ENDBRANCH  72  74
ENDBRANCH  71  72
ENDBRANCH  70  71
ENDBRANCH   1  70
TORSDOF 17
ENDMDL
