MODEL 1
REMARK VINA RESULT:     -11.5      0.000      0.000
REMARK SMILES CC[C@H](NC(=O)Cc1c(C)c2cc(Cl)c(OC)cc2oc1=O)C(=O)OCCOC(=O)c1ccc(-c2c3nc(c(-c4cc(S(=O)(=O)[O-])ccc4F)c4ccc([nH]4)c(-c4cc(S(=O)(=O)[O-])ccc4F)c4nc(c(-c5cc(S(=O)(=O)[O-])ccc5F)c5ccc2[nH]5)C=C4)C=C3)cc1
REMARK SMILES IDX 26 1 25 2 23 3 24 4 3 5 2 6 1 7 4 8 5 9 6 11 7 12 8 13 9 14
REMARK SMILES IDX 21 15 10 16 11 17 20 18 22 19 12 20 19 21 13 22 18 23 14 24
REMARK SMILES IDX 15 25 16 26 17 27 27 28 28 29 29 30 30 31 31 32 32 33 93 34
REMARK SMILES IDX 33 35 92 36 34 37 35 38 36 39 86 40 37 41 91 42 85 43 87 44
REMARK SMILES IDX 38 45 90 46 84 47 83 48 39 50 71 51 51 52 70 53 52 54 55 55
REMARK SMILES IDX 69 56 88 57 53 58 54 59 68 61 89 62 56 63 40 64 41 65 49 66
REMARK SMILES IDX 42 67 48 68 50 69 47 70 43 71 44 72 45 73 46 74 72 75 73 76
REMARK SMILES IDX 81 77 74 78 80 79 82 80 79 81 75 82 76 83 77 84 78 85 57 86
REMARK SMILES IDX 58 87 66 88 59 89 65 90 67 91 64 92 60 93 61 94 62 95 63 96
REMARK H PARENT 4 10 87 49 55 60
REMARK Flexibility Score: inf
ROOT
ATOM      1  C   UNL A   1      31.404  31.804  27.020  1.00  0.00     0.274 C 
ENDROOT
BRANCH   1   2
ATOM      2  O   UNL A   1      31.565  31.071  25.781  1.00  0.00    -0.461 OA
BRANCH   2   3
ATOM      3  C   UNL A   1      32.404  29.999  25.844  1.00  0.00     0.328 C 
ATOM      4  O   UNL A   1      33.407  29.970  26.556  1.00  0.00    -0.250 OA
BRANCH   3   5
ATOM      5  C   UNL A   1      31.933  28.768  25.022  1.00  0.00     0.192 C 
BRANCH   5   6
ATOM      6  C   UNL A   1      33.181  28.271  24.241  1.00  0.00     0.033 C 
ATOM      7  C   UNL A   1      33.556  29.060  22.996  1.00  0.00     0.007 C 
ENDBRANCH   5   6
BRANCH   5   8
ATOM      8  N   UNL A   1      30.795  28.915  24.088  1.00  0.00    -0.342 N 
ATOM      9  C   UNL A   1      30.264  28.016  23.202  1.00  0.00     0.225 C 
ATOM     10  H   UNL A   1      30.351  29.793  24.107  1.00  0.00     0.164 HD
ATOM     11  O   UNL A   1      29.882  28.471  22.116  1.00  0.00    -0.275 OA
BRANCH   9  12
ATOM     12  C   UNL A   1      29.938  26.556  23.561  1.00  0.00     0.143 C 
BRANCH  12  13
ATOM     13  C   UNL A   1      30.966  25.538  24.013  1.00  0.00     0.051 A 
ATOM     14  C   UNL A   1      31.965  25.096  23.210  1.00  0.00    -0.029 A 
ATOM     15  C   UNL A   1      30.869  25.029  25.401  1.00  0.00     0.340 A 
ATOM     16  C   UNL A   1      32.132  25.482  21.758  1.00  0.00     0.046 C 
ATOM     17  C   UNL A   1      32.958  24.152  23.754  1.00  0.00     0.023 A 
ATOM     18  O   UNL A   1      31.608  23.914  25.747  1.00  0.00    -0.422 OA
ATOM     19  O   UNL A   1      30.107  25.519  26.221  1.00  0.00    -0.246 OA
ATOM     20  C   UNL A   1      34.161  23.838  23.126  1.00  0.00     0.036 A 
ATOM     21  C   UNL A   1      32.709  23.543  24.977  1.00  0.00     0.142 A 
ATOM     22  C   UNL A   1      35.042  22.914  23.701  1.00  0.00     0.083 A 
ATOM     23  C   UNL A   1      33.537  22.558  25.521  1.00  0.00     0.095 A 
ATOM     24  Cl  UNL A   1      36.583  22.777  22.976  1.00  0.00    -0.080 Cl
ATOM     25  C   UNL A   1      34.694  22.194  24.846  1.00  0.00     0.141 A 
BRANCH  25  26
ATOM     26  O   UNL A   1      35.522  21.199  25.293  1.00  0.00    -0.495 OA
ATOM     27  C   UNL A   1      35.103  19.878  24.935  1.00  0.00     0.278 C 
ENDBRANCH  25  26
ENDBRANCH  12  13
ENDBRANCH   9  12
ENDBRANCH   5   8
ENDBRANCH   3   5
ENDBRANCH   2   3
ENDBRANCH   1   2
BRANCH   1  28
ATOM     28  C   UNL A   1      32.094  33.183  26.950  1.00  0.00     0.275 C 
BRANCH  28  29
ATOM     29  O   UNL A   1      32.829  33.579  28.140  1.00  0.00    -0.458 OA
BRANCH  29  30
ATOM     30  C   UNL A   1      34.118  33.908  27.912  1.00  0.00     0.338 C 
ATOM     31  O   UNL A   1      34.489  34.828  27.210  1.00  0.00    -0.246 OA
BRANCH  30  32
ATOM     32  C   UNL A   1      35.143  33.096  28.577  1.00  0.00     0.060 A 
ATOM     33  C   UNL A   1      34.895  31.836  29.119  1.00  0.00     0.016 A 
ATOM     34  C   UNL A   1      36.455  33.570  28.464  1.00  0.00     0.016 A 
ATOM     35  C   UNL A   1      35.974  31.069  29.593  1.00  0.00     0.010 A 
ATOM     36  C   UNL A   1      37.520  32.786  28.887  1.00  0.00     0.010 A 
ATOM     37  C   UNL A   1      37.294  31.544  29.496  1.00  0.00    -0.014 A 
BRANCH  37  38
ATOM     38  C   UNL A   1      38.456  30.842  30.110  1.00  0.00     0.031 A 
ATOM     39  C   UNL A   1      38.911  31.272  31.488  1.00  0.00     0.074 A 
ATOM     40  C   UNL A   1      39.164  29.915  29.433  1.00  0.00     0.049 A 
ATOM     41  N   UNL A   1      39.949  30.881  32.181  1.00  0.00    -0.248 NA
ATOM     42  C   UNL A   1      38.109  32.312  32.163  1.00  0.00     0.031 C 
ATOM     43  C   UNL A   1      38.877  29.443  28.077  1.00  0.00     0.029 A 
ATOM     44  N   UNL A   1      40.307  29.231  29.781  1.00  0.00    -0.354 N 
ATOM     45  C   UNL A   1      39.907  31.606  33.369  1.00  0.00     0.074 A 
ATOM     46  C   UNL A   1      38.827  32.555  33.248  1.00  0.00     0.031 C 
ATOM     47  C   UNL A   1      39.834  28.577  27.698  1.00  0.00     0.029 A 
ATOM     48  C   UNL A   1      40.812  28.437  28.774  1.00  0.00     0.049 A 
ATOM     49  H   UNL A   1      40.726  29.303  30.669  1.00  0.00     0.167 HD
ATOM     50  C   UNL A   1      40.645  31.441  34.494  1.00  0.00     0.034 A 
ATOM     51  C   UNL A   1      41.932  27.684  28.722  1.00  0.00     0.034 A 
ATOM     52  C   UNL A   1      41.674  30.445  34.621  1.00  0.00     0.049 A 
ATOM     53  C   UNL A   1      42.776  27.549  29.959  1.00  0.00     0.074 A 
ATOM     54  C   UNL A   1      42.386  30.094  35.753  1.00  0.00     0.029 A 
ATOM     55  N   UNL A   1      42.131  29.636  33.591  1.00  0.00    -0.354 N 
ATOM     56  N   UNL A   1      42.639  28.146  31.119  1.00  0.00    -0.248 NA
ATOM     57  C   UNL A   1      43.887  26.591  29.901  1.00  0.00     0.031 C 
ATOM     58  C   UNL A   1      43.313  29.114  35.395  1.00  0.00     0.029 A 
ATOM     59  C   UNL A   1      43.133  28.805  34.056  1.00  0.00     0.049 A 
ATOM     60  H   UNL A   1      41.792  29.654  32.666  1.00  0.00     0.167 HD
ATOM     61  C   UNL A   1      43.604  27.584  31.950  1.00  0.00     0.074 A 
ATOM     62  C   UNL A   1      44.332  26.620  31.151  1.00  0.00     0.031 C 
ATOM     63  C   UNL A   1      43.839  27.827  33.263  1.00  0.00     0.034 A 
BRANCH  50  64
ATOM     64  C   UNL A   1      40.315  32.278  35.709  1.00  0.00     0.023 A 
ATOM     65  C   UNL A   1      39.213  31.953  36.521  1.00  0.00     0.031 A 
ATOM     66  C   UNL A   1      41.013  33.470  35.986  1.00  0.00     0.131 A 
ATOM     67  C   UNL A   1      38.830  32.821  37.554  1.00  0.00     0.055 A 
ATOM     68  C   UNL A   1      40.659  34.302  37.047  1.00  0.00     0.041 A 
ATOM     69  F   UNL A   1      42.062  33.838  35.232  1.00  0.00    -0.206 F 
ATOM     70  C   UNL A   1      39.555  33.986  37.829  1.00  0.00     0.022 A 
BRANCH  67  71
ATOM     71  S   UNL A   1      37.338  32.513  38.540  1.00  0.00     0.124 S 
ATOM     72  O   UNL A   1      37.250  31.055  38.501  1.00  0.00    -0.237 OA
ATOM     73  O   UNL A   1      37.706  33.082  39.833  1.00  0.00    -0.237 OA
ATOM     74  O   UNL A   1      36.288  33.218  37.815  1.00  0.00    -0.744 OA
ENDBRANCH  67  71
ENDBRANCH  50  64
BRANCH  51  75
ATOM     75  C   UNL A   1      42.250  26.896  27.495  1.00  0.00     0.023 A 
ATOM     76  C   UNL A   1      41.949  25.528  27.395  1.00  0.00     0.031 A 
ATOM     77  C   UNL A   1      42.927  27.503  26.426  1.00  0.00     0.131 A 
ATOM     78  C   UNL A   1      42.433  24.783  26.306  1.00  0.00     0.055 A 
ATOM     79  C   UNL A   1      43.332  26.778  25.304  1.00  0.00     0.041 A 
ATOM     80  F   UNL A   1      43.202  28.815  26.461  1.00  0.00    -0.206 F 
ATOM     81  C   UNL A   1      43.107  25.405  25.252  1.00  0.00     0.022 A 
BRANCH  78  82
ATOM     82  S   UNL A   1      42.265  22.972  26.250  1.00  0.00     0.124 S 
ATOM     83  O   UNL A   1      43.303  22.529  27.180  1.00  0.00    -0.237 OA
ATOM     84  O   UNL A   1      40.894  22.790  26.725  1.00  0.00    -0.237 OA
ATOM     85  O   UNL A   1      42.512  22.643  24.852  1.00  0.00    -0.744 OA
ENDBRANCH  78  82
ENDBRANCH  51  75
BRANCH  63  86
ATOM     86  C   UNL A   1      44.891  27.016  33.975  1.00  0.00     0.023 A 
ATOM     87  C   UNL A   1      44.559  25.740  34.472  1.00  0.00     0.031 A 
ATOM     88  C   UNL A   1      46.143  27.557  34.308  1.00  0.00     0.131 A 
ATOM     89  C   UNL A   1      45.446  25.070  35.320  1.00  0.00     0.055 A 
ATOM     90  C   UNL A   1      47.046  26.862  35.112  1.00  0.00     0.041 A 
ATOM     91  F   UNL A   1      46.498  28.774  33.865  1.00  0.00    -0.206 F 
ATOM     92  C   UNL A   1      46.692  25.621  35.637  1.00  0.00     0.022 A 
BRANCH  89  93
ATOM     93  S   UNL A   1      44.972  23.515  36.125  1.00  0.00     0.124 S 
ATOM     94  O   UNL A   1      46.002  22.599  35.642  1.00  0.00    -0.237 OA
ATOM     95  O   UNL A   1      45.062  23.863  37.541  1.00  0.00    -0.237 OA
ATOM     96  O   UNL A   1      43.626  23.256  35.627  1.00  0.00    -0.744 OA
ENDBRANCH  89  93
ENDBRANCH  63  86
ENDBRANCH  37  38
ENDBRANCH  30  32
ENDBRANCH  29  30
ENDBRANCH  28  29
ENDBRANCH   1  28
TORSDOF 19
ENDMDL
MODEL 2
REMARK VINA RESULT:     -10.7      5.032     10.472
REMARK SMILES CC[C@H](NC(=O)Cc1c(C)c2cc(Cl)c(OC)cc2oc1=O)C(=O)OCCOC(=O)c1ccc(-c2c3nc(c(-c4cc(S(=O)(=O)[O-])ccc4F)c4ccc([nH]4)c(-c4cc(S(=O)(=O)[O-])ccc4F)c4nc(c(-c5cc(S(=O)(=O)[O-])ccc5F)c5ccc2[nH]5)C=C4)C=C3)cc1
REMARK SMILES IDX 26 1 25 2 23 3 24 4 3 5 2 6 1 7 4 8 5 9 6 11 7 12 8 13 9 14
REMARK SMILES IDX 21 15 10 16 11 17 20 18 22 19 12 20 19 21 13 22 18 23 14 24
REMARK SMILES IDX 15 25 16 26 17 27 27 28 28 29 29 30 30 31 31 32 32 33 93 34
REMARK SMILES IDX 33 35 92 36 34 37 35 38 36 39 86 40 37 41 91 42 85 43 87 44
REMARK SMILES IDX 38 45 90 46 84 47 83 48 39 50 71 51 51 52 70 53 52 54 55 55
REMARK SMILES IDX 69 56 88 57 53 58 54 59 68 61 89 62 56 63 40 64 41 65 49 66
REMARK SMILES IDX 42 67 48 68 50 69 47 70 43 71 44 72 45 73 46 74 72 75 73 76
REMARK SMILES IDX 81 77 74 78 80 79 82 80 79 81 75 82 76 83 77 84 78 85 57 86
REMARK SMILES IDX 58 87 66 88 59 89 65 90 67 91 64 92 60 93 61 94 62 95 63 96
REMARK H PARENT 4 10 87 49 55 60
REMARK Flexibility Score: inf
ROOT
ATOM      1  C   UNL A   1      37.315  22.194  23.907  1.00  0.00     0.274 C 
ENDROOT
BRANCH   1   2
ATOM      2  O   UNL A   1      35.876  22.357  23.838  1.00  0.00    -0.461 OA
BRANCH   2   3
ATOM      3  C   UNL A   1      35.336  23.165  24.793  1.00  0.00     0.328 C 
ATOM      4  O   UNL A   1      35.723  24.313  25.002  1.00  0.00    -0.250 OA
BRANCH   3   5
ATOM      5  C   UNL A   1      34.110  22.555  25.528  1.00  0.00     0.192 C 
BRANCH   5   6
ATOM      6  C   UNL A   1      34.603  22.198  26.958  1.00  0.00     0.033 C 
ATOM      7  C   UNL A   1      33.588  22.363  28.081  1.00  0.00     0.007 C 
ENDBRANCH   5   6
BRANCH   5   8
ATOM      8  N   UNL A   1      33.422  21.386  24.939  1.00  0.00    -0.342 N 
ATOM      9  C   UNL A   1      32.137  20.945  25.110  1.00  0.00     0.225 C 
ATOM     10  H   UNL A   1      33.971  20.842  24.330  1.00  0.00     0.164 HD
ATOM     11  O   UNL A   1      31.976  19.718  25.160  1.00  0.00    -0.275 OA
BRANCH   9  12
ATOM     12  C   UNL A   1      30.904  21.862  25.035  1.00  0.00     0.143 C 
BRANCH  12  13
ATOM     13  C   UNL A   1      30.943  23.363  25.235  1.00  0.00     0.051 A 
ATOM     14  C   UNL A   1      31.237  24.230  24.235  1.00  0.00    -0.029 A 
ATOM     15  C   UNL A   1      30.630  23.888  26.584  1.00  0.00     0.340 A 
ATOM     16  C   UNL A   1      31.642  23.822  22.837  1.00  0.00     0.046 C 
ATOM     17  C   UNL A   1      31.191  25.679  24.505  1.00  0.00     0.023 A 
ATOM     18  O   UNL A   1      30.925  25.208  26.863  1.00  0.00    -0.422 OA
ATOM     19  O   UNL A   1      30.187  23.174  27.472  1.00  0.00    -0.246 OA
ATOM     20  C   UNL A   1      31.209  26.658  23.515  1.00  0.00     0.036 A 
ATOM     21  C   UNL A   1      31.104  26.116  25.820  1.00  0.00     0.142 A 
ATOM     22  C   UNL A   1      31.181  28.016  23.858  1.00  0.00     0.083 A 
ATOM     23  C   UNL A   1      31.161  27.464  26.182  1.00  0.00     0.095 A 
ATOM     24  Cl  UNL A   1      30.971  29.121  22.573  1.00  0.00    -0.080 Cl
ATOM     25  C   UNL A   1      31.260  28.430  25.189  1.00  0.00     0.141 A 
BRANCH  25  26
ATOM     26  O   UNL A   1      31.376  29.765  25.473  1.00  0.00    -0.495 OA
ATOM     27  C   UNL A   1      32.693  30.175  25.853  1.00  0.00     0.278 C 
ENDBRANCH  25  26
ENDBRANCH  12  13
ENDBRANCH   9  12
ENDBRANCH   5   8
ENDBRANCH   3   5
ENDBRANCH   2   3
ENDBRANCH   1   2
BRANCH   1  28
ATOM     28  C   UNL A   1      37.716  21.231  25.043  1.00  0.00     0.275 C 
BRANCH  28  29
ATOM     29  O   UNL A   1      38.042  21.858  26.314  1.00  0.00    -0.458 OA
BRANCH  29  30
ATOM     30  C   UNL A   1      39.363  21.912  26.583  1.00  0.00     0.338 C 
ATOM     31  O   UNL A   1      40.095  20.946  26.678  1.00  0.00    -0.246 OA
BRANCH  30  32
ATOM     32  C   UNL A   1      39.956  23.241  26.761  1.00  0.00     0.060 A 
ATOM     33  C   UNL A   1      39.452  24.396  26.164  1.00  0.00     0.016 A 
ATOM     34  C   UNL A   1      40.955  23.331  27.738  1.00  0.00     0.016 A 
ATOM     35  C   UNL A   1      39.991  25.645  26.520  1.00  0.00     0.010 A 
ATOM     36  C   UNL A   1      41.447  24.572  28.122  1.00  0.00     0.010 A 
ATOM     37  C   UNL A   1      41.004  25.742  27.490  1.00  0.00    -0.014 A 
BRANCH  37  38
ATOM     38  C   UNL A   1      41.712  27.016  27.800  1.00  0.00     0.031 A 
ATOM     39  C   UNL A   1      43.155  27.162  27.369  1.00  0.00     0.074 A 
ATOM     40  C   UNL A   1      41.133  27.989  28.535  1.00  0.00     0.049 A 
ATOM     41  N   UNL A   1      44.001  28.130  27.609  1.00  0.00    -0.248 NA
ATOM     42  C   UNL A   1      43.737  26.050  26.592  1.00  0.00     0.031 C 
ATOM     43  C   UNL A   1      39.769  27.960  29.067  1.00  0.00     0.029 A 
ATOM     44  N   UNL A   1      41.641  29.179  29.003  1.00  0.00    -0.354 N 
ATOM     45  C   UNL A   1      45.194  27.753  26.998  1.00  0.00     0.074 A 
ATOM     46  C   UNL A   1      45.006  26.412  26.496  1.00  0.00     0.031 C 
ATOM     47  C   UNL A   1      39.563  29.060  29.813  1.00  0.00     0.029 A 
ATOM     48  C   UNL A   1      40.778  29.870  29.827  1.00  0.00     0.049 A 
ATOM     49  H   UNL A   1      42.539  29.508  28.770  1.00  0.00     0.167 HD
ATOM     50  C   UNL A   1      46.316  28.484  26.797  1.00  0.00     0.034 A 
ATOM     51  C   UNL A   1      40.945  31.021  30.513  1.00  0.00     0.034 A 
ATOM     52  C   UNL A   1      46.463  29.842  27.247  1.00  0.00     0.049 A 
ATOM     53  C   UNL A   1      42.218  31.800  30.326  1.00  0.00     0.074 A 
ATOM     54  C   UNL A   1      47.493  30.723  26.979  1.00  0.00     0.029 A 
ATOM     55  N   UNL A   1      45.552  30.518  28.046  1.00  0.00    -0.354 N 
ATOM     56  N   UNL A   1      43.285  31.483  29.633  1.00  0.00    -0.248 NA
ATOM     57  C   UNL A   1      42.284  33.123  30.963  1.00  0.00     0.031 C 
ATOM     58  C   UNL A   1      47.236  31.912  27.663  1.00  0.00     0.029 A 
ATOM     59  C   UNL A   1      46.011  31.797  28.301  1.00  0.00     0.049 A 
ATOM     60  H   UNL A   1      44.707  30.142  28.382  1.00  0.00     0.167 HD
ATOM     61  C   UNL A   1      44.120  32.594  29.692  1.00  0.00     0.074 A 
ATOM     62  C   UNL A   1      43.444  33.580  30.511  1.00  0.00     0.031 C 
ATOM     63  C   UNL A   1      45.323  32.786  29.096  1.00  0.00     0.034 A 
BRANCH  50  64
ATOM     64  C   UNL A   1      47.439  27.883  25.982  1.00  0.00     0.023 A 
ATOM     65  C   UNL A   1      47.510  28.104  24.594  1.00  0.00     0.031 A 
ATOM     66  C   UNL A   1      48.362  26.988  26.558  1.00  0.00     0.131 A 
ATOM     67  C   UNL A   1      48.467  27.420  23.829  1.00  0.00     0.055 A 
ATOM     68  C   UNL A   1      49.344  26.352  25.800  1.00  0.00     0.041 A 
ATOM     69  F   UNL A   1      48.329  26.727  27.875  1.00  0.00    -0.206 F 
ATOM     70  C   UNL A   1      49.392  26.557  24.426  1.00  0.00     0.022 A 
BRANCH  67  71
ATOM     71  S   UNL A   1      48.509  27.569  22.021  1.00  0.00     0.124 S 
ATOM     72  O   UNL A   1      47.198  28.151  21.739  1.00  0.00    -0.237 OA
ATOM     73  O   UNL A   1      49.645  28.462  21.817  1.00  0.00    -0.237 OA
ATOM     74  O   UNL A   1      48.691  26.197  21.561  1.00  0.00    -0.744 OA
ENDBRANCH  67  71
ENDBRANCH  50  64
BRANCH  51  75
ATOM     75  C   UNL A   1      39.831  31.572  31.338  1.00  0.00     0.023 A 
ATOM     76  C   UNL A   1      39.823  31.463  32.738  1.00  0.00     0.031 A 
ATOM     77  C   UNL A   1      38.719  32.161  30.716  1.00  0.00     0.131 A 
ATOM     78  C   UNL A   1      38.673  31.823  33.461  1.00  0.00     0.055 A 
ATOM     79  C   UNL A   1      37.612  32.597  31.445  1.00  0.00     0.041 A 
ATOM     80  F   UNL A   1      38.700  32.320  29.384  1.00  0.00    -0.206 F 
ATOM     81  C   UNL A   1      37.575  32.405  32.823  1.00  0.00     0.022 A 
BRANCH  78  82
ATOM     82  S   UNL A   1      38.533  31.485  35.244  1.00  0.00     0.124 S 
ATOM     83  O   UNL A   1      37.244  32.087  35.580  1.00  0.00    -0.237 OA
ATOM     84  O   UNL A   1      38.557  30.024  35.269  1.00  0.00    -0.237 OA
ATOM     85  O   UNL A   1      39.692  32.159  35.816  1.00  0.00    -0.744 OA
ENDBRANCH  78  82
ENDBRANCH  51  75
BRANCH  63  86
ATOM     86  C   UNL A   1      45.998  34.125  29.237  1.00  0.00     0.023 A 
ATOM     87  C   UNL A   1      45.655  35.168  28.353  1.00  0.00     0.031 A 
ATOM     88  C   UNL A   1      47.081  34.320  30.110  1.00  0.00     0.131 A 
ATOM     89  C   UNL A   1      46.420  36.338  28.325  1.00  0.00     0.055 A 
ATOM     90  C   UNL A   1      47.809  35.510  30.114  1.00  0.00     0.041 A 
ATOM     91  F   UNL A   1      47.450  33.351  30.962  1.00  0.00    -0.206 F 
ATOM     92  C   UNL A   1      47.491  36.518  29.206  1.00  0.00     0.022 A 
BRANCH  89  93
ATOM     93  S   UNL A   1      46.121  37.618  27.075  1.00  0.00     0.124 S 
ATOM     94  O   UNL A   1      46.649  38.811  27.732  1.00  0.00    -0.237 OA
ATOM     95  O   UNL A   1      46.905  37.131  25.943  1.00  0.00    -0.237 OA
ATOM     96  O   UNL A   1      44.674  37.599  26.889  1.00  0.00    -0.744 OA
ENDBRANCH  89  93
ENDBRANCH  63  86
ENDBRANCH  37  38
ENDBRANCH  30  32
ENDBRANCH  29  30
ENDBRANCH  28  29
ENDBRANCH   1  28
TORSDOF 19
ENDMDL
MODEL 3
REMARK VINA RESULT:     -10.7      1.845      2.093
REMARK SMILES CC[C@H](NC(=O)Cc1c(C)c2cc(Cl)c(OC)cc2oc1=O)C(=O)OCCOC(=O)c1ccc(-c2c3nc(c(-c4cc(S(=O)(=O)[O-])ccc4F)c4ccc([nH]4)c(-c4cc(S(=O)(=O)[O-])ccc4F)c4nc(c(-c5cc(S(=O)(=O)[O-])ccc5F)c5ccc2[nH]5)C=C4)C=C3)cc1
REMARK SMILES IDX 26 1 25 2 23 3 24 4 3 5 2 6 1 7 4 8 5 9 6 11 7 12 8 13 9 14
REMARK SMILES IDX 21 15 10 16 11 17 20 18 22 19 12 20 19 21 13 22 18 23 14 24
REMARK SMILES IDX 15 25 16 26 17 27 27 28 28 29 29 30 30 31 31 32 32 33 93 34
REMARK SMILES IDX 33 35 92 36 34 37 35 38 36 39 86 40 37 41 91 42 85 43 87 44
REMARK SMILES IDX 38 45 90 46 84 47 83 48 39 50 71 51 51 52 70 53 52 54 55 55
REMARK SMILES IDX 69 56 88 57 53 58 54 59 68 61 89 62 56 63 40 64 41 65 49 66
REMARK SMILES IDX 42 67 48 68 50 69 47 70 43 71 44 72 45 73 46 74 72 75 73 76
REMARK SMILES IDX 81 77 74 78 80 79 82 80 79 81 75 82 76 83 77 84 78 85 57 86
REMARK SMILES IDX 58 87 66 88 59 89 65 90 67 91 64 92 60 93 61 94 62 95 63 96
REMARK H PARENT 4 10 87 49 55 60
REMARK Flexibility Score: inf
ROOT
ATOM      1  C   UNL A   1      31.481  31.872  27.033  1.00  0.00     0.274 C 
ENDROOT
BRANCH   1   2
ATOM      2  O   UNL A   1      31.495  31.144  25.780  1.00  0.00    -0.461 OA
BRANCH   2   3
ATOM      3  C   UNL A   1      32.337  30.072  25.740  1.00  0.00     0.328 C 
ATOM      4  O   UNL A   1      33.278  29.926  26.517  1.00  0.00    -0.250 OA
BRANCH   3   5
ATOM      5  C   UNL A   1      31.945  28.990  24.697  1.00  0.00     0.192 C 
BRANCH   5   6
ATOM      6  C   UNL A   1      33.086  28.979  23.642  1.00  0.00     0.033 C 
ATOM      7  C   UNL A   1      34.213  27.984  23.880  1.00  0.00     0.007 C 
ENDBRANCH   5   6
BRANCH   5   8
ATOM      8  N   UNL A   1      30.639  29.089  24.008  1.00  0.00    -0.342 N 
ATOM      9  C   UNL A   1      29.981  28.168  23.237  1.00  0.00     0.225 C 
ATOM     10  H   UNL A   1      30.172  29.947  24.122  1.00  0.00     0.164 HD
ATOM     11  O   UNL A   1      29.373  28.608  22.251  1.00  0.00    -0.275 OA
BRANCH   9  12
ATOM     12  C   UNL A   1      29.794  26.696  23.640  1.00  0.00     0.143 C 
BRANCH  12  13
ATOM     13  C   UNL A   1      30.903  25.807  24.166  1.00  0.00     0.051 A 
ATOM     14  C   UNL A   1      31.863  25.281  23.367  1.00  0.00    -0.029 A 
ATOM     15  C   UNL A   1      30.931  25.526  25.620  1.00  0.00     0.340 A 
ATOM     16  C   UNL A   1      31.907  25.433  21.864  1.00  0.00     0.046 C 
ATOM     17  C   UNL A   1      32.941  24.478  23.974  1.00  0.00     0.023 A 
ATOM     18  O   UNL A   1      31.750  24.513  26.080  1.00  0.00    -0.422 OA
ATOM     19  O   UNL A   1      30.205  26.112  26.409  1.00  0.00    -0.246 OA
ATOM     20  C   UNL A   1      34.110  24.114  23.311  1.00  0.00     0.036 A 
ATOM     21  C   UNL A   1      32.812  24.066  25.294  1.00  0.00     0.142 A 
ATOM     22  C   UNL A   1      35.078  23.333  23.955  1.00  0.00     0.083 A 
ATOM     23  C   UNL A   1      33.726  23.217  25.921  1.00  0.00     0.095 A 
ATOM     24  Cl  UNL A   1      36.568  23.141  23.142  1.00  0.00    -0.080 Cl
ATOM     25  C   UNL A   1      34.850  22.794  25.224  1.00  0.00     0.141 A 
BRANCH  25  26
ATOM     26  O   UNL A   1      35.758  21.919  25.756  1.00  0.00    -0.495 OA
ATOM     27  C   UNL A   1      35.781  20.635  25.124  1.00  0.00     0.278 C 
ENDBRANCH  25  26
ENDBRANCH  12  13
ENDBRANCH   9  12
ENDBRANCH   5   8
ENDBRANCH   3   5
ENDBRANCH   2   3
ENDBRANCH   1   2
BRANCH   1  28
ATOM     28  C   UNL A   1      32.091  33.280  26.870  1.00  0.00     0.275 C 
BRANCH  28  29
ATOM     29  O   UNL A   1      32.770  33.811  28.041  1.00  0.00    -0.458 OA
BRANCH  29  30
ATOM     30  C   UNL A   1      34.072  34.105  27.840  1.00  0.00     0.338 C 
ATOM     31  O   UNL A   1      34.483  35.004  27.134  1.00  0.00    -0.246 OA
BRANCH  30  32
ATOM     32  C   UNL A   1      35.060  33.279  28.543  1.00  0.00     0.060 A 
ATOM     33  C   UNL A   1      34.758  32.054  29.137  1.00  0.00     0.016 A 
ATOM     34  C   UNL A   1      36.392  33.691  28.415  1.00  0.00     0.016 A 
ATOM     35  C   UNL A   1      35.801  31.263  29.648  1.00  0.00     0.010 A 
ATOM     36  C   UNL A   1      37.421  32.881  28.876  1.00  0.00     0.010 A 
ATOM     37  C   UNL A   1      37.141  31.677  29.535  1.00  0.00    -0.014 A 
BRANCH  37  38
ATOM     38  C   UNL A   1      38.271  30.954  30.184  1.00  0.00     0.031 A 
ATOM     39  C   UNL A   1      38.722  31.404  31.557  1.00  0.00     0.074 A 
ATOM     40  C   UNL A   1      38.957  29.986  29.540  1.00  0.00     0.049 A 
ATOM     41  N   UNL A   1      39.737  30.997  32.273  1.00  0.00    -0.248 NA
ATOM     42  C   UNL A   1      37.947  32.487  32.193  1.00  0.00     0.031 C 
ATOM     43  C   UNL A   1      38.671  29.489  28.193  1.00  0.00     0.029 A 
ATOM     44  N   UNL A   1      40.071  29.274  29.921  1.00  0.00    -0.354 N 
ATOM     45  C   UNL A   1      39.704  31.753  33.442  1.00  0.00     0.074 A 
ATOM     46  C   UNL A   1      38.658  32.734  33.281  1.00  0.00     0.031 C 
ATOM     47  C   UNL A   1      39.603  28.582  27.850  1.00  0.00     0.029 A 
ATOM     48  C   UNL A   1      40.562  28.438  28.942  1.00  0.00     0.049 A 
ATOM     49  H   UNL A   1      40.481  29.355  30.813  1.00  0.00     0.167 HD
ATOM     50  C   UNL A   1      40.421  31.593  34.580  1.00  0.00     0.034 A 
ATOM     51  C   UNL A   1      41.657  27.646  28.925  1.00  0.00     0.034 A 
ATOM     52  C   UNL A   1      41.415  30.567  34.748  1.00  0.00     0.049 A 
ATOM     53  C   UNL A   1      42.480  27.516  30.177  1.00  0.00     0.074 A 
ATOM     54  C   UNL A   1      42.100  30.222  35.898  1.00  0.00     0.029 A 
ATOM     55  N   UNL A   1      41.857  29.717  33.745  1.00  0.00    -0.354 N 
ATOM     56  N   UNL A   1      42.347  28.147  31.320  1.00  0.00    -0.248 NA
ATOM     57  C   UNL A   1      43.559  26.520  30.159  1.00  0.00     0.031 C 
ATOM     58  C   UNL A   1      42.998  29.203  35.578  1.00  0.00     0.029 A 
ATOM     59  C   UNL A   1      42.825  28.865  34.245  1.00  0.00     0.049 A 
ATOM     60  H   UNL A   1      41.532  29.721  32.815  1.00  0.00     0.167 HD
ATOM     61  C   UNL A   1      43.282  27.575  32.178  1.00  0.00     0.074 A 
ATOM     62  C   UNL A   1      43.988  26.567  31.414  1.00  0.00     0.031 C 
ATOM     63  C   UNL A   1      43.508  27.844  33.487  1.00  0.00     0.034 A 
BRANCH  50  64
ATOM     64  C   UNL A   1      40.104  32.471  35.770  1.00  0.00     0.023 A 
ATOM     65  C   UNL A   1      40.838  33.649  36.002  1.00  0.00     0.031 A 
ATOM     66  C   UNL A   1      39.164  32.074  36.741  1.00  0.00     0.131 A 
ATOM     67  C   UNL A   1      40.635  34.372  37.186  1.00  0.00     0.055 A 
ATOM     68  C   UNL A   1      38.930  32.826  37.892  1.00  0.00     0.041 A 
ATOM     69  F   UNL A   1      38.448  30.950  36.579  1.00  0.00    -0.206 F 
ATOM     70  C   UNL A   1      39.677  33.975  38.125  1.00  0.00     0.022 A 
BRANCH  67  71
ATOM     71  S   UNL A   1      41.652  35.819  37.592  1.00  0.00     0.124 S 
ATOM     72  O   UNL A   1      42.631  35.248  38.515  1.00  0.00    -0.237 OA
ATOM     73  O   UNL A   1      42.175  36.199  36.283  1.00  0.00    -0.237 OA
ATOM     74  O   UNL A   1      40.707  36.755  38.191  1.00  0.00    -0.744 OA
ENDBRANCH  67  71
ENDBRANCH  50  64
BRANCH  51  75
ATOM     75  C   UNL A   1      41.965  26.817  27.723  1.00  0.00     0.023 A 
ATOM     76  C   UNL A   1      41.825  25.420  27.732  1.00  0.00     0.031 A 
ATOM     77  C   UNL A   1      42.471  27.422  26.562  1.00  0.00     0.131 A 
ATOM     78  C   UNL A   1      42.302  24.661  26.650  1.00  0.00     0.055 A 
ATOM     79  C   UNL A   1      42.865  26.671  25.453  1.00  0.00     0.041 A 
ATOM     80  F   UNL A   1      42.586  28.757  26.494  1.00  0.00    -0.206 F 
ATOM     81  C   UNL A   1      42.805  25.282  25.504  1.00  0.00     0.022 A 
BRANCH  78  82
ATOM     82  S   UNL A   1      42.351  22.844  26.718  1.00  0.00     0.124 S 
ATOM     83  O   UNL A   1      43.743  22.578  27.079  1.00  0.00    -0.237 OA
ATOM     84  O   UNL A   1      41.377  22.563  27.771  1.00  0.00    -0.237 OA
ATOM     85  O   UNL A   1      41.979  22.436  25.370  1.00  0.00    -0.744 OA
ENDBRANCH  78  82
ENDBRANCH  51  75
BRANCH  63  86
ATOM     86  C   UNL A   1      44.523  27.017  34.234  1.00  0.00     0.023 A 
ATOM     87  C   UNL A   1      45.875  27.415  34.230  1.00  0.00     0.031 A 
ATOM     88  C   UNL A   1      44.195  25.773  34.794  1.00  0.00     0.131 A 
ATOM     89  C   UNL A   1      46.856  26.551  34.726  1.00  0.00     0.055 A 
ATOM     90  C   UNL A   1      45.172  24.937  35.336  1.00  0.00     0.041 A 
ATOM     91  F   UNL A   1      42.921  25.349  34.812  1.00  0.00    -0.206 F 
ATOM     92  C   UNL A   1      46.511  25.317  35.287  1.00  0.00     0.022 A 
BRANCH  89  93
ATOM     93  S   UNL A   1      48.618  26.950  34.564  1.00  0.00     0.124 S 
ATOM     94  O   UNL A   1      49.054  26.961  35.958  1.00  0.00    -0.237 OA
ATOM     95  O   UNL A   1      49.114  25.833  33.764  1.00  0.00    -0.237 OA
ATOM     96  O   UNL A   1      48.626  28.249  33.900  1.00  0.00    -0.744 OA
ENDBRANCH  89  93
ENDBRANCH  63  86
ENDBRANCH  37  38
ENDBRANCH  30  32
ENDBRANCH  29  30
ENDBRANCH  28  29
ENDBRANCH   1  28
TORSDOF 19
ENDMDL
