MODEL 1
REMARK VINA RESULT:     -10.9      0.000      0.000
REMARK SMILES NC(=O)C[C@H](NC(=O)[C@@H]1CCC[NH2+]1)C(=O)OCCOC(=O)c1ccc(-c2c3nc(c(-c4cc(S(=O)(=O)[O-])ccc4F)c4ccc([nH]4)c(-c4cc(S(=O)(=O)[O-])ccc4F)c4nc(c(-c5cc(S(=O)(=O)[O-])ccc5F)c5ccc2[nH]5)C=C4)C=C3)cc1
REMARK SMILES IDX 18 1 17 2 16 3 14 4 15 5 5 6 4 7 2 8 1 9 3 12 6 13 7 14 8 16
REMARK SMILES IDX 9 17 10 18 13 19 11 20 12 21 19 24 20 25 21 26 22 27 23 28
REMARK SMILES IDX 84 29 24 30 83 31 25 32 26 33 27 34 77 35 28 36 82 37 76 38
REMARK SMILES IDX 78 39 29 40 81 41 75 42 74 43 30 45 62 46 42 47 61 48 43 49
REMARK SMILES IDX 46 50 60 51 79 52 44 53 45 54 59 56 80 57 47 58 31 59 32 60
REMARK SMILES IDX 40 61 33 62 39 63 41 64 38 65 34 66 35 67 36 68 37 69 63 70
REMARK SMILES IDX 64 71 72 72 65 73 71 74 73 75 70 76 66 77 67 78 68 79 69 80
REMARK SMILES IDX 48 81 49 82 57 83 50 84 56 85 58 86 55 87 51 88 52 89 53 90
REMARK SMILES IDX 54 91
REMARK H PARENT 1 10 1 11 6 15 13 22 13 23 78 44 46 55
REMARK Flexibility Score: inf
ROOT
ATOM      1  C   UNL A   1      32.047  30.190  26.649  1.00  0.00     0.275 C 
ENDROOT
BRANCH   1   2
ATOM      2  C   UNL A   1      31.348  29.796  25.342  1.00  0.00     0.274 C 
BRANCH   2   3
ATOM      3  O   UNL A   1      32.278  29.309  24.355  1.00  0.00    -0.461 OA
BRANCH   3   4
ATOM      4  C   UNL A   1      32.398  27.958  24.231  1.00  0.00     0.329 C 
ATOM      5  O   UNL A   1      33.174  27.268  24.886  1.00  0.00    -0.250 OA
BRANCH   4   6
ATOM      6  C   UNL A   1      31.465  27.374  23.143  1.00  0.00     0.201 C 
BRANCH   6   7
ATOM      7  C   UNL A   1      30.361  26.599  23.878  1.00  0.00     0.136 C 
BRANCH   7   8
ATOM      8  C   UNL A   1      28.969  27.159  23.628  1.00  0.00     0.220 C 
ATOM      9  N   UNL A   1      27.915  26.328  23.876  1.00  0.00    -0.370 N 
ATOM     10  H   UNL A   1      26.994  26.644  23.730  1.00  0.00     0.159 HD
ATOM     11  H   UNL A   1      28.075  25.412  24.202  1.00  0.00     0.159 HD
ATOM     12  O   UNL A   1      28.765  28.258  23.122  1.00  0.00    -0.275 OA
ENDBRANCH   7   8
ENDBRANCH   6   7
BRANCH   6  13
ATOM     13  N   UNL A   1      32.285  26.806  22.051  1.00  0.00    -0.337 N 
ATOM     14  C   UNL A   1      32.812  25.599  21.726  1.00  0.00     0.278 C 
ATOM     15  H   UNL A   1      32.510  27.488  21.377  1.00  0.00     0.164 HD
ATOM     16  O   UNL A   1      33.276  25.459  20.592  1.00  0.00    -0.268 OA
BRANCH  14  17
ATOM     17  C   UNL A   1      32.925  24.503  22.769  1.00  0.00     0.272 C 
ATOM     18  C   UNL A   1      34.339  24.072  23.113  1.00  0.00     0.081 C 
ATOM     19  N   UNL A   1      32.354  23.236  22.285  1.00  0.00    -0.336 N 
ATOM     20  C   UNL A   1      34.111  22.737  23.810  1.00  0.00     0.068 C 
ATOM     21  C   UNL A   1      32.762  22.250  23.290  1.00  0.00     0.261 C 
ATOM     22  H   UNL A   1      32.731  22.995  21.368  1.00  0.00     0.346 HD
ATOM     23  H   UNL A   1      31.341  23.282  22.172  1.00  0.00     0.346 HD
ENDBRANCH  14  17
ENDBRANCH   6  13
ENDBRANCH   4   6
ENDBRANCH   3   4
ENDBRANCH   2   3
ENDBRANCH   1   2
BRANCH   1  24
ATOM     24  O   UNL A   1      33.452  30.458  26.468  1.00  0.00    -0.458 OA
BRANCH  24  25
ATOM     25  C   UNL A   1      33.946  31.425  27.280  1.00  0.00     0.338 C 
ATOM     26  O   UNL A   1      33.333  32.386  27.717  1.00  0.00    -0.246 OA
BRANCH  25  27
ATOM     27  C   UNL A   1      35.290  31.060  27.765  1.00  0.00     0.060 A 
ATOM     28  C   UNL A   1      35.505  29.707  28.037  1.00  0.00     0.016 A 
ATOM     29  C   UNL A   1      36.294  31.994  28.028  1.00  0.00     0.016 A 
ATOM     30  C   UNL A   1      36.708  29.271  28.565  1.00  0.00     0.010 A 
ATOM     31  C   UNL A   1      37.509  31.556  28.576  1.00  0.00     0.010 A 
ATOM     32  C   UNL A   1      37.719  30.193  28.853  1.00  0.00    -0.014 A 
BRANCH  32  33
ATOM     33  C   UNL A   1      38.938  29.689  29.529  1.00  0.00     0.031 A 
ATOM     34  C   UNL A   1      39.280  30.182  30.905  1.00  0.00     0.074 A 
ATOM     35  C   UNL A   1      39.651  28.699  28.959  1.00  0.00     0.049 A 
ATOM     36  N   UNL A   1      40.286  29.857  31.674  1.00  0.00    -0.248 NA
ATOM     37  C   UNL A   1      38.365  31.171  31.493  1.00  0.00     0.031 C 
ATOM     38  C   UNL A   1      39.355  28.091  27.660  1.00  0.00     0.029 A 
ATOM     39  N   UNL A   1      40.750  28.014  29.406  1.00  0.00    -0.354 N 
ATOM     40  C   UNL A   1      40.138  30.612  32.832  1.00  0.00     0.074 A 
ATOM     41  C   UNL A   1      38.954  31.428  32.651  1.00  0.00     0.031 C 
ATOM     42  C   UNL A   1      40.240  27.108  27.426  1.00  0.00     0.029 A 
ATOM     43  C   UNL A   1      41.197  27.054  28.527  1.00  0.00     0.049 A 
ATOM     44  H   UNL A   1      41.179  28.191  30.275  1.00  0.00     0.167 HD
ATOM     45  C   UNL A   1      40.918  30.621  33.942  1.00  0.00     0.034 A 
ATOM     46  C   UNL A   1      42.272  26.245  28.592  1.00  0.00     0.034 A 
ATOM     47  C   UNL A   1      42.090  29.794  34.103  1.00  0.00     0.049 A 
ATOM     48  C   UNL A   1      43.163  26.324  29.804  1.00  0.00     0.074 A 
ATOM     49  C   UNL A   1      42.963  29.730  35.176  1.00  0.00     0.029 A 
ATOM     50  N   UNL A   1      42.558  28.884  33.161  1.00  0.00    -0.354 N 
ATOM     51  N   UNL A   1      43.038  27.077  30.873  1.00  0.00    -0.248 NA
ATOM     52  C   UNL A   1      44.339  25.445  29.818  1.00  0.00     0.031 C 
ATOM     53  C   UNL A   1      43.988  28.832  34.858  1.00  0.00     0.029 A 
ATOM     54  C   UNL A   1      43.719  28.278  33.615  1.00  0.00     0.049 A 
ATOM     55  H   UNL A   1      42.126  28.698  32.296  1.00  0.00     0.167 HD
ATOM     56  C   UNL A   1      44.115  26.752  31.693  1.00  0.00     0.074 A 
ATOM     57  C   UNL A   1      44.860  25.716  31.006  1.00  0.00     0.031 C 
ATOM     58  C   UNL A   1      44.461  27.263  32.903  1.00  0.00     0.034 A 
BRANCH  45  59
ATOM     59  C   UNL A   1      40.561  31.607  35.028  1.00  0.00     0.023 A 
ATOM     60  C   UNL A   1      39.571  31.336  35.989  1.00  0.00     0.031 A 
ATOM     61  C   UNL A   1      41.195  32.862  35.072  1.00  0.00     0.131 A 
ATOM     62  C   UNL A   1      39.197  32.330  36.906  1.00  0.00     0.055 A 
ATOM     63  C   UNL A   1      40.870  33.819  36.035  1.00  0.00     0.041 A 
ATOM     64  F   UNL A   1      42.130  33.187  34.164  1.00  0.00    -0.206 F 
ATOM     65  C   UNL A   1      39.855  33.561  36.950  1.00  0.00     0.022 A 
BRANCH  62  66
ATOM     66  S   UNL A   1      37.737  32.046  37.947  1.00  0.00     0.124 S 
ATOM     67  O   UNL A   1      36.810  33.053  37.435  1.00  0.00    -0.237 OA
ATOM     68  O   UNL A   1      37.404  30.658  37.650  1.00  0.00    -0.237 OA
ATOM     69  O   UNL A   1      38.229  32.294  39.301  1.00  0.00    -0.744 OA
ENDBRANCH  62  66
ENDBRANCH  45  59
BRANCH  46  70
ATOM     70  C   UNL A   1      42.602  25.337  27.457  1.00  0.00     0.023 A 
ATOM     71  C   UNL A   1      42.101  24.027  27.395  1.00  0.00     0.031 A 
ATOM     72  C   UNL A   1      43.472  25.759  26.433  1.00  0.00     0.131 A 
ATOM     73  C   UNL A   1      42.502  23.174  26.354  1.00  0.00     0.055 A 
ATOM     74  C   UNL A   1      43.826  24.924  25.372  1.00  0.00     0.041 A 
ATOM     75  F   UNL A   1      43.982  27.001  26.445  1.00  0.00    -0.206 F 
ATOM     76  C   UNL A   1      43.349  23.618  25.336  1.00  0.00     0.022 A 
BRANCH  73  77
ATOM     77  S   UNL A   1      41.963  21.443  26.390  1.00  0.00     0.124 S 
ATOM     78  O   UNL A   1      42.259  21.067  27.768  1.00  0.00    -0.237 OA
ATOM     79  O   UNL A   1      40.549  21.560  26.046  1.00  0.00    -0.237 OA
ATOM     80  O   UNL A   1      42.798  20.804  25.375  1.00  0.00    -0.744 OA
ENDBRANCH  73  77
ENDBRANCH  46  70
BRANCH  58  81
ATOM     81  C   UNL A   1      45.688  26.679  33.557  1.00  0.00     0.023 A 
ATOM     82  C   UNL A   1      45.612  25.548  34.388  1.00  0.00     0.031 A 
ATOM     83  C   UNL A   1      46.945  27.284  33.376  1.00  0.00     0.131 A 
ATOM     84  C   UNL A   1      46.758  25.095  35.058  1.00  0.00     0.055 A 
ATOM     85  C   UNL A   1      48.093  26.793  33.998  1.00  0.00     0.041 A 
ATOM     86  F   UNL A   1      47.074  28.369  32.593  1.00  0.00    -0.206 F 
ATOM     87  C   UNL A   1      48.001  25.702  34.857  1.00  0.00     0.022 A 
BRANCH  84  88
ATOM     88  S   UNL A   1      46.583  23.765  36.280  1.00  0.00     0.124 S 
ATOM     89  O   UNL A   1      45.199  23.347  36.076  1.00  0.00    -0.237 OA
ATOM     90  O   UNL A   1      47.605  22.815  35.856  1.00  0.00    -0.237 OA
ATOM     91  O   UNL A   1      46.847  24.433  37.553  1.00  0.00    -0.744 OA
ENDBRANCH  84  88
ENDBRANCH  58  81
ENDBRANCH  32  33
ENDBRANCH  25  27
ENDBRANCH  24  25
ENDBRANCH   1  24
TORSDOF 18
ENDMDL
MODEL 2
REMARK VINA RESULT:     -10.8      1.917      8.133
REMARK SMILES NC(=O)C[C@H](NC(=O)[C@@H]1CCC[NH2+]1)C(=O)OCCOC(=O)c1ccc(-c2c3nc(c(-c4cc(S(=O)(=O)[O-])ccc4F)c4ccc([nH]4)c(-c4cc(S(=O)(=O)[O-])ccc4F)c4nc(c(-c5cc(S(=O)(=O)[O-])ccc5F)c5ccc2[nH]5)C=C4)C=C3)cc1
REMARK SMILES IDX 18 1 17 2 16 3 14 4 15 5 5 6 4 7 2 8 1 9 3 12 6 13 7 14 8 16
REMARK SMILES IDX 9 17 10 18 13 19 11 20 12 21 19 24 20 25 21 26 22 27 23 28
REMARK SMILES IDX 84 29 24 30 83 31 25 32 26 33 27 34 77 35 28 36 82 37 76 38
REMARK SMILES IDX 78 39 29 40 81 41 75 42 74 43 30 45 62 46 42 47 61 48 43 49
REMARK SMILES IDX 46 50 60 51 79 52 44 53 45 54 59 56 80 57 47 58 31 59 32 60
REMARK SMILES IDX 40 61 33 62 39 63 41 64 38 65 34 66 35 67 36 68 37 69 63 70
REMARK SMILES IDX 64 71 72 72 65 73 71 74 73 75 70 76 66 77 67 78 68 79 69 80
REMARK SMILES IDX 48 81 49 82 57 83 50 84 56 85 58 86 55 87 51 88 52 89 53 90
REMARK SMILES IDX 54 91
REMARK H PARENT 1 10 1 11 6 15 13 22 13 23 78 44 46 55
REMARK Flexibility Score: inf
ROOT
ATOM      1  C   UNL A   1      31.684  29.797  26.001  1.00  0.00     0.275 C 
ENDROOT
BRANCH   1   2
ATOM      2  C   UNL A   1      31.118  29.574  24.593  1.00  0.00     0.274 C 
BRANCH   2   3
ATOM      3  O   UNL A   1      31.941  28.687  23.812  1.00  0.00    -0.461 OA
BRANCH   3   4
ATOM      4  C   UNL A   1      31.668  27.355  23.896  1.00  0.00     0.329 C 
ATOM      5  O   UNL A   1      30.555  26.888  24.118  1.00  0.00    -0.250 OA
BRANCH   4   6
ATOM      6  C   UNL A   1      32.928  26.475  23.708  1.00  0.00     0.201 C 
BRANCH   6   7
ATOM      7  C   UNL A   1      33.382  26.660  22.253  1.00  0.00     0.136 C 
BRANCH   7   8
ATOM      8  C   UNL A   1      32.894  25.555  21.328  1.00  0.00     0.220 C 
ATOM      9  N   UNL A   1      31.926  25.888  20.425  1.00  0.00    -0.370 N 
ATOM     10  H   UNL A   1      31.577  25.208  19.804  1.00  0.00     0.159 HD
ATOM     11  H   UNL A   1      31.577  26.808  20.394  1.00  0.00     0.159 HD
ATOM     12  O   UNL A   1      33.244  24.383  21.433  1.00  0.00    -0.275 OA
ENDBRANCH   7   8
ENDBRANCH   6   7
BRANCH   6  13
ATOM     13  N   UNL A   1      32.701  25.158  24.341  1.00  0.00    -0.337 N 
ATOM     14  C   UNL A   1      33.459  24.136  24.811  1.00  0.00     0.278 C 
ATOM     15  H   UNL A   1      31.740  24.971  24.449  1.00  0.00     0.164 HD
ATOM     16  O   UNL A   1      32.899  23.266  25.482  1.00  0.00    -0.268 OA
BRANCH  14  17
ATOM     17  C   UNL A   1      34.921  24.019  24.423  1.00  0.00     0.272 C 
ATOM     18  C   UNL A   1      35.320  22.710  23.766  1.00  0.00     0.081 C 
ATOM     19  N   UNL A   1      35.796  24.020  25.605  1.00  0.00    -0.336 N 
ATOM     20  C   UNL A   1      36.837  22.729  23.898  1.00  0.00     0.068 C 
ATOM     21  C   UNL A   1      37.114  23.657  25.077  1.00  0.00     0.261 C 
ATOM     22  H   UNL A   1      35.479  23.334  26.291  1.00  0.00     0.346 HD
ATOM     23  H   UNL A   1      35.802  24.920  26.086  1.00  0.00     0.346 HD
ENDBRANCH  14  17
ENDBRANCH   6  13
ENDBRANCH   4   6
ENDBRANCH   3   4
ENDBRANCH   2   3
ENDBRANCH   1   2
BRANCH   1  24
ATOM     24  O   UNL A   1      33.044  30.275  25.983  1.00  0.00    -0.458 OA
BRANCH  24  25
ATOM     25  C   UNL A   1      33.302  31.262  26.876  1.00  0.00     0.338 C 
ATOM     26  O   UNL A   1      32.525  32.130  27.240  1.00  0.00    -0.246 OA
BRANCH  25  27
ATOM     27  C   UNL A   1      34.599  31.036  27.540  1.00  0.00     0.060 A 
ATOM     28  C   UNL A   1      34.895  29.717  27.891  1.00  0.00     0.016 A 
ATOM     29  C   UNL A   1      35.474  32.065  27.890  1.00  0.00     0.016 A 
ATOM     30  C   UNL A   1      36.054  29.408  28.583  1.00  0.00     0.010 A 
ATOM     31  C   UNL A   1      36.643  31.757  28.603  1.00  0.00     0.010 A 
ATOM     32  C   UNL A   1      36.934  30.427  28.959  1.00  0.00    -0.014 A 
BRANCH  32  33
ATOM     33  C   UNL A   1      38.095  30.056  29.802  1.00  0.00     0.031 A 
ATOM     34  C   UNL A   1      39.155  29.149  29.246  1.00  0.00     0.074 A 
ATOM     35  C   UNL A   1      38.255  30.638  31.005  1.00  0.00     0.049 A 
ATOM     36  N   UNL A   1      40.254  28.718  29.808  1.00  0.00    -0.248 NA
ATOM     37  C   UNL A   1      38.950  28.667  27.872  1.00  0.00     0.031 C 
ATOM     38  C   UNL A   1      37.324  31.598  31.604  1.00  0.00     0.029 A 
ATOM     39  N   UNL A   1      39.264  30.533  31.926  1.00  0.00    -0.354 N 
ATOM     40  C   UNL A   1      40.867  27.900  28.865  1.00  0.00     0.074 A 
ATOM     41  C   UNL A   1      40.002  27.879  27.703  1.00  0.00     0.031 C 
ATOM     42  C   UNL A   1      37.818  32.007  32.783  1.00  0.00     0.029 A 
ATOM     43  C   UNL A   1      39.067  31.300  33.050  1.00  0.00     0.049 A 
ATOM     44  H   UNL A   1      40.055  29.961  31.795  1.00  0.00     0.167 HD
ATOM     45  C   UNL A   1      42.043  27.230  28.963  1.00  0.00     0.034 A 
ATOM     46  C   UNL A   1      39.798  31.399  34.178  1.00  0.00     0.034 A 
ATOM     47  C   UNL A   1      42.892  27.271  30.130  1.00  0.00     0.049 A 
ATOM     48  C   UNL A   1      41.064  30.590  34.291  1.00  0.00     0.074 A 
ATOM     49  C   UNL A   1      44.095  26.621  30.346  1.00  0.00     0.029 A 
ATOM     50  N   UNL A   1      42.626  28.001  31.283  1.00  0.00    -0.354 N 
ATOM     51  N   UNL A   1      41.608  29.781  33.410  1.00  0.00    -0.248 NA
ATOM     52  C   UNL A   1      41.811  30.705  35.549  1.00  0.00     0.031 C 
ATOM     53  C   UNL A   1      44.524  26.909  31.648  1.00  0.00     0.029 A 
ATOM     54  C   UNL A   1      43.626  27.796  32.222  1.00  0.00     0.049 A 
ATOM     55  H   UNL A   1      41.841  28.580  31.414  1.00  0.00     0.167 HD
ATOM     56  C   UNL A   1      42.772  29.302  34.006  1.00  0.00     0.074 A 
ATOM     57  C   UNL A   1      42.861  29.934  35.307  1.00  0.00     0.031 C 
ATOM     58  C   UNL A   1      43.684  28.418  33.524  1.00  0.00     0.034 A 
BRANCH  45  59
ATOM     59  C   UNL A   1      42.431  26.345  27.804  1.00  0.00     0.023 A 
ATOM     60  C   UNL A   1      41.912  25.048  27.648  1.00  0.00     0.031 A 
ATOM     61  C   UNL A   1      43.373  26.795  26.862  1.00  0.00     0.131 A 
ATOM     62  C   UNL A   1      42.391  24.223  26.618  1.00  0.00     0.055 A 
ATOM     63  C   UNL A   1      43.791  25.996  25.796  1.00  0.00     0.041 A 
ATOM     64  F   UNL A   1      43.923  28.016  26.975  1.00  0.00    -0.206 F 
ATOM     65  C   UNL A   1      43.310  24.696  25.678  1.00  0.00     0.022 A 
BRANCH  62  66
ATOM     66  S   UNL A   1      41.908  22.474  26.609  1.00  0.00     0.124 S 
ATOM     67  O   UNL A   1      42.544  21.986  27.830  1.00  0.00    -0.237 OA
ATOM     68  O   UNL A   1      40.452  22.550  26.632  1.00  0.00    -0.237 OA
ATOM     69  O   UNL A   1      42.486  21.965  25.367  1.00  0.00    -0.744 OA
ENDBRANCH  62  66
ENDBRANCH  45  59
BRANCH  46  70
ATOM     70  C   UNL A   1      39.325  32.244  35.312  1.00  0.00     0.023 A 
ATOM     71  C   UNL A   1      39.753  33.572  35.464  1.00  0.00     0.031 A 
ATOM     72  C   UNL A   1      38.468  31.711  36.292  1.00  0.00     0.131 A 
ATOM     73  C   UNL A   1      39.353  34.310  36.591  1.00  0.00     0.055 A 
ATOM     74  C   UNL A   1      38.031  32.465  37.383  1.00  0.00     0.041 A 
ATOM     75  F   UNL A   1      38.031  30.445  36.197  1.00  0.00    -0.206 F 
ATOM     76  C   UNL A   1      38.485  33.770  37.542  1.00  0.00     0.022 A 
BRANCH  73  77
ATOM     77  S   UNL A   1      40.050  35.966  36.839  1.00  0.00     0.124 S 
ATOM     78  O   UNL A   1      39.343  36.411  38.034  1.00  0.00    -0.237 OA
ATOM     79  O   UNL A   1      41.470  35.675  37.003  1.00  0.00    -0.237 OA
ATOM     80  O   UNL A   1      39.699  36.671  35.607  1.00  0.00    -0.744 OA
ENDBRANCH  73  77
ENDBRANCH  46  70
BRANCH  58  81
ATOM     81  C   UNL A   1      44.864  28.114  34.414  1.00  0.00     0.023 A 
ATOM     82  C   UNL A   1      44.827  27.071  35.354  1.00  0.00     0.031 A 
ATOM     83  C   UNL A   1      46.026  28.903  34.344  1.00  0.00     0.131 A 
ATOM     84  C   UNL A   1      45.905  26.883  36.233  1.00  0.00     0.055 A 
ATOM     85  C   UNL A   1      47.119  28.674  35.180  1.00  0.00     0.041 A 
ATOM     86  F   UNL A   1      46.113  29.914  33.465  1.00  0.00    -0.206 F 
ATOM     87  C   UNL A   1      47.056  27.669  36.142  1.00  0.00     0.022 A 
BRANCH  84  88
ATOM     88  S   UNL A   1      45.738  25.665  37.567  1.00  0.00     0.124 S 
ATOM     89  O   UNL A   1      44.373  25.187  37.373  1.00  0.00    -0.237 OA
ATOM     90  O   UNL A   1      46.797  24.712  37.253  1.00  0.00    -0.237 OA
ATOM     91  O   UNL A   1      45.952  26.453  38.779  1.00  0.00    -0.744 OA
ENDBRANCH  84  88
ENDBRANCH  58  81
ENDBRANCH  32  33
ENDBRANCH  25  27
ENDBRANCH  24  25
ENDBRANCH   1  24
TORSDOF 18
ENDMDL
MODEL 3
REMARK VINA RESULT:     -10.8      5.110      7.415
REMARK SMILES NC(=O)C[C@H](NC(=O)[C@@H]1CCC[NH2+]1)C(=O)OCCOC(=O)c1ccc(-c2c3nc(c(-c4cc(S(=O)(=O)[O-])ccc4F)c4ccc([nH]4)c(-c4cc(S(=O)(=O)[O-])ccc4F)c4nc(c(-c5cc(S(=O)(=O)[O-])ccc5F)c5ccc2[nH]5)C=C4)C=C3)cc1
REMARK SMILES IDX 18 1 17 2 16 3 14 4 15 5 5 6 4 7 2 8 1 9 3 12 6 13 7 14 8 16
REMARK SMILES IDX 9 17 10 18 13 19 11 20 12 21 19 24 20 25 21 26 22 27 23 28
REMARK SMILES IDX 84 29 24 30 83 31 25 32 26 33 27 34 77 35 28 36 82 37 76 38
REMARK SMILES IDX 78 39 29 40 81 41 75 42 74 43 30 45 62 46 42 47 61 48 43 49
REMARK SMILES IDX 46 50 60 51 79 52 44 53 45 54 59 56 80 57 47 58 31 59 32 60
REMARK SMILES IDX 40 61 33 62 39 63 41 64 38 65 34 66 35 67 36 68 37 69 63 70
REMARK SMILES IDX 64 71 72 72 65 73 71 74 73 75 70 76 66 77 67 78 68 79 69 80
REMARK SMILES IDX 48 81 49 82 57 83 50 84 56 85 58 86 55 87 51 88 52 89 53 90
REMARK SMILES IDX 54 91
REMARK H PARENT 1 10 1 11 6 15 13 22 13 23 78 44 46 55
REMARK Flexibility Score: inf
ROOT
ATOM      1  C   UNL A   1      36.246  20.457  25.007  1.00  0.00     0.275 C 
ENDROOT
BRANCH   1   2
ATOM      2  C   UNL A   1      34.756  20.820  24.976  1.00  0.00     0.274 C 
BRANCH   2   3
ATOM      3  O   UNL A   1      34.523  22.184  25.376  1.00  0.00    -0.461 OA
BRANCH   3   4
ATOM      4  C   UNL A   1      34.021  23.029  24.431  1.00  0.00     0.329 C 
ATOM      5  O   UNL A   1      34.466  23.137  23.293  1.00  0.00    -0.250 OA
BRANCH   4   6
ATOM      6  C   UNL A   1      32.834  23.872  24.956  1.00  0.00     0.201 C 
BRANCH   6   7
ATOM      7  C   UNL A   1      31.661  22.903  25.164  1.00  0.00     0.136 C 
BRANCH   7   8
ATOM      8  C   UNL A   1      30.996  23.052  26.524  1.00  0.00     0.220 C 
ATOM      9  N   UNL A   1      29.803  22.413  26.702  1.00  0.00    -0.370 N 
ATOM     10  H   UNL A   1      29.333  22.479  27.565  1.00  0.00     0.159 HD
ATOM     11  H   UNL A   1      29.413  21.886  25.968  1.00  0.00     0.159 HD
ATOM     12  O   UNL A   1      31.421  23.793  27.406  1.00  0.00    -0.275 OA
ENDBRANCH   7   8
ENDBRANCH   6   7
BRANCH   6  13
ATOM     13  N   UNL A   1      32.741  25.123  24.172  1.00  0.00    -0.337 N 
ATOM     14  C   UNL A   1      32.867  26.454  24.403  1.00  0.00     0.278 C 
ATOM     15  H   UNL A   1      32.530  24.941  23.228  1.00  0.00     0.164 HD
ATOM     16  O   UNL A   1      32.930  27.204  23.425  1.00  0.00    -0.268 OA
BRANCH  14  17
ATOM     17  C   UNL A   1      32.816  26.998  25.817  1.00  0.00     0.272 C 
ATOM     18  C   UNL A   1      31.426  27.148  26.410  1.00  0.00     0.081 C 
ATOM     19  N   UNL A   1      33.301  28.386  25.880  1.00  0.00    -0.336 N 
ATOM     20  C   UNL A   1      31.675  28.077  27.591  1.00  0.00     0.068 C 
ATOM     21  C   UNL A   1      32.955  28.826  27.236  1.00  0.00     0.261 C 
ATOM     22  H   UNL A   1      32.834  28.965  25.182  1.00  0.00     0.346 HD
ATOM     23  H   UNL A   1      34.300  28.459  25.689  1.00  0.00     0.346 HD
ENDBRANCH  14  17
ENDBRANCH   6  13
ENDBRANCH   4   6
ENDBRANCH   3   4
ENDBRANCH   2   3
ENDBRANCH   1   2
BRANCH   1  24
ATOM     24  O   UNL A   1      37.068  21.526  25.515  1.00  0.00    -0.458 OA
BRANCH  24  25
ATOM     25  C   UNL A   1      38.338  21.161  25.814  1.00  0.00     0.338 C 
ATOM     26  O   UNL A   1      38.882  20.112  25.506  1.00  0.00    -0.246 OA
BRANCH  25  27
ATOM     27  C   UNL A   1      39.084  22.297  26.388  1.00  0.00     0.060 A 
ATOM     28  C   UNL A   1      38.589  23.571  26.104  1.00  0.00     0.016 A 
ATOM     29  C   UNL A   1      40.269  22.153  27.112  1.00  0.00     0.016 A 
ATOM     30  C   UNL A   1      39.256  24.705  26.534  1.00  0.00     0.010 A 
ATOM     31  C   UNL A   1      40.955  23.301  27.538  1.00  0.00     0.010 A 
ATOM     32  C   UNL A   1      40.454  24.583  27.244  1.00  0.00    -0.014 A 
BRANCH  32  33
ATOM     33  C   UNL A   1      41.188  25.827  27.574  1.00  0.00     0.031 A 
ATOM     34  C   UNL A   1      40.527  26.875  28.423  1.00  0.00     0.074 A 
ATOM     35  C   UNL A   1      42.482  25.948  27.222  1.00  0.00     0.049 A 
ATOM     36  N   UNL A   1      40.998  28.021  28.839  1.00  0.00    -0.248 NA
ATOM     37  C   UNL A   1      39.154  26.590  28.864  1.00  0.00     0.031 C 
ATOM     38  C   UNL A   1      43.243  24.949  26.467  1.00  0.00     0.029 A 
ATOM     39  N   UNL A   1      43.391  26.942  27.474  1.00  0.00    -0.354 N 
ATOM     40  C   UNL A   1      39.976  28.606  29.578  1.00  0.00     0.074 A 
ATOM     41  C   UNL A   1      38.851  27.694  29.532  1.00  0.00     0.031 C 
ATOM     42  C   UNL A   1      44.510  25.375  26.335  1.00  0.00     0.029 A 
ATOM     43  C   UNL A   1      44.637  26.696  26.943  1.00  0.00     0.049 A 
ATOM     44  H   UNL A   1      43.174  27.755  27.985  1.00  0.00     0.167 HD
ATOM     45  C   UNL A   1      39.978  29.794  30.233  1.00  0.00     0.034 A 
ATOM     46  C   UNL A   1      45.745  27.463  26.928  1.00  0.00     0.034 A 
ATOM     47  C   UNL A   1      41.113  30.685  30.271  1.00  0.00     0.049 A 
ATOM     48  C   UNL A   1      45.700  28.810  27.602  1.00  0.00     0.074 A 
ATOM     49  C   UNL A   1      41.224  31.919  30.889  1.00  0.00     0.029 A 
ATOM     50  N   UNL A   1      42.339  30.439  29.660  1.00  0.00    -0.354 N 
ATOM     51  N   UNL A   1      44.710  29.373  28.257  1.00  0.00    -0.248 NA
ATOM     52  C   UNL A   1      46.920  29.623  27.534  1.00  0.00     0.031 C 
ATOM     53  C   UNL A   1      42.490  32.443  30.602  1.00  0.00     0.029 A 
ATOM     54  C   UNL A   1      43.199  31.508  29.864  1.00  0.00     0.049 A 
ATOM     55  H   UNL A   1      42.563  29.624  29.156  1.00  0.00     0.167 HD
ATOM     56  C   UNL A   1      45.195  30.604  28.691  1.00  0.00     0.074 A 
ATOM     57  C   UNL A   1      46.572  30.685  28.246  1.00  0.00     0.031 C 
ATOM     58  C   UNL A   1      44.562  31.580  29.391  1.00  0.00     0.034 A 
BRANCH  45  59
ATOM     59  C   UNL A   1      38.690  30.219  30.894  1.00  0.00     0.023 A 
ATOM     60  C   UNL A   1      37.673  30.886  30.189  1.00  0.00     0.031 A 
ATOM     61  C   UNL A   1      38.498  29.992  32.269  1.00  0.00     0.131 A 
ATOM     62  C   UNL A   1      36.544  31.362  30.875  1.00  0.00     0.055 A 
ATOM     63  C   UNL A   1      37.339  30.403  32.930  1.00  0.00     0.041 A 
ATOM     64  F   UNL A   1      39.447  29.383  33.000  1.00  0.00    -0.206 F 
ATOM     65  C   UNL A   1      36.360  31.105  32.235  1.00  0.00     0.022 A 
BRANCH  62  66
ATOM     66  S   UNL A   1      35.388  32.450  29.995  1.00  0.00     0.124 S 
ATOM     67  O   UNL A   1      34.978  31.603  28.878  1.00  0.00    -0.237 OA
ATOM     68  O   UNL A   1      34.371  32.712  31.007  1.00  0.00    -0.237 OA
ATOM     69  O   UNL A   1      36.212  33.600  29.627  1.00  0.00    -0.744 OA
ENDBRANCH  62  66
ENDBRANCH  45  59
BRANCH  46  70
ATOM     70  C   UNL A   1      46.966  27.010  26.203  1.00  0.00     0.023 A 
ATOM     71  C   UNL A   1      48.022  26.372  26.872  1.00  0.00     0.031 A 
ATOM     72  C   UNL A   1      47.112  27.256  24.825  1.00  0.00     0.131 A 
ATOM     73  C   UNL A   1      49.192  26.035  26.171  1.00  0.00     0.055 A 
ATOM     74  C   UNL A   1      48.255  26.872  24.122  1.00  0.00     0.041 A 
ATOM     75  F   UNL A   1      46.134  27.866  24.136  1.00  0.00    -0.206 F 
ATOM     76  C   UNL A   1      49.309  26.268  24.799  1.00  0.00     0.022 A 
BRANCH  73  77
ATOM     77  S   UNL A   1      50.597  25.357  27.096  1.00  0.00     0.124 S 
ATOM     78  O   UNL A   1      50.972  26.487  27.938  1.00  0.00    -0.237 OA
ATOM     79  O   UNL A   1      49.987  24.220  27.780  1.00  0.00    -0.237 OA
ATOM     80  O   UNL A   1      51.557  25.010  26.051  1.00  0.00    -0.744 OA
ENDBRANCH  73  77
ENDBRANCH  46  70
BRANCH  58  81
ATOM     81  C   UNL A   1      45.376  32.803  29.731  1.00  0.00     0.023 A 
ATOM     82  C   UNL A   1      45.372  33.943  28.908  1.00  0.00     0.031 A 
ATOM     83  C   UNL A   1      46.196  32.815  30.873  1.00  0.00     0.131 A 
ATOM     84  C   UNL A   1      46.219  35.021  29.203  1.00  0.00     0.055 A 
ATOM     85  C   UNL A   1      46.992  33.914  31.195  1.00  0.00     0.041 A 
ATOM     86  F   UNL A   1      46.239  31.751  31.693  1.00  0.00    -0.206 F 
ATOM     87  C   UNL A   1      47.019  35.020  30.348  1.00  0.00     0.022 A 
BRANCH  84  88
ATOM     88  S   UNL A   1      46.342  36.383  28.010  1.00  0.00     0.124 S 
ATOM     89  O   UNL A   1      47.780  36.626  27.974  1.00  0.00    -0.237 OA
ATOM     90  O   UNL A   1      45.763  35.796  26.806  1.00  0.00    -0.237 OA
ATOM     91  O   UNL A   1      45.549  37.447  28.623  1.00  0.00    -0.744 OA
ENDBRANCH  84  88
ENDBRANCH  58  81
ENDBRANCH  32  33
ENDBRANCH  25  27
ENDBRANCH  24  25
ENDBRANCH   1  24
TORSDOF 18
ENDMDL
