MODEL 1
REMARK VINA RESULT:     -10.6      0.000      0.000
REMARK SMILES C[C@@H](CC(=O)OCCOC(=O)c1ccc(-c2c3nc(c(-c4cc(S(=O)(=O)[O-])ccc4F)c4ccc([nH]4)c(-c4cc(S(=O)(=O)[O-])ccc4F)c4nc(c(-c5cc(S(=O)(=O)[O-])ccc5F)c5ccc2[nH]5)C=C4)C=C3)cc1)NC(=O)CN(C)c1ncccn1
REMARK SMILES IDX 7 1 6 2 4 3 5 4 3 5 2 6 1 7 75 8 76 9 77 11 78 12 79 13
REMARK SMILES IDX 80 14 81 15 82 16 86 17 83 18 85 19 84 20 8 21 9 22 10 23
REMARK SMILES IDX 11 24 12 25 13 26 74 27 14 28 73 29 15 30 16 31 17 32 67 33
REMARK SMILES IDX 18 34 72 35 66 36 68 37 19 38 71 39 65 40 64 41 20 43 52 44
REMARK SMILES IDX 32 45 51 46 33 47 36 48 50 49 69 50 34 51 35 52 49 54 70 55
REMARK SMILES IDX 37 56 21 57 22 58 30 59 23 60 29 61 31 62 28 63 24 64 25 65
REMARK SMILES IDX 26 66 27 67 53 68 54 69 62 70 55 71 61 72 63 73 60 74 56 75
REMARK SMILES IDX 57 76 58 77 59 78 38 79 39 80 47 81 40 82 46 83 48 84 45 85
REMARK SMILES IDX 41 86 42 87 43 88 44 89
REMARK H PARENT 75 10 68 42 36 53
REMARK Flexibility Score: inf
ROOT
ATOM      1  C   UNL A   1      35.892  20.665  25.122  1.00  0.00     0.274 C 
ENDROOT
BRANCH   1   2
ATOM      2  O   UNL A   1      35.849  22.105  25.199  1.00  0.00    -0.462 OA
BRANCH   2   3
ATOM      3  C   UNL A   1      34.615  22.661  25.261  1.00  0.00     0.307 C 
ATOM      4  O   UNL A   1      33.600  22.135  24.812  1.00  0.00    -0.252 OA
BRANCH   3   5
ATOM      5  C   UNL A   1      34.596  24.064  25.820  1.00  0.00     0.147 C 
BRANCH   5   6
ATOM      6  C   UNL A   1      33.766  25.155  25.135  1.00  0.00     0.090 C 
ATOM      7  C   UNL A   1      33.923  26.535  25.766  1.00  0.00     0.031 C 
BRANCH   6   8
ATOM      8  N   UNL A   1      32.360  24.809  25.003  1.00  0.00    -0.352 N 
ATOM      9  C   UNL A   1      31.491  24.996  23.961  1.00  0.00     0.239 C 
ATOM     10  H   UNL A   1      31.969  24.366  25.790  1.00  0.00     0.163 HD
ATOM     11  O   UNL A   1      30.352  24.533  24.078  1.00  0.00    -0.273 OA
BRANCH   9  12
ATOM     12  C   UNL A   1      31.957  25.620  22.640  1.00  0.00     0.219 C 
BRANCH  12  13
ATOM     13  N   UNL A   1      32.393  27.019  22.726  1.00  0.00    -0.335 N 
ATOM     14  C   UNL A   1      33.573  27.427  21.996  1.00  0.00     0.147 C 
BRANCH  13  15
ATOM     15  C   UNL A   1      31.419  27.977  22.946  1.00  0.00     0.225 A 
ATOM     16  N   UNL A   1      31.477  28.726  24.062  1.00  0.00    -0.221 NA
ATOM     17  N   UNL A   1      30.438  28.116  22.046  1.00  0.00    -0.221 NA
ATOM     18  C   UNL A   1      30.528  29.669  24.230  1.00  0.00     0.117 A 
ATOM     19  C   UNL A   1      29.502  29.059  22.255  1.00  0.00     0.117 A 
ATOM     20  C   UNL A   1      29.501  29.882  23.348  1.00  0.00     0.040 A 
ENDBRANCH  13  15
ENDBRANCH  12  13
ENDBRANCH   9  12
ENDBRANCH   6   8
ENDBRANCH   5   6
ENDBRANCH   3   5
ENDBRANCH   2   3
ENDBRANCH   1   2
BRANCH   1  21
ATOM     21  C   UNL A   1      37.318  20.110  25.049  1.00  0.00     0.275 C 
BRANCH  21  22
ATOM     22  O   UNL A   1      38.313  21.150  25.066  1.00  0.00    -0.458 OA
BRANCH  22  23
ATOM     23  C   UNL A   1      39.280  20.960  25.995  1.00  0.00     0.338 C 
ATOM     24  O   UNL A   1      39.836  19.903  26.238  1.00  0.00    -0.246 OA
BRANCH  23  25
ATOM     25  C   UNL A   1      39.694  22.239  26.595  1.00  0.00     0.060 A 
ATOM     26  C   UNL A   1      39.070  23.406  26.148  1.00  0.00     0.016 A 
ATOM     27  C   UNL A   1      40.777  22.307  27.472  1.00  0.00     0.016 A 
ATOM     28  C   UNL A   1      39.556  24.651  26.534  1.00  0.00     0.010 A 
ATOM     29  C   UNL A   1      41.253  23.561  27.876  1.00  0.00     0.010 A 
ATOM     30  C   UNL A   1      40.664  24.740  27.385  1.00  0.00    -0.014 A 
BRANCH  30  31
ATOM     31  C   UNL A   1      41.254  26.073  27.673  1.00  0.00     0.031 A 
ATOM     32  C   UNL A   1      42.605  26.425  27.111  1.00  0.00     0.074 A 
ATOM     33  C   UNL A   1      40.564  26.976  28.394  1.00  0.00     0.049 A 
ATOM     34  N   UNL A   1      43.326  27.501  27.299  1.00  0.00    -0.248 NA
ATOM     35  C   UNL A   1      43.225  25.429  26.227  1.00  0.00     0.031 C 
ATOM     36  C   UNL A   1      39.225  26.767  28.949  1.00  0.00     0.029 A 
ATOM     37  N   UNL A   1      40.890  28.252  28.780  1.00  0.00    -0.354 N 
ATOM     38  C   UNL A   1      44.500  27.302  26.579  1.00  0.00     0.074 A 
ATOM     39  C   UNL A   1      44.398  25.991  25.972  1.00  0.00     0.031 C 
ATOM     40  C   UNL A   1      38.843  27.879  29.599  1.00  0.00     0.029 A 
ATOM     41  C   UNL A   1      39.923  28.860  29.545  1.00  0.00     0.049 A 
ATOM     42  H   UNL A   1      41.736  28.690  28.532  1.00  0.00     0.167 HD
ATOM     43  C   UNL A   1      45.561  28.136  26.439  1.00  0.00     0.034 A 
ATOM     44  C   UNL A   1      39.919  30.063  30.153  1.00  0.00     0.034 A 
ATOM     45  C   UNL A   1      45.638  29.448  27.038  1.00  0.00     0.049 A 
ATOM     46  C   UNL A   1      41.117  30.964  30.001  1.00  0.00     0.074 A 
ATOM     47  C   UNL A   1      46.669  30.372  26.969  1.00  0.00     0.029 A 
ATOM     48  N   UNL A   1      44.641  30.029  27.814  1.00  0.00    -0.354 N 
ATOM     49  N   UNL A   1      42.238  30.747  29.352  1.00  0.00    -0.248 NA
ATOM     50  C   UNL A   1      41.044  32.277  30.655  1.00  0.00     0.031 C 
ATOM     51  C   UNL A   1      46.315  31.487  27.739  1.00  0.00     0.029 A 
ATOM     52  C   UNL A   1      45.038  31.289  28.237  1.00  0.00     0.049 A 
ATOM     53  H   UNL A   1      43.779  29.607  28.031  1.00  0.00     0.167 HD
ATOM     54  C   UNL A   1      42.992  31.908  29.499  1.00  0.00     0.074 A 
ATOM     55  C   UNL A   1      42.192  32.826  30.285  1.00  0.00     0.031 C 
ATOM     56  C   UNL A   1      44.232  32.192  29.025  1.00  0.00     0.034 A 
BRANCH  43  57
ATOM     57  C   UNL A   1      46.745  27.620  25.658  1.00  0.00     0.023 A 
ATOM     58  C   UNL A   1      46.993  28.008  24.329  1.00  0.00     0.031 A 
ATOM     59  C   UNL A   1      47.624  26.692  26.248  1.00  0.00     0.131 A 
ATOM     60  C   UNL A   1      48.050  27.423  23.615  1.00  0.00     0.055 A 
ATOM     61  C   UNL A   1      48.716  26.168  25.554  1.00  0.00     0.041 A 
ATOM     62  F   UNL A   1      47.428  26.271  27.506  1.00  0.00    -0.206 F 
ATOM     63  C   UNL A   1      48.926  26.521  24.225  1.00  0.00     0.022 A 
BRANCH  60  64
ATOM     64  S   UNL A   1      48.200  27.763  21.838  1.00  0.00     0.124 S 
ATOM     65  O   UNL A   1      48.487  26.433  21.306  1.00  0.00    -0.237 OA
ATOM     66  O   UNL A   1      46.892  28.315  21.509  1.00  0.00    -0.237 OA
ATOM     67  O   UNL A   1      49.312  28.709  21.762  1.00  0.00    -0.744 OA
ENDBRANCH  60  64
ENDBRANCH  43  57
BRANCH  44  68
ATOM     68  C   UNL A   1      38.761  30.477  30.993  1.00  0.00     0.023 A 
ATOM     69  C   UNL A   1      37.667  31.161  30.439  1.00  0.00     0.031 A 
ATOM     70  C   UNL A   1      38.757  30.234  32.379  1.00  0.00     0.131 A 
ATOM     71  C   UNL A   1      36.634  31.615  31.274  1.00  0.00     0.055 A 
ATOM     72  C   UNL A   1      37.705  30.647  33.197  1.00  0.00     0.041 A 
ATOM     73  F   UNL A   1      39.778  29.583  32.956  1.00  0.00    -0.206 F 
ATOM     74  C   UNL A   1      36.640  31.354  32.646  1.00  0.00     0.022 A 
BRANCH  71  75
ATOM     75  S   UNL A   1      35.312  32.625  30.549  1.00  0.00     0.124 S 
ATOM     76  O   UNL A   1      34.982  31.867  29.348  1.00  0.00    -0.237 OA
ATOM     77  O   UNL A   1      34.309  32.617  31.609  1.00  0.00    -0.237 OA
ATOM     78  O   UNL A   1      35.957  33.915  30.315  1.00  0.00    -0.744 OA
ENDBRANCH  71  75
ENDBRANCH  44  68
BRANCH  56  79
ATOM     79  C   UNL A   1      44.765  33.575  29.304  1.00  0.00     0.023 A 
ATOM     80  C   UNL A   1      44.583  34.637  28.400  1.00  0.00     0.031 A 
ATOM     81  C   UNL A   1      45.498  33.823  30.478  1.00  0.00     0.131 A 
ATOM     82  C   UNL A   1      45.178  35.882  28.656  1.00  0.00     0.055 A 
ATOM     83  C   UNL A   1      46.044  35.077  30.753  1.00  0.00     0.041 A 
ATOM     84  F   UNL A   1      45.704  32.843  31.374  1.00  0.00    -0.206 F 
ATOM     85  C   UNL A   1      45.898  36.112  29.833  1.00  0.00     0.022 A 
BRANCH  82  86
ATOM     86  S   UNL A   1      45.088  37.172  27.385  1.00  0.00     0.124 S 
ATOM     87  O   UNL A   1      46.101  36.733  26.431  1.00  0.00    -0.237 OA
ATOM     88  O   UNL A   1      43.703  37.070  26.936  1.00  0.00    -0.237 OA
ATOM     89  O   UNL A   1      45.414  38.397  28.114  1.00  0.00    -0.744 OA
ENDBRANCH  82  86
ENDBRANCH  56  79
ENDBRANCH  30  31
ENDBRANCH  23  25
ENDBRANCH  22  23
ENDBRANCH  21  22
ENDBRANCH   1  21
TORSDOF 19
ENDMDL
MODEL 2
REMARK VINA RESULT:     -10.5      4.992     10.252
REMARK SMILES C[C@@H](CC(=O)OCCOC(=O)c1ccc(-c2c3nc(c(-c4cc(S(=O)(=O)[O-])ccc4F)c4ccc([nH]4)c(-c4cc(S(=O)(=O)[O-])ccc4F)c4nc(c(-c5cc(S(=O)(=O)[O-])ccc5F)c5ccc2[nH]5)C=C4)C=C3)cc1)NC(=O)CN(C)c1ncccn1
REMARK SMILES IDX 7 1 6 2 4 3 5 4 3 5 2 6 1 7 75 8 76 9 77 11 78 12 79 13
REMARK SMILES IDX 80 14 81 15 82 16 86 17 83 18 85 19 84 20 8 21 9 22 10 23
REMARK SMILES IDX 11 24 12 25 13 26 74 27 14 28 73 29 15 30 16 31 17 32 67 33
REMARK SMILES IDX 18 34 72 35 66 36 68 37 19 38 71 39 65 40 64 41 20 43 52 44
REMARK SMILES IDX 32 45 51 46 33 47 36 48 50 49 69 50 34 51 35 52 49 54 70 55
REMARK SMILES IDX 37 56 21 57 22 58 30 59 23 60 29 61 31 62 28 63 24 64 25 65
REMARK SMILES IDX 26 66 27 67 53 68 54 69 62 70 55 71 61 72 63 73 60 74 56 75
REMARK SMILES IDX 57 76 58 77 59 78 38 79 39 80 47 81 40 82 46 83 48 84 45 85
REMARK SMILES IDX 41 86 42 87 43 88 44 89
REMARK H PARENT 75 10 68 42 36 53
REMARK Flexibility Score: inf
ROOT
ATOM      1  C   UNL A   1      31.659  29.627  25.190  1.00  0.00     0.274 C 
ENDROOT
BRANCH   1   2
ATOM      2  O   UNL A   1      33.008  29.177  24.944  1.00  0.00    -0.462 OA
BRANCH   2   3
ATOM      3  C   UNL A   1      33.187  27.835  24.892  1.00  0.00     0.307 C 
ATOM      4  O   UNL A   1      33.880  27.265  24.055  1.00  0.00    -0.252 OA
BRANCH   3   5
ATOM      5  C   UNL A   1      32.350  27.062  25.884  1.00  0.00     0.147 C 
BRANCH   5   6
ATOM      6  C   UNL A   1      31.488  25.885  25.413  1.00  0.00     0.090 C 
ATOM      7  C   UNL A   1      30.316  26.297  24.529  1.00  0.00     0.031 C 
BRANCH   6   8
ATOM      8  N   UNL A   1      31.037  25.032  26.500  1.00  0.00    -0.352 N 
ATOM      9  C   UNL A   1      30.787  23.686  26.531  1.00  0.00     0.239 C 
ATOM     10  H   UNL A   1      30.888  25.498  27.354  1.00  0.00     0.163 HD
ATOM     11  O   UNL A   1      30.482  23.188  27.619  1.00  0.00    -0.273 OA
BRANCH   9  12
ATOM     12  C   UNL A   1      31.026  22.806  25.300  1.00  0.00     0.219 C 
BRANCH  12  13
ATOM     13  N   UNL A   1      32.249  21.995  25.335  1.00  0.00    -0.335 N 
ATOM     14  C   UNL A   1      32.191  20.628  24.866  1.00  0.00     0.147 C 
BRANCH  13  15
ATOM     15  C   UNL A   1      33.457  22.657  25.212  1.00  0.00     0.225 A 
ATOM     16  N   UNL A   1      33.787  23.206  24.028  1.00  0.00    -0.221 NA
ATOM     17  N   UNL A   1      34.270  22.716  26.273  1.00  0.00    -0.221 NA
ATOM     18  C   UNL A   1      34.958  23.867  23.952  1.00  0.00     0.117 A 
ATOM     19  C   UNL A   1      35.437  23.374  26.154  1.00  0.00     0.117 A 
ATOM     20  C   UNL A   1      35.837  23.984  24.998  1.00  0.00     0.040 A 
ENDBRANCH  13  15
ENDBRANCH  12  13
ENDBRANCH   9  12
ENDBRANCH   6   8
ENDBRANCH   5   6
ENDBRANCH   3   5
ENDBRANCH   2   3
ENDBRANCH   1   2
BRANCH   1  21
ATOM     21  C   UNL A   1      31.596  30.879  26.070  1.00  0.00     0.275 C 
BRANCH  21  22
ATOM     22  O   UNL A   1      32.430  30.772  27.239  1.00  0.00    -0.458 OA
BRANCH  22  23
ATOM     23  C   UNL A   1      33.276  31.817  27.398  1.00  0.00     0.338 C 
ATOM     24  O   UNL A   1      32.974  32.996  27.326  1.00  0.00    -0.246 OA
BRANCH  23  25
ATOM     25  C   UNL A   1      34.609  31.356  27.821  1.00  0.00     0.060 A 
ATOM     26  C   UNL A   1      34.769  30.003  28.127  1.00  0.00     0.016 A 
ATOM     27  C   UNL A   1      35.644  32.263  28.056  1.00  0.00     0.016 A 
ATOM     28  C   UNL A   1      35.946  29.554  28.716  1.00  0.00     0.010 A 
ATOM     29  C   UNL A   1      36.836  31.805  28.631  1.00  0.00     0.010 A 
ATOM     30  C   UNL A   1      36.982  30.453  28.992  1.00  0.00    -0.014 A 
BRANCH  30  31
ATOM     31  C   UNL A   1      38.172  29.983  29.747  1.00  0.00     0.031 A 
ATOM     32  C   UNL A   1      38.402  30.471  31.152  1.00  0.00     0.074 A 
ATOM     33  C   UNL A   1      39.014  29.090  29.194  1.00  0.00     0.049 A 
ATOM     34  N   UNL A   1      39.409  30.240  31.956  1.00  0.00    -0.248 NA
ATOM     35  C   UNL A   1      37.362  31.340  31.721  1.00  0.00     0.031 C 
ATOM     36  C   UNL A   1      38.867  28.507  27.859  1.00  0.00     0.029 A 
ATOM     37  N   UNL A   1      40.157  28.513  29.687  1.00  0.00    -0.354 N 
ATOM     38  C   UNL A   1      39.140  30.957  33.117  1.00  0.00     0.074 A 
ATOM     39  C   UNL A   1      37.885  31.647  32.900  1.00  0.00     0.031 C 
ATOM     40  C   UNL A   1      39.880  27.651  27.643  1.00  0.00     0.029 A 
ATOM     41  C   UNL A   1      40.768  27.656  28.802  1.00  0.00     0.049 A 
ATOM     42  H   UNL A   1      40.506  28.694  30.590  1.00  0.00     0.167 HD
ATOM     43  C   UNL A   1      39.872  31.030  34.258  1.00  0.00     0.034 A 
ATOM     44  C   UNL A   1      41.925  26.973  28.904  1.00  0.00     0.034 A 
ATOM     45  C   UNL A   1      41.113  30.321  34.465  1.00  0.00     0.049 A 
ATOM     46  C   UNL A   1      42.732  27.087  30.171  1.00  0.00     0.074 A 
ATOM     47  C   UNL A   1      41.940  30.331  35.576  1.00  0.00     0.029 A 
ATOM     48  N   UNL A   1      41.706  29.468  33.541  1.00  0.00    -0.354 N 
ATOM     49  N   UNL A   1      42.488  27.800  31.247  1.00  0.00    -0.248 NA
ATOM     50  C   UNL A   1      43.966  26.294  30.243  1.00  0.00     0.031 C 
ATOM     51  C   UNL A   1      43.053  29.524  35.306  1.00  0.00     0.029 A 
ATOM     52  C   UNL A   1      42.890  28.958  34.053  1.00  0.00     0.049 A 
ATOM     53  H   UNL A   1      41.338  29.257  32.653  1.00  0.00     0.167 HD
ATOM     54  C   UNL A   1      43.525  27.520  32.131  1.00  0.00     0.074 A 
ATOM     55  C   UNL A   1      44.388  26.562  31.470  1.00  0.00     0.031 C 
ATOM     56  C   UNL A   1      43.744  28.007  33.379  1.00  0.00     0.034 A 
BRANCH  43  57
ATOM     57  C   UNL A   1      39.374  31.960  35.338  1.00  0.00     0.023 A 
ATOM     58  C   UNL A   1      39.783  33.303  35.416  1.00  0.00     0.031 A 
ATOM     59  C   UNL A   1      38.497  31.480  36.328  1.00  0.00     0.131 A 
ATOM     60  C   UNL A   1      39.370  34.099  36.496  1.00  0.00     0.055 A 
ATOM     61  C   UNL A   1      38.032  32.298  37.360  1.00  0.00     0.041 A 
ATOM     62  F   UNL A   1      38.087  30.203  36.315  1.00  0.00    -0.206 F 
ATOM     63  C   UNL A   1      38.480  33.611  37.457  1.00  0.00     0.022 A 
BRANCH  60  64
ATOM     64  S   UNL A   1      40.100  35.748  36.700  1.00  0.00     0.124 S 
ATOM     65  O   UNL A   1      41.525  35.434  36.767  1.00  0.00    -0.237 OA
ATOM     66  O   UNL A   1      39.655  36.444  35.498  1.00  0.00    -0.237 OA
ATOM     67  O   UNL A   1      39.517  36.230  37.950  1.00  0.00    -0.744 OA
ENDBRANCH  60  64
ENDBRANCH  43  57
BRANCH  44  68
ATOM     68  C   UNL A   1      42.416  26.148  27.765  1.00  0.00     0.023 A 
ATOM     69  C   UNL A   1      41.988  24.823  27.588  1.00  0.00     0.031 A 
ATOM     70  C   UNL A   1      43.361  26.665  26.860  1.00  0.00     0.131 A 
ATOM     71  C   UNL A   1      42.537  24.045  26.557  1.00  0.00     0.055 A 
ATOM     72  C   UNL A   1      43.868  25.902  25.808  1.00  0.00     0.041 A 
ATOM     73  F   UNL A   1      43.800  27.927  26.984  1.00  0.00    -0.206 F 
ATOM     74  C   UNL A   1      43.465  24.578  25.660  1.00  0.00     0.022 A 
BRANCH  71  75
ATOM     75  S   UNL A   1      42.075  22.293  26.450  1.00  0.00     0.124 S 
ATOM     76  O   UNL A   1      42.936  21.823  25.371  1.00  0.00    -0.237 OA
ATOM     77  O   UNL A   1      42.401  21.812  27.788  1.00  0.00    -0.237 OA
ATOM     78  O   UNL A   1      40.648  22.336  26.137  1.00  0.00    -0.744 OA
ENDBRANCH  71  75
ENDBRANCH  44  68
BRANCH  56  79
ATOM     79  C   UNL A   1      44.938  27.461  34.122  1.00  0.00     0.023 A 
ATOM     80  C   UNL A   1      44.843  26.328  34.950  1.00  0.00     0.031 A 
ATOM     81  C   UNL A   1      46.182  28.109  34.026  1.00  0.00     0.131 A 
ATOM     82  C   UNL A   1      45.958  25.913  35.695  1.00  0.00     0.055 A 
ATOM     83  C   UNL A   1      47.301  27.661  34.729  1.00  0.00     0.041 A 
ATOM     84  F   UNL A   1      46.328  29.197  33.251  1.00  0.00    -0.206 F 
ATOM     85  C   UNL A   1      47.189  26.566  35.581  1.00  0.00     0.022 A 
BRANCH  82  86
ATOM     86  S   UNL A   1      45.753  24.570  36.897  1.00  0.00     0.124 S 
ATOM     87  O   UNL A   1      45.905  23.384  36.059  1.00  0.00    -0.237 OA
ATOM     88  O   UNL A   1      46.837  24.828  37.839  1.00  0.00    -0.237 OA
ATOM     89  O   UNL A   1      44.408  24.784  37.427  1.00  0.00    -0.744 OA
ENDBRANCH  82  86
ENDBRANCH  56  79
ENDBRANCH  30  31
ENDBRANCH  23  25
ENDBRANCH  22  23
ENDBRANCH  21  22
ENDBRANCH   1  21
TORSDOF 19
ENDMDL
MODEL 3
REMARK VINA RESULT:     -10.5      1.807      2.350
REMARK SMILES C[C@@H](CC(=O)OCCOC(=O)c1ccc(-c2c3nc(c(-c4cc(S(=O)(=O)[O-])ccc4F)c4ccc([nH]4)c(-c4cc(S(=O)(=O)[O-])ccc4F)c4nc(c(-c5cc(S(=O)(=O)[O-])ccc5F)c5ccc2[nH]5)C=C4)C=C3)cc1)NC(=O)CN(C)c1ncccn1
REMARK SMILES IDX 7 1 6 2 4 3 5 4 3 5 2 6 1 7 75 8 76 9 77 11 78 12 79 13
REMARK SMILES IDX 80 14 81 15 82 16 86 17 83 18 85 19 84 20 8 21 9 22 10 23
REMARK SMILES IDX 11 24 12 25 13 26 74 27 14 28 73 29 15 30 16 31 17 32 67 33
REMARK SMILES IDX 18 34 72 35 66 36 68 37 19 38 71 39 65 40 64 41 20 43 52 44
REMARK SMILES IDX 32 45 51 46 33 47 36 48 50 49 69 50 34 51 35 52 49 54 70 55
REMARK SMILES IDX 37 56 21 57 22 58 30 59 23 60 29 61 31 62 28 63 24 64 25 65
REMARK SMILES IDX 26 66 27 67 53 68 54 69 62 70 55 71 61 72 63 73 60 74 56 75
REMARK SMILES IDX 57 76 58 77 59 78 38 79 39 80 47 81 40 82 46 83 48 84 45 85
REMARK SMILES IDX 41 86 42 87 43 88 44 89
REMARK H PARENT 75 10 68 42 36 53
REMARK Flexibility Score: inf
ROOT
ATOM      1  C   UNL A   1      36.892  21.799  23.890  1.00  0.00     0.274 C 
ENDROOT
BRANCH   1   2
ATOM      2  O   UNL A   1      35.524  22.058  24.268  1.00  0.00    -0.462 OA
BRANCH   2   3
ATOM      3  C   UNL A   1      34.834  22.902  23.462  1.00  0.00     0.307 C 
ATOM      4  O   UNL A   1      35.346  23.819  22.827  1.00  0.00    -0.252 OA
BRANCH   3   5
ATOM      5  C   UNL A   1      33.337  22.709  23.503  1.00  0.00     0.147 C 
BRANCH   5   6
ATOM      6  C   UNL A   1      32.400  23.873  23.162  1.00  0.00     0.090 C 
ATOM      7  C   UNL A   1      30.949  23.634  23.565  1.00  0.00     0.031 C 
BRANCH   6   8
ATOM      8  N   UNL A   1      32.485  24.290  21.772  1.00  0.00    -0.352 N 
ATOM      9  C   UNL A   1      32.845  25.491  21.222  1.00  0.00     0.239 C 
ATOM     10  H   UNL A   1      32.246  23.594  21.118  1.00  0.00     0.163 HD
ATOM     11  O   UNL A   1      32.907  25.559  19.991  1.00  0.00    -0.273 OA
BRANCH   9  12
ATOM     12  C   UNL A   1      33.301  26.661  22.101  1.00  0.00     0.219 C 
BRANCH  12  13
ATOM     13  N   UNL A   1      32.228  27.370  22.809  1.00  0.00    -0.335 N 
ATOM     14  C   UNL A   1      30.881  27.291  22.289  1.00  0.00     0.147 C 
BRANCH  13  15
ATOM     15  C   UNL A   1      32.373  27.547  24.173  1.00  0.00     0.225 A 
ATOM     16  N   UNL A   1      33.340  26.875  24.823  1.00  0.00    -0.221 NA
ATOM     17  N   UNL A   1      31.531  28.371  24.809  1.00  0.00    -0.221 NA
ATOM     18  C   UNL A   1      33.470  27.092  26.146  1.00  0.00     0.117 A 
ATOM     19  C   UNL A   1      31.684  28.552  26.132  1.00  0.00     0.117 A 
ATOM     20  C   UNL A   1      32.657  27.931  26.864  1.00  0.00     0.040 A 
ENDBRANCH  13  15
ENDBRANCH  12  13
ENDBRANCH   9  12
ENDBRANCH   6   8
ENDBRANCH   5   6
ENDBRANCH   3   5
ENDBRANCH   2   3
ENDBRANCH   1   2
BRANCH   1  21
ATOM     21  C   UNL A   1      37.490  20.581  24.601  1.00  0.00     0.275 C 
BRANCH  21  22
ATOM     22  O   UNL A   1      37.868  20.869  25.960  1.00  0.00    -0.458 OA
BRANCH  22  23
ATOM     23  C   UNL A   1      39.206  20.852  26.166  1.00  0.00     0.338 C 
ATOM     24  O   UNL A   1      39.974  19.983  25.789  1.00  0.00    -0.246 OA
BRANCH  23  25
ATOM     25  C   UNL A   1      39.660  22.106  26.789  1.00  0.00     0.060 A 
ATOM     26  C   UNL A   1      39.055  23.298  26.382  1.00  0.00     0.016 A 
ATOM     27  C   UNL A   1      40.761  22.128  27.646  1.00  0.00     0.016 A 
ATOM     28  C   UNL A   1      39.577  24.521  26.789  1.00  0.00     0.010 A 
ATOM     29  C   UNL A   1      41.272  23.360  28.071  1.00  0.00     0.010 A 
ATOM     30  C   UNL A   1      40.701  24.565  27.620  1.00  0.00    -0.014 A 
BRANCH  30  31
ATOM     31  C   UNL A   1      41.327  25.876  27.930  1.00  0.00     0.031 A 
ATOM     32  C   UNL A   1      42.710  26.179  27.421  1.00  0.00     0.074 A 
ATOM     33  C   UNL A   1      40.642  26.805  28.622  1.00  0.00     0.049 A 
ATOM     34  N   UNL A   1      43.462  27.229  27.636  1.00  0.00    -0.248 NA
ATOM     35  C   UNL A   1      43.329  25.158  26.564  1.00  0.00     0.031 C 
ATOM     36  C   UNL A   1      39.275  26.645  29.124  1.00  0.00     0.029 A 
ATOM     37  N   UNL A   1      40.998  28.070  29.019  1.00  0.00    -0.354 N 
ATOM     38  C   UNL A   1      44.655  26.986  26.963  1.00  0.00     0.074 A 
ATOM     39  C   UNL A   1      44.530  25.678  26.353  1.00  0.00     0.031 C 
ATOM     40  C   UNL A   1      38.908  27.772  29.758  1.00  0.00     0.029 A 
ATOM     41  C   UNL A   1      40.024  28.714  29.745  1.00  0.00     0.049 A 
ATOM     42  H   UNL A   1      41.868  28.477  28.804  1.00  0.00     0.167 HD
ATOM     43  C   UNL A   1      45.750  27.782  26.863  1.00  0.00     0.034 A 
ATOM     44  C   UNL A   1      40.039  29.918  30.351  1.00  0.00     0.034 A 
ATOM     45  C   UNL A   1      45.850  29.092  27.463  1.00  0.00     0.049 A 
ATOM     46  C   UNL A   1      41.273  30.776  30.245  1.00  0.00     0.074 A 
ATOM     47  C   UNL A   1      46.915  29.978  27.433  1.00  0.00     0.029 A 
ATOM     48  N   UNL A   1      44.845  29.710  28.198  1.00  0.00    -0.354 N 
ATOM     49  N   UNL A   1      42.410  30.517  29.640  1.00  0.00    -0.248 NA
ATOM     50  C   UNL A   1      41.222  32.092  30.893  1.00  0.00     0.031 C 
ATOM     51  C   UNL A   1      46.572  31.107  28.188  1.00  0.00     0.029 A 
ATOM     52  C   UNL A   1      45.270  30.956  28.635  1.00  0.00     0.049 A 
ATOM     53  H   UNL A   1      43.961  29.319  28.382  1.00  0.00     0.167 HD
ATOM     54  C   UNL A   1      43.199  31.651  29.815  1.00  0.00     0.074 A 
ATOM     55  C   UNL A   1      42.402  32.599  30.568  1.00  0.00     0.031 C 
ATOM     56  C   UNL A   1      44.466  31.889  29.390  1.00  0.00     0.034 A 
BRANCH  43  57
ATOM     57  C   UNL A   1      46.945  27.221  26.130  1.00  0.00     0.023 A 
ATOM     58  C   UNL A   1      47.990  26.559  26.799  1.00  0.00     0.031 A 
ATOM     59  C   UNL A   1      47.053  27.384  24.737  1.00  0.00     0.131 A 
ATOM     60  C   UNL A   1      49.126  26.145  26.085  1.00  0.00     0.055 A 
ATOM     61  C   UNL A   1      48.153  26.905  24.022  1.00  0.00     0.041 A 
ATOM     62  F   UNL A   1      46.095  28.023  24.048  1.00  0.00    -0.206 F 
ATOM     63  C   UNL A   1      49.204  26.294  24.698  1.00  0.00     0.022 A 
BRANCH  60  64
ATOM     64  S   UNL A   1      50.556  25.512  27.005  1.00  0.00     0.124 S 
ATOM     65  O   UNL A   1      51.485  25.191  25.924  1.00  0.00    -0.237 OA
ATOM     66  O   UNL A   1      50.919  26.646  27.847  1.00  0.00    -0.237 OA
ATOM     67  O   UNL A   1      50.020  24.354  27.719  1.00  0.00    -0.744 OA
ENDBRANCH  60  64
ENDBRANCH  43  57
BRANCH  44  68
ATOM     68  C   UNL A   1      38.864  30.376  31.144  1.00  0.00     0.023 A 
ATOM     69  C   UNL A   1      37.795  31.053  30.537  1.00  0.00     0.031 A 
ATOM     70  C   UNL A   1      38.820  30.181  32.537  1.00  0.00     0.131 A 
ATOM     71  C   UNL A   1      36.746  31.549  31.327  1.00  0.00     0.055 A 
ATOM     72  C   UNL A   1      37.752  30.635  33.310  1.00  0.00     0.041 A 
ATOM     73  F   UNL A   1      39.817  29.537  33.164  1.00  0.00    -0.206 F 
ATOM     74  C   UNL A   1      36.711  31.335  32.707  1.00  0.00     0.022 A 
BRANCH  71  75
ATOM     75  S   UNL A   1      35.458  32.549  30.532  1.00  0.00     0.124 S 
ATOM     76  O   UNL A   1      36.153  33.812  30.310  1.00  0.00    -0.237 OA
ATOM     77  O   UNL A   1      35.157  31.764  29.340  1.00  0.00    -0.237 OA
ATOM     78  O   UNL A   1      34.392  32.591  31.532  1.00  0.00    -0.744 OA
ENDBRANCH  71  75
ENDBRANCH  44  68
BRANCH  56  79
ATOM     79  C   UNL A   1      45.037  33.253  29.687  1.00  0.00     0.023 A 
ATOM     80  C   UNL A   1      44.811  34.354  28.841  1.00  0.00     0.031 A 
ATOM     81  C   UNL A   1      45.849  33.443  30.819  1.00  0.00     0.131 A 
ATOM     82  C   UNL A   1      45.441  35.580  29.107  1.00  0.00     0.055 A 
ATOM     83  C   UNL A   1      46.430  34.678  31.107  1.00  0.00     0.041 A 
ATOM     84  F   UNL A   1      46.099  32.426  31.660  1.00  0.00    -0.206 F 
ATOM     85  C   UNL A   1      46.240  35.752  30.241  1.00  0.00     0.022 A 
BRANCH  82  86
ATOM     86  S   UNL A   1      45.286  36.921  27.896  1.00  0.00     0.124 S 
ATOM     87  O   UNL A   1      44.401  37.855  28.586  1.00  0.00    -0.237 OA
ATOM     88  O   UNL A   1      46.669  37.355  27.735  1.00  0.00    -0.237 OA
ATOM     89  O   UNL A   1      44.703  36.264  26.727  1.00  0.00    -0.744 OA
ENDBRANCH  82  86
ENDBRANCH  56  79
ENDBRANCH  30  31
ENDBRANCH  23  25
ENDBRANCH  22  23
ENDBRANCH  21  22
ENDBRANCH   1  21
TORSDOF 19
ENDMDL
