MODEL 1
REMARK VINA RESULT:     -11.2      0.000      0.000
REMARK SMILES CCCCn1cc(C(N)=O)c2cc(C(=O)OCCOC(=O)c3ccc(-c4c5nc(c(-c6cc(S(=O)(=O)[O-])ccc6F)c6ccc([nH]6)c(-c6cc(S(=O)(=O)[O-])ccc6F)c6nc(c(-c7cc(S(=O)(=O)[O-])ccc7F)c7ccc4[nH]7)C=C6)C=C5)cc3)cnc21
REMARK SMILES IDX 17 1 16 2 14 3 15 4 13 5 5 6 6 7 87 8 7 9 11 10 86 11 12 12
REMARK SMILES IDX 85 13 4 14 3 15 2 16 1 17 8 18 9 19 10 20 18 23 19 24 20 25
REMARK SMILES IDX 21 26 22 27 23 28 84 29 24 30 83 31 25 32 26 33 27 34 77 35
REMARK SMILES IDX 28 36 82 37 76 38 78 39 29 40 81 41 75 42 74 43 30 45 62 46
REMARK SMILES IDX 42 47 61 48 43 49 46 50 60 51 79 52 44 53 45 54 59 56 80 57
REMARK SMILES IDX 47 58 31 59 32 60 40 61 33 62 39 63 41 64 38 65 34 66 35 67
REMARK SMILES IDX 36 68 37 69 63 70 64 71 72 72 65 73 71 74 73 75 70 76 66 77
REMARK SMILES IDX 67 78 68 79 69 80 48 81 49 82 57 83 50 84 56 85 58 86 55 87
REMARK SMILES IDX 51 88 52 89 53 90 54 91
REMARK H PARENT 9 21 9 22 78 44 46 55
REMARK Flexibility Score: inf
ROOT
ATOM      1  C   UNL A   1      39.832  21.488  26.405  1.00  0.00     0.275 C 
ENDROOT
BRANCH   1   2
ATOM      2  O   UNL A   1      38.891  21.853  25.376  1.00  0.00    -0.458 OA
BRANCH   2   3
ATOM      3  C   UNL A   1      37.817  22.575  25.804  1.00  0.00     0.339 C 
ATOM      4  O   UNL A   1      37.845  23.704  26.238  1.00  0.00    -0.246 OA
BRANCH   3   5
ATOM      5  C   UNL A   1      36.545  21.845  25.569  1.00  0.00     0.079 A 
ATOM      6  N   UNL A   1      32.956  20.000  25.102  1.00  0.00    -0.332 N 
ATOM      7  C   UNL A   1      32.056  21.001  25.341  1.00  0.00     0.102 A 
ATOM      8  C   UNL A   1      34.229  20.512  25.158  1.00  0.00     0.140 A 
ATOM      9  C   UNL A   1      32.738  22.134  25.756  1.00  0.00     0.066 A 
ATOM     10  C   UNL A   1      34.132  21.823  25.636  1.00  0.00     0.033 A 
ATOM     11  N   UNL A   1      35.359  19.842  24.840  1.00  0.00    -0.237 NA
ATOM     12  C   UNL A   1      35.346  22.489  25.898  1.00  0.00     0.030 A 
ATOM     13  C   UNL A   1      36.489  20.576  25.016  1.00  0.00     0.129 A 
BRANCH   6  14
ATOM     14  C   UNL A   1      32.601  18.616  24.845  1.00  0.00     0.123 C 
BRANCH  14  15
ATOM     15  C   UNL A   1      32.876  18.158  23.402  1.00  0.00     0.022 C 
BRANCH  15  16
ATOM     16  C   UNL A   1      33.740  16.902  23.226  1.00  0.00    -0.002 C 
ATOM     17  C   UNL A   1      34.136  16.228  24.531  1.00  0.00     0.004 C 
ENDBRANCH  15  16
ENDBRANCH  14  15
ENDBRANCH   6  14
BRANCH   9  18
ATOM     18  C   UNL A   1      32.042  23.328  26.211  1.00  0.00     0.250 C 
ATOM     19  N   UNL A   1      30.825  23.144  26.793  1.00  0.00    -0.366 N 
ATOM     20  O   UNL A   1      32.515  24.456  26.105  1.00  0.00    -0.269 OA
ATOM     21  H   UNL A   1      30.451  22.236  26.875  1.00  0.00     0.159 HD
ATOM     22  H   UNL A   1      30.319  23.917  27.131  1.00  0.00     0.159 HD
ENDBRANCH   9  18
ENDBRANCH   3   5
ENDBRANCH   2   3
ENDBRANCH   1   2
BRANCH   1  23
ATOM     23  C   UNL A   1      41.277  21.752  25.986  1.00  0.00     0.275 C 
BRANCH  23  24
ATOM     24  O   UNL A   1      41.673  23.104  26.223  1.00  0.00    -0.458 OA
BRANCH  24  25
ATOM     25  C   UNL A   1      42.569  23.245  27.225  1.00  0.00     0.338 C 
ATOM     26  O   UNL A   1      43.531  22.523  27.449  1.00  0.00    -0.246 OA
BRANCH  25  27
ATOM     27  C   UNL A   1      42.133  24.278  28.167  1.00  0.00     0.060 A 
ATOM     28  C   UNL A   1      40.844  24.784  27.974  1.00  0.00     0.016 A 
ATOM     29  C   UNL A   1      43.068  24.926  28.986  1.00  0.00     0.016 A 
ATOM     30  C   UNL A   1      40.559  26.044  28.447  1.00  0.00     0.010 A 
ATOM     31  C   UNL A   1      42.784  26.194  29.449  1.00  0.00     0.010 A 
ATOM     32  C   UNL A   1      41.564  26.765  29.105  1.00  0.00    -0.014 A 
BRANCH  32  33
ATOM     33  C   UNL A   1      41.256  28.132  29.457  1.00  0.00     0.031 A 
ATOM     34  C   UNL A   1      42.123  29.122  28.786  1.00  0.00     0.074 A 
ATOM     35  C   UNL A   1      40.270  28.470  30.305  1.00  0.00     0.049 A 
ATOM     36  N   UNL A   1      43.128  29.760  29.287  1.00  0.00    -0.248 NA
ATOM     37  C   UNL A   1      41.967  29.269  27.334  1.00  0.00     0.031 C 
ATOM     38  C   UNL A   1      39.151  27.656  30.785  1.00  0.00     0.029 A 
ATOM     39  N   UNL A   1      40.031  29.684  30.860  1.00  0.00    -0.354 N 
ATOM     40  C   UNL A   1      43.611  30.556  28.253  1.00  0.00     0.074 A 
ATOM     41  C   UNL A   1      42.998  30.061  27.045  1.00  0.00     0.031 C 
ATOM     42  C   UNL A   1      38.240  28.466  31.377  1.00  0.00     0.029 A 
ATOM     43  C   UNL A   1      38.785  29.814  31.448  1.00  0.00     0.049 A 
ATOM     44  H   UNL A   1      40.691  30.415  30.844  1.00  0.00     0.167 HD
ATOM     45  C   UNL A   1      44.290  31.712  28.491  1.00  0.00     0.034 A 
ATOM     46  C   UNL A   1      38.226  30.976  31.869  1.00  0.00     0.034 A 
ATOM     47  C   UNL A   1      44.717  31.803  29.861  1.00  0.00     0.049 A 
ATOM     48  C   UNL A   1      39.320  31.968  32.036  1.00  0.00     0.074 A 
ATOM     49  C   UNL A   1      45.583  31.087  30.662  1.00  0.00     0.029 A 
ATOM     50  N   UNL A   1      43.937  32.546  30.711  1.00  0.00    -0.354 N 
ATOM     51  N   UNL A   1      40.240  31.897  32.958  1.00  0.00    -0.248 NA
ATOM     52  C   UNL A   1      39.643  32.814  30.897  1.00  0.00     0.031 C 
ATOM     53  C   UNL A   1      44.984  31.094  31.954  1.00  0.00     0.029 A 
ATOM     54  C   UNL A   1      43.809  31.847  31.882  1.00  0.00     0.049 A 
ATOM     55  H   UNL A   1      43.539  33.426  30.515  1.00  0.00     0.167 HD
ATOM     56  C   UNL A   1      41.402  32.320  32.328  1.00  0.00     0.074 A 
ATOM     57  C   UNL A   1      40.954  32.965  31.096  1.00  0.00     0.031 C 
ATOM     58  C   UNL A   1      42.627  31.866  32.720  1.00  0.00     0.034 A 
BRANCH  45  59
ATOM     59  C   UNL A   1      44.235  32.907  27.576  1.00  0.00     0.023 A 
ATOM     60  C   UNL A   1      43.645  34.126  27.960  1.00  0.00     0.031 A 
ATOM     61  C   UNL A   1      44.980  32.935  26.382  1.00  0.00     0.131 A 
ATOM     62  C   UNL A   1      43.761  35.282  27.184  1.00  0.00     0.055 A 
ATOM     63  C   UNL A   1      45.160  34.109  25.639  1.00  0.00     0.041 A 
ATOM     64  F   UNL A   1      45.606  31.835  25.933  1.00  0.00    -0.206 F 
ATOM     65  C   UNL A   1      44.546  35.292  26.037  1.00  0.00     0.022 A 
BRANCH  62  66
ATOM     66  S   UNL A   1      42.906  36.801  27.685  1.00  0.00     0.124 S 
ATOM     67  O   UNL A   1      43.671  37.202  28.859  1.00  0.00    -0.237 OA
ATOM     68  O   UNL A   1      43.075  37.637  26.499  1.00  0.00    -0.237 OA
ATOM     69  O   UNL A   1      41.539  36.355  27.936  1.00  0.00    -0.744 OA
ENDBRANCH  62  66
ENDBRANCH  45  59
BRANCH  46  70
ATOM     70  C   UNL A   1      36.829  31.404  31.617  1.00  0.00     0.023 A 
ATOM     71  C   UNL A   1      36.347  31.486  30.298  1.00  0.00     0.031 A 
ATOM     72  C   UNL A   1      36.078  32.041  32.620  1.00  0.00     0.131 A 
ATOM     73  C   UNL A   1      35.198  32.229  30.004  1.00  0.00     0.055 A 
ATOM     74  C   UNL A   1      34.922  32.774  32.327  1.00  0.00     0.041 A 
ATOM     75  F   UNL A   1      36.497  32.026  33.895  1.00  0.00    -0.206 F 
ATOM     76  C   UNL A   1      34.485  32.884  31.010  1.00  0.00     0.022 A 
BRANCH  73  77
ATOM     77  S   UNL A   1      34.647  32.409  28.285  1.00  0.00     0.124 S 
ATOM     78  O   UNL A   1      33.586  33.407  28.398  1.00  0.00    -0.237 OA
ATOM     79  O   UNL A   1      35.867  32.860  27.627  1.00  0.00    -0.237 OA
ATOM     80  O   UNL A   1      34.192  31.067  27.934  1.00  0.00    -0.744 OA
ENDBRANCH  73  77
ENDBRANCH  46  70
BRANCH  58  81
ATOM     81  C   UNL A   1      42.734  31.104  34.019  1.00  0.00     0.023 A 
ATOM     82  C   UNL A   1      42.407  29.739  33.985  1.00  0.00     0.031 A 
ATOM     83  C   UNL A   1      42.909  31.707  35.279  1.00  0.00     0.131 A 
ATOM     84  C   UNL A   1      42.218  29.029  35.175  1.00  0.00     0.055 A 
ATOM     85  C   UNL A   1      42.781  30.978  36.466  1.00  0.00     0.041 A 
ATOM     86  F   UNL A   1      43.118  33.024  35.401  1.00  0.00    -0.206 F 
ATOM     87  C   UNL A   1      42.419  29.635  36.418  1.00  0.00     0.022 A 
BRANCH  84  88
ATOM     88  S   UNL A   1      41.577  27.337  35.132  1.00  0.00     0.124 S 
ATOM     89  O   UNL A   1      41.015  27.184  36.471  1.00  0.00    -0.237 OA
ATOM     90  O   UNL A   1      40.601  27.407  34.047  1.00  0.00    -0.237 OA
ATOM     91  O   UNL A   1      42.754  26.518  34.855  1.00  0.00    -0.744 OA
ENDBRANCH  84  88
ENDBRANCH  58  81
ENDBRANCH  32  33
ENDBRANCH  25  27
ENDBRANCH  24  25
ENDBRANCH  23  24
ENDBRANCH   1  23
TORSDOF 18
ENDMDL
MODEL 2
REMARK VINA RESULT:     -11.2      2.061      2.483
REMARK SMILES CCCCn1cc(C(N)=O)c2cc(C(=O)OCCOC(=O)c3ccc(-c4c5nc(c(-c6cc(S(=O)(=O)[O-])ccc6F)c6ccc([nH]6)c(-c6cc(S(=O)(=O)[O-])ccc6F)c6nc(c(-c7cc(S(=O)(=O)[O-])ccc7F)c7ccc4[nH]7)C=C6)C=C5)cc3)cnc21
REMARK SMILES IDX 17 1 16 2 14 3 15 4 13 5 5 6 6 7 87 8 7 9 11 10 86 11 12 12
REMARK SMILES IDX 85 13 4 14 3 15 2 16 1 17 8 18 9 19 10 20 18 23 19 24 20 25
REMARK SMILES IDX 21 26 22 27 23 28 84 29 24 30 83 31 25 32 26 33 27 34 77 35
REMARK SMILES IDX 28 36 82 37 76 38 78 39 29 40 81 41 75 42 74 43 30 45 62 46
REMARK SMILES IDX 42 47 61 48 43 49 46 50 60 51 79 52 44 53 45 54 59 56 80 57
REMARK SMILES IDX 47 58 31 59 32 60 40 61 33 62 39 63 41 64 38 65 34 66 35 67
REMARK SMILES IDX 36 68 37 69 63 70 64 71 72 72 65 73 71 74 73 75 70 76 66 77
REMARK SMILES IDX 67 78 68 79 69 80 48 81 49 82 57 83 50 84 56 85 58 86 55 87
REMARK SMILES IDX 51 88 52 89 53 90 54 91
REMARK H PARENT 9 21 9 22 78 44 46 55
REMARK Flexibility Score: inf
ROOT
ATOM      1  C   UNL A   1      39.619  22.423  26.758  1.00  0.00     0.275 C 
ENDROOT
BRANCH   1   2
ATOM      2  O   UNL A   1      38.733  22.140  25.655  1.00  0.00    -0.458 OA
BRANCH   2   3
ATOM      3  C   UNL A   1      37.583  22.872  25.636  1.00  0.00     0.339 C 
ATOM      4  O   UNL A   1      37.497  24.067  25.802  1.00  0.00    -0.246 OA
BRANCH   3   5
ATOM      5  C   UNL A   1      36.415  22.035  25.263  1.00  0.00     0.079 A 
ATOM      6  N   UNL A   1      33.066  19.938  24.319  1.00  0.00    -0.332 N 
ATOM      7  C   UNL A   1      32.187  20.910  23.931  1.00  0.00     0.102 A 
ATOM      8  C   UNL A   1      34.281  20.512  24.602  1.00  0.00     0.140 A 
ATOM      9  C   UNL A   1      32.759  22.152  24.152  1.00  0.00     0.066 A 
ATOM     10  C   UNL A   1      34.104  21.899  24.579  1.00  0.00     0.033 A 
ATOM     11  N   UNL A   1      35.419  19.840  24.883  1.00  0.00    -0.237 NA
ATOM     12  C   UNL A   1      35.206  22.681  24.978  1.00  0.00     0.030 A 
ATOM     13  C   UNL A   1      36.472  20.654  25.158  1.00  0.00     0.129 A 
BRANCH   6  14
ATOM     14  C   UNL A   1      32.741  18.526  24.422  1.00  0.00     0.123 C 
BRANCH  14  15
ATOM     15  C   UNL A   1      33.097  17.710  23.166  1.00  0.00     0.022 C 
BRANCH  15  16
ATOM     16  C   UNL A   1      34.030  16.508  23.362  1.00  0.00    -0.002 C 
ATOM     17  C   UNL A   1      34.538  16.336  24.786  1.00  0.00     0.004 C 
ENDBRANCH  15  16
ENDBRANCH  14  15
ENDBRANCH   6  14
BRANCH   9  18
ATOM     18  C   UNL A   1      32.015  23.388  23.960  1.00  0.00     0.250 C 
ATOM     19  N   UNL A   1      31.131  23.417  22.925  1.00  0.00    -0.366 N 
ATOM     20  O   UNL A   1      32.144  24.365  24.694  1.00  0.00    -0.269 OA
ATOM     21  H   UNL A   1      31.032  22.630  22.342  1.00  0.00     0.159 HD
ATOM     22  H   UNL A   1      30.591  24.224  22.761  1.00  0.00     0.159 HD
ENDBRANCH   9  18
ENDBRANCH   3   5
ENDBRANCH   2   3
ENDBRANCH   1   2
BRANCH   1  23
ATOM     23  C   UNL A   1      40.901  21.595  26.695  1.00  0.00     0.275 C 
BRANCH  23  24
ATOM     24  O   UNL A   1      42.070  22.386  26.916  1.00  0.00    -0.458 OA
BRANCH  24  25
ATOM     25  C   UNL A   1      42.486  23.068  25.826  1.00  0.00     0.338 C 
ATOM     26  O   UNL A   1      42.922  22.587  24.789  1.00  0.00    -0.246 OA
BRANCH  25  27
ATOM     27  C   UNL A   1      42.545  24.504  26.107  1.00  0.00     0.060 A 
ATOM     28  C   UNL A   1      43.430  24.900  27.114  1.00  0.00     0.016 A 
ATOM     29  C   UNL A   1      41.547  25.360  25.619  1.00  0.00     0.016 A 
ATOM     30  C   UNL A   1      43.187  26.085  27.768  1.00  0.00     0.010 A 
ATOM     31  C   UNL A   1      41.298  26.542  26.284  1.00  0.00     0.010 A 
ATOM     32  C   UNL A   1      42.072  26.848  27.399  1.00  0.00    -0.014 A 
BRANCH  32  33
ATOM     33  C   UNL A   1      41.784  28.010  28.208  1.00  0.00     0.031 A 
ATOM     34  C   UNL A   1      42.716  29.132  27.980  1.00  0.00     0.074 A 
ATOM     35  C   UNL A   1      40.760  28.066  29.076  1.00  0.00     0.049 A 
ATOM     36  N   UNL A   1      43.707  29.499  28.721  1.00  0.00    -0.248 NA
ATOM     37  C   UNL A   1      42.649  29.798  26.674  1.00  0.00     0.031 C 
ATOM     38  C   UNL A   1      39.592  27.188  29.180  1.00  0.00     0.029 A 
ATOM     39  N   UNL A   1      40.523  29.009  30.022  1.00  0.00    -0.354 N 
ATOM     40  C   UNL A   1      44.272  30.589  28.068  1.00  0.00     0.074 A 
ATOM     41  C   UNL A   1      43.717  30.592  26.736  1.00  0.00     0.031 C 
ATOM     42  C   UNL A   1      38.671  27.774  29.983  1.00  0.00     0.029 A 
ATOM     43  C   UNL A   1      39.249  28.978  30.561  1.00  0.00     0.049 A 
ATOM     44  H   UNL A   1      41.203  29.665  30.301  1.00  0.00     0.167 HD
ATOM     45  C   UNL A   1      44.969  31.549  28.738  1.00  0.00     0.034 A 
ATOM     46  C   UNL A   1      38.700  29.936  31.348  1.00  0.00     0.034 A 
ATOM     47  C   UNL A   1      45.318  31.120  30.064  1.00  0.00     0.049 A 
ATOM     48  C   UNL A   1      39.810  30.748  31.912  1.00  0.00     0.074 A 
ATOM     49  C   UNL A   1      46.114  30.124  30.590  1.00  0.00     0.029 A 
ATOM     50  N   UNL A   1      44.510  31.545  31.090  1.00  0.00    -0.354 N 
ATOM     51  N   UNL A   1      40.672  30.307  32.785  1.00  0.00    -0.248 NA
ATOM     52  C   UNL A   1      40.223  31.931  31.171  1.00  0.00     0.031 C 
ATOM     53  C   UNL A   1      45.441  29.694  31.769  1.00  0.00     0.029 A 
ATOM     54  C   UNL A   1      44.295  30.478  31.923  1.00  0.00     0.049 A 
ATOM     55  H   UNL A   1      44.150  32.453  31.208  1.00  0.00     0.167 HD
ATOM     56  C   UNL A   1      41.880  30.873  32.403  1.00  0.00     0.074 A 
ATOM     57  C   UNL A   1      41.524  31.938  31.469  1.00  0.00     0.031 C 
ATOM     58  C   UNL A   1      43.067  30.250  32.658  1.00  0.00     0.034 A 
BRANCH  45  59
ATOM     59  C   UNL A   1      45.001  32.994  28.315  1.00  0.00     0.023 A 
ATOM     60  C   UNL A   1      46.088  33.553  27.616  1.00  0.00     0.031 A 
ATOM     61  C   UNL A   1      43.845  33.794  28.394  1.00  0.00     0.131 A 
ATOM     62  C   UNL A   1      46.033  34.836  27.067  1.00  0.00     0.055 A 
ATOM     63  C   UNL A   1      43.762  35.052  27.782  1.00  0.00     0.041 A 
ATOM     64  F   UNL A   1      42.741  33.352  29.017  1.00  0.00    -0.206 F 
ATOM     65  C   UNL A   1      44.862  35.581  27.116  1.00  0.00     0.022 A 
BRANCH  62  66
ATOM     66  S   UNL A   1      47.495  35.537  26.253  1.00  0.00     0.124 S 
ATOM     67  O   UNL A   1      47.687  34.616  25.138  1.00  0.00    -0.237 OA
ATOM     68  O   UNL A   1      47.021  36.873  25.901  1.00  0.00    -0.237 OA
ATOM     69  O   UNL A   1      48.517  35.499  27.295  1.00  0.00    -0.744 OA
ENDBRANCH  62  66
ENDBRANCH  45  59
BRANCH  46  70
ATOM     70  C   UNL A   1      37.333  30.492  31.207  1.00  0.00     0.023 A 
ATOM     71  C   UNL A   1      36.818  30.775  29.929  1.00  0.00     0.031 A 
ATOM     72  C   UNL A   1      36.663  31.049  32.311  1.00  0.00     0.131 A 
ATOM     73  C   UNL A   1      35.721  31.630  29.775  1.00  0.00     0.055 A 
ATOM     74  C   UNL A   1      35.558  31.894  32.157  1.00  0.00     0.041 A 
ATOM     75  F   UNL A   1      37.118  30.843  33.556  1.00  0.00    -0.206 F 
ATOM     76  C   UNL A   1      35.091  32.201  30.882  1.00  0.00     0.022 A 
BRANCH  73  77
ATOM     77  S   UNL A   1      35.134  32.065  28.114  1.00  0.00     0.124 S 
ATOM     78  O   UNL A   1      35.183  30.781  27.419  1.00  0.00    -0.237 OA
ATOM     79  O   UNL A   1      33.798  32.577  28.395  1.00  0.00    -0.237 OA
ATOM     80  O   UNL A   1      36.112  33.047  27.657  1.00  0.00    -0.744 OA
ENDBRANCH  73  77
ENDBRANCH  46  70
BRANCH  58  81
ATOM     81  C   UNL A   1      43.076  29.068  33.596  1.00  0.00     0.023 A 
ATOM     82  C   UNL A   1      43.520  29.300  34.908  1.00  0.00     0.031 A 
ATOM     83  C   UNL A   1      42.896  27.732  33.191  1.00  0.00     0.131 A 
ATOM     84  C   UNL A   1      43.816  28.226  35.753  1.00  0.00     0.055 A 
ATOM     85  C   UNL A   1      43.132  26.662  34.060  1.00  0.00     0.041 A 
ATOM     86  F   UNL A   1      42.576  27.423  31.927  1.00  0.00    -0.206 F 
ATOM     87  C   UNL A   1      43.609  26.906  35.344  1.00  0.00     0.022 A 
BRANCH  84  88
ATOM     88  S   UNL A   1      44.603  28.520  37.357  1.00  0.00     0.124 S 
ATOM     89  O   UNL A   1      44.130  27.387  38.147  1.00  0.00    -0.237 OA
ATOM     90  O   UNL A   1      46.022  28.495  37.011  1.00  0.00    -0.237 OA
ATOM     91  O   UNL A   1      44.089  29.823  37.770  1.00  0.00    -0.744 OA
ENDBRANCH  84  88
ENDBRANCH  58  81
ENDBRANCH  32  33
ENDBRANCH  25  27
ENDBRANCH  24  25
ENDBRANCH  23  24
ENDBRANCH   1  23
TORSDOF 18
ENDMDL
MODEL 3
REMARK VINA RESULT:     -11.1      1.308      2.220
REMARK SMILES CCCCn1cc(C(N)=O)c2cc(C(=O)OCCOC(=O)c3ccc(-c4c5nc(c(-c6cc(S(=O)(=O)[O-])ccc6F)c6ccc([nH]6)c(-c6cc(S(=O)(=O)[O-])ccc6F)c6nc(c(-c7cc(S(=O)(=O)[O-])ccc7F)c7ccc4[nH]7)C=C6)C=C5)cc3)cnc21
REMARK SMILES IDX 17 1 16 2 14 3 15 4 13 5 5 6 6 7 87 8 7 9 11 10 86 11 12 12
REMARK SMILES IDX 85 13 4 14 3 15 2 16 1 17 8 18 9 19 10 20 18 23 19 24 20 25
REMARK SMILES IDX 21 26 22 27 23 28 84 29 24 30 83 31 25 32 26 33 27 34 77 35
REMARK SMILES IDX 28 36 82 37 76 38 78 39 29 40 81 41 75 42 74 43 30 45 62 46
REMARK SMILES IDX 42 47 61 48 43 49 46 50 60 51 79 52 44 53 45 54 59 56 80 57
REMARK SMILES IDX 47 58 31 59 32 60 40 61 33 62 39 63 41 64 38 65 34 66 35 67
REMARK SMILES IDX 36 68 37 69 63 70 64 71 72 72 65 73 71 74 73 75 70 76 66 77
REMARK SMILES IDX 67 78 68 79 69 80 48 81 49 82 57 83 50 84 56 85 58 86 55 87
REMARK SMILES IDX 51 88 52 89 53 90 54 91
REMARK H PARENT 9 21 9 22 78 44 46 55
REMARK Flexibility Score: inf
ROOT
ATOM      1  C   UNL A   1      40.395  20.306  26.436  1.00  0.00     0.275 C 
ENDROOT
BRANCH   1   2
ATOM      2  O   UNL A   1      39.321  21.194  26.068  1.00  0.00    -0.458 OA
BRANCH   2   3
ATOM      3  C   UNL A   1      38.323  20.622  25.337  1.00  0.00     0.339 C 
ATOM      4  O   UNL A   1      38.343  19.515  24.849  1.00  0.00    -0.246 OA
BRANCH   3   5
ATOM      5  C   UNL A   1      37.118  21.488  25.294  1.00  0.00     0.079 A 
ATOM      6  N   UNL A   1      33.711  23.685  25.019  1.00  0.00    -0.332 N 
ATOM      7  C   UNL A   1      32.738  22.736  24.872  1.00  0.00     0.102 A 
ATOM      8  C   UNL A   1      34.924  23.066  25.196  1.00  0.00     0.140 A 
ATOM      9  C   UNL A   1      33.333  21.491  24.750  1.00  0.00     0.066 A 
ATOM     10  C   UNL A   1      34.736  21.701  24.961  1.00  0.00     0.033 A 
ATOM     11  N   UNL A   1      36.084  23.688  25.507  1.00  0.00    -0.237 NA
ATOM     12  C   UNL A   1      35.893  20.897  24.960  1.00  0.00     0.030 A 
ATOM     13  C   UNL A   1      37.143  22.841  25.593  1.00  0.00     0.129 A 
BRANCH   6  14
ATOM     14  C   UNL A   1      33.479  25.118  24.975  1.00  0.00     0.123 C 
BRANCH  14  15
ATOM     15  C   UNL A   1      33.980  25.792  23.685  1.00  0.00     0.022 C 
BRANCH  15  16
ATOM     16  C   UNL A   1      33.191  25.501  22.401  1.00  0.00    -0.002 C 
ATOM     17  C   UNL A   1      31.684  25.438  22.594  1.00  0.00     0.004 C 
ENDBRANCH  15  16
ENDBRANCH  14  15
ENDBRANCH   6  14
BRANCH   9  18
ATOM     18  C   UNL A   1      32.562  20.295  24.450  1.00  0.00     0.250 C 
ATOM     19  N   UNL A   1      32.355  20.013  23.134  1.00  0.00    -0.366 N 
ATOM     20  O   UNL A   1      32.124  19.548  25.321  1.00  0.00    -0.269 OA
ATOM     21  H   UNL A   1      32.709  20.615  22.441  1.00  0.00     0.159 HD
ATOM     22  H   UNL A   1      31.852  19.207  22.876  1.00  0.00     0.159 HD
ENDBRANCH   9  18
ENDBRANCH   3   5
ENDBRANCH   2   3
ENDBRANCH   1   2
BRANCH   1  23
ATOM     23  C   UNL A   1      41.763  20.977  26.321  1.00  0.00     0.275 C 
BRANCH  23  24
ATOM     24  O   UNL A   1      41.974  21.959  27.338  1.00  0.00    -0.458 OA
BRANCH  24  25
ATOM     25  C   UNL A   1      42.195  23.204  26.861  1.00  0.00     0.338 C 
ATOM     26  O   UNL A   1      42.791  23.493  25.833  1.00  0.00    -0.246 OA
BRANCH  25  27
ATOM     27  C   UNL A   1      41.803  24.212  27.847  1.00  0.00     0.060 A 
ATOM     28  C   UNL A   1      40.537  24.781  27.679  1.00  0.00     0.016 A 
ATOM     29  C   UNL A   1      42.765  24.783  28.693  1.00  0.00     0.016 A 
ATOM     30  C   UNL A   1      40.307  26.030  28.207  1.00  0.00     0.010 A 
ATOM     31  C   UNL A   1      42.536  26.041  29.211  1.00  0.00     0.010 A 
ATOM     32  C   UNL A   1      41.341  26.678  28.894  1.00  0.00    -0.014 A 
BRANCH  32  33
ATOM     33  C   UNL A   1      41.093  28.040  29.306  1.00  0.00     0.031 A 
ATOM     34  C   UNL A   1      41.996  29.021  28.671  1.00  0.00     0.074 A 
ATOM     35  C   UNL A   1      40.127  28.382  30.175  1.00  0.00     0.049 A 
ATOM     36  N   UNL A   1      43.029  29.596  29.190  1.00  0.00    -0.248 NA
ATOM     37  C   UNL A   1      41.837  29.236  27.228  1.00  0.00     0.031 C 
ATOM     38  C   UNL A   1      38.979  27.595  30.630  1.00  0.00     0.029 A 
ATOM     39  N   UNL A   1      39.942  29.580  30.784  1.00  0.00    -0.354 N 
ATOM     40  C   UNL A   1      43.537  30.414  28.187  1.00  0.00     0.074 A 
ATOM     41  C   UNL A   1      42.897  29.997  26.964  1.00  0.00     0.031 C 
ATOM     42  C   UNL A   1      38.106  28.416  31.263  1.00  0.00     0.029 A 
ATOM     43  C   UNL A   1      38.706  29.735  31.387  1.00  0.00     0.049 A 
ATOM     44  H   UNL A   1      40.631  30.283  30.794  1.00  0.00     0.167 HD
ATOM     45  C   UNL A   1      44.265  31.531  28.468  1.00  0.00     0.034 A 
ATOM     46  C   UNL A   1      38.198  30.900  31.861  1.00  0.00     0.034 A 
ATOM     47  C   UNL A   1      44.705  31.546  29.837  1.00  0.00     0.049 A 
ATOM     48  C   UNL A   1      39.333  31.839  32.061  1.00  0.00     0.074 A 
ATOM     49  C   UNL A   1      45.545  30.762  30.600  1.00  0.00     0.029 A 
ATOM     50  N   UNL A   1      43.961  32.284  30.724  1.00  0.00    -0.354 N 
ATOM     51  N   UNL A   1      40.255  31.691  32.971  1.00  0.00    -0.248 NA
ATOM     52  C   UNL A   1      39.684  32.719  30.956  1.00  0.00     0.031 C 
ATOM     53  C   UNL A   1      44.955  30.738  31.896  1.00  0.00     0.029 A 
ATOM     54  C   UNL A   1      43.812  31.541  31.865  1.00  0.00     0.049 A 
ATOM     55  H   UNL A   1      43.599  33.186  30.568  1.00  0.00     0.167 HD
ATOM     56  C   UNL A   1      41.429  32.093  32.351  1.00  0.00     0.074 A 
ATOM     57  C   UNL A   1      41.001  32.808  31.151  1.00  0.00     0.031 C 
ATOM     58  C   UNL A   1      42.637  31.572  32.713  1.00  0.00     0.034 A 
BRANCH  45  59
ATOM     59  C   UNL A   1      44.254  32.765  27.605  1.00  0.00     0.023 A 
ATOM     60  C   UNL A   1      43.533  33.924  27.953  1.00  0.00     0.031 A 
ATOM     61  C   UNL A   1      45.152  32.900  26.529  1.00  0.00     0.131 A 
ATOM     62  C   UNL A   1      43.675  35.122  27.249  1.00  0.00     0.055 A 
ATOM     63  C   UNL A   1      45.350  34.120  25.868  1.00  0.00     0.041 A 
ATOM     64  F   UNL A   1      45.908  31.866  26.128  1.00  0.00    -0.206 F 
ATOM     65  C   UNL A   1      44.607  35.240  26.225  1.00  0.00     0.022 A 
BRANCH  62  66
ATOM     66  S   UNL A   1      42.656  36.557  27.687  1.00  0.00     0.124 S 
ATOM     67  O   UNL A   1      43.292  37.011  28.919  1.00  0.00    -0.237 OA
ATOM     68  O   UNL A   1      42.842  37.416  26.521  1.00  0.00    -0.237 OA
ATOM     69  O   UNL A   1      41.317  35.993  27.831  1.00  0.00    -0.744 OA
ENDBRANCH  62  66
ENDBRANCH  45  59
BRANCH  46  70
ATOM     70  C   UNL A   1      36.819  31.396  31.639  1.00  0.00     0.023 A 
ATOM     71  C   UNL A   1      36.321  31.523  30.329  1.00  0.00     0.031 A 
ATOM     72  C   UNL A   1      36.113  32.048  32.665  1.00  0.00     0.131 A 
ATOM     73  C   UNL A   1      35.202  32.323  30.066  1.00  0.00     0.055 A 
ATOM     74  C   UNL A   1      34.987  32.837  32.403  1.00  0.00     0.041 A 
ATOM     75  F   UNL A   1      36.550  31.992  33.932  1.00  0.00    -0.206 F 
ATOM     76  C   UNL A   1      34.535  32.990  31.095  1.00  0.00     0.022 A 
BRANCH  73  77
ATOM     77  S   UNL A   1      34.634  32.557  28.359  1.00  0.00     0.124 S 
ATOM     78  O   UNL A   1      33.608  33.586  28.510  1.00  0.00    -0.237 OA
ATOM     79  O   UNL A   1      35.859  32.983  27.694  1.00  0.00    -0.237 OA
ATOM     80  O   UNL A   1      34.130  31.239  27.986  1.00  0.00    -0.744 OA
ENDBRANCH  73  77
ENDBRANCH  46  70
BRANCH  58  81
ATOM     81  C   UNL A   1      42.721  30.752  33.978  1.00  0.00     0.023 A 
ATOM     82  C   UNL A   1      42.410  29.387  33.873  1.00  0.00     0.031 A 
ATOM     83  C   UNL A   1      42.859  31.297  35.268  1.00  0.00     0.131 A 
ATOM     84  C   UNL A   1      42.200  28.621  35.024  1.00  0.00     0.055 A 
ATOM     85  C   UNL A   1      42.711  30.513  36.417  1.00  0.00     0.041 A 
ATOM     86  F   UNL A   1      43.051  32.610  35.455  1.00  0.00    -0.206 F 
ATOM     87  C   UNL A   1      42.364  29.171  36.298  1.00  0.00     0.022 A 
BRANCH  84  88
ATOM     88  S   UNL A   1      41.577  26.927  34.887  1.00  0.00     0.124 S 
ATOM     89  O   UNL A   1      41.175  26.633  36.259  1.00  0.00    -0.237 OA
ATOM     90  O   UNL A   1      40.482  27.079  33.932  1.00  0.00    -0.237 OA
ATOM     91  O   UNL A   1      42.724  26.165  34.399  1.00  0.00    -0.744 OA
ENDBRANCH  84  88
ENDBRANCH  58  81
ENDBRANCH  32  33
ENDBRANCH  25  27
ENDBRANCH  24  25
ENDBRANCH  23  24
ENDBRANCH   1  23
TORSDOF 18
ENDMDL
