MODEL 1
REMARK VINA RESULT:     -12.3      0.000      0.000
REMARK SMILES CO[C@@H]1C[NH2+][C@@H](O[C@@H]2C[C@@H](C(=O)OCCOC(=O)c3ccc(-c4c5nc(c(-c6cc(S(=O)(=O)[O-])ccc6F)c6ccc([nH]6)c(-c6cc(S(=O)(=O)[O-])ccc6F)c6nc(c(-c7cc(S(=O)(=O)[O-])ccc7F)c7ccc4[nH]7)C=C6)C=C5)cc3)N(C(=O)OC(C)(C)C)C2)c2cc(Cl)ccc21
REMARK SMILES IDX 14 1 13 2 11 3 12 4 10 5 8 6 9 7 90 8 82 9 7 10 6 11 3 12
REMARK SMILES IDX 4 13 97 14 5 15 91 16 96 17 92 20 95 21 93 22 94 23 2 24
REMARK SMILES IDX 1 25 83 26 84 27 85 28 86 29 87 30 88 31 89 32 15 33 16 34
REMARK SMILES IDX 17 35 18 36 19 37 20 38 81 39 21 40 80 41 22 42 23 43 24 44
REMARK SMILES IDX 74 45 25 46 79 47 73 48 75 49 26 50 78 51 72 52 71 53 27 55
REMARK SMILES IDX 59 56 39 57 58 58 40 59 43 60 57 61 76 62 41 63 42 64 56 66
REMARK SMILES IDX 77 67 44 68 28 69 29 70 37 71 30 72 36 73 38 74 35 75 31 76
REMARK SMILES IDX 32 77 33 78 34 79 60 80 61 81 69 82 62 83 68 84 70 85 67 86
REMARK SMILES IDX 63 87 64 88 65 89 66 90 45 91 46 92 54 93 47 94 53 95 55 96
REMARK SMILES IDX 52 97 48 98 49 99 50 100 51 101
REMARK H PARENT 5 18 5 19 75 54 43 65
REMARK Flexibility Score: inf
ROOT
ATOM      1  C   UNL A   1      36.855  21.032  24.762  1.00  0.00     0.274 C 
ENDROOT
BRANCH   1   2
ATOM      2  O   UNL A   1      36.147  22.059  25.511  1.00  0.00    -0.461 OA
BRANCH   2   3
ATOM      3  C   UNL A   1      35.437  22.897  24.699  1.00  0.00     0.329 C 
ATOM      4  O   UNL A   1      35.924  23.368  23.671  1.00  0.00    -0.250 OA
BRANCH   3   5
ATOM      5  C   UNL A   1      33.913  22.997  25.005  1.00  0.00     0.201 C 
ATOM      6  C   UNL A   1      32.446  23.366  26.969  1.00  0.00     0.147 C 
ATOM      7  C   UNL A   1      33.787  23.743  26.363  1.00  0.00     0.071 C 
ATOM      8  C   UNL A   1      32.133  22.012  26.335  1.00  0.00     0.156 C 
ATOM      9  N   UNL A   1      32.956  21.883  25.128  1.00  0.00    -0.292 N 
BRANCH   6  10
ATOM     10  O   UNL A   1      31.384  24.295  27.138  1.00  0.00    -0.320 OA
BRANCH  10  11
ATOM     11  C   UNL A   1      30.962  25.359  26.295  1.00  0.00     0.354 C 
ATOM     12  C   UNL A   1      31.815  25.352  23.486  1.00  0.00     0.203 C 
ATOM     13  C   UNL A   1      30.750  24.404  24.095  1.00  0.00     0.300 C 
ATOM     14  C   UNL A   1      32.475  26.292  24.500  1.00  0.00    -0.002 A 
ATOM     15  N   UNL A   1      30.051  24.913  25.261  1.00  0.00    -0.315 N 
ATOM     16  C   UNL A   1      32.001  26.339  25.821  1.00  0.00     0.046 A 
ATOM     17  C   UNL A   1      33.565  27.121  24.167  1.00  0.00     0.009 A 
ATOM     18  H   UNL A   1      29.462  24.172  25.639  1.00  0.00     0.349 HD
ATOM     19  H   UNL A   1      29.497  25.717  24.965  1.00  0.00     0.349 HD
ATOM     20  C   UNL A   1      32.520  27.291  26.724  1.00  0.00     0.033 A 
ATOM     21  C   UNL A   1      34.139  27.997  25.094  1.00  0.00     0.021 A 
ATOM     22  C   UNL A   1      33.586  28.108  26.361  1.00  0.00     0.041 A 
ATOM     23  Cl  UNL A   1      34.243  29.221  27.493  1.00  0.00    -0.084 Cl
BRANCH  12  24
ATOM     24  O   UNL A   1      31.300  26.133  22.404  1.00  0.00    -0.371 OA
ATOM     25  C   UNL A   1      31.966  25.919  21.158  1.00  0.00     0.196 C 
ENDBRANCH  12  24
ENDBRANCH  10  11
ENDBRANCH   6  10
BRANCH   9  26
ATOM     26  C   UNL A   1      32.517  20.974  24.176  1.00  0.00     0.411 C 
ATOM     27  O   UNL A   1      32.525  21.258  22.990  1.00  0.00    -0.224 OA
BRANCH  26  28
ATOM     28  O   UNL A   1      32.084  19.774  24.658  1.00  0.00    -0.444 OA
BRANCH  28  29
ATOM     29  C   UNL A   1      32.799  18.561  24.256  1.00  0.00     0.106 C 
ATOM     30  C   UNL A   1      32.423  18.133  22.829  1.00  0.00     0.056 C 
ATOM     31  C   UNL A   1      34.315  18.716  24.447  1.00  0.00     0.056 C 
ATOM     32  C   UNL A   1      32.352  17.418  25.178  1.00  0.00     0.056 C 
ENDBRANCH  28  29
ENDBRANCH  26  28
ENDBRANCH   9  26
ENDBRANCH   3   5
ENDBRANCH   2   3
ENDBRANCH   1   2
BRANCH   1  33
ATOM     33  C   UNL A   1      38.050  20.427  25.541  1.00  0.00     0.275 C 
BRANCH  33  34
ATOM     34  O   UNL A   1      39.358  21.079  25.465  1.00  0.00    -0.458 OA
BRANCH  34  35
ATOM     35  C   UNL A   1      39.917  21.473  26.623  1.00  0.00     0.338 C 
ATOM     36  O   UNL A   1      40.508  20.727  27.391  1.00  0.00    -0.246 OA
BRANCH  35  37
ATOM     37  C   UNL A   1      39.862  22.914  26.969  1.00  0.00     0.060 A 
ATOM     38  C   UNL A   1      39.066  23.931  26.452  1.00  0.00     0.016 A 
ATOM     39  C   UNL A   1      40.788  23.248  27.953  1.00  0.00     0.016 A 
ATOM     40  C   UNL A   1      39.313  25.274  26.842  1.00  0.00     0.010 A 
ATOM     41  C   UNL A   1      41.065  24.545  28.311  1.00  0.00     0.010 A 
ATOM     42  C   UNL A   1      40.365  25.581  27.722  1.00  0.00    -0.014 A 
BRANCH  42  43
ATOM     43  C   UNL A   1      40.912  26.919  28.040  1.00  0.00     0.031 A 
ATOM     44  C   UNL A   1      42.390  27.162  27.839  1.00  0.00     0.074 A 
ATOM     45  C   UNL A   1      40.207  27.761  28.820  1.00  0.00     0.049 A 
ATOM     46  N   UNL A   1      43.094  28.235  28.083  1.00  0.00    -0.248 NA
ATOM     47  C   UNL A   1      43.189  26.017  27.362  1.00  0.00     0.031 C 
ATOM     48  C   UNL A   1      38.866  27.496  29.336  1.00  0.00     0.029 A 
ATOM     49  N   UNL A   1      40.548  28.971  29.367  1.00  0.00    -0.354 N 
ATOM     50  C   UNL A   1      44.405  27.905  27.750  1.00  0.00     0.074 A 
ATOM     51  C   UNL A   1      44.421  26.501  27.418  1.00  0.00     0.031 C 
ATOM     52  C   UNL A   1      38.491  28.521  30.119  1.00  0.00     0.029 A 
ATOM     53  C   UNL A   1      39.557  29.524  30.140  1.00  0.00     0.049 A 
ATOM     54  H   UNL A   1      41.421  29.402  29.220  1.00  0.00     0.167 HD
ATOM     55  C   UNL A   1      45.484  28.722  27.665  1.00  0.00     0.034 A 
ATOM     56  C   UNL A   1      39.502  30.723  30.758  1.00  0.00     0.034 A 
ATOM     57  C   UNL A   1      45.436  30.106  28.050  1.00  0.00     0.049 A 
ATOM     58  C   UNL A   1      40.653  31.683  30.570  1.00  0.00     0.074 A 
ATOM     59  C   UNL A   1      46.406  31.078  27.899  1.00  0.00     0.029 A 
ATOM     60  N   UNL A   1      44.356  30.707  28.685  1.00  0.00    -0.354 N 
ATOM     61  N   UNL A   1      41.813  31.469  29.992  1.00  0.00    -0.248 NA
ATOM     62  C   UNL A   1      40.482  33.054  31.070  1.00  0.00     0.031 C 
ATOM     63  C   UNL A   1      45.932  32.253  28.485  1.00  0.00     0.029 A 
ATOM     64  C   UNL A   1      44.639  32.035  28.941  1.00  0.00     0.049 A 
ATOM     65  H   UNL A   1      43.515  30.254  28.917  1.00  0.00     0.167 HD
ATOM     66  C   UNL A   1      42.497  32.680  30.031  1.00  0.00     0.074 A 
ATOM     67  C   UNL A   1      41.613  33.629  30.677  1.00  0.00     0.031 C 
ATOM     68  C   UNL A   1      43.739  32.977  29.570  1.00  0.00     0.034 A 
BRANCH  55  69
ATOM     69  C   UNL A   1      46.754  28.175  27.048  1.00  0.00     0.023 A 
ATOM     70  C   UNL A   1      46.957  28.177  25.655  1.00  0.00     0.031 A 
ATOM     71  C   UNL A   1      47.723  27.537  27.852  1.00  0.00     0.131 A 
ATOM     72  C   UNL A   1      48.090  27.548  25.116  1.00  0.00     0.055 A 
ATOM     73  C   UNL A   1      48.873  26.962  27.314  1.00  0.00     0.041 A 
ATOM     74  F   UNL A   1      47.572  27.476  29.186  1.00  0.00    -0.206 F 
ATOM     75  C   UNL A   1      49.056  26.956  25.938  1.00  0.00     0.022 A 
BRANCH  72  76
ATOM     76  S   UNL A   1      48.334  27.401  23.323  1.00  0.00     0.124 S 
ATOM     77  O   UNL A   1      48.283  25.954  23.131  1.00  0.00    -0.237 OA
ATOM     78  O   UNL A   1      47.188  28.139  22.799  1.00  0.00    -0.237 OA
ATOM     79  O   UNL A   1      49.637  28.016  23.094  1.00  0.00    -0.744 OA
ENDBRANCH  72  76
ENDBRANCH  55  69
BRANCH  56  80
ATOM     80  C   UNL A   1      38.223  31.115  31.417  1.00  0.00     0.023 A 
ATOM     81  C   UNL A   1      37.162  31.681  30.687  1.00  0.00     0.031 A 
ATOM     82  C   UNL A   1      38.130  31.104  32.820  1.00  0.00     0.131 A 
ATOM     83  C   UNL A   1      36.093  32.279  31.369  1.00  0.00     0.055 A 
ATOM     84  C   UNL A   1      37.034  31.646  33.493  1.00  0.00     0.041 A 
ATOM     85  F   UNL A   1      39.131  30.600  33.558  1.00  0.00    -0.206 F 
ATOM     86  C   UNL A   1      36.015  32.254  32.766  1.00  0.00     0.022 A 
BRANCH  83  87
ATOM     87  S   UNL A   1      34.835  33.240  30.480  1.00  0.00     0.124 S 
ATOM     88  O   UNL A   1      33.963  33.683  31.563  1.00  0.00    -0.237 OA
ATOM     89  O   UNL A   1      35.648  34.284  29.859  1.00  0.00    -0.237 OA
ATOM     90  O   UNL A   1      34.252  32.274  29.556  1.00  0.00    -0.744 OA
ENDBRANCH  83  87
ENDBRANCH  56  80
BRANCH  68  91
ATOM     91  C   UNL A   1      44.266  34.383  29.727  1.00  0.00     0.023 A 
ATOM     92  C   UNL A   1      44.024  35.333  28.715  1.00  0.00     0.031 A 
ATOM     93  C   UNL A   1      45.183  34.706  30.741  1.00  0.00     0.131 A 
ATOM     94  C   UNL A   1      44.747  36.530  28.698  1.00  0.00     0.055 A 
ATOM     95  C   UNL A   1      45.862  35.925  30.748  1.00  0.00     0.041 A 
ATOM     96  F   UNL A   1      45.456  33.827  31.718  1.00  0.00    -0.206 F 
ATOM     97  C   UNL A   1      45.660  36.835  29.712  1.00  0.00     0.022 A 
BRANCH  94  98
ATOM     98  S   UNL A   1      44.612  37.684  27.303  1.00  0.00     0.124 S 
ATOM     99  O   UNL A   1      44.676  38.981  27.975  1.00  0.00    -0.237 OA
ATOM    100  O   UNL A   1      45.785  37.337  26.506  1.00  0.00    -0.237 OA
ATOM    101  O   UNL A   1      43.323  37.361  26.702  1.00  0.00    -0.744 OA
ENDBRANCH  94  98
ENDBRANCH  68  91
ENDBRANCH  42  43
ENDBRANCH  35  37
ENDBRANCH  34  35
ENDBRANCH  33  34
ENDBRANCH   1  33
TORSDOF 20
ENDMDL
MODEL 2
REMARK VINA RESULT:     -12.1      4.661     10.355
REMARK SMILES CO[C@@H]1C[NH2+][C@@H](O[C@@H]2C[C@@H](C(=O)OCCOC(=O)c3ccc(-c4c5nc(c(-c6cc(S(=O)(=O)[O-])ccc6F)c6ccc([nH]6)c(-c6cc(S(=O)(=O)[O-])ccc6F)c6nc(c(-c7cc(S(=O)(=O)[O-])ccc7F)c7ccc4[nH]7)C=C6)C=C5)cc3)N(C(=O)OC(C)(C)C)C2)c2cc(Cl)ccc21
REMARK SMILES IDX 14 1 13 2 11 3 12 4 10 5 8 6 9 7 90 8 82 9 7 10 6 11 3 12
REMARK SMILES IDX 4 13 97 14 5 15 91 16 96 17 92 20 95 21 93 22 94 23 2 24
REMARK SMILES IDX 1 25 83 26 84 27 85 28 86 29 87 30 88 31 89 32 15 33 16 34
REMARK SMILES IDX 17 35 18 36 19 37 20 38 81 39 21 40 80 41 22 42 23 43 24 44
REMARK SMILES IDX 74 45 25 46 79 47 73 48 75 49 26 50 78 51 72 52 71 53 27 55
REMARK SMILES IDX 59 56 39 57 58 58 40 59 43 60 57 61 76 62 41 63 42 64 56 66
REMARK SMILES IDX 77 67 44 68 28 69 29 70 37 71 30 72 36 73 38 74 35 75 31 76
REMARK SMILES IDX 32 77 33 78 34 79 60 80 61 81 69 82 62 83 68 84 70 85 67 86
REMARK SMILES IDX 63 87 64 88 65 89 66 90 45 91 46 92 54 93 47 94 53 95 55 96
REMARK SMILES IDX 52 97 48 98 49 99 50 100 51 101
REMARK H PARENT 5 18 5 19 75 54 43 65
REMARK Flexibility Score: inf
ROOT
ATOM      1  C   UNL A   1      31.321  31.565  26.775  1.00  0.00     0.274 C 
ENDROOT
BRANCH   1   2
ATOM      2  O   UNL A   1      31.815  30.617  25.788  1.00  0.00    -0.461 OA
BRANCH   2   3
ATOM      3  C   UNL A   1      31.714  29.324  26.214  1.00  0.00     0.329 C 
ATOM      4  O   UNL A   1      31.608  29.043  27.409  1.00  0.00    -0.250 OA
BRANCH   3   5
ATOM      5  C   UNL A   1      31.472  28.264  25.099  1.00  0.00     0.201 C 
ATOM      6  C   UNL A   1      32.733  26.455  23.968  1.00  0.00     0.147 C 
ATOM      7  C   UNL A   1      32.550  27.162  25.300  1.00  0.00     0.071 C 
ATOM      8  C   UNL A   1      32.291  27.497  22.943  1.00  0.00     0.156 C 
ATOM      9  N   UNL A   1      31.471  28.491  23.642  1.00  0.00    -0.292 N 
BRANCH   6  10
ATOM     10  O   UNL A   1      32.367  25.099  23.754  1.00  0.00    -0.320 OA
BRANCH  10  11
ATOM     11  C   UNL A   1      33.125  24.024  23.215  1.00  0.00     0.354 C 
ATOM     12  C   UNL A   1      32.464  21.284  24.034  1.00  0.00     0.203 C 
ATOM     13  C   UNL A   1      31.610  22.159  23.080  1.00  0.00     0.300 C 
ATOM     14  C   UNL A   1      33.698  21.993  24.603  1.00  0.00    -0.002 A 
ATOM     15  N   UNL A   1      32.336  23.176  22.345  1.00  0.00    -0.315 N 
ATOM     16  C   UNL A   1      34.044  23.273  24.141  1.00  0.00     0.046 A 
ATOM     17  C   UNL A   1      34.513  21.415  25.597  1.00  0.00     0.009 A 
ATOM     18  H   UNL A   1      31.667  23.756  21.840  1.00  0.00     0.349 HD
ATOM     19  H   UNL A   1      32.976  22.703  21.707  1.00  0.00     0.349 HD
ATOM     20  C   UNL A   1      35.246  23.876  24.567  1.00  0.00     0.033 A 
ATOM     21  C   UNL A   1      35.653  22.060  26.086  1.00  0.00     0.021 A 
ATOM     22  C   UNL A   1      36.039  23.274  25.538  1.00  0.00     0.041 A 
ATOM     23  Cl  UNL A   1      37.470  24.051  26.087  1.00  0.00    -0.084 Cl
BRANCH  12  24
ATOM     24  O   UNL A   1      32.880  20.056  23.430  1.00  0.00    -0.371 OA
ATOM     25  C   UNL A   1      32.456  18.885  24.130  1.00  0.00     0.196 C 
ENDBRANCH  12  24
ENDBRANCH  10  11
ENDBRANCH   6  10
BRANCH   9  26
ATOM     26  C   UNL A   1      30.610  29.245  22.857  1.00  0.00     0.411 C 
ATOM     27  O   UNL A   1      30.696  29.226  21.641  1.00  0.00    -0.224 OA
BRANCH  26  28
ATOM     28  O   UNL A   1      29.690  29.990  23.534  1.00  0.00    -0.444 OA
BRANCH  28  29
ATOM     29  C   UNL A   1      28.354  30.146  22.956  1.00  0.00     0.106 C 
ATOM     30  C   UNL A   1      28.416  30.790  21.563  1.00  0.00     0.056 C 
ATOM     31  C   UNL A   1      27.585  28.817  22.959  1.00  0.00     0.056 C 
ATOM     32  C   UNL A   1      27.563  31.117  23.842  1.00  0.00     0.056 C 
ENDBRANCH  28  29
ENDBRANCH  26  28
ENDBRANCH   9  26
ENDBRANCH   3   5
ENDBRANCH   2   3
ENDBRANCH   1   2
BRANCH   1  33
ATOM     33  C   UNL A   1      32.027  32.943  26.701  1.00  0.00     0.275 C 
BRANCH  33  34
ATOM     34  O   UNL A   1      32.634  33.502  27.909  1.00  0.00    -0.458 OA
BRANCH  34  35
ATOM     35  C   UNL A   1      33.950  33.780  27.864  1.00  0.00     0.338 C 
ATOM     36  O   UNL A   1      34.412  34.881  27.601  1.00  0.00    -0.246 OA
BRANCH  35  37
ATOM     37  C   UNL A   1      34.903  32.698  28.208  1.00  0.00     0.060 A 
ATOM     38  C   UNL A   1      34.671  31.358  28.503  1.00  0.00     0.016 A 
ATOM     39  C   UNL A   1      36.217  33.156  28.248  1.00  0.00     0.016 A 
ATOM     40  C   UNL A   1      35.746  30.550  28.958  1.00  0.00     0.010 A 
ATOM     41  C   UNL A   1      37.259  32.398  28.724  1.00  0.00     0.010 A 
ATOM     42  C   UNL A   1      37.029  31.099  29.135  1.00  0.00    -0.014 A 
BRANCH  42  43
ATOM     43  C   UNL A   1      38.187  30.481  29.818  1.00  0.00     0.031 A 
ATOM     44  C   UNL A   1      38.597  31.015  31.170  1.00  0.00     0.074 A 
ATOM     45  C   UNL A   1      39.059  29.736  29.114  1.00  0.00     0.049 A 
ATOM     46  N   UNL A   1      39.594  30.659  31.936  1.00  0.00    -0.248 NA
ATOM     47  C   UNL A   1      37.816  32.151  31.698  1.00  0.00     0.031 C 
ATOM     48  C   UNL A   1      38.920  29.403  27.697  1.00  0.00     0.029 A 
ATOM     49  N   UNL A   1      40.263  29.187  29.474  1.00  0.00    -0.354 N 
ATOM     50  C   UNL A   1      39.531  31.496  33.047  1.00  0.00     0.074 A 
ATOM     51  C   UNL A   1      38.489  32.460  32.795  1.00  0.00     0.031 C 
ATOM     52  C   UNL A   1      39.994  28.695  27.310  1.00  0.00     0.029 A 
ATOM     53  C   UNL A   1      40.885  28.506  28.456  1.00  0.00     0.049 A 
ATOM     54  H   UNL A   1      40.645  29.272  30.377  1.00  0.00     0.167 HD
ATOM     55  C   UNL A   1      40.239  31.419  34.201  1.00  0.00     0.034 A 
ATOM     56  C   UNL A   1      42.021  27.779  28.462  1.00  0.00     0.034 A 
ATOM     57  C   UNL A   1      41.302  30.471  34.392  1.00  0.00     0.049 A 
ATOM     58  C   UNL A   1      42.750  27.595  29.772  1.00  0.00     0.074 A 
ATOM     59  C   UNL A   1      42.014  30.193  35.543  1.00  0.00     0.029 A 
ATOM     60  N   UNL A   1      41.818  29.657  33.391  1.00  0.00    -0.354 N 
ATOM     61  N   UNL A   1      42.519  28.175  30.928  1.00  0.00    -0.248 NA
ATOM     62  C   UNL A   1      43.859  26.631  29.802  1.00  0.00     0.031 C 
ATOM     63  C   UNL A   1      42.991  29.247  35.226  1.00  0.00     0.029 A 
ATOM     64  C   UNL A   1      42.846  28.883  33.895  1.00  0.00     0.049 A 
ATOM     65  H   UNL A   1      41.498  29.636  32.461  1.00  0.00     0.167 HD
ATOM     66  C   UNL A   1      43.430  27.628  31.827  1.00  0.00     0.074 A 
ATOM     67  C   UNL A   1      44.208  26.657  31.083  1.00  0.00     0.031 C 
ATOM     68  C   UNL A   1      43.601  27.903  33.146  1.00  0.00     0.034 A 
BRANCH  55  69
ATOM     69  C   UNL A   1      39.822  32.299  35.360  1.00  0.00     0.023 A 
ATOM     70  C   UNL A   1      38.953  31.833  36.364  1.00  0.00     0.031 A 
ATOM     71  C   UNL A   1      40.204  33.657  35.400  1.00  0.00     0.131 A 
ATOM     72  C   UNL A   1      38.493  32.718  37.352  1.00  0.00     0.055 A 
ATOM     73  C   UNL A   1      39.787  34.517  36.415  1.00  0.00     0.041 A 
ATOM     74  F   UNL A   1      41.009  34.170  34.454  1.00  0.00    -0.206 F 
ATOM     75  C   UNL A   1      38.917  34.051  37.392  1.00  0.00     0.022 A 
BRANCH  72  76
ATOM     76  S   UNL A   1      37.267  32.207  38.589  1.00  0.00     0.124 S 
ATOM     77  O   UNL A   1      37.890  32.655  39.832  1.00  0.00    -0.237 OA
ATOM     78  O   UNL A   1      36.087  32.963  38.178  1.00  0.00    -0.237 OA
ATOM     79  O   UNL A   1      37.179  30.760  38.421  1.00  0.00    -0.744 OA
ENDBRANCH  72  76
ENDBRANCH  55  69
BRANCH  56  80
ATOM     80  C   UNL A   1      42.380  27.028  27.225  1.00  0.00     0.023 A 
ATOM     81  C   UNL A   1      42.092  25.657  27.086  1.00  0.00     0.031 A 
ATOM     82  C   UNL A   1      43.193  27.635  26.251  1.00  0.00     0.131 A 
ATOM     83  C   UNL A   1      42.675  24.929  26.039  1.00  0.00     0.055 A 
ATOM     84  C   UNL A   1      43.721  26.919  25.177  1.00  0.00     0.041 A 
ATOM     85  F   UNL A   1      43.518  28.933  26.359  1.00  0.00    -0.206 F 
ATOM     86  C   UNL A   1      43.477  25.553  25.077  1.00  0.00     0.022 A 
BRANCH  83  87
ATOM     87  S   UNL A   1      42.538  23.120  25.967  1.00  0.00     0.124 S 
ATOM     88  O   UNL A   1      43.388  22.702  27.077  1.00  0.00    -0.237 OA
ATOM     89  O   UNL A   1      41.102  22.926  26.164  1.00  0.00    -0.237 OA
ATOM     90  O   UNL A   1      43.032  22.790  24.634  1.00  0.00    -0.744 OA
ENDBRANCH  83  87
ENDBRANCH  56  80
BRANCH  68  91
ATOM     91  C   UNL A   1      44.667  27.165  33.919  1.00  0.00     0.023 A 
ATOM     92  C   UNL A   1      44.342  25.960  34.572  1.00  0.00     0.031 A 
ATOM     93  C   UNL A   1      45.908  27.762  34.196  1.00  0.00     0.131 A 
ATOM     94  C   UNL A   1      45.218  25.429  35.526  1.00  0.00     0.055 A 
ATOM     95  C   UNL A   1      46.799  27.199  35.110  1.00  0.00     0.041 A 
ATOM     96  F   UNL A   1      46.254  28.918  33.608  1.00  0.00    -0.206 F 
ATOM     97  C   UNL A   1      46.447  26.038  35.795  1.00  0.00     0.022 A 
BRANCH  94  98
ATOM     98  S   UNL A   1      44.743  23.995  36.533  1.00  0.00     0.124 S 
ATOM     99  O   UNL A   1      45.989  23.231  36.578  1.00  0.00    -0.237 OA
ATOM    100  O   UNL A   1      44.352  24.622  37.792  1.00  0.00    -0.237 OA
ATOM    101  O   UNL A   1      43.663  23.373  35.775  1.00  0.00    -0.744 OA
ENDBRANCH  94  98
ENDBRANCH  68  91
ENDBRANCH  42  43
ENDBRANCH  35  37
ENDBRANCH  34  35
ENDBRANCH  33  34
ENDBRANCH   1  33
TORSDOF 20
ENDMDL
MODEL 3
REMARK VINA RESULT:     -11.5      4.446      9.983
REMARK SMILES CO[C@@H]1C[NH2+][C@@H](O[C@@H]2C[C@@H](C(=O)OCCOC(=O)c3ccc(-c4c5nc(c(-c6cc(S(=O)(=O)[O-])ccc6F)c6ccc([nH]6)c(-c6cc(S(=O)(=O)[O-])ccc6F)c6nc(c(-c7cc(S(=O)(=O)[O-])ccc7F)c7ccc4[nH]7)C=C6)C=C5)cc3)N(C(=O)OC(C)(C)C)C2)c2cc(Cl)ccc21
REMARK SMILES IDX 14 1 13 2 11 3 12 4 10 5 8 6 9 7 90 8 82 9 7 10 6 11 3 12
REMARK SMILES IDX 4 13 97 14 5 15 91 16 96 17 92 20 95 21 93 22 94 23 2 24
REMARK SMILES IDX 1 25 83 26 84 27 85 28 86 29 87 30 88 31 89 32 15 33 16 34
REMARK SMILES IDX 17 35 18 36 19 37 20 38 81 39 21 40 80 41 22 42 23 43 24 44
REMARK SMILES IDX 74 45 25 46 79 47 73 48 75 49 26 50 78 51 72 52 71 53 27 55
REMARK SMILES IDX 59 56 39 57 58 58 40 59 43 60 57 61 76 62 41 63 42 64 56 66
REMARK SMILES IDX 77 67 44 68 28 69 29 70 37 71 30 72 36 73 38 74 35 75 31 76
REMARK SMILES IDX 32 77 33 78 34 79 60 80 61 81 69 82 62 83 68 84 70 85 67 86
REMARK SMILES IDX 63 87 64 88 65 89 66 90 45 91 46 92 54 93 47 94 53 95 55 96
REMARK SMILES IDX 52 97 48 98 49 99 50 100 51 101
REMARK H PARENT 5 18 5 19 75 54 43 65
REMARK Flexibility Score: inf
ROOT
ATOM      1  C   UNL A   1      32.106  29.989  27.077  1.00  0.00     0.274 C 
ENDROOT
BRANCH   1   2
ATOM      2  O   UNL A   1      32.483  28.901  26.187  1.00  0.00    -0.461 OA
BRANCH   2   3
ATOM      3  C   UNL A   1      31.659  27.819  26.312  1.00  0.00     0.329 C 
ATOM      4  O   UNL A   1      30.987  27.631  27.327  1.00  0.00    -0.250 OA
BRANCH   3   5
ATOM      5  C   UNL A   1      31.421  27.001  25.008  1.00  0.00     0.201 C 
ATOM      6  C   UNL A   1      32.720  25.543  23.482  1.00  0.00     0.147 C 
ATOM      7  C   UNL A   1      32.561  25.947  24.938  1.00  0.00     0.071 C 
ATOM      8  C   UNL A   1      32.180  26.747  22.713  1.00  0.00     0.156 C 
ATOM      9  N   UNL A   1      31.344  27.525  23.632  1.00  0.00    -0.292 N 
BRANCH   6  10
ATOM     10  O   UNL A   1      32.413  24.241  23.002  1.00  0.00    -0.320 OA
BRANCH  10  11
ATOM     11  C   UNL A   1      33.276  23.148  22.719  1.00  0.00     0.354 C 
ATOM     12  C   UNL A   1      32.740  20.563  24.002  1.00  0.00     0.203 C 
ATOM     13  C   UNL A   1      31.899  21.177  22.854  1.00  0.00     0.300 C 
ATOM     14  C   UNL A   1      33.882  21.457  24.496  1.00  0.00    -0.002 A 
ATOM     15  N   UNL A   1      32.607  22.095  21.982  1.00  0.00    -0.315 N 
ATOM     16  C   UNL A   1      34.174  22.653  23.821  1.00  0.00     0.046 A 
ATOM     17  C   UNL A   1      34.661  21.138  25.626  1.00  0.00     0.009 A 
ATOM     18  H   UNL A   1      31.938  22.518  21.339  1.00  0.00     0.349 HD
ATOM     19  H   UNL A   1      33.320  21.563  21.481  1.00  0.00     0.349 HD
ATOM     20  C   UNL A   1      35.302  23.416  24.192  1.00  0.00     0.033 A 
ATOM     21  C   UNL A   1      35.720  21.948  26.048  1.00  0.00     0.021 A 
ATOM     22  C   UNL A   1      36.063  23.066  25.303  1.00  0.00     0.041 A 
ATOM     23  Cl  UNL A   1      37.397  24.040  25.776  1.00  0.00    -0.084 Cl
BRANCH  12  24
ATOM     24  O   UNL A   1      33.276  19.280  23.665  1.00  0.00    -0.371 OA
ATOM     25  C   UNL A   1      32.352  18.201  23.814  1.00  0.00     0.196 C 
ENDBRANCH  12  24
ENDBRANCH  10  11
ENDBRANCH   6  10
BRANCH   9  26
ATOM     26  C   UNL A   1      30.412  28.373  23.051  1.00  0.00     0.411 C 
ATOM     27  O   UNL A   1      29.848  28.066  22.015  1.00  0.00    -0.224 OA
BRANCH  26  28
ATOM     28  O   UNL A   1      30.186  29.545  23.710  1.00  0.00    -0.444 OA
BRANCH  28  29
ATOM     29  C   UNL A   1      29.124  30.429  23.223  1.00  0.00     0.106 C 
ATOM     30  C   UNL A   1      29.392  30.886  21.781  1.00  0.00     0.056 C 
ATOM     31  C   UNL A   1      27.741  29.786  23.393  1.00  0.00     0.056 C 
ATOM     32  C   UNL A   1      29.131  31.699  24.084  1.00  0.00     0.056 C 
ENDBRANCH  28  29
ENDBRANCH  26  28
ENDBRANCH   9  26
ENDBRANCH   3   5
ENDBRANCH   2   3
ENDBRANCH   1   2
BRANCH   1  33
ATOM     33  C   UNL A   1      32.862  31.308  26.778  1.00  0.00     0.275 C 
BRANCH  33  34
ATOM     34  O   UNL A   1      33.413  32.085  27.890  1.00  0.00    -0.458 OA
BRANCH  34  35
ATOM     35  C   UNL A   1      34.728  32.367  27.850  1.00  0.00     0.338 C 
ATOM     36  O   UNL A   1      35.188  33.471  27.595  1.00  0.00    -0.246 OA
BRANCH  35  37
ATOM     37  C   UNL A   1      35.683  31.285  28.190  1.00  0.00     0.060 A 
ATOM     38  C   UNL A   1      35.448  29.970  28.577  1.00  0.00     0.016 A 
ATOM     39  C   UNL A   1      37.004  31.716  28.116  1.00  0.00     0.016 A 
ATOM     40  C   UNL A   1      36.537  29.165  29.004  1.00  0.00     0.010 A 
ATOM     41  C   UNL A   1      38.063  30.964  28.564  1.00  0.00     0.010 A 
ATOM     42  C   UNL A   1      37.838  29.695  29.062  1.00  0.00    -0.014 A 
BRANCH  42  43
ATOM     43  C   UNL A   1      39.029  29.091  29.701  1.00  0.00     0.031 A 
ATOM     44  C   UNL A   1      39.621  29.770  30.914  1.00  0.00     0.074 A 
ATOM     45  C   UNL A   1      39.771  28.197  29.021  1.00  0.00     0.049 A 
ATOM     46  N   UNL A   1      40.676  29.447  31.613  1.00  0.00    -0.248 NA
ATOM     47  C   UNL A   1      38.971  31.020  31.356  1.00  0.00     0.031 C 
ATOM     48  C   UNL A   1      39.453  27.690  27.688  1.00  0.00     0.029 A 
ATOM     49  N   UNL A   1      40.975  27.616  29.327  1.00  0.00    -0.354 N 
ATOM     50  C   UNL A   1      40.788  30.427  32.596  1.00  0.00     0.074 A 
ATOM     51  C   UNL A   1      39.781  31.423  32.322  1.00  0.00     0.031 C 
ATOM     52  C   UNL A   1      40.434  26.860  27.293  1.00  0.00     0.029 A 
ATOM     53  C   UNL A   1      41.437  26.762  28.355  1.00  0.00     0.049 A 
ATOM     54  H   UNL A   1      41.461  27.793  30.164  1.00  0.00     0.167 HD
ATOM     55  C   UNL A   1      41.617  30.454  33.669  1.00  0.00     0.034 A 
ATOM     56  C   UNL A   1      42.523  25.961  28.344  1.00  0.00     0.034 A 
ATOM     57  C   UNL A   1      42.639  29.465  33.879  1.00  0.00     0.049 A 
ATOM     58  C   UNL A   1      43.384  25.901  29.583  1.00  0.00     0.074 A 
ATOM     59  C   UNL A   1      43.460  29.292  34.977  1.00  0.00     0.029 A 
ATOM     60  N   UNL A   1      42.989  28.490  32.954  1.00  0.00    -0.354 N 
ATOM     61  N   UNL A   1      43.320  26.646  30.664  1.00  0.00    -0.248 NA
ATOM     62  C   UNL A   1      44.432  24.872  29.632  1.00  0.00     0.031 C 
ATOM     63  C   UNL A   1      44.339  28.244  34.696  1.00  0.00     0.029 A 
ATOM     64  C   UNL A   1      44.022  27.717  33.451  1.00  0.00     0.049 A 
ATOM     65  H   UNL A   1      42.565  28.368  32.075  1.00  0.00     0.167 HD
ATOM     66  C   UNL A   1      44.294  26.159  31.531  1.00  0.00     0.074 A 
ATOM     67  C   UNL A   1      44.925  25.044  30.853  1.00  0.00     0.031 C 
ATOM     68  C   UNL A   1      44.630  26.594  32.772  1.00  0.00     0.034 A 
BRANCH  55  69
ATOM     69  C   UNL A   1      41.386  31.509  34.730  1.00  0.00     0.023 A 
ATOM     70  C   UNL A   1      40.288  31.443  35.609  1.00  0.00     0.031 A 
ATOM     71  C   UNL A   1      42.206  32.656  34.789  1.00  0.00     0.131 A 
ATOM     72  C   UNL A   1      40.040  32.504  36.493  1.00  0.00     0.055 A 
ATOM     73  C   UNL A   1      41.986  33.681  35.707  1.00  0.00     0.041 A 
ATOM     74  F   UNL A   1      43.252  32.791  33.957  1.00  0.00    -0.206 F 
ATOM     75  C   UNL A   1      40.891  33.613  36.559  1.00  0.00     0.022 A 
BRANCH  72  76
ATOM     76  S   UNL A   1      38.566  32.535  37.551  1.00  0.00     0.124 S 
ATOM     77  O   UNL A   1      38.115  33.916  37.399  1.00  0.00    -0.237 OA
ATOM     78  O   UNL A   1      37.715  31.530  36.918  1.00  0.00    -0.237 OA
ATOM     79  O   UNL A   1      39.074  32.187  38.874  1.00  0.00    -0.744 OA
ENDBRANCH  72  76
ENDBRANCH  55  69
BRANCH  56  80
ATOM     80  C   UNL A   1      42.695  25.028  27.194  1.00  0.00     0.023 A 
ATOM     81  C   UNL A   1      42.110  23.748  27.191  1.00  0.00     0.031 A 
ATOM     82  C   UNL A   1      43.613  25.339  26.174  1.00  0.00     0.131 A 
ATOM     83  C   UNL A   1      42.509  22.807  26.231  1.00  0.00     0.055 A 
ATOM     84  C   UNL A   1      43.959  24.419  25.185  1.00  0.00     0.041 A 
ATOM     85  F   UNL A   1      44.216  26.537  26.154  1.00  0.00    -0.206 F 
ATOM     86  C   UNL A   1      43.419  23.138  25.221  1.00  0.00     0.022 A 
BRANCH  83  87
ATOM     87  S   UNL A   1      41.975  21.075  26.340  1.00  0.00     0.124 S 
ATOM     88  O   UNL A   1      40.566  21.162  25.972  1.00  0.00    -0.237 OA
ATOM     89  O   UNL A   1      42.845  20.436  25.354  1.00  0.00    -0.237 OA
ATOM     90  O   UNL A   1      42.243  20.719  27.729  1.00  0.00    -0.744 OA
ENDBRANCH  83  87
ENDBRANCH  56  80
BRANCH  68  91
ATOM     91  C   UNL A   1      45.732  25.891  33.525  1.00  0.00     0.023 A 
ATOM     92  C   UNL A   1      47.077  26.177  33.217  1.00  0.00     0.031 A 
ATOM     93  C   UNL A   1      45.457  24.794  34.359  1.00  0.00     0.131 A 
ATOM     94  C   UNL A   1      48.092  25.332  33.680  1.00  0.00     0.055 A 
ATOM     95  C   UNL A   1      46.478  23.986  34.861  1.00  0.00     0.041 A 
ATOM     96  F   UNL A   1      44.190  24.475  34.668  1.00  0.00    -0.206 F 
ATOM     97  C   UNL A   1      47.800  24.241  34.505  1.00  0.00     0.022 A 
BRANCH  94  98
ATOM     98  S   UNL A   1      49.810  25.549  33.136  1.00  0.00     0.124 S 
ATOM     99  O   UNL A   1      49.647  26.379  31.944  1.00  0.00    -0.237 OA
ATOM    100  O   UNL A   1      50.411  26.219  34.285  1.00  0.00    -0.237 OA
ATOM    101  O   UNL A   1      50.275  24.189  32.884  1.00  0.00    -0.744 OA
ENDBRANCH  94  98
ENDBRANCH  68  91
ENDBRANCH  42  43
ENDBRANCH  35  37
ENDBRANCH  34  35
ENDBRANCH  33  34
ENDBRANCH   1  33
TORSDOF 20
ENDMDL
