MODEL 1
REMARK VINA RESULT:     -12.8      0.000      0.000
REMARK SMILES Cc1ccc(C(=O)c2cccc(C)c2C(=O)OCCOC(=O)c2ccc(-c3c4nc(c(-c5cc(S(=O)(=O)[O-])ccc5F)c5ccc([nH]5)c(-c5cc(S(=O)(=O)[O-])ccc5F)c5nc(c(-c6cc(S(=O)(=O)[O-])ccc6F)c6ccc3[nH]6)C=C5)C=C4)cc2)c(C)c1
REMARK SMILES IDX 19 1 18 2 17 3 15 4 16 5 14 6 8 7 9 8 10 9 12 10 11 11 13 12
REMARK SMILES IDX 6 13 7 14 5 15 1 16 2 17 3 18 88 19 4 20 86 21 87 22 20 23
REMARK SMILES IDX 21 24 22 25 23 26 24 27 85 28 25 29 84 30 26 31 27 32 28 33
REMARK SMILES IDX 78 34 29 35 83 36 77 37 79 38 30 39 82 40 76 41 75 42 31 44
REMARK SMILES IDX 63 45 43 46 62 47 44 48 47 49 61 50 80 51 45 52 46 53 60 55
REMARK SMILES IDX 81 56 48 57 32 58 33 59 41 60 34 61 40 62 42 63 39 64 35 65
REMARK SMILES IDX 36 66 37 67 38 68 64 69 65 70 73 71 66 72 72 73 74 74 71 75
REMARK SMILES IDX 67 76 68 77 69 78 70 79 49 80 50 81 58 82 51 83 57 84 59 85
REMARK SMILES IDX 56 86 52 87 53 88 54 89 55 90
REMARK H PARENT 79 43 47 54
REMARK Flexibility Score: inf
ROOT
ATOM      1  C   UNL A   1      34.743  29.130  27.294  1.00  0.00     0.275 C 
ENDROOT
BRANCH   1   2
ATOM      2  C   UNL A   1      33.281  28.757  27.025  1.00  0.00     0.275 C 
BRANCH   2   3
ATOM      3  O   UNL A   1      33.079  27.723  26.058  1.00  0.00    -0.458 OA
BRANCH   3   4
ATOM      4  C   UNL A   1      31.875  27.142  26.023  1.00  0.00     0.339 C 
ATOM      5  O   UNL A   1      31.113  26.962  26.963  1.00  0.00    -0.246 OA
BRANCH   4   6
ATOM      6  C   UNL A   1      31.482  26.867  24.624  1.00  0.00     0.074 A 
ATOM      7  C   UNL A   1      31.790  25.604  24.077  1.00  0.00     0.037 A 
ATOM      8  C   UNL A   1      31.788  25.437  22.683  1.00  0.00     0.013 A 
ATOM      9  C   UNL A   1      31.474  26.502  21.842  1.00  0.00     0.001 A 
ATOM     10  C   UNL A   1      31.078  27.926  23.775  1.00  0.00    -0.036 A 
ATOM     11  C   UNL A   1      31.086  27.723  22.385  1.00  0.00     0.004 A 
ATOM     12  C   UNL A   1      30.557  29.249  24.266  1.00  0.00     0.045 C 
BRANCH   7  13
ATOM     13  C   UNL A   1      32.073  24.403  24.938  1.00  0.00     0.194 C 
ATOM     14  O   UNL A   1      31.208  23.874  25.582  1.00  0.00    -0.289 OA
BRANCH  13  15
ATOM     15  C   UNL A   1      33.436  23.803  24.942  1.00  0.00     0.025 A 
ATOM     16  C   UNL A   1      37.484  22.361  24.870  1.00  0.00     0.044 C 
ATOM     17  C   UNL A   1      36.071  22.850  24.945  1.00  0.00    -0.051 A 
ATOM     18  C   UNL A   1      35.723  23.948  25.734  1.00  0.00     0.004 A 
ATOM     19  C   UNL A   1      35.084  22.206  24.190  1.00  0.00     0.007 A 
ATOM     20  C   UNL A   1      34.412  24.419  25.738  1.00  0.00     0.013 A 
ATOM     21  C   UNL A   1      33.754  22.656  24.189  1.00  0.00    -0.040 A 
ATOM     22  C   UNL A   1      32.778  21.834  23.393  1.00  0.00     0.045 C 
ENDBRANCH  13  15
ENDBRANCH   7  13
ENDBRANCH   4   6
ENDBRANCH   3   4
ENDBRANCH   2   3
ENDBRANCH   1   2
BRANCH   1  23
ATOM     23  O   UNL A   1      35.009  30.419  27.894  1.00  0.00    -0.458 OA
BRANCH  23  24
ATOM     24  C   UNL A   1      35.958  30.735  28.821  1.00  0.00     0.338 C 
ATOM     25  O   UNL A   1      35.700  31.513  29.734  1.00  0.00    -0.246 OA
BRANCH  24  26
ATOM     26  C   UNL A   1      37.204  29.934  28.869  1.00  0.00     0.060 A 
ATOM     27  C   UNL A   1      37.343  28.989  29.903  1.00  0.00     0.016 A 
ATOM     28  C   UNL A   1      38.126  29.966  27.831  1.00  0.00     0.016 A 
ATOM     29  C   UNL A   1      38.345  28.027  29.854  1.00  0.00     0.010 A 
ATOM     30  C   UNL A   1      39.004  28.918  27.681  1.00  0.00     0.010 A 
ATOM     31  C   UNL A   1      39.171  28.003  28.731  1.00  0.00    -0.014 A 
BRANCH  31  32
ATOM     32  C   UNL A   1      40.498  27.405  28.762  1.00  0.00     0.031 A 
ATOM     33  C   UNL A   1      40.768  25.987  28.466  1.00  0.00     0.074 A 
ATOM     34  C   UNL A   1      41.463  28.304  29.070  1.00  0.00     0.049 A 
ATOM     35  N   UNL A   1      41.867  25.390  28.764  1.00  0.00    -0.248 NA
ATOM     36  C   UNL A   1      39.818  25.093  27.818  1.00  0.00     0.031 C 
ATOM     37  C   UNL A   1      42.907  28.160  29.061  1.00  0.00     0.029 A 
ATOM     38  N   UNL A   1      41.295  29.573  29.642  1.00  0.00    -0.354 N 
ATOM     39  C   UNL A   1      41.916  24.192  28.080  1.00  0.00     0.074 A 
ATOM     40  C   UNL A   1      40.575  24.010  27.583  1.00  0.00     0.031 C 
ATOM     41  C   UNL A   1      43.417  29.070  29.916  1.00  0.00     0.029 A 
ATOM     42  C   UNL A   1      42.289  29.690  30.601  1.00  0.00     0.049 A 
ATOM     43  H   UNL A   1      40.612  30.242  29.409  1.00  0.00     0.167 HD
ATOM     44  C   UNL A   1      43.140  23.611  27.916  1.00  0.00     0.034 A 
ATOM     45  C   UNL A   1      42.008  29.586  31.938  1.00  0.00     0.034 A 
ATOM     46  C   UNL A   1      44.116  24.262  28.796  1.00  0.00     0.049 A 
ATOM     47  C   UNL A   1      42.751  28.415  32.558  1.00  0.00     0.074 A 
ATOM     48  C   UNL A   1      45.066  25.247  28.584  1.00  0.00     0.029 A 
ATOM     49  N   UNL A   1      43.925  24.187  30.172  1.00  0.00    -0.354 N 
ATOM     50  N   UNL A   1      43.139  27.360  31.889  1.00  0.00    -0.248 NA
ATOM     51  C   UNL A   1      43.148  28.364  33.959  1.00  0.00     0.031 C 
ATOM     52  C   UNL A   1      45.328  25.864  29.841  1.00  0.00     0.029 A 
ATOM     53  C   UNL A   1      44.577  25.222  30.813  1.00  0.00     0.049 A 
ATOM     54  H   UNL A   1      43.398  23.491  30.626  1.00  0.00     0.167 HD
ATOM     55  C   UNL A   1      43.875  26.542  32.702  1.00  0.00     0.074 A 
ATOM     56  C   UNL A   1      43.850  27.218  33.991  1.00  0.00     0.031 C 
ATOM     57  C   UNL A   1      44.454  25.382  32.257  1.00  0.00     0.034 A 
BRANCH  44  58
ATOM     58  C   UNL A   1      43.554  22.676  26.792  1.00  0.00     0.023 A 
ATOM     59  C   UNL A   1      42.997  21.374  26.768  1.00  0.00     0.031 A 
ATOM     60  C   UNL A   1      44.523  22.922  25.801  1.00  0.00     0.131 A 
ATOM     61  C   UNL A   1      43.442  20.383  25.871  1.00  0.00     0.055 A 
ATOM     62  C   UNL A   1      44.970  21.934  24.905  1.00  0.00     0.041 A 
ATOM     63  F   UNL A   1      45.079  24.125  25.631  1.00  0.00    -0.206 F 
ATOM     64  C   UNL A   1      44.439  20.654  24.943  1.00  0.00     0.022 A 
BRANCH  61  65
ATOM     65  S   UNL A   1      42.715  18.721  25.956  1.00  0.00     0.124 S 
ATOM     66  O   UNL A   1      42.921  18.365  27.355  1.00  0.00    -0.237 OA
ATOM     67  O   UNL A   1      41.336  18.961  25.545  1.00  0.00    -0.237 OA
ATOM     68  O   UNL A   1      43.515  17.953  25.001  1.00  0.00    -0.744 OA
ENDBRANCH  61  65
ENDBRANCH  44  58
BRANCH  45  69
ATOM     69  C   UNL A   1      40.670  30.100  32.389  1.00  0.00     0.023 A 
ATOM     70  C   UNL A   1      40.319  31.421  32.030  1.00  0.00     0.031 A 
ATOM     71  C   UNL A   1      39.651  29.303  32.927  1.00  0.00     0.131 A 
ATOM     72  C   UNL A   1      38.983  31.857  32.061  1.00  0.00     0.055 A 
ATOM     73  C   UNL A   1      38.324  29.765  33.027  1.00  0.00     0.041 A 
ATOM     74  F   UNL A   1      39.889  28.034  33.290  1.00  0.00    -0.206 F 
ATOM     75  C   UNL A   1      37.976  31.035  32.559  1.00  0.00     0.022 A 
BRANCH  72  76
ATOM     76  S   UNL A   1      38.594  33.423  31.225  1.00  0.00     0.124 S 
ATOM     77  O   UNL A   1      37.253  33.710  31.723  1.00  0.00    -0.237 OA
ATOM     78  O   UNL A   1      39.660  34.294  31.718  1.00  0.00    -0.237 OA
ATOM     79  O   UNL A   1      38.672  33.099  29.807  1.00  0.00    -0.744 OA
ENDBRANCH  72  76
ENDBRANCH  45  69
BRANCH  57  80
ATOM     80  C   UNL A   1      45.031  24.316  33.157  1.00  0.00     0.023 A 
ATOM     81  C   UNL A   1      46.308  24.419  33.717  1.00  0.00     0.031 A 
ATOM     82  C   UNL A   1      44.274  23.187  33.555  1.00  0.00     0.131 A 
ATOM     83  C   UNL A   1      46.840  23.388  34.505  1.00  0.00     0.055 A 
ATOM     84  C   UNL A   1      44.761  22.221  34.439  1.00  0.00     0.041 A 
ATOM     85  F   UNL A   1      43.026  22.977  33.111  1.00  0.00    -0.206 F 
ATOM     86  C   UNL A   1      46.067  22.302  34.898  1.00  0.00     0.022 A 
BRANCH  83  87
ATOM     87  S   UNL A   1      48.608  23.455  34.884  1.00  0.00     0.124 S 
ATOM     88  O   UNL A   1      49.139  24.128  33.701  1.00  0.00    -0.237 OA
ATOM     89  O   UNL A   1      48.635  24.231  36.119  1.00  0.00    -0.237 OA
ATOM     90  O   UNL A   1      48.983  22.049  35.018  1.00  0.00    -0.744 OA
ENDBRANCH  83  87
ENDBRANCH  57  80
ENDBRANCH  31  32
ENDBRANCH  24  26
ENDBRANCH  23  24
ENDBRANCH   1  23
TORSDOF 16
ENDMDL
MODEL 2
REMARK VINA RESULT:     -12.7      4.028     10.440
REMARK SMILES Cc1ccc(C(=O)c2cccc(C)c2C(=O)OCCOC(=O)c2ccc(-c3c4nc(c(-c5cc(S(=O)(=O)[O-])ccc5F)c5ccc([nH]5)c(-c5cc(S(=O)(=O)[O-])ccc5F)c5nc(c(-c6cc(S(=O)(=O)[O-])ccc6F)c6ccc3[nH]6)C=C5)C=C4)cc2)c(C)c1
REMARK SMILES IDX 19 1 18 2 17 3 15 4 16 5 14 6 8 7 9 8 10 9 12 10 11 11 13 12
REMARK SMILES IDX 6 13 7 14 5 15 1 16 2 17 3 18 88 19 4 20 86 21 87 22 20 23
REMARK SMILES IDX 21 24 22 25 23 26 24 27 85 28 25 29 84 30 26 31 27 32 28 33
REMARK SMILES IDX 78 34 29 35 83 36 77 37 79 38 30 39 82 40 76 41 75 42 31 44
REMARK SMILES IDX 63 45 43 46 62 47 44 48 47 49 61 50 80 51 45 52 46 53 60 55
REMARK SMILES IDX 81 56 48 57 32 58 33 59 41 60 34 61 40 62 42 63 39 64 35 65
REMARK SMILES IDX 36 66 37 67 38 68 64 69 65 70 73 71 66 72 72 73 74 74 71 75
REMARK SMILES IDX 67 76 68 77 69 78 70 79 49 80 50 81 58 82 51 83 57 84 59 85
REMARK SMILES IDX 56 86 52 87 53 88 54 89 55 90
REMARK H PARENT 79 43 47 54
REMARK Flexibility Score: inf
ROOT
ATOM      1  C   UNL A   1      38.643  22.695  26.117  1.00  0.00     0.275 C 
ENDROOT
BRANCH   1   2
ATOM      2  C   UNL A   1      37.556  23.706  25.739  1.00  0.00     0.275 C 
BRANCH   2   3
ATOM      3  O   UNL A   1      36.262  23.152  25.486  1.00  0.00    -0.458 OA
BRANCH   3   4
ATOM      4  C   UNL A   1      35.985  22.788  24.229  1.00  0.00     0.339 C 
ATOM      5  O   UNL A   1      36.642  23.032  23.226  1.00  0.00    -0.246 OA
BRANCH   4   6
ATOM      6  C   UNL A   1      34.817  21.881  24.206  1.00  0.00     0.074 A 
ATOM      7  C   UNL A   1      33.545  22.431  23.942  1.00  0.00     0.037 A 
ATOM      8  C   UNL A   1      32.395  21.702  24.284  1.00  0.00     0.013 A 
ATOM      9  C   UNL A   1      32.500  20.441  24.867  1.00  0.00     0.001 A 
ATOM     10  C   UNL A   1      34.925  20.565  24.718  1.00  0.00    -0.036 A 
ATOM     11  C   UNL A   1      33.753  19.864  25.046  1.00  0.00     0.004 A 
ATOM     12  C   UNL A   1      36.226  19.821  24.862  1.00  0.00     0.045 C 
BRANCH   7  13
ATOM     13  C   UNL A   1      33.371  23.759  23.257  1.00  0.00     0.194 C 
ATOM     14  O   UNL A   1      33.512  23.875  22.070  1.00  0.00    -0.289 OA
BRANCH  13  15
ATOM     15  C   UNL A   1      32.941  24.946  24.046  1.00  0.00     0.025 A 
ATOM     16  C   UNL A   1      31.866  28.252  26.573  1.00  0.00     0.044 C 
ATOM     17  C   UNL A   1      32.263  27.134  25.660  1.00  0.00    -0.051 A 
ATOM     18  C   UNL A   1      33.604  26.802  25.458  1.00  0.00     0.004 A 
ATOM     19  C   UNL A   1      31.267  26.392  25.015  1.00  0.00     0.007 A 
ATOM     20  C   UNL A   1      33.942  25.718  24.651  1.00  0.00     0.013 A 
ATOM     21  C   UNL A   1      31.586  25.303  24.187  1.00  0.00    -0.040 A 
ATOM     22  C   UNL A   1      30.428  24.636  23.497  1.00  0.00     0.045 C 
ENDBRANCH  13  15
ENDBRANCH   7  13
ENDBRANCH   4   6
ENDBRANCH   3   4
ENDBRANCH   2   3
ENDBRANCH   1   2
BRANCH   1  23
ATOM     23  O   UNL A   1      39.663  23.120  27.051  1.00  0.00    -0.458 OA
BRANCH  23  24
ATOM     24  C   UNL A   1      40.655  24.033  26.852  1.00  0.00     0.338 C 
ATOM     25  O   UNL A   1      41.517  23.838  26.000  1.00  0.00    -0.246 OA
BRANCH  24  26
ATOM     26  C   UNL A   1      40.532  25.371  27.479  1.00  0.00     0.060 A 
ATOM     27  C   UNL A   1      40.795  26.501  26.683  1.00  0.00     0.016 A 
ATOM     28  C   UNL A   1      39.991  25.527  28.749  1.00  0.00     0.016 A 
ATOM     29  C   UNL A   1      40.440  27.772  27.118  1.00  0.00     0.010 A 
ATOM     30  C   UNL A   1      39.476  26.750  29.112  1.00  0.00     0.010 A 
ATOM     31  C   UNL A   1      39.777  27.882  28.340  1.00  0.00    -0.014 A 
BRANCH  31  32
ATOM     32  C   UNL A   1      39.781  29.116  29.112  1.00  0.00     0.031 A 
ATOM     33  C   UNL A   1      38.782  30.186  28.957  1.00  0.00     0.074 A 
ATOM     34  C   UNL A   1      40.795  29.161  30.009  1.00  0.00     0.049 A 
ATOM     35  N   UNL A   1      38.933  31.379  29.412  1.00  0.00    -0.248 NA
ATOM     36  C   UNL A   1      37.515  30.025  28.255  1.00  0.00     0.031 C 
ATOM     37  C   UNL A   1      41.068  30.124  31.058  1.00  0.00     0.029 A 
ATOM     38  N   UNL A   1      41.942  28.356  30.040  1.00  0.00    -0.354 N 
ATOM     39  C   UNL A   1      37.711  32.021  29.378  1.00  0.00     0.074 A 
ATOM     40  C   UNL A   1      36.884  31.170  28.560  1.00  0.00     0.031 C 
ATOM     41  C   UNL A   1      42.390  30.085  31.321  1.00  0.00     0.029 A 
ATOM     42  C   UNL A   1      42.996  29.211  30.323  1.00  0.00     0.049 A 
ATOM     43  H   UNL A   1      41.989  27.384  29.891  1.00  0.00     0.167 HD
ATOM     44  C   UNL A   1      37.550  33.111  30.183  1.00  0.00     0.034 A 
ATOM     45  C   UNL A   1      43.884  29.597  29.353  1.00  0.00     0.034 A 
ATOM     46  C   UNL A   1      38.856  33.545  30.690  1.00  0.00     0.049 A 
ATOM     47  C   UNL A   1      43.850  31.103  29.156  1.00  0.00     0.074 A 
ATOM     48  C   UNL A   1      39.520  33.333  31.887  1.00  0.00     0.029 A 
ATOM     49  N   UNL A   1      39.814  33.977  29.779  1.00  0.00    -0.354 N 
ATOM     50  N   UNL A   1      42.811  31.850  29.423  1.00  0.00    -0.248 NA
ATOM     51  C   UNL A   1      44.991  31.879  28.687  1.00  0.00     0.031 C 
ATOM     52  C   UNL A   1      40.912  33.498  31.638  1.00  0.00     0.029 A 
ATOM     53  C   UNL A   1      41.083  33.857  30.310  1.00  0.00     0.049 A 
ATOM     54  H   UNL A   1      39.614  34.323  28.879  1.00  0.00     0.167 HD
ATOM     55  C   UNL A   1      43.132  33.169  29.246  1.00  0.00     0.074 A 
ATOM     56  C   UNL A   1      44.511  33.131  28.783  1.00  0.00     0.031 C 
ATOM     57  C   UNL A   1      42.250  34.186  29.500  1.00  0.00     0.034 A 
BRANCH  44  58
ATOM     58  C   UNL A   1      36.242  33.626  30.758  1.00  0.00     0.023 A 
ATOM     59  C   UNL A   1      35.323  34.245  29.876  1.00  0.00     0.031 A 
ATOM     60  C   UNL A   1      35.865  33.648  32.114  1.00  0.00     0.131 A 
ATOM     61  C   UNL A   1      34.164  34.900  30.337  1.00  0.00     0.055 A 
ATOM     62  C   UNL A   1      34.709  34.303  32.577  1.00  0.00     0.041 A 
ATOM     63  F   UNL A   1      36.575  33.029  33.062  1.00  0.00    -0.206 F 
ATOM     64  C   UNL A   1      33.857  34.944  31.691  1.00  0.00     0.022 A 
BRANCH  61  65
ATOM     65  S   UNL A   1      33.076  35.723  29.139  1.00  0.00     0.124 S 
ATOM     66  O   UNL A   1      32.139  36.429  30.006  1.00  0.00    -0.237 OA
ATOM     67  O   UNL A   1      34.010  36.552  28.385  1.00  0.00    -0.237 OA
ATOM     68  O   UNL A   1      32.498  34.610  28.386  1.00  0.00    -0.744 OA
ENDBRANCH  61  65
ENDBRANCH  44  58
BRANCH  45  69
ATOM     69  C   UNL A   1      44.195  28.589  28.283  1.00  0.00     0.023 A 
ATOM     70  C   UNL A   1      44.699  27.332  28.690  1.00  0.00     0.031 A 
ATOM     71  C   UNL A   1      43.805  28.705  26.942  1.00  0.00     0.131 A 
ATOM     72  C   UNL A   1      44.658  26.217  27.836  1.00  0.00     0.055 A 
ATOM     73  C   UNL A   1      43.833  27.604  26.065  1.00  0.00     0.041 A 
ATOM     74  F   UNL A   1      43.309  29.858  26.468  1.00  0.00    -0.206 F 
ATOM     75  C   UNL A   1      44.227  26.342  26.519  1.00  0.00     0.022 A 
BRANCH  72  76
ATOM     76  S   UNL A   1      44.967  24.585  28.576  1.00  0.00     0.124 S 
ATOM     77  O   UNL A   1      43.620  24.030  28.662  1.00  0.00    -0.237 OA
ATOM     78  O   UNL A   1      45.849  23.974  27.583  1.00  0.00    -0.237 OA
ATOM     79  O   UNL A   1      45.596  24.887  29.855  1.00  0.00    -0.744 OA
ENDBRANCH  72  76
ENDBRANCH  45  69
BRANCH  57  80
ATOM     80  C   UNL A   1      42.450  35.617  29.064  1.00  0.00     0.023 A 
ATOM     81  C   UNL A   1      43.264  36.510  29.770  1.00  0.00     0.031 A 
ATOM     82  C   UNL A   1      41.890  36.116  27.863  1.00  0.00     0.131 A 
ATOM     83  C   UNL A   1      43.388  37.849  29.374  1.00  0.00     0.055 A 
ATOM     84  C   UNL A   1      42.114  37.417  27.404  1.00  0.00     0.041 A 
ATOM     85  F   UNL A   1      41.109  35.361  27.076  1.00  0.00    -0.206 F 
ATOM     86  C   UNL A   1      42.844  38.305  28.178  1.00  0.00     0.022 A 
BRANCH  83  87
ATOM     87  S   UNL A   1      44.166  38.995  30.537  1.00  0.00     0.124 S 
ATOM     88  O   UNL A   1      43.987  38.295  31.807  1.00  0.00    -0.237 OA
ATOM     89  O   UNL A   1      45.537  39.063  30.040  1.00  0.00    -0.237 OA
ATOM     90  O   UNL A   1      43.384  40.219  30.387  1.00  0.00    -0.744 OA
ENDBRANCH  83  87
ENDBRANCH  57  80
ENDBRANCH  31  32
ENDBRANCH  24  26
ENDBRANCH  23  24
ENDBRANCH   1  23
TORSDOF 16
ENDMDL
MODEL 3
REMARK VINA RESULT:     -12.2      1.852      2.404
REMARK SMILES Cc1ccc(C(=O)c2cccc(C)c2C(=O)OCCOC(=O)c2ccc(-c3c4nc(c(-c5cc(S(=O)(=O)[O-])ccc5F)c5ccc([nH]5)c(-c5cc(S(=O)(=O)[O-])ccc5F)c5nc(c(-c6cc(S(=O)(=O)[O-])ccc6F)c6ccc3[nH]6)C=C5)C=C4)cc2)c(C)c1
REMARK SMILES IDX 19 1 18 2 17 3 15 4 16 5 14 6 8 7 9 8 10 9 12 10 11 11 13 12
REMARK SMILES IDX 6 13 7 14 5 15 1 16 2 17 3 18 88 19 4 20 86 21 87 22 20 23
REMARK SMILES IDX 21 24 22 25 23 26 24 27 85 28 25 29 84 30 26 31 27 32 28 33
REMARK SMILES IDX 78 34 29 35 83 36 77 37 79 38 30 39 82 40 76 41 75 42 31 44
REMARK SMILES IDX 63 45 43 46 62 47 44 48 47 49 61 50 80 51 45 52 46 53 60 55
REMARK SMILES IDX 81 56 48 57 32 58 33 59 41 60 34 61 40 62 42 63 39 64 35 65
REMARK SMILES IDX 36 66 37 67 38 68 64 69 65 70 73 71 66 72 72 73 74 74 71 75
REMARK SMILES IDX 67 76 68 77 69 78 70 79 49 80 50 81 58 82 51 83 57 84 59 85
REMARK SMILES IDX 56 86 52 87 53 88 54 89 55 90
REMARK H PARENT 79 43 47 54
REMARK Flexibility Score: inf
ROOT
ATOM      1  C   UNL A   1      34.411  30.110  27.640  1.00  0.00     0.275 C 
ENDROOT
BRANCH   1   2
ATOM      2  C   UNL A   1      33.985  28.641  27.543  1.00  0.00     0.275 C 
BRANCH   2   3
ATOM      3  O   UNL A   1      33.213  28.301  26.388  1.00  0.00    -0.458 OA
BRANCH   3   4
ATOM      4  C   UNL A   1      31.948  27.914  26.588  1.00  0.00     0.339 C 
ATOM      5  O   UNL A   1      31.337  27.901  27.648  1.00  0.00    -0.246 OA
BRANCH   4   6
ATOM      6  C   UNL A   1      31.289  27.638  25.293  1.00  0.00     0.074 A 
ATOM      7  C   UNL A   1      31.171  26.296  24.874  1.00  0.00     0.037 A 
ATOM      8  C   UNL A   1      30.914  26.016  23.523  1.00  0.00     0.013 A 
ATOM      9  C   UNL A   1      30.763  27.049  22.600  1.00  0.00     0.001 A 
ATOM     10  C   UNL A   1      31.049  28.688  24.375  1.00  0.00    -0.036 A 
ATOM     11  C   UNL A   1      30.792  28.372  23.030  1.00  0.00     0.004 A 
ATOM     12  C   UNL A   1      30.970  30.141  24.758  1.00  0.00     0.045 C 
BRANCH   7  13
ATOM     13  C   UNL A   1      31.261  25.143  25.836  1.00  0.00     0.194 C 
ATOM     14  O   UNL A   1      30.619  25.122  26.852  1.00  0.00    -0.289 OA
BRANCH  13  15
ATOM     15  C   UNL A   1      32.103  23.962  25.498  1.00  0.00     0.025 A 
ATOM     16  C   UNL A   1      34.397  20.401  24.772  1.00  0.00     0.044 C 
ATOM     17  C   UNL A   1      33.578  21.637  24.977  1.00  0.00    -0.051 A 
ATOM     18  C   UNL A   1      32.184  21.583  25.036  1.00  0.00     0.004 A 
ATOM     19  C   UNL A   1      34.225  22.868  25.137  1.00  0.00     0.007 A 
ATOM     20  C   UNL A   1      31.450  22.740  25.289  1.00  0.00     0.013 A 
ATOM     21  C   UNL A   1      33.504  24.048  25.381  1.00  0.00    -0.040 A 
ATOM     22  C   UNL A   1      34.313  25.313  25.460  1.00  0.00     0.045 C 
ENDBRANCH  13  15
ENDBRANCH   7  13
ENDBRANCH   4   6
ENDBRANCH   3   4
ENDBRANCH   2   3
ENDBRANCH   1   2
BRANCH   1  23
ATOM     23  O   UNL A   1      35.737  30.459  27.178  1.00  0.00    -0.458 OA
BRANCH  23  24
ATOM     24  C   UNL A   1      36.830  30.779  27.928  1.00  0.00     0.338 C 
ATOM     25  O   UNL A   1      36.818  31.773  28.649  1.00  0.00    -0.246 OA
BRANCH  24  26
ATOM     26  C   UNL A   1      37.918  29.783  28.068  1.00  0.00     0.060 A 
ATOM     27  C   UNL A   1      37.799  28.812  29.079  1.00  0.00     0.016 A 
ATOM     28  C   UNL A   1      38.931  29.681  27.123  1.00  0.00     0.016 A 
ATOM     29  C   UNL A   1      38.632  27.700  29.094  1.00  0.00     0.010 A 
ATOM     30  C   UNL A   1      39.638  28.505  27.023  1.00  0.00     0.010 A 
ATOM     31  C   UNL A   1      39.550  27.558  28.054  1.00  0.00    -0.014 A 
BRANCH  31  32
ATOM     32  C   UNL A   1      40.752  26.749  28.191  1.00  0.00     0.031 A 
ATOM     33  C   UNL A   1      40.754  25.277  28.227  1.00  0.00     0.074 A 
ATOM     34  C   UNL A   1      41.877  27.502  28.257  1.00  0.00     0.049 A 
ATOM     35  N   UNL A   1      41.750  24.571  28.630  1.00  0.00    -0.248 NA
ATOM     36  C   UNL A   1      39.622  24.450  27.829  1.00  0.00     0.031 C 
ATOM     37  C   UNL A   1      43.270  27.097  28.246  1.00  0.00     0.029 A 
ATOM     38  N   UNL A   1      41.968  28.875  28.521  1.00  0.00    -0.354 N 
ATOM     39  C   UNL A   1      41.545  23.262  28.243  1.00  0.00     0.074 A 
ATOM     40  C   UNL A   1      40.164  23.221  27.835  1.00  0.00     0.031 C 
ATOM     41  C   UNL A   1      43.985  28.067  28.853  1.00  0.00     0.029 A 
ATOM     42  C   UNL A   1      43.029  29.022  29.402  1.00  0.00     0.049 A 
ATOM     43  H   UNL A   1      41.397  29.589  28.155  1.00  0.00     0.167 HD
ATOM     44  C   UNL A   1      42.637  22.444  28.189  1.00  0.00     0.034 A 
ATOM     45  C   UNL A   1      42.824  29.274  30.733  1.00  0.00     0.034 A 
ATOM     46  C   UNL A   1      43.767  23.086  28.868  1.00  0.00     0.049 A 
ATOM     47  C   UNL A   1      43.393  28.157  31.590  1.00  0.00     0.074 A 
ATOM     48  C   UNL A   1      44.857  23.806  28.409  1.00  0.00     0.029 A 
ATOM     49  N   UNL A   1      43.658  23.359  30.228  1.00  0.00    -0.354 N 
ATOM     50  N   UNL A   1      43.547  26.926  31.176  1.00  0.00    -0.248 NA
ATOM     51  C   UNL A   1      43.868  28.350  32.954  1.00  0.00     0.031 C 
ATOM     52  C   UNL A   1      45.304  24.632  29.480  1.00  0.00     0.029 A 
ATOM     53  C   UNL A   1      44.520  24.374  30.593  1.00  0.00     0.049 A 
ATOM     54  H   UNL A   1      43.050  22.892  30.845  1.00  0.00     0.167 HD
ATOM     55  C   UNL A   1      44.184  26.190  32.139  1.00  0.00     0.074 A 
ATOM     56  C   UNL A   1      44.361  27.132  33.235  1.00  0.00     0.031 C 
ATOM     57  C   UNL A   1      44.523  24.874  31.963  1.00  0.00     0.034 A 
BRANCH  44  58
ATOM     58  C   UNL A   1      42.808  21.220  27.304  1.00  0.00     0.023 A 
ATOM     59  C   UNL A   1      43.845  21.235  26.338  1.00  0.00     0.031 A 
ATOM     60  C   UNL A   1      41.979  20.084  27.263  1.00  0.00     0.131 A 
ATOM     61  C   UNL A   1      43.977  20.225  25.365  1.00  0.00     0.055 A 
ATOM     62  C   UNL A   1      42.108  19.075  26.291  1.00  0.00     0.041 A 
ATOM     63  F   UNL A   1      41.013  19.873  28.163  1.00  0.00    -0.206 F 
ATOM     64  C   UNL A   1      43.103  19.147  25.327  1.00  0.00     0.022 A 
BRANCH  61  65
ATOM     65  S   UNL A   1      45.297  20.360  24.125  1.00  0.00     0.124 S 
ATOM     66  O   UNL A   1      44.619  19.935  22.905  1.00  0.00    -0.237 OA
ATOM     67  O   UNL A   1      45.660  21.771  24.205  1.00  0.00    -0.237 OA
ATOM     68  O   UNL A   1      46.318  19.435  24.616  1.00  0.00    -0.744 OA
ENDBRANCH  61  65
ENDBRANCH  44  58
BRANCH  45  69
ATOM     69  C   UNL A   1      41.628  30.113  31.084  1.00  0.00     0.023 A 
ATOM     70  C   UNL A   1      40.469  29.447  31.543  1.00  0.00     0.031 A 
ATOM     71  C   UNL A   1      41.647  31.508  31.220  1.00  0.00     0.131 A 
ATOM     72  C   UNL A   1      39.462  30.132  32.244  1.00  0.00     0.055 A 
ATOM     73  C   UNL A   1      40.602  32.204  31.858  1.00  0.00     0.041 A 
ATOM     74  F   UNL A   1      42.708  32.224  30.818  1.00  0.00    -0.206 F 
ATOM     75  C   UNL A   1      39.518  31.513  32.407  1.00  0.00     0.022 A 
BRANCH  72  76
ATOM     76  S   UNL A   1      38.220  29.130  33.115  1.00  0.00     0.124 S 
ATOM     77  O   UNL A   1      38.749  27.780  32.954  1.00  0.00    -0.237 OA
ATOM     78  O   UNL A   1      38.287  29.687  34.466  1.00  0.00    -0.237 OA
ATOM     79  O   UNL A   1      36.980  29.399  32.401  1.00  0.00    -0.744 OA
ENDBRANCH  72  76
ENDBRANCH  45  69
BRANCH  57  80
ATOM     80  C   UNL A   1      44.965  23.951  33.072  1.00  0.00     0.023 A 
ATOM     81  C   UNL A   1      46.186  24.109  33.737  1.00  0.00     0.031 A 
ATOM     82  C   UNL A   1      44.128  22.919  33.562  1.00  0.00     0.131 A 
ATOM     83  C   UNL A   1      46.596  23.204  34.726  1.00  0.00     0.055 A 
ATOM     84  C   UNL A   1      44.487  22.094  34.631  1.00  0.00     0.041 A 
ATOM     85  F   UNL A   1      42.921  22.673  33.031  1.00  0.00    -0.206 F 
ATOM     86  C   UNL A   1      45.744  22.213  35.202  1.00  0.00     0.022 A 
BRANCH  83  87
ATOM     87  S   UNL A   1      48.320  23.285  35.268  1.00  0.00     0.124 S 
ATOM     88  O   UNL A   1      48.417  22.106  36.126  1.00  0.00    -0.237 OA
ATOM     89  O   UNL A   1      49.049  23.211  34.006  1.00  0.00    -0.237 OA
ATOM     90  O   UNL A   1      48.400  24.567  35.964  1.00  0.00    -0.744 OA
ENDBRANCH  83  87
ENDBRANCH  57  80
ENDBRANCH  31  32
ENDBRANCH  24  26
ENDBRANCH  23  24
ENDBRANCH   1  23
TORSDOF 16
ENDMDL
