MODEL 1
REMARK VINA RESULT:     -10.9      0.000      0.000
REMARK SMILES O=C(/C=C\N1[C@@H]2CC[C@H]1C[C@H](O)C2)OCCOC(=O)c1ccc(-c2c3nc(c(-c4cc(S(=O)(=O)[O-])ccc4F)c4ccc([nH]4)c(-c4cc(S(=O)(=O)[O-])ccc4F)c4nc(c(-c5cc(S(=O)(=O)[O-])ccc5F)c5ccc2[nH]5)C=C4)C=C3)cc1
REMARK SMILES IDX 16 1 15 2 14 3 2 4 1 5 3 6 4 7 5 8 6 9 9 10 7 11 13 12 8 13
REMARK SMILES IDX 10 14 11 15 12 16 17 18 18 19 19 20 20 21 21 22 82 23 22 24
REMARK SMILES IDX 81 25 23 26 24 27 25 28 75 29 26 30 80 31 74 32 76 33 27 34
REMARK SMILES IDX 79 35 73 36 72 37 28 39 60 40 40 41 59 42 41 43 44 44 58 45
REMARK SMILES IDX 77 46 42 47 43 48 57 50 78 51 45 52 29 53 30 54 38 55 31 56
REMARK SMILES IDX 37 57 39 58 36 59 32 60 33 61 34 62 35 63 61 64 62 65 70 66
REMARK SMILES IDX 63 67 69 68 71 69 68 70 64 71 65 72 66 73 67 74 46 75 47 76
REMARK SMILES IDX 55 77 48 78 54 79 56 80 53 81 49 82 50 83 51 84 52 85
REMARK H PARENT 12 17 76 38 44 49
REMARK Flexibility Score: inf
ROOT
ATOM      1  C   UNL A   1      33.461  34.180  28.368  1.00  0.00     0.275 C 
ENDROOT
BRANCH   1   2
ATOM      2  C   UNL A   1      33.704  35.484  29.143  1.00  0.00     0.275 C 
BRANCH   2   3
ATOM      3  O   UNL A   1      33.292  35.492  30.513  1.00  0.00    -0.459 OA
BRANCH   3   4
ATOM      4  C   UNL A   1      33.106  36.645  31.190  1.00  0.00     0.332 C 
ATOM      5  O   UNL A   1      32.902  37.702  30.602  1.00  0.00    -0.247 OA
BRANCH   4   6
ATOM      6  C   UNL A   1      33.516  36.680  32.601  1.00  0.00     0.111 C 
ATOM      7  C   UNL A   1      34.406  36.006  33.340  1.00  0.00     0.089 C 
BRANCH   7   8
ATOM      8  N   UNL A   1      35.383  35.053  33.170  1.00  0.00    -0.371 N 
ATOM      9  C   UNL A   1      35.601  33.980  34.144  1.00  0.00     0.084 C 
ATOM     10  C   UNL A   1      36.492  34.926  32.233  1.00  0.00     0.084 C 
ATOM     11  C   UNL A   1      37.123  33.958  34.350  1.00  0.00     0.027 C 
ATOM     12  C   UNL A   1      35.080  32.702  33.476  1.00  0.00     0.056 C 
ATOM     13  C   UNL A   1      37.693  34.719  33.164  1.00  0.00     0.027 C 
ATOM     14  C   UNL A   1      36.269  33.692  31.349  1.00  0.00     0.056 C 
ATOM     15  C   UNL A   1      35.296  32.667  31.949  1.00  0.00     0.118 C 
BRANCH  15  16
ATOM     16  O   UNL A   1      34.029  32.840  31.299  1.00  0.00    -0.393 OA
ATOM     17  H   UNL A   1      33.560  31.992  31.273  1.00  0.00     0.210 HD
ENDBRANCH  15  16
ENDBRANCH   7   8
ENDBRANCH   4   6
ENDBRANCH   3   4
ENDBRANCH   2   3
ENDBRANCH   1   2
BRANCH   1  18
ATOM     18  O   UNL A   1      34.614  33.361  28.260  1.00  0.00    -0.458 OA
BRANCH  18  19
ATOM     19  C   UNL A   1      34.326  32.068  27.979  1.00  0.00     0.338 C 
ATOM     20  O   UNL A   1      33.330  31.634  27.448  1.00  0.00    -0.246 OA
BRANCH  19  21
ATOM     21  C   UNL A   1      35.557  31.323  28.259  1.00  0.00     0.060 A 
ATOM     22  C   UNL A   1      35.480  29.931  28.359  1.00  0.00     0.016 A 
ATOM     23  C   UNL A   1      36.770  32.005  28.403  1.00  0.00     0.016 A 
ATOM     24  C   UNL A   1      36.616  29.214  28.707  1.00  0.00     0.010 A 
ATOM     25  C   UNL A   1      37.907  31.287  28.736  1.00  0.00     0.010 A 
ATOM     26  C   UNL A   1      37.810  29.903  28.954  1.00  0.00    -0.014 A 
BRANCH  26  27
ATOM     27  C   UNL A   1      38.899  29.245  29.696  1.00  0.00     0.031 A 
ATOM     28  C   UNL A   1      39.231  29.795  31.053  1.00  0.00     0.074 A 
ATOM     29  C   UNL A   1      39.589  28.239  29.142  1.00  0.00     0.049 A 
ATOM     30  N   UNL A   1      40.231  29.517  31.842  1.00  0.00    -0.248 NA
ATOM     31  C   UNL A   1      38.322  30.833  31.570  1.00  0.00     0.031 C 
ATOM     32  C   UNL A   1      39.307  27.645  27.837  1.00  0.00     0.029 A 
ATOM     33  N   UNL A   1      40.688  27.565  29.596  1.00  0.00    -0.354 N 
ATOM     34  C   UNL A   1      40.085  30.362  32.938  1.00  0.00     0.074 A 
ATOM     35  C   UNL A   1      38.933  31.196  32.684  1.00  0.00     0.031 C 
ATOM     36  C   UNL A   1      40.236  26.709  27.579  1.00  0.00     0.029 A 
ATOM     37  C   UNL A   1      41.195  26.677  28.681  1.00  0.00     0.049 A 
ATOM     38  H   UNL A   1      41.078  27.703  30.490  1.00  0.00     0.167 HD
ATOM     39  C   UNL A   1      40.847  30.422  34.056  1.00  0.00     0.034 A 
ATOM     40  C   UNL A   1      42.334  25.958  28.720  1.00  0.00     0.034 A 
ATOM     41  C   UNL A   1      41.999  29.576  34.251  1.00  0.00     0.049 A 
ATOM     42  C   UNL A   1      43.203  26.069  29.947  1.00  0.00     0.074 A 
ATOM     43  C   UNL A   1      42.842  29.500  35.343  1.00  0.00     0.029 A 
ATOM     44  N   UNL A   1      42.479  28.668  33.311  1.00  0.00    -0.354 N 
ATOM     45  N   UNL A   1      43.049  26.841  30.999  1.00  0.00    -0.248 NA
ATOM     46  C   UNL A   1      44.386  25.205  30.001  1.00  0.00     0.031 C 
ATOM     47  C   UNL A   1      43.878  28.615  35.028  1.00  0.00     0.029 A 
ATOM     48  C   UNL A   1      43.630  28.060  33.780  1.00  0.00     0.049 A 
ATOM     49  H   UNL A   1      42.061  28.486  32.438  1.00  0.00     0.167 HD
ATOM     50  C   UNL A   1      44.099  26.534  31.858  1.00  0.00     0.074 A 
ATOM     51  C   UNL A   1      44.878  25.504  31.196  1.00  0.00     0.031 C 
ATOM     52  C   UNL A   1      44.388  27.041  33.086  1.00  0.00     0.034 A 
BRANCH  39  53
ATOM     53  C   UNL A   1      40.493  31.474  35.083  1.00  0.00     0.023 A 
ATOM     54  C   UNL A   1      39.611  31.209  36.149  1.00  0.00     0.031 A 
ATOM     55  C   UNL A   1      40.972  32.789  34.947  1.00  0.00     0.131 A 
ATOM     56  C   UNL A   1      39.154  32.259  36.961  1.00  0.00     0.055 A 
ATOM     57  C   UNL A   1      40.592  33.808  35.821  1.00  0.00     0.041 A 
ATOM     58  F   UNL A   1      41.792  33.116  33.936  1.00  0.00    -0.206 F 
ATOM     59  C   UNL A   1      39.659  33.552  36.822  1.00  0.00     0.022 A 
BRANCH  56  60
ATOM     60  S   UNL A   1      37.742  31.953  38.060  1.00  0.00     0.124 S 
ATOM     61  O   UNL A   1      36.788  32.960  37.602  1.00  0.00    -0.237 OA
ATOM     62  O   UNL A   1      37.403  30.566  37.758  1.00  0.00    -0.237 OA
ATOM     63  O   UNL A   1      38.289  32.186  39.395  1.00  0.00    -0.744 OA
ENDBRANCH  56  60
ENDBRANCH  39  53
BRANCH  40  64
ATOM     64  C   UNL A   1      42.711  25.116  27.553  1.00  0.00     0.023 A 
ATOM     65  C   UNL A   1      42.256  23.796  27.423  1.00  0.00     0.031 A 
ATOM     66  C   UNL A   1      43.518  25.640  26.523  1.00  0.00     0.131 A 
ATOM     67  C   UNL A   1      42.625  23.038  26.300  1.00  0.00     0.055 A 
ATOM     68  C   UNL A   1      43.842  24.898  25.388  1.00  0.00     0.041 A 
ATOM     69  F   UNL A   1      43.973  26.902  26.595  1.00  0.00    -0.206 F 
ATOM     70  C   UNL A   1      43.400  23.586  25.274  1.00  0.00     0.022 A 
BRANCH  67  71
ATOM     71  S   UNL A   1      42.115  21.299  26.218  1.00  0.00     0.124 S 
ATOM     72  O   UNL A   1      40.737  21.415  25.756  1.00  0.00    -0.237 OA
ATOM     73  O   UNL A   1      43.069  20.747  25.263  1.00  0.00    -0.237 OA
ATOM     74  O   UNL A   1      42.275  20.833  27.595  1.00  0.00    -0.744 OA
ENDBRANCH  67  71
ENDBRANCH  40  64
BRANCH  52  75
ATOM     75  C   UNL A   1      45.566  26.445  33.816  1.00  0.00     0.023 A 
ATOM     76  C   UNL A   1      45.470  25.239  34.529  1.00  0.00     0.031 A 
ATOM     77  C   UNL A   1      46.818  27.087  33.759  1.00  0.00     0.131 A 
ATOM     78  C   UNL A   1      46.598  24.731  35.189  1.00  0.00     0.055 A 
ATOM     79  C   UNL A   1      47.950  26.543  34.363  1.00  0.00     0.041 A 
ATOM     80  F   UNL A   1      46.963  28.244  33.093  1.00  0.00    -0.206 F 
ATOM     81  C   UNL A   1      47.842  25.362  35.091  1.00  0.00     0.022 A 
BRANCH  78  82
ATOM     82  S   UNL A   1      46.406  23.269  36.244  1.00  0.00     0.124 S 
ATOM     83  O   UNL A   1      47.713  23.187  36.888  1.00  0.00    -0.237 OA
ATOM     84  O   UNL A   1      45.292  23.650  37.106  1.00  0.00    -0.237 OA
ATOM     85  O   UNL A   1      46.115  22.196  35.294  1.00  0.00    -0.744 OA
ENDBRANCH  78  82
ENDBRANCH  52  75
ENDBRANCH  26  27
ENDBRANCH  19  21
ENDBRANCH  18  19
ENDBRANCH   1  18
TORSDOF 16
ENDMDL
MODEL 2
REMARK VINA RESULT:     -10.1      1.575      2.022
REMARK SMILES O=C(/C=C\N1[C@@H]2CC[C@H]1C[C@H](O)C2)OCCOC(=O)c1ccc(-c2c3nc(c(-c4cc(S(=O)(=O)[O-])ccc4F)c4ccc([nH]4)c(-c4cc(S(=O)(=O)[O-])ccc4F)c4nc(c(-c5cc(S(=O)(=O)[O-])ccc5F)c5ccc2[nH]5)C=C4)C=C3)cc1
REMARK SMILES IDX 16 1 15 2 14 3 2 4 1 5 3 6 4 7 5 8 6 9 9 10 7 11 13 12 8 13
REMARK SMILES IDX 10 14 11 15 12 16 17 18 18 19 19 20 20 21 21 22 82 23 22 24
REMARK SMILES IDX 81 25 23 26 24 27 25 28 75 29 26 30 80 31 74 32 76 33 27 34
REMARK SMILES IDX 79 35 73 36 72 37 28 39 60 40 40 41 59 42 41 43 44 44 58 45
REMARK SMILES IDX 77 46 42 47 43 48 57 50 78 51 45 52 29 53 30 54 38 55 31 56
REMARK SMILES IDX 37 57 39 58 36 59 32 60 33 61 34 62 35 63 61 64 62 65 70 66
REMARK SMILES IDX 63 67 69 68 71 69 68 70 64 71 65 72 66 73 67 74 46 75 47 76
REMARK SMILES IDX 55 77 48 78 54 79 56 80 53 81 49 82 50 83 51 84 52 85
REMARK H PARENT 12 17 76 38 44 49
REMARK Flexibility Score: inf
ROOT
ATOM      1  C   UNL A   1      33.140  34.126  28.063  1.00  0.00     0.275 C 
ENDROOT
BRANCH   1   2
ATOM      2  C   UNL A   1      33.523  35.503  28.628  1.00  0.00     0.275 C 
BRANCH   2   3
ATOM      3  O   UNL A   1      32.704  36.002  29.689  1.00  0.00    -0.459 OA
BRANCH   3   4
ATOM      4  C   UNL A   1      32.964  37.183  30.289  1.00  0.00     0.332 C 
ATOM      5  O   UNL A   1      33.255  38.178  29.634  1.00  0.00    -0.247 OA
BRANCH   4   6
ATOM      6  C   UNL A   1      33.254  37.165  31.730  1.00  0.00     0.111 C 
ATOM      7  C   UNL A   1      33.850  36.301  32.560  1.00  0.00     0.089 C 
BRANCH   7   8
ATOM      8  N   UNL A   1      34.521  35.101  32.499  1.00  0.00    -0.371 N 
ATOM      9  C   UNL A   1      35.968  35.030  32.278  1.00  0.00     0.084 C 
ATOM     10  C   UNL A   1      34.072  33.717  32.428  1.00  0.00     0.084 C 
ATOM     11  C   UNL A   1      36.134  33.950  31.198  1.00  0.00     0.027 C 
ATOM     12  C   UNL A   1      36.572  34.614  33.624  1.00  0.00     0.056 C 
ATOM     13  C   UNL A   1      34.820  33.187  31.198  1.00  0.00     0.027 C 
ATOM     14  C   UNL A   1      34.516  32.976  33.696  1.00  0.00     0.056 C 
ATOM     15  C   UNL A   1      35.679  33.652  34.435  1.00  0.00     0.118 C 
BRANCH  15  16
ATOM     16  O   UNL A   1      35.128  34.365  35.551  1.00  0.00    -0.393 OA
ATOM     17  H   UNL A   1      35.748  35.055  35.833  1.00  0.00     0.210 HD
ENDBRANCH  15  16
ENDBRANCH   7   8
ENDBRANCH   4   6
ENDBRANCH   3   4
ENDBRANCH   2   3
ENDBRANCH   1   2
BRANCH   1  18
ATOM     18  O   UNL A   1      34.256  33.336  27.691  1.00  0.00    -0.458 OA
BRANCH  18  19
ATOM     19  C   UNL A   1      33.976  32.012  27.630  1.00  0.00     0.338 C 
ATOM     20  O   UNL A   1      32.984  31.489  27.180  1.00  0.00    -0.246 OA
BRANCH  19  21
ATOM     21  C   UNL A   1      35.213  31.332  28.031  1.00  0.00     0.060 A 
ATOM     22  C   UNL A   1      35.163  29.955  28.264  1.00  0.00     0.016 A 
ATOM     23  C   UNL A   1      36.401  32.058  28.155  1.00  0.00     0.016 A 
ATOM     24  C   UNL A   1      36.301  29.306  28.726  1.00  0.00     0.010 A 
ATOM     25  C   UNL A   1      37.540  31.408  28.601  1.00  0.00     0.010 A 
ATOM     26  C   UNL A   1      37.466  30.049  28.951  1.00  0.00    -0.014 A 
BRANCH  26  27
ATOM     27  C   UNL A   1      38.538  29.497  29.797  1.00  0.00     0.031 A 
ATOM     28  C   UNL A   1      38.679  30.064  31.180  1.00  0.00     0.074 A 
ATOM     29  C   UNL A   1      39.377  28.570  29.314  1.00  0.00     0.049 A 
ATOM     30  N   UNL A   1      39.619  29.880  32.064  1.00  0.00    -0.248 NA
ATOM     31  C   UNL A   1      37.623  31.000  31.604  1.00  0.00     0.031 C 
ATOM     32  C   UNL A   1      39.287  27.963  27.987  1.00  0.00     0.029 A 
ATOM     33  N   UNL A   1      40.489  28.006  29.874  1.00  0.00    -0.354 N 
ATOM     34  C   UNL A   1      39.282  30.696  33.140  1.00  0.00     0.074 A 
ATOM     35  C   UNL A   1      38.082  31.413  32.773  1.00  0.00     0.031 C 
ATOM     36  C   UNL A   1      40.325  27.128  27.823  1.00  0.00     0.029 A 
ATOM     37  C   UNL A   1      41.170  27.182  29.014  1.00  0.00     0.049 A 
ATOM     38  H   UNL A   1      40.773  28.174  30.802  1.00  0.00     0.167 HD
ATOM     39  C   UNL A   1      39.922  30.822  34.327  1.00  0.00     0.034 A 
ATOM     40  C   UNL A   1      42.366  26.581  29.165  1.00  0.00     0.034 A 
ATOM     41  C   UNL A   1      41.128  30.094  34.635  1.00  0.00     0.049 A 
ATOM     42  C   UNL A   1      43.096  26.767  30.472  1.00  0.00     0.074 A 
ATOM     43  C   UNL A   1      41.863  30.094  35.804  1.00  0.00     0.029 A 
ATOM     44  N   UNL A   1      41.787  29.248  33.747  1.00  0.00    -0.354 N 
ATOM     45  N   UNL A   1      42.762  27.510  31.503  1.00  0.00    -0.248 NA
ATOM     46  C   UNL A   1      44.349  26.027  30.642  1.00  0.00     0.031 C 
ATOM     47  C   UNL A   1      43.010  29.320  35.593  1.00  0.00     0.029 A 
ATOM     48  C   UNL A   1      42.942  28.754  34.327  1.00  0.00     0.049 A 
ATOM     49  H   UNL A   1      41.477  29.034  32.837  1.00  0.00     0.167 HD
ATOM     50  C   UNL A   1      43.749  27.301  32.462  1.00  0.00     0.074 A 
ATOM     51  C   UNL A   1      44.689  26.362  31.880  1.00  0.00     0.031 C 
ATOM     52  C   UNL A   1      43.864  27.824  33.711  1.00  0.00     0.034 A 
BRANCH  39  53
ATOM     53  C   UNL A   1      39.364  31.823  35.314  1.00  0.00     0.023 A 
ATOM     54  C   UNL A   1      39.821  33.154  35.365  1.00  0.00     0.031 A 
ATOM     55  C   UNL A   1      38.424  31.420  36.279  1.00  0.00     0.131 A 
ATOM     56  C   UNL A   1      39.425  33.994  36.418  1.00  0.00     0.055 A 
ATOM     57  C   UNL A   1      37.956  32.293  37.264  1.00  0.00     0.041 A 
ATOM     58  F   UNL A   1      37.969  30.158  36.306  1.00  0.00    -0.206 F 
ATOM     59  C   UNL A   1      38.474  33.581  37.353  1.00  0.00     0.022 A 
BRANCH  56  60
ATOM     60  S   UNL A   1      40.321  35.553  36.667  1.00  0.00     0.124 S 
ATOM     61  O   UNL A   1      39.635  36.439  35.729  1.00  0.00    -0.237 OA
ATOM     62  O   UNL A   1      40.095  35.823  38.083  1.00  0.00    -0.237 OA
ATOM     63  O   UNL A   1      41.697  35.221  36.305  1.00  0.00    -0.744 OA
ENDBRANCH  56  60
ENDBRANCH  39  53
BRANCH  40  64
ATOM     64  C   UNL A   1      42.940  25.793  28.041  1.00  0.00     0.023 A 
ATOM     65  C   UNL A   1      42.435  24.529  27.699  1.00  0.00     0.031 A 
ATOM     66  C   UNL A   1      43.994  26.315  27.265  1.00  0.00     0.131 A 
ATOM     67  C   UNL A   1      42.995  23.822  26.623  1.00  0.00     0.055 A 
ATOM     68  C   UNL A   1      44.515  25.628  26.169  1.00  0.00     0.041 A 
ATOM     69  F   UNL A   1      44.508  27.523  27.546  1.00  0.00    -0.206 F 
ATOM     70  C   UNL A   1      44.020  24.370  25.846  1.00  0.00     0.022 A 
BRANCH  67  71
ATOM     71  S   UNL A   1      42.397  22.145  26.278  1.00  0.00     0.124 S 
ATOM     72  O   UNL A   1      40.977  22.379  26.041  1.00  0.00    -0.237 OA
ATOM     73  O   UNL A   1      43.190  21.772  25.112  1.00  0.00    -0.237 OA
ATOM     74  O   UNL A   1      42.712  21.413  27.504  1.00  0.00    -0.744 OA
ENDBRANCH  67  71
ENDBRANCH  40  64
BRANCH  52  75
ATOM     75  C   UNL A   1      45.019  27.343  34.554  1.00  0.00     0.023 A 
ATOM     76  C   UNL A   1      44.900  26.250  35.428  1.00  0.00     0.031 A 
ATOM     77  C   UNL A   1      46.272  27.974  34.443  1.00  0.00     0.131 A 
ATOM     78  C   UNL A   1      46.007  25.845  36.188  1.00  0.00     0.055 A 
ATOM     79  C   UNL A   1      47.385  27.525  35.153  1.00  0.00     0.041 A 
ATOM     80  F   UNL A   1      46.438  29.025  33.624  1.00  0.00    -0.206 F 
ATOM     81  C   UNL A   1      47.254  26.461  36.039  1.00  0.00     0.022 A 
BRANCH  78  82
ATOM     82  S   UNL A   1      45.782  24.548  37.435  1.00  0.00     0.124 S 
ATOM     83  O   UNL A   1      45.943  23.335  36.641  1.00  0.00    -0.237 OA
ATOM     84  O   UNL A   1      46.852  24.837  38.384  1.00  0.00    -0.237 OA
ATOM     85  O   UNL A   1      44.429  24.786  37.936  1.00  0.00    -0.744 OA
ENDBRANCH  78  82
ENDBRANCH  52  75
ENDBRANCH  26  27
ENDBRANCH  19  21
ENDBRANCH  18  19
ENDBRANCH   1  18
TORSDOF 16
ENDMDL
MODEL 3
REMARK VINA RESULT:     -10.0      3.392      9.667
REMARK SMILES O=C(/C=C\N1[C@@H]2CC[C@H]1C[C@H](O)C2)OCCOC(=O)c1ccc(-c2c3nc(c(-c4cc(S(=O)(=O)[O-])ccc4F)c4ccc([nH]4)c(-c4cc(S(=O)(=O)[O-])ccc4F)c4nc(c(-c5cc(S(=O)(=O)[O-])ccc5F)c5ccc2[nH]5)C=C4)C=C3)cc1
REMARK SMILES IDX 16 1 15 2 14 3 2 4 1 5 3 6 4 7 5 8 6 9 9 10 7 11 13 12 8 13
REMARK SMILES IDX 10 14 11 15 12 16 17 18 18 19 19 20 20 21 21 22 82 23 22 24
REMARK SMILES IDX 81 25 23 26 24 27 25 28 75 29 26 30 80 31 74 32 76 33 27 34
REMARK SMILES IDX 79 35 73 36 72 37 28 39 60 40 40 41 59 42 41 43 44 44 58 45
REMARK SMILES IDX 77 46 42 47 43 48 57 50 78 51 45 52 29 53 30 54 38 55 31 56
REMARK SMILES IDX 37 57 39 58 36 59 32 60 33 61 34 62 35 63 61 64 62 65 70 66
REMARK SMILES IDX 63 67 69 68 71 69 68 70 64 71 65 72 66 73 67 74 46 75 47 76
REMARK SMILES IDX 55 77 48 78 54 79 56 80 53 81 49 82 50 83 51 84 52 85
REMARK H PARENT 12 17 76 38 44 49
REMARK Flexibility Score: inf
ROOT
ATOM      1  C   UNL A   1      31.734  30.763  26.353  1.00  0.00     0.275 C 
ENDROOT
BRANCH   1   2
ATOM      2  C   UNL A   1      31.865  29.696  25.254  1.00  0.00     0.275 C 
BRANCH   2   3
ATOM      3  O   UNL A   1      31.129  28.486  25.456  1.00  0.00    -0.459 OA
BRANCH   3   4
ATOM      4  C   UNL A   1      31.572  27.518  26.286  1.00  0.00     0.332 C 
ATOM      5  O   UNL A   1      31.006  27.284  27.349  1.00  0.00    -0.247 OA
BRANCH   4   6
ATOM      6  C   UNL A   1      32.937  27.013  26.077  1.00  0.00     0.111 C 
ATOM      7  C   UNL A   1      33.469  25.810  25.833  1.00  0.00     0.089 C 
BRANCH   7   8
ATOM      8  N   UNL A   1      33.049  24.522  25.593  1.00  0.00    -0.371 N 
ATOM      9  C   UNL A   1      33.279  23.438  26.552  1.00  0.00     0.084 C 
ATOM     10  C   UNL A   1      32.515  23.858  24.411  1.00  0.00     0.084 C 
ATOM     11  C   UNL A   1      33.813  22.280  25.694  1.00  0.00     0.027 C 
ATOM     12  C   UNL A   1      31.909  23.131  27.166  1.00  0.00     0.056 C 
ATOM     13  C   UNL A   1      33.439  22.642  24.266  1.00  0.00     0.027 C 
ATOM     14  C   UNL A   1      31.073  23.414  24.689  1.00  0.00     0.056 C 
ATOM     15  C   UNL A   1      30.734  23.305  26.182  1.00  0.00     0.118 C 
BRANCH  15  16
ATOM     16  O   UNL A   1      29.997  24.481  26.547  1.00  0.00    -0.393 OA
ATOM     17  H   UNL A   1      30.104  24.649  27.496  1.00  0.00     0.210 HD
ENDBRANCH  15  16
ENDBRANCH   7   8
ENDBRANCH   4   6
ENDBRANCH   3   4
ENDBRANCH   2   3
ENDBRANCH   1   2
BRANCH   1  18
ATOM     18  O   UNL A   1      32.750  30.686  27.340  1.00  0.00    -0.458 OA
BRANCH  18  19
ATOM     19  C   UNL A   1      33.415  31.853  27.512  1.00  0.00     0.338 C 
ATOM     20  O   UNL A   1      32.950  32.969  27.542  1.00  0.00    -0.246 OA
BRANCH  19  21
ATOM     21  C   UNL A   1      34.787  31.473  27.865  1.00  0.00     0.060 A 
ATOM     22  C   UNL A   1      35.069  30.119  28.059  1.00  0.00     0.016 A 
ATOM     23  C   UNL A   1      35.776  32.456  27.982  1.00  0.00     0.016 A 
ATOM     24  C   UNL A   1      36.341  29.746  28.474  1.00  0.00     0.010 A 
ATOM     25  C   UNL A   1      37.048  32.082  28.382  1.00  0.00     0.010 A 
ATOM     26  C   UNL A   1      37.305  30.736  28.694  1.00  0.00    -0.014 A 
BRANCH  26  27
ATOM     27  C   UNL A   1      38.501  30.432  29.498  1.00  0.00     0.031 A 
ATOM     28  C   UNL A   1      39.477  29.444  28.927  1.00  0.00     0.074 A 
ATOM     29  C   UNL A   1      38.663  30.980  30.710  1.00  0.00     0.049 A 
ATOM     30  N   UNL A   1      40.514  28.881  29.482  1.00  0.00    -0.248 NA
ATOM     31  C   UNL A   1      39.217  29.006  27.545  1.00  0.00     0.031 C 
ATOM     32  C   UNL A   1      37.764  31.959  31.318  1.00  0.00     0.029 A 
ATOM     33  N   UNL A   1      39.623  30.761  31.658  1.00  0.00    -0.354 N 
ATOM     34  C   UNL A   1      41.016  28.004  28.525  1.00  0.00     0.074 A 
ATOM     35  C   UNL A   1      40.139  28.073  27.380  1.00  0.00     0.031 C 
ATOM     36  C   UNL A   1      38.202  32.237  32.557  1.00  0.00     0.029 A 
ATOM     37  C   UNL A   1      39.379  31.419  32.838  1.00  0.00     0.049 A 
ATOM     38  H   UNL A   1      40.411  30.189  31.510  1.00  0.00     0.167 HD
ATOM     39  C   UNL A   1      42.119  27.221  28.605  1.00  0.00     0.034 A 
ATOM     40  C   UNL A   1      40.017  31.327  34.021  1.00  0.00     0.034 A 
ATOM     41  C   UNL A   1      42.951  27.178  29.782  1.00  0.00     0.049 A 
ATOM     42  C   UNL A   1      41.213  30.415  34.116  1.00  0.00     0.074 A 
ATOM     43  C   UNL A   1      44.114  26.463  29.993  1.00  0.00     0.029 A 
ATOM     44  N   UNL A   1      42.689  27.873  30.960  1.00  0.00    -0.354 N 
ATOM     45  N   UNL A   1      41.711  29.610  33.203  1.00  0.00    -0.248 NA
ATOM     46  C   UNL A   1      41.941  30.406  35.388  1.00  0.00     0.031 C 
ATOM     47  C   UNL A   1      44.503  26.656  31.323  1.00  0.00     0.029 A 
ATOM     48  C   UNL A   1      43.644  27.571  31.915  1.00  0.00     0.049 A 
ATOM     49  H   UNL A   1      41.933  28.490  31.094  1.00  0.00     0.167 HD
ATOM     50  C   UNL A   1      42.833  29.023  33.779  1.00  0.00     0.074 A 
ATOM     51  C   UNL A   1      42.934  29.568  35.120  1.00  0.00     0.031 C 
ATOM     52  C   UNL A   1      43.708  28.128  33.249  1.00  0.00     0.034 A 
BRANCH  39  53
ATOM     53  C   UNL A   1      42.417  26.319  27.428  1.00  0.00     0.023 A 
ATOM     54  C   UNL A   1      41.873  25.024  27.325  1.00  0.00     0.031 A 
ATOM     55  C   UNL A   1      43.329  26.723  26.438  1.00  0.00     0.131 A 
ATOM     56  C   UNL A   1      42.327  24.149  26.326  1.00  0.00     0.055 A 
ATOM     57  C   UNL A   1      43.699  25.881  25.387  1.00  0.00     0.041 A 
ATOM     58  F   UNL A   1      43.908  27.933  26.493  1.00  0.00    -0.206 F 
ATOM     59  C   UNL A   1      43.216  24.577  25.339  1.00  0.00     0.022 A 
BRANCH  56  60
ATOM     60  S   UNL A   1      41.899  22.389  26.455  1.00  0.00     0.124 S 
ATOM     61  O   UNL A   1      42.561  21.838  25.276  1.00  0.00    -0.237 OA
ATOM     62  O   UNL A   1      42.474  22.019  27.744  1.00  0.00    -0.237 OA
ATOM     63  O   UNL A   1      40.439  22.386  26.398  1.00  0.00    -0.744 OA
ENDBRANCH  56  60
ENDBRANCH  39  53
BRANCH  40  64
ATOM     64  C   UNL A   1      39.506  32.091  35.192  1.00  0.00     0.023 A 
ATOM     65  C   UNL A   1      39.938  33.398  35.459  1.00  0.00     0.031 A 
ATOM     66  C   UNL A   1      38.544  31.525  36.051  1.00  0.00     0.131 A 
ATOM     67  C   UNL A   1      39.422  34.090  36.567  1.00  0.00     0.055 A 
ATOM     68  C   UNL A   1      38.001  32.234  37.122  1.00  0.00     0.041 A 
ATOM     69  F   UNL A   1      38.091  30.279  35.834  1.00  0.00    -0.206 F 
ATOM     70  C   UNL A   1      38.445  33.524  37.390  1.00  0.00     0.022 A 
BRANCH  67  71
ATOM     71  S   UNL A   1      40.085  35.735  36.950  1.00  0.00     0.124 S 
ATOM     72  O   UNL A   1      39.413  36.040  38.208  1.00  0.00    -0.237 OA
ATOM     73  O   UNL A   1      41.518  35.474  37.034  1.00  0.00    -0.237 OA
ATOM     74  O   UNL A   1      39.667  36.545  35.807  1.00  0.00    -0.744 OA
ENDBRANCH  67  71
ENDBRANCH  40  64
BRANCH  52  75
ATOM     75  C   UNL A   1      44.885  27.728  34.103  1.00  0.00     0.023 A 
ATOM     76  C   UNL A   1      44.832  26.632  34.979  1.00  0.00     0.031 A 
ATOM     77  C   UNL A   1      46.093  28.443  34.003  1.00  0.00     0.131 A 
ATOM     78  C   UNL A   1      45.957  26.305  35.750  1.00  0.00     0.055 A 
ATOM     79  C   UNL A   1      47.227  28.073  34.724  1.00  0.00     0.041 A 
ATOM     80  F   UNL A   1      46.195  29.501  33.182  1.00  0.00    -0.206 F 
ATOM     81  C   UNL A   1      47.160  27.003  35.612  1.00  0.00     0.022 A 
BRANCH  78  82
ATOM     82  S   UNL A   1      45.808  24.998  36.999  1.00  0.00     0.124 S 
ATOM     83  O   UNL A   1      44.739  24.173  36.446  1.00  0.00    -0.237 OA
ATOM     84  O   UNL A   1      47.141  24.405  36.991  1.00  0.00    -0.237 OA
ATOM     85  O   UNL A   1      45.462  25.727  38.218  1.00  0.00    -0.744 OA
ENDBRANCH  78  82
ENDBRANCH  52  75
ENDBRANCH  26  27
ENDBRANCH  19  21
ENDBRANCH  18  19
ENDBRANCH   1  18
TORSDOF 16
ENDMDL
