MODEL 1
REMARK VINA RESULT:     -12.1      0.000      0.000
REMARK SMILES CCOc1cnc(C(=O)c2[nH]c3cc(Cl)ccc3c2CC(=O)OCCOC(=O)c2ccc(-c3c4nc(c(-c5cc(S(=O)(=O)[O-])ccc5F)c5ccc([nH]5)c(-c5cc(S(=O)(=O)[O-])ccc5F)c5nc(c(-c6cc(S(=O)(=O)[O-])ccc6F)c6ccc3[nH]6)C=C5)C=C4)cc2)cc1CC
REMARK SMILES IDX 24 1 23 2 21 3 22 4 20 5 19 6 10 7 11 8 12 9 18 11 13 12
REMARK SMILES IDX 17 13 14 14 16 15 15 16 8 17 9 18 7 19 4 20 5 21 93 22 6 23
REMARK SMILES IDX 92 24 3 25 2 26 1 27 94 28 95 29 25 30 26 31 27 32 28 33
REMARK SMILES IDX 29 34 30 35 91 36 31 37 90 38 32 39 33 40 34 41 84 42 35 43
REMARK SMILES IDX 89 44 83 45 85 46 36 47 88 48 82 49 81 50 37 52 69 53 49 54
REMARK SMILES IDX 68 55 50 56 53 57 67 58 86 59 51 60 52 61 66 63 87 64 54 65
REMARK SMILES IDX 38 66 39 67 47 68 40 69 46 70 48 71 45 72 41 73 42 74 43 75
REMARK SMILES IDX 44 76 70 77 71 78 79 79 72 80 78 81 80 82 77 83 73 84 74 85
REMARK SMILES IDX 75 86 76 87 55 88 56 89 64 90 57 91 63 92 65 93 62 94 58 95
REMARK SMILES IDX 59 96 60 97 61 98
REMARK H PARENT 11 10 85 51 53 62
REMARK Flexibility Score: inf
ROOT
ATOM      1  C   UNL A   1      36.485  22.464  23.783  1.00  0.00     0.274 C 
ENDROOT
BRANCH   1   2
ATOM      2  O   UNL A   1      35.883  23.320  24.779  1.00  0.00    -0.462 OA
BRANCH   2   3
ATOM      3  C   UNL A   1      35.106  24.331  24.315  1.00  0.00     0.310 C 
ATOM      4  O   UNL A   1      34.728  24.420  23.148  1.00  0.00    -0.252 OA
BRANCH   3   5
ATOM      5  C   UNL A   1      34.611  25.298  25.370  1.00  0.00     0.161 C 
BRANCH   5   6
ATOM      6  C   UNL A   1      33.184  25.755  25.320  1.00  0.00     0.000 A 
ATOM      7  C   UNL A   1      32.056  25.120  25.838  1.00  0.00     0.093 A 
ATOM      8  N   UNL A   1      30.973  25.916  25.549  1.00  0.00    -0.351 N 
ATOM      9  C   UNL A   1      31.315  26.871  24.628  1.00  0.00     0.048 A 
ATOM     10  H   UNL A   1      30.078  25.814  25.947  1.00  0.00     0.167 HD
ATOM     11  C   UNL A   1      32.704  26.855  24.527  1.00  0.00     0.004 A 
ATOM     12  C   UNL A   1      30.500  27.726  23.878  1.00  0.00     0.047 A 
ATOM     13  C   UNL A   1      33.321  27.790  23.668  1.00  0.00     0.012 A 
ATOM     14  C   UNL A   1      31.138  28.609  23.005  1.00  0.00     0.043 A 
ATOM     15  C   UNL A   1      32.526  28.658  22.909  1.00  0.00     0.021 A 
ATOM     16  Cl  UNL A   1      30.180  29.652  22.024  1.00  0.00    -0.084 Cl
BRANCH   7  17
ATOM     17  C   UNL A   1      31.836  23.847  26.516  1.00  0.00     0.227 C 
ATOM     18  O   UNL A   1      30.853  23.681  27.237  1.00  0.00    -0.285 OA
BRANCH  17  19
ATOM     19  C   UNL A   1      32.623  22.647  26.032  1.00  0.00     0.113 A 
ATOM     20  C   UNL A   1      33.360  20.099  25.321  1.00  0.00     0.140 A 
ATOM     21  C   UNL A   1      33.586  20.622  26.590  1.00  0.00     0.158 A 
ATOM     22  C   UNL A   1      32.734  20.898  24.370  1.00  0.00    -0.002 A 
ATOM     23  N   UNL A   1      33.223  21.872  26.974  1.00  0.00    -0.249 NA
ATOM     24  C   UNL A   1      32.429  22.219  24.716  1.00  0.00     0.040 A 
BRANCH  20  25
ATOM     25  O   UNL A   1      33.562  18.778  25.069  1.00  0.00    -0.492 OA
BRANCH  25  26
ATOM     26  C   UNL A   1      32.682  17.922  25.805  1.00  0.00     0.226 C 
ATOM     27  C   UNL A   1      33.074  16.474  25.567  1.00  0.00     0.049 C 
ENDBRANCH  25  26
ENDBRANCH  20  25
BRANCH  22  28
ATOM     28  C   UNL A   1      32.222  20.340  23.064  1.00  0.00     0.036 C 
ATOM     29  C   UNL A   1      31.937  21.459  22.067  1.00  0.00     0.009 C 
ENDBRANCH  22  28
ENDBRANCH  17  19
ENDBRANCH   7  17
ENDBRANCH   5   6
ENDBRANCH   3   5
ENDBRANCH   2   3
ENDBRANCH   1   2
BRANCH   1  30
ATOM     30  C   UNL A   1      37.178  21.245  24.418  1.00  0.00     0.275 C 
BRANCH  30  31
ATOM     31  O   UNL A   1      37.487  21.427  25.819  1.00  0.00    -0.458 OA
BRANCH  31  32
ATOM     32  C   UNL A   1      38.809  21.365  26.079  1.00  0.00     0.338 C 
ATOM     33  O   UNL A   1      39.557  20.447  25.782  1.00  0.00    -0.246 OA
BRANCH  32  34
ATOM     34  C   UNL A   1      39.366  22.577  26.671  1.00  0.00     0.060 A 
ATOM     35  C   UNL A   1      38.928  23.796  26.145  1.00  0.00     0.016 A 
ATOM     36  C   UNL A   1      40.476  22.516  27.512  1.00  0.00     0.016 A 
ATOM     37  C   UNL A   1      39.637  24.957  26.415  1.00  0.00     0.010 A 
ATOM     38  C   UNL A   1      41.151  23.698  27.831  1.00  0.00     0.010 A 
ATOM     39  C   UNL A   1      40.748  24.921  27.269  1.00  0.00    -0.014 A 
BRANCH  39  40
ATOM     40  C   UNL A   1      41.428  26.192  27.609  1.00  0.00     0.031 A 
ATOM     41  C   UNL A   1      40.730  27.270  28.384  1.00  0.00     0.074 A 
ATOM     42  C   UNL A   1      42.710  26.342  27.226  1.00  0.00     0.049 A 
ATOM     43  N   UNL A   1      41.190  28.431  28.774  1.00  0.00    -0.248 NA
ATOM     44  C   UNL A   1      39.339  27.011  28.783  1.00  0.00     0.031 C 
ATOM     45  C   UNL A   1      43.488  25.343  26.488  1.00  0.00     0.029 A 
ATOM     46  N   UNL A   1      43.583  27.383  27.401  1.00  0.00    -0.354 N 
ATOM     47  C   UNL A   1      40.150  29.044  29.463  1.00  0.00     0.074 A 
ATOM     48  C   UNL A   1      39.028  28.130  29.426  1.00  0.00     0.031 C 
ATOM     49  C   UNL A   1      44.723  25.820  26.274  1.00  0.00     0.029 A 
ATOM     50  C   UNL A   1      44.803  27.175  26.804  1.00  0.00     0.049 A 
ATOM     51  H   UNL A   1      43.359  28.199  27.903  1.00  0.00     0.167 HD
ATOM     52  C   UNL A   1      40.138  30.259  30.064  1.00  0.00     0.034 A 
ATOM     53  C   UNL A   1      45.857  28.001  26.662  1.00  0.00     0.034 A 
ATOM     54  C   UNL A   1      41.250  31.174  30.059  1.00  0.00     0.049 A 
ATOM     55  C   UNL A   1      45.779  29.375  27.261  1.00  0.00     0.074 A 
ATOM     56  C   UNL A   1      41.343  32.421  30.651  1.00  0.00     0.029 A 
ATOM     57  N   UNL A   1      42.454  30.952  29.405  1.00  0.00    -0.354 N 
ATOM     58  N   UNL A   1      44.802  29.922  27.946  1.00  0.00    -0.248 NA
ATOM     59  C   UNL A   1      46.946  30.244  27.068  1.00  0.00     0.031 C 
ATOM     60  C   UNL A   1      42.583  32.977  30.306  1.00  0.00     0.029 A 
ATOM     61  C   UNL A   1      43.281  32.055  29.541  1.00  0.00     0.049 A 
ATOM     62  H   UNL A   1      42.688  30.130  28.916  1.00  0.00     0.167 HD
ATOM     63  C   UNL A   1      45.243  31.198  28.278  1.00  0.00     0.074 A 
ATOM     64  C   UNL A   1      46.579  31.329  27.732  1.00  0.00     0.031 C 
ATOM     65  C   UNL A   1      44.602  32.173  28.972  1.00  0.00     0.034 A 
BRANCH  52  66
ATOM     66  C   UNL A   1      38.858  30.686  30.726  1.00  0.00     0.023 A 
ATOM     67  C   UNL A   1      37.809  31.255  29.986  1.00  0.00     0.031 A 
ATOM     68  C   UNL A   1      38.692  30.536  32.112  1.00  0.00     0.131 A 
ATOM     69  C   UNL A   1      36.665  31.722  30.650  1.00  0.00     0.055 A 
ATOM     70  C   UNL A   1      37.525  30.946  32.759  1.00  0.00     0.041 A 
ATOM     71  F   UNL A   1      39.670  30.000  32.860  1.00  0.00    -0.206 F 
ATOM     72  C   UNL A   1      36.508  31.552  32.029  1.00  0.00     0.022 A 
BRANCH  69  73
ATOM     73  S   UNL A   1      35.378  32.601  29.723  1.00  0.00     0.124 S 
ATOM     74  O   UNL A   1      36.136  33.727  29.185  1.00  0.00    -0.237 OA
ATOM     75  O   UNL A   1      34.937  31.612  28.747  1.00  0.00    -0.237 OA
ATOM     76  O   UNL A   1      34.399  32.941  30.752  1.00  0.00    -0.744 OA
ENDBRANCH  69  73
ENDBRANCH  52  66
BRANCH  53  77
ATOM     77  C   UNL A   1      47.034  27.564  25.865  1.00  0.00     0.023 A 
ATOM     78  C   UNL A   1      47.150  27.875  24.504  1.00  0.00     0.031 A 
ATOM     79  C   UNL A   1      48.065  26.818  26.467  1.00  0.00     0.131 A 
ATOM     80  C   UNL A   1      48.262  27.421  23.779  1.00  0.00     0.055 A 
ATOM     81  C   UNL A   1      49.190  26.407  25.753  1.00  0.00     0.041 A 
ATOM     82  F   UNL A   1      48.002  26.500  27.770  1.00  0.00    -0.206 F 
ATOM     83  C   UNL A   1      49.288  26.700  24.397  1.00  0.00     0.022 A 
BRANCH  80  84
ATOM     84  S   UNL A   1      48.324  27.737  21.995  1.00  0.00     0.124 S 
ATOM     85  O   UNL A   1      47.016  28.338  21.753  1.00  0.00    -0.237 OA
ATOM     86  O   UNL A   1      49.471  28.632  21.886  1.00  0.00    -0.237 OA
ATOM     87  O   UNL A   1      48.516  26.407  21.420  1.00  0.00    -0.744 OA
ENDBRANCH  80  84
ENDBRANCH  53  77
BRANCH  65  88
ATOM     88  C   UNL A   1      45.365  33.452  29.189  1.00  0.00     0.023 A 
ATOM     89  C   UNL A   1      45.340  34.485  28.237  1.00  0.00     0.031 A 
ATOM     90  C   UNL A   1      46.149  33.622  30.342  1.00  0.00     0.131 A 
ATOM     91  C   UNL A   1      46.132  35.625  28.430  1.00  0.00     0.055 A 
ATOM     92  C   UNL A   1      46.895  34.781  30.552  1.00  0.00     0.041 A 
ATOM     93  F   UNL A   1      46.206  32.662  31.278  1.00  0.00    -0.206 F 
ATOM     94  C   UNL A   1      46.899  35.786  29.587  1.00  0.00     0.022 A 
BRANCH  91  95
ATOM     95  S   UNL A   1      46.212  36.859  27.104  1.00  0.00     0.124 S 
ATOM     96  O   UNL A   1      47.336  37.689  27.528  1.00  0.00    -0.237 OA
ATOM     97  O   UNL A   1      46.439  36.034  25.922  1.00  0.00    -0.237 OA
ATOM     98  O   UNL A   1      44.905  37.510  27.163  1.00  0.00    -0.744 OA
ENDBRANCH  91  95
ENDBRANCH  65  88
ENDBRANCH  39  40
ENDBRANCH  32  34
ENDBRANCH  31  32
ENDBRANCH  30  31
ENDBRANCH   1  30
TORSDOF 20
ENDMDL
MODEL 2
REMARK VINA RESULT:     -11.8      1.767      3.848
REMARK SMILES CCOc1cnc(C(=O)c2[nH]c3cc(Cl)ccc3c2CC(=O)OCCOC(=O)c2ccc(-c3c4nc(c(-c5cc(S(=O)(=O)[O-])ccc5F)c5ccc([nH]5)c(-c5cc(S(=O)(=O)[O-])ccc5F)c5nc(c(-c6cc(S(=O)(=O)[O-])ccc6F)c6ccc3[nH]6)C=C5)C=C4)cc2)cc1CC
REMARK SMILES IDX 24 1 23 2 21 3 22 4 20 5 19 6 10 7 11 8 12 9 18 11 13 12
REMARK SMILES IDX 17 13 14 14 16 15 15 16 8 17 9 18 7 19 4 20 5 21 93 22 6 23
REMARK SMILES IDX 92 24 3 25 2 26 1 27 94 28 95 29 25 30 26 31 27 32 28 33
REMARK SMILES IDX 29 34 30 35 91 36 31 37 90 38 32 39 33 40 34 41 84 42 35 43
REMARK SMILES IDX 89 44 83 45 85 46 36 47 88 48 82 49 81 50 37 52 69 53 49 54
REMARK SMILES IDX 68 55 50 56 53 57 67 58 86 59 51 60 52 61 66 63 87 64 54 65
REMARK SMILES IDX 38 66 39 67 47 68 40 69 46 70 48 71 45 72 41 73 42 74 43 75
REMARK SMILES IDX 44 76 70 77 71 78 79 79 72 80 78 81 80 82 77 83 73 84 74 85
REMARK SMILES IDX 75 86 76 87 55 88 56 89 64 90 57 91 63 92 65 93 62 94 58 95
REMARK SMILES IDX 59 96 60 97 61 98
REMARK H PARENT 11 10 85 51 53 62
REMARK Flexibility Score: inf
ROOT
ATOM      1  C   UNL A   1      36.491  22.672  23.674  1.00  0.00     0.274 C 
ENDROOT
BRANCH   1   2
ATOM      2  O   UNL A   1      35.364  22.588  22.773  1.00  0.00    -0.462 OA
BRANCH   2   3
ATOM      3  C   UNL A   1      34.390  23.519  22.938  1.00  0.00     0.310 C 
ATOM      4  O   UNL A   1      34.539  24.713  22.686  1.00  0.00    -0.252 OA
BRANCH   3   5
ATOM      5  C   UNL A   1      33.036  22.969  23.337  1.00  0.00     0.161 C 
BRANCH   5   6
ATOM      6  C   UNL A   1      32.960  21.979  24.460  1.00  0.00     0.000 A 
ATOM      7  C   UNL A   1      33.292  22.168  25.801  1.00  0.00     0.093 A 
ATOM      8  N   UNL A   1      33.058  20.979  26.449  1.00  0.00    -0.351 N 
ATOM      9  C   UNL A   1      32.873  19.969  25.542  1.00  0.00     0.048 A 
ATOM     10  H   UNL A   1      33.027  20.868  27.428  1.00  0.00     0.167 HD
ATOM     11  C   UNL A   1      32.720  20.571  24.295  1.00  0.00     0.004 A 
ATOM     12  C   UNL A   1      32.844  18.584  25.736  1.00  0.00     0.047 A 
ATOM     13  C   UNL A   1      32.466  19.741  23.182  1.00  0.00     0.012 A 
ATOM     14  C   UNL A   1      32.634  17.788  24.608  1.00  0.00     0.043 A 
ATOM     15  C   UNL A   1      32.430  18.350  23.351  1.00  0.00     0.021 A 
ATOM     16  Cl  UNL A   1      32.636  16.074  24.782  1.00  0.00    -0.084 Cl
BRANCH   7  17
ATOM     17  C   UNL A   1      33.851  23.285  26.555  1.00  0.00     0.227 C 
ATOM     18  O   UNL A   1      34.913  23.164  27.163  1.00  0.00    -0.285 OA
BRANCH  17  19
ATOM     19  C   UNL A   1      33.300  24.668  26.276  1.00  0.00     0.113 A 
ATOM     20  C   UNL A   1      32.301  26.896  25.019  1.00  0.00     0.140 A 
ATOM     21  C   UNL A   1      33.657  26.719  25.275  1.00  0.00     0.158 A 
ATOM     22  C   UNL A   1      31.411  25.903  25.415  1.00  0.00    -0.002 A 
ATOM     23  N   UNL A   1      34.181  25.625  25.883  1.00  0.00    -0.249 NA
ATOM     24  C   UNL A   1      31.918  24.807  26.122  1.00  0.00     0.040 A 
BRANCH  20  25
ATOM     25  O   UNL A   1      31.872  27.914  24.226  1.00  0.00    -0.492 OA
BRANCH  25  26
ATOM     26  C   UNL A   1      31.258  28.980  24.958  1.00  0.00     0.226 C 
ATOM     27  C   UNL A   1      32.335  29.899  25.507  1.00  0.00     0.049 C 
ENDBRANCH  25  26
ENDBRANCH  20  25
BRANCH  22  28
ATOM     28  C   UNL A   1      29.972  25.887  24.959  1.00  0.00     0.036 C 
ATOM     29  C   UNL A   1      29.844  25.241  23.583  1.00  0.00     0.009 C 
ENDBRANCH  22  28
ENDBRANCH  17  19
ENDBRANCH   7  17
ENDBRANCH   5   6
ENDBRANCH   3   5
ENDBRANCH   2   3
ENDBRANCH   1   2
BRANCH   1  30
ATOM     30  C   UNL A   1      36.687  21.368  24.468  1.00  0.00     0.275 C 
BRANCH  30  31
ATOM     31  O   UNL A   1      37.134  21.585  25.825  1.00  0.00    -0.458 OA
BRANCH  31  32
ATOM     32  C   UNL A   1      38.473  21.492  25.960  1.00  0.00     0.338 C 
ATOM     33  O   UNL A   1      39.174  20.582  25.547  1.00  0.00    -0.246 OA
BRANCH  32  34
ATOM     34  C   UNL A   1      39.102  22.662  26.563  1.00  0.00     0.060 A 
ATOM     35  C   UNL A   1      38.635  23.913  26.154  1.00  0.00     0.016 A 
ATOM     36  C   UNL A   1      40.287  22.541  27.288  1.00  0.00     0.016 A 
ATOM     37  C   UNL A   1      39.384  25.050  26.420  1.00  0.00     0.010 A 
ATOM     38  C   UNL A   1      41.008  23.695  27.608  1.00  0.00     0.010 A 
ATOM     39  C   UNL A   1      40.571  24.953  27.158  1.00  0.00    -0.014 A 
BRANCH  39  40
ATOM     40  C   UNL A   1      41.300  26.195  27.503  1.00  0.00     0.031 A 
ATOM     41  C   UNL A   1      40.658  27.278  28.319  1.00  0.00     0.074 A 
ATOM     42  C   UNL A   1      42.575  26.314  27.087  1.00  0.00     0.049 A 
ATOM     43  N   UNL A   1      41.166  28.416  28.718  1.00  0.00    -0.248 NA
ATOM     44  C   UNL A   1      39.272  27.054  28.753  1.00  0.00     0.031 C 
ATOM     45  C   UNL A   1      43.300  25.306  26.307  1.00  0.00     0.029 A 
ATOM     46  N   UNL A   1      43.485  27.323  27.256  1.00  0.00    -0.354 N 
ATOM     47  C   UNL A   1      40.166  29.047  29.449  1.00  0.00     0.074 A 
ATOM     48  C   UNL A   1      39.014  28.169  29.426  1.00  0.00     0.031 C 
ATOM     49  C   UNL A   1      44.543  25.750  26.067  1.00  0.00     0.029 A 
ATOM     50  C   UNL A   1      44.681  27.090  26.620  1.00  0.00     0.049 A 
ATOM     51  H   UNL A   1      43.300  28.135  27.781  1.00  0.00     0.167 HD
ATOM     52  C   UNL A   1      40.209  30.249  30.073  1.00  0.00     0.034 A 
ATOM     53  C   UNL A   1      45.755  27.885  26.464  1.00  0.00     0.034 A 
ATOM     54  C   UNL A   1      41.348  31.129  30.054  1.00  0.00     0.049 A 
ATOM     55  C   UNL A   1      45.738  29.249  27.092  1.00  0.00     0.074 A 
ATOM     56  C   UNL A   1      41.497  32.361  30.667  1.00  0.00     0.029 A 
ATOM     57  N   UNL A   1      42.526  30.884  29.362  1.00  0.00    -0.354 N 
ATOM     58  N   UNL A   1      44.798  29.812  27.816  1.00  0.00    -0.248 NA
ATOM     59  C   UNL A   1      46.925  30.085  26.882  1.00  0.00     0.031 C 
ATOM     60  C   UNL A   1      42.743  32.885  30.297  1.00  0.00     0.029 A 
ATOM     61  C   UNL A   1      43.391  31.958  29.495  1.00  0.00     0.049 A 
ATOM     62  H   UNL A   1      42.719  30.065  28.850  1.00  0.00     0.167 HD
ATOM     63  C   UNL A   1      45.288  31.066  28.159  1.00  0.00     0.074 A 
ATOM     64  C   UNL A   1      46.612  31.168  27.578  1.00  0.00     0.031 C 
ATOM     65  C   UNL A   1      44.698  32.046  28.890  1.00  0.00     0.034 A 
BRANCH  52  66
ATOM     66  C   UNL A   1      38.962  30.702  30.780  1.00  0.00     0.023 A 
ATOM     67  C   UNL A   1      37.906  31.307  30.080  1.00  0.00     0.031 A 
ATOM     68  C   UNL A   1      38.835  30.540  32.169  1.00  0.00     0.131 A 
ATOM     69  C   UNL A   1      36.796  31.796  30.785  1.00  0.00     0.055 A 
ATOM     70  C   UNL A   1      37.701  30.973  32.857  1.00  0.00     0.041 A 
ATOM     71  F   UNL A   1      39.822  29.970  32.880  1.00  0.00    -0.206 F 
ATOM     72  C   UNL A   1      36.678  31.615  32.167  1.00  0.00     0.022 A 
BRANCH  69  73
ATOM     73  S   UNL A   1      35.505  32.720  29.909  1.00  0.00     0.124 S 
ATOM     74  O   UNL A   1      35.295  31.873  28.738  1.00  0.00    -0.237 OA
ATOM     75  O   UNL A   1      34.408  32.751  30.871  1.00  0.00    -0.237 OA
ATOM     76  O   UNL A   1      36.138  34.009  29.645  1.00  0.00    -0.744 OA
ENDBRANCH  69  73
ENDBRANCH  52  66
BRANCH  53  77
ATOM     77  C   UNL A   1      46.895  27.429  25.625  1.00  0.00     0.023 A 
ATOM     78  C   UNL A   1      47.027  27.834  24.290  1.00  0.00     0.031 A 
ATOM     79  C   UNL A   1      47.873  26.568  26.159  1.00  0.00     0.131 A 
ATOM     80  C   UNL A   1      48.101  27.359  23.523  1.00  0.00     0.055 A 
ATOM     81  C   UNL A   1      48.963  26.135  25.406  1.00  0.00     0.041 A 
ATOM     82  F   UNL A   1      47.794  26.158  27.435  1.00  0.00    -0.206 F 
ATOM     83  C   UNL A   1      49.076  26.523  24.075  1.00  0.00     0.022 A 
BRANCH  80  84
ATOM     84  S   UNL A   1      48.177  27.804  21.767  1.00  0.00     0.124 S 
ATOM     85  O   UNL A   1      48.340  26.499  21.135  1.00  0.00    -0.237 OA
ATOM     86  O   UNL A   1      46.889  28.458  21.565  1.00  0.00    -0.237 OA
ATOM     87  O   UNL A   1      49.341  28.685  21.689  1.00  0.00    -0.744 OA
ENDBRANCH  80  84
ENDBRANCH  53  77
BRANCH  65  88
ATOM     88  C   UNL A   1      45.506  33.296  29.110  1.00  0.00     0.023 A 
ATOM     89  C   UNL A   1      45.482  34.352  28.182  1.00  0.00     0.031 A 
ATOM     90  C   UNL A   1      46.332  33.416  30.239  1.00  0.00     0.131 A 
ATOM     91  C   UNL A   1      46.314  35.462  28.374  1.00  0.00     0.055 A 
ATOM     92  C   UNL A   1      47.120  34.547  30.450  1.00  0.00     0.041 A 
ATOM     93  F   UNL A   1      46.390  32.433  31.151  1.00  0.00    -0.206 F 
ATOM     94  C   UNL A   1      47.123  35.574  29.508  1.00  0.00     0.022 A 
BRANCH  91  95
ATOM     95  S   UNL A   1      46.389  36.725  27.074  1.00  0.00     0.124 S 
ATOM     96  O   UNL A   1      47.608  37.448  27.422  1.00  0.00    -0.237 OA
ATOM     97  O   UNL A   1      46.450  35.919  25.859  1.00  0.00    -0.237 OA
ATOM     98  O   UNL A   1      45.149  37.477  27.256  1.00  0.00    -0.744 OA
ENDBRANCH  91  95
ENDBRANCH  65  88
ENDBRANCH  39  40
ENDBRANCH  32  34
ENDBRANCH  31  32
ENDBRANCH  30  31
ENDBRANCH   1  30
TORSDOF 20
ENDMDL
MODEL 3
REMARK VINA RESULT:     -11.8      1.811      8.170
REMARK SMILES CCOc1cnc(C(=O)c2[nH]c3cc(Cl)ccc3c2CC(=O)OCCOC(=O)c2ccc(-c3c4nc(c(-c5cc(S(=O)(=O)[O-])ccc5F)c5ccc([nH]5)c(-c5cc(S(=O)(=O)[O-])ccc5F)c5nc(c(-c6cc(S(=O)(=O)[O-])ccc6F)c6ccc3[nH]6)C=C5)C=C4)cc2)cc1CC
REMARK SMILES IDX 24 1 23 2 21 3 22 4 20 5 19 6 10 7 11 8 12 9 18 11 13 12
REMARK SMILES IDX 17 13 14 14 16 15 15 16 8 17 9 18 7 19 4 20 5 21 93 22 6 23
REMARK SMILES IDX 92 24 3 25 2 26 1 27 94 28 95 29 25 30 26 31 27 32 28 33
REMARK SMILES IDX 29 34 30 35 91 36 31 37 90 38 32 39 33 40 34 41 84 42 35 43
REMARK SMILES IDX 89 44 83 45 85 46 36 47 88 48 82 49 81 50 37 52 69 53 49 54
REMARK SMILES IDX 68 55 50 56 53 57 67 58 86 59 51 60 52 61 66 63 87 64 54 65
REMARK SMILES IDX 38 66 39 67 47 68 40 69 46 70 48 71 45 72 41 73 42 74 43 75
REMARK SMILES IDX 44 76 70 77 71 78 79 79 72 80 78 81 80 82 77 83 73 84 74 85
REMARK SMILES IDX 75 86 76 87 55 88 56 89 64 90 57 91 63 92 65 93 62 94 58 95
REMARK SMILES IDX 59 96 60 97 61 98
REMARK H PARENT 11 10 85 51 53 62
REMARK Flexibility Score: inf
ROOT
ATOM      1  C   UNL A   1      36.702  22.730  23.580  1.00  0.00     0.274 C 
ENDROOT
BRANCH   1   2
ATOM      2  O   UNL A   1      35.596  22.634  22.655  1.00  0.00    -0.462 OA
BRANCH   2   3
ATOM      3  C   UNL A   1      34.540  23.453  22.892  1.00  0.00     0.310 C 
ATOM      4  O   UNL A   1      34.595  24.678  22.810  1.00  0.00    -0.252 OA
BRANCH   3   5
ATOM      5  C   UNL A   1      33.223  22.747  23.143  1.00  0.00     0.161 C 
BRANCH   5   6
ATOM      6  C   UNL A   1      33.105  21.836  24.328  1.00  0.00     0.000 A 
ATOM      7  C   UNL A   1      33.447  22.097  25.654  1.00  0.00     0.093 A 
ATOM      8  N   UNL A   1      33.161  20.964  26.378  1.00  0.00    -0.351 N 
ATOM      9  C   UNL A   1      32.930  19.907  25.538  1.00  0.00     0.048 A 
ATOM     10  H   UNL A   1      33.128  20.919  27.362  1.00  0.00     0.167 HD
ATOM     11  C   UNL A   1      32.802  20.432  24.254  1.00  0.00     0.004 A 
ATOM     12  C   UNL A   1      32.840  18.540  25.821  1.00  0.00     0.047 A 
ATOM     13  C   UNL A   1      32.509  19.545  23.197  1.00  0.00     0.012 A 
ATOM     14  C   UNL A   1      32.593  17.683  24.748  1.00  0.00     0.043 A 
ATOM     15  C   UNL A   1      32.412  18.171  23.457  1.00  0.00     0.021 A 
ATOM     16  Cl  UNL A   1      32.519  15.985  25.033  1.00  0.00    -0.084 Cl
BRANCH   7  17
ATOM     17  C   UNL A   1      34.057  23.235  26.335  1.00  0.00     0.227 C 
ATOM     18  O   UNL A   1      35.210  23.170  26.757  1.00  0.00    -0.285 OA
BRANCH  17  19
ATOM     19  C   UNL A   1      33.387  24.585  26.185  1.00  0.00     0.113 A 
ATOM     20  C   UNL A   1      32.241  26.849  25.137  1.00  0.00     0.140 A 
ATOM     21  C   UNL A   1      33.592  26.768  25.455  1.00  0.00     0.158 A 
ATOM     22  C   UNL A   1      31.433  25.738  25.357  1.00  0.00    -0.002 A 
ATOM     23  N   UNL A   1      34.189  25.659  25.963  1.00  0.00    -0.249 NA
ATOM     24  C   UNL A   1      32.008  24.615  25.961  1.00  0.00     0.040 A 
BRANCH  20  25
ATOM     25  O   UNL A   1      31.755  27.913  24.443  1.00  0.00    -0.492 OA
BRANCH  25  26
ATOM     26  C   UNL A   1      31.958  27.807  23.030  1.00  0.00     0.226 C 
ATOM     27  C   UNL A   1      30.820  28.503  22.305  1.00  0.00     0.049 C 
ENDBRANCH  25  26
ENDBRANCH  20  25
BRANCH  22  28
ATOM     28  C   UNL A   1      30.028  25.646  24.812  1.00  0.00     0.036 C 
ATOM     29  C   UNL A   1      29.987  24.786  23.553  1.00  0.00     0.009 C 
ENDBRANCH  22  28
ENDBRANCH  17  19
ENDBRANCH   7  17
ENDBRANCH   5   6
ENDBRANCH   3   5
ENDBRANCH   2   3
ENDBRANCH   1   2
BRANCH   1  30
ATOM     30  C   UNL A   1      37.003  21.380  24.254  1.00  0.00     0.275 C 
BRANCH  30  31
ATOM     31  O   UNL A   1      37.315  21.497  25.661  1.00  0.00    -0.458 OA
BRANCH  31  32
ATOM     32  C   UNL A   1      38.637  21.418  25.916  1.00  0.00     0.338 C 
ATOM     33  O   UNL A   1      39.374  20.497  25.601  1.00  0.00    -0.246 OA
BRANCH  32  34
ATOM     34  C   UNL A   1      39.208  22.614  26.526  1.00  0.00     0.060 A 
ATOM     35  C   UNL A   1      38.701  23.844  26.099  1.00  0.00     0.016 A 
ATOM     36  C   UNL A   1      40.381  22.542  27.276  1.00  0.00     0.016 A 
ATOM     37  C   UNL A   1      39.400  25.010  26.374  1.00  0.00     0.010 A 
ATOM     38  C   UNL A   1      41.050  23.725  27.604  1.00  0.00     0.010 A 
ATOM     39  C   UNL A   1      40.574  24.963  27.138  1.00  0.00    -0.014 A 
BRANCH  39  40
ATOM     40  C   UNL A   1      41.247  26.234  27.491  1.00  0.00     0.031 A 
ATOM     41  C   UNL A   1      42.658  26.517  27.067  1.00  0.00     0.074 A 
ATOM     42  C   UNL A   1      40.542  27.149  28.184  1.00  0.00     0.049 A 
ATOM     43  N   UNL A   1      43.382  27.585  27.282  1.00  0.00    -0.248 NA
ATOM     44  C   UNL A   1      43.344  25.473  26.292  1.00  0.00     0.031 C 
ATOM     45  C   UNL A   1      39.154  26.981  28.625  1.00  0.00     0.029 A 
ATOM     46  N   UNL A   1      40.888  28.393  28.638  1.00  0.00    -0.354 N 
ATOM     47  C   UNL A   1      44.609  27.346  26.674  1.00  0.00     0.074 A 
ATOM     48  C   UNL A   1      44.535  26.022  26.090  1.00  0.00     0.031 C 
ATOM     49  C   UNL A   1      38.769  28.082  29.285  1.00  0.00     0.029 A 
ATOM     50  C   UNL A   1      39.895  29.002  29.367  1.00  0.00     0.049 A 
ATOM     51  H   UNL A   1      41.763  28.810  28.462  1.00  0.00     0.167 HD
ATOM     52  C   UNL A   1      45.693  28.157  26.615  1.00  0.00     0.034 A 
ATOM     53  C   UNL A   1      39.903  30.156  30.059  1.00  0.00     0.034 A 
ATOM     54  C   UNL A   1      45.765  29.455  27.234  1.00  0.00     0.049 A 
ATOM     55  C   UNL A   1      41.151  30.991  30.050  1.00  0.00     0.074 A 
ATOM     56  C   UNL A   1      46.812  30.360  27.221  1.00  0.00     0.029 A 
ATOM     57  N   UNL A   1      44.759  30.021  28.004  1.00  0.00    -0.354 N 
ATOM     58  N   UNL A   1      42.288  30.768  29.432  1.00  0.00    -0.248 NA
ATOM     59  C   UNL A   1      41.117  32.233  30.831  1.00  0.00     0.031 C 
ATOM     60  C   UNL A   1      46.459  31.448  28.031  1.00  0.00     0.029 A 
ATOM     61  C   UNL A   1      45.173  31.244  28.507  1.00  0.00     0.049 A 
ATOM     62  H   UNL A   1      43.877  29.614  28.168  1.00  0.00     0.167 HD
ATOM     63  C   UNL A   1      43.103  31.851  29.742  1.00  0.00     0.074 A 
ATOM     64  C   UNL A   1      42.319  32.733  30.584  1.00  0.00     0.031 C 
ATOM     65  C   UNL A   1      44.383  32.097  29.362  1.00  0.00     0.034 A 
BRANCH  52  66
ATOM     66  C   UNL A   1      46.907  27.632  25.903  1.00  0.00     0.023 A 
ATOM     67  C   UNL A   1      47.143  27.923  24.549  1.00  0.00     0.031 A 
ATOM     68  C   UNL A   1      47.831  26.819  26.580  1.00  0.00     0.131 A 
ATOM     69  C   UNL A   1      48.240  27.343  23.894  1.00  0.00     0.055 A 
ATOM     70  C   UNL A   1      48.955  26.295  25.940  1.00  0.00     0.041 A 
ATOM     71  F   UNL A   1      47.645  26.511  27.874  1.00  0.00    -0.206 F 
ATOM     72  C   UNL A   1      49.158  26.547  24.587  1.00  0.00     0.022 A 
BRANCH  69  73
ATOM     73  S   UNL A   1      48.459  27.585  22.111  1.00  0.00     0.124 S 
ATOM     74  O   UNL A   1      47.194  28.222  21.755  1.00  0.00    -0.237 OA
ATOM     75  O   UNL A   1      49.640  28.438  22.034  1.00  0.00    -0.237 OA
ATOM     76  O   UNL A   1      48.638  26.225  21.609  1.00  0.00    -0.744 OA
ENDBRANCH  69  73
ENDBRANCH  52  66
BRANCH  53  77
ATOM     77  C   UNL A   1      38.714  30.541  30.865  1.00  0.00     0.023 A 
ATOM     78  C   UNL A   1      37.628  31.212  30.289  1.00  0.00     0.031 A 
ATOM     79  C   UNL A   1      38.658  30.240  32.239  1.00  0.00     0.131 A 
ATOM     80  C   UNL A   1      36.536  31.583  31.089  1.00  0.00     0.055 A 
ATOM     81  C   UNL A   1      37.551  30.571  33.021  1.00  0.00     0.041 A 
ATOM     82  F   UNL A   1      39.672  29.593  32.836  1.00  0.00    -0.206 F 
ATOM     83  C   UNL A   1      36.486  31.257  32.447  1.00  0.00     0.022 A 
BRANCH  80  84
ATOM     84  S   UNL A   1      35.202  32.554  30.339  1.00  0.00     0.124 S 
ATOM     85  O   UNL A   1      34.296  32.739  31.469  1.00  0.00    -0.237 OA
ATOM     86  O   UNL A   1      35.913  33.745  29.886  1.00  0.00    -0.237 OA
ATOM     87  O   UNL A   1      34.703  31.685  29.276  1.00  0.00    -0.744 OA
ENDBRANCH  80  84
ENDBRANCH  53  77
BRANCH  65  88
ATOM     88  C   UNL A   1      44.989  33.385  29.847  1.00  0.00     0.023 A 
ATOM     89  C   UNL A   1      44.814  34.586  29.139  1.00  0.00     0.031 A 
ATOM     90  C   UNL A   1      45.778  33.402  31.010  1.00  0.00     0.131 A 
ATOM     91  C   UNL A   1      45.467  35.748  29.572  1.00  0.00     0.055 A 
ATOM     92  C   UNL A   1      46.383  34.574  31.464  1.00  0.00     0.041 A 
ATOM     93  F   UNL A   1      45.976  32.280  31.719  1.00  0.00    -0.206 F 
ATOM     94  C   UNL A   1      46.239  35.754  30.736  1.00  0.00     0.022 A 
BRANCH  91  95
ATOM     95  S   UNL A   1      45.361  37.237  28.541  1.00  0.00     0.124 S 
ATOM     96  O   UNL A   1      45.339  38.299  29.542  1.00  0.00    -0.237 OA
ATOM     97  O   UNL A   1      46.573  37.145  27.735  1.00  0.00    -0.237 OA
ATOM     98  O   UNL A   1      44.112  37.054  27.804  1.00  0.00    -0.744 OA
ENDBRANCH  91  95
ENDBRANCH  65  88
ENDBRANCH  39  40
ENDBRANCH  32  34
ENDBRANCH  31  32
ENDBRANCH  30  31
ENDBRANCH   1  30
TORSDOF 20
ENDMDL
