MODEL 1
REMARK VINA RESULT:     -12.0      0.000      0.000
REMARK SMILES C[C@]12CC[C@H]3[C@@H](CCC4=CC(=O)C=C[C@@]43C)[C@@H]1CC[C@H]2O[C@@H]1O[C@H](C(=O)OCCOC(=O)c2ccc(-c3c4nc(c(-c5cc(S(=O)(=O)[O-])ccc5F)c5ccc([nH]5)c(-c5cc(S(=O)(=O)[O-])ccc5F)c5nc(c(-c6cc(S(=O)(=O)[O-])ccc6F)c6ccc3[nH]6)C=C5)C=C4)cc2)[C@@H](O)[C@H](O)[C@H]1O
REMARK SMILES IDX 29 1 28 2 27 3 25 4 26 5 24 6 22 7 23 8 100 9 98 10 96 11
REMARK SMILES IDX 21 12 20 13 1 14 2 15 3 16 17 17 4 18 6 19 18 20 19 21 5 22
REMARK SMILES IDX 7 23 15 24 8 25 9 26 14 27 16 28 10 29 13 30 11 31 12 32
REMARK SMILES IDX 101 33 99 35 97 37 30 39 31 40 32 41 33 42 34 43 95 44 35 45
REMARK SMILES IDX 94 46 36 47 37 48 38 49 88 50 39 51 93 52 87 53 89 54 40 55
REMARK SMILES IDX 92 56 86 57 85 58 41 60 73 61 53 62 72 63 54 64 57 65 71 66
REMARK SMILES IDX 90 67 55 68 56 69 70 71 91 72 58 73 42 74 43 75 51 76 44 77
REMARK SMILES IDX 50 78 52 79 49 80 45 81 46 82 47 83 48 84 74 85 75 86 83 87
REMARK SMILES IDX 76 88 82 89 84 90 81 91 77 92 78 93 79 94 80 95 59 96 60 97
REMARK SMILES IDX 68 98 61 99 67 100 69 101 66 102 62 103 63 104 64 105 65 106
REMARK H PARENT 101 34 99 36 97 38 89 59 57 70
REMARK Flexibility Score: inf
ROOT
ATOM      1  C   UNL A   1      32.895  36.787  30.696  1.00  0.00     0.275 C 
ENDROOT
BRANCH   1   2
ATOM      2  C   UNL A   1      33.261  36.468  29.246  1.00  0.00     0.274 C 
BRANCH   2   3
ATOM      3  O   UNL A   1      34.013  35.238  29.184  1.00  0.00    -0.460 OA
BRANCH   3   4
ATOM      4  C   UNL A   1      33.457  34.214  28.497  1.00  0.00     0.338 C 
ATOM      5  O   UNL A   1      32.387  34.267  27.900  1.00  0.00    -0.249 OA
BRANCH   4   6
ATOM      6  C   UNL A   1      34.298  32.934  28.536  1.00  0.00     0.262 C 
ATOM      7  C   UNL A   1      34.640  30.663  27.808  1.00  0.00     0.282 C 
ATOM      8  O   UNL A   1      33.918  31.888  27.647  1.00  0.00    -0.332 OA
ATOM      9  C   UNL A   1      36.173  30.828  27.997  1.00  0.00     0.202 C 
ATOM     10  C   UNL A   1      36.581  32.077  28.789  1.00  0.00     0.180 C 
ATOM     11  C   UNL A   1      35.768  33.284  28.299  1.00  0.00     0.186 C 
BRANCH   7  12
ATOM     12  O   UNL A   1      34.256  29.657  26.853  1.00  0.00    -0.346 OA
BRANCH  12  13
ATOM     13  C   UNL A   1      32.997  29.471  26.199  1.00  0.00     0.127 C 
ATOM     14  C   UNL A   1      31.653  28.472  24.277  1.00  0.00     0.014 C 
ATOM     15  C   UNL A   1      32.817  28.221  25.289  1.00  0.00    -0.003 C 
ATOM     16  C   UNL A   1      34.036  27.755  24.497  1.00  0.00     0.010 C 
ATOM     17  C   UNL A   1      32.440  27.180  26.347  1.00  0.00     0.001 C 
ATOM     18  C   UNL A   1      33.804  26.370  23.862  1.00  0.00     0.006 C 
ATOM     19  C   UNL A   1      32.177  25.773  25.810  1.00  0.00    -0.003 C 
ATOM     20  C   UNL A   1      31.388  27.895  27.207  1.00  0.00     0.007 C 
ATOM     21  C   UNL A   1      31.731  29.403  27.078  1.00  0.00     0.033 C 
ATOM     22  C   UNL A   1      33.354  25.298  24.886  1.00  0.00     0.006 C 
ATOM     23  C   UNL A   1      32.055  24.782  26.985  1.00  0.00     0.009 C 
ATOM     24  C   UNL A   1      33.063  23.865  24.292  1.00  0.00     0.010 C 
ATOM     25  C   UNL A   1      31.846  23.342  26.525  1.00  0.00     0.032 C 
ATOM     26  C   UNL A   1      32.844  22.910  25.477  1.00  0.00    -0.056 C 
ATOM     27  C   UNL A   1      34.187  23.368  23.388  1.00  0.00    -0.012 C 
ATOM     28  C   UNL A   1      31.806  23.843  23.399  1.00  0.00     0.021 C 
ATOM     29  C   UNL A   1      33.513  21.751  25.627  1.00  0.00     0.052 C 
ATOM     30  C   UNL A   1      34.832  22.202  23.528  1.00  0.00     0.048 C 
ATOM     31  C   UNL A   1      34.540  21.307  24.662  1.00  0.00     0.178 C 
ATOM     32  O   UNL A   1      35.157  20.262  24.825  1.00  0.00    -0.290 OA
ENDBRANCH  12  13
ENDBRANCH   7  12
BRANCH   9  33
ATOM     33  O   UNL A   1      36.764  29.647  28.561  1.00  0.00    -0.385 OA
ATOM     34  H   UNL A   1      36.675  28.911  27.935  1.00  0.00     0.211 HD
ENDBRANCH   9  33
BRANCH  10  35
ATOM     35  O   UNL A   1      37.989  32.311  28.627  1.00  0.00    -0.387 OA
ATOM     36  H   UNL A   1      38.146  33.257  28.484  1.00  0.00     0.211 HD
ENDBRANCH  10  35
BRANCH  11  37
ATOM     37  O   UNL A   1      36.229  34.473  28.934  1.00  0.00    -0.387 OA
ATOM     38  H   UNL A   1      35.553  34.794  29.549  1.00  0.00     0.211 HD
ENDBRANCH  11  37
ENDBRANCH   4   6
ENDBRANCH   3   4
ENDBRANCH   2   3
ENDBRANCH   1   2
BRANCH   1  39
ATOM     39  O   UNL A   1      33.900  36.280  31.569  1.00  0.00    -0.458 OA
BRANCH  39  40
ATOM     40  C   UNL A   1      33.478  35.309  32.409  1.00  0.00     0.338 C 
ATOM     41  O   UNL A   1      32.357  34.857  32.541  1.00  0.00    -0.246 OA
BRANCH  40  42
ATOM     42  C   UNL A   1      34.706  34.695  32.907  1.00  0.00     0.060 A 
ATOM     43  C   UNL A   1      35.915  35.119  32.351  1.00  0.00     0.016 A 
ATOM     44  C   UNL A   1      34.655  33.817  33.991  1.00  0.00     0.016 A 
ATOM     45  C   UNL A   1      37.103  34.678  32.899  1.00  0.00     0.010 A 
ATOM     46  C   UNL A   1      35.843  33.360  34.531  1.00  0.00     0.010 A 
ATOM     47  C   UNL A   1      37.061  33.777  33.969  1.00  0.00    -0.014 A 
BRANCH  47  48
ATOM     48  C   UNL A   1      38.292  33.077  34.352  1.00  0.00     0.031 A 
ATOM     49  C   UNL A   1      38.732  31.958  33.459  1.00  0.00     0.074 A 
ATOM     50  C   UNL A   1      38.966  33.465  35.444  1.00  0.00     0.049 A 
ATOM     51  N   UNL A   1      39.708  31.111  33.614  1.00  0.00    -0.248 NA
ATOM     52  C   UNL A   1      37.946  31.756  32.227  1.00  0.00     0.031 C 
ATOM     53  C   UNL A   1      38.596  34.587  36.312  1.00  0.00     0.029 A 
ATOM     54  N   UNL A   1      40.100  32.960  36.013  1.00  0.00    -0.354 N 
ATOM     55  C   UNL A   1      39.638  30.260  32.517  1.00  0.00     0.074 A 
ATOM     56  C   UNL A   1      38.505  30.670  31.721  1.00  0.00     0.031 C 
ATOM     57  C   UNL A   1      39.492  34.680  37.308  1.00  0.00     0.029 A 
ATOM     58  C   UNL A   1      40.460  33.597  37.177  1.00  0.00     0.049 A 
ATOM     59  H   UNL A   1      40.610  32.211  35.627  1.00  0.00     0.167 HD
ATOM     60  C   UNL A   1      40.460  29.229  32.215  1.00  0.00     0.034 A 
ATOM     61  C   UNL A   1      41.449  33.297  38.040  1.00  0.00     0.034 A 
ATOM     62  C   UNL A   1      41.573  28.869  33.054  1.00  0.00     0.049 A 
ATOM     63  C   UNL A   1      42.329  32.119  37.696  1.00  0.00     0.074 A 
ATOM     64  C   UNL A   1      42.488  27.848  32.889  1.00  0.00     0.029 A 
ATOM     65  N   UNL A   1      41.918  29.534  34.228  1.00  0.00    -0.354 N 
ATOM     66  N   UNL A   1      42.252  31.302  36.666  1.00  0.00    -0.248 NA
ATOM     67  C   UNL A   1      43.433  31.827  38.615  1.00  0.00     0.031 C 
ATOM     68  C   UNL A   1      43.342  27.854  33.996  1.00  0.00     0.029 A 
ATOM     69  C   UNL A   1      43.021  28.934  34.806  1.00  0.00     0.049 A 
ATOM     70  H   UNL A   1      41.445  30.316  34.593  1.00  0.00     0.167 HD
ATOM     71  C   UNL A   1      43.324  30.426  36.792  1.00  0.00     0.074 A 
ATOM     72  C   UNL A   1      44.038  30.829  37.990  1.00  0.00     0.031 C 
ATOM     73  C   UNL A   1      43.697  29.385  36.001  1.00  0.00     0.034 A 
BRANCH  60  74
ATOM     74  C   UNL A   1      40.134  28.410  30.992  1.00  0.00     0.023 A 
ATOM     75  C   UNL A   1      40.733  28.660  29.742  1.00  0.00     0.031 A 
ATOM     76  C   UNL A   1      39.170  27.391  31.064  1.00  0.00     0.131 A 
ATOM     77  C   UNL A   1      40.316  27.944  28.610  1.00  0.00     0.055 A 
ATOM     78  C   UNL A   1      38.816  26.628  29.950  1.00  0.00     0.041 A 
ATOM     79  F   UNL A   1      38.535  27.132  32.219  1.00  0.00    -0.206 F 
ATOM     80  C   UNL A   1      39.382  26.910  28.709  1.00  0.00     0.022 A 
BRANCH  77  81
ATOM     81  S   UNL A   1      40.914  28.467  26.978  1.00  0.00     0.124 S 
ATOM     82  O   UNL A   1      42.137  29.184  27.331  1.00  0.00    -0.237 OA
ATOM     83  O   UNL A   1      41.097  27.198  26.285  1.00  0.00    -0.237 OA
ATOM     84  O   UNL A   1      39.831  29.307  26.468  1.00  0.00    -0.744 OA
ENDBRANCH  77  81
ENDBRANCH  60  74
BRANCH  61  85
ATOM     85  C   UNL A   1      41.642  34.086  39.292  1.00  0.00     0.023 A 
ATOM     86  C   UNL A   1      40.948  33.763  40.468  1.00  0.00     0.031 A 
ATOM     87  C   UNL A   1      42.488  35.210  39.321  1.00  0.00     0.131 A 
ATOM     88  C   UNL A   1      41.063  34.585  41.600  1.00  0.00     0.055 A 
ATOM     89  C   UNL A   1      42.649  35.988  40.469  1.00  0.00     0.041 A 
ATOM     90  F   UNL A   1      43.179  35.569  38.227  1.00  0.00    -0.206 F 
ATOM     91  C   UNL A   1      41.919  35.687  41.614  1.00  0.00     0.022 A 
BRANCH  88  92
ATOM     92  S   UNL A   1      39.980  34.260  43.020  1.00  0.00     0.124 S 
ATOM     93  O   UNL A   1      40.935  34.244  44.123  1.00  0.00    -0.237 OA
ATOM     94  O   UNL A   1      39.072  35.401  42.973  1.00  0.00    -0.237 OA
ATOM     95  O   UNL A   1      39.376  32.969  42.697  1.00  0.00    -0.744 OA
ENDBRANCH  88  92
ENDBRANCH  61  85
BRANCH  73  96
ATOM     96  C   UNL A   1      44.968  28.674  36.382  1.00  0.00     0.023 A 
ATOM     97  C   UNL A   1      44.968  27.580  37.261  1.00  0.00     0.031 A 
ATOM     98  C   UNL A   1      46.198  29.113  35.861  1.00  0.00     0.131 A 
ATOM     99  C   UNL A   1      46.185  27.010  37.655  1.00  0.00     0.055 A 
ATOM    100  C   UNL A   1      47.398  28.490  36.195  1.00  0.00     0.041 A 
ATOM    101  F   UNL A   1      46.250  30.156  35.015  1.00  0.00    -0.206 F 
ATOM    102  C   UNL A   1      47.398  27.442  37.111  1.00  0.00     0.022 A 
BRANCH  99 103
ATOM    103  S   UNL A   1      46.170  25.780  38.986  1.00  0.00     0.124 S 
ATOM    104  O   UNL A   1      47.262  26.242  39.836  1.00  0.00    -0.237 OA
ATOM    105  O   UNL A   1      44.827  25.933  39.536  1.00  0.00    -0.237 OA
ATOM    106  O   UNL A   1      46.415  24.519  38.289  1.00  0.00    -0.744 OA
ENDBRANCH  99 103
ENDBRANCH  73  96
ENDBRANCH  47  48
ENDBRANCH  40  42
ENDBRANCH  39  40
ENDBRANCH   1  39
TORSDOF 19
ENDMDL
MODEL 2
REMARK VINA RESULT:     -12.0      0.872      7.348
REMARK SMILES C[C@]12CC[C@H]3[C@@H](CCC4=CC(=O)C=C[C@@]43C)[C@@H]1CC[C@H]2O[C@@H]1O[C@H](C(=O)OCCOC(=O)c2ccc(-c3c4nc(c(-c5cc(S(=O)(=O)[O-])ccc5F)c5ccc([nH]5)c(-c5cc(S(=O)(=O)[O-])ccc5F)c5nc(c(-c6cc(S(=O)(=O)[O-])ccc6F)c6ccc3[nH]6)C=C5)C=C4)cc2)[C@@H](O)[C@H](O)[C@H]1O
REMARK SMILES IDX 29 1 28 2 27 3 25 4 26 5 24 6 22 7 23 8 100 9 98 10 96 11
REMARK SMILES IDX 21 12 20 13 1 14 2 15 3 16 17 17 4 18 6 19 18 20 19 21 5 22
REMARK SMILES IDX 7 23 15 24 8 25 9 26 14 27 16 28 10 29 13 30 11 31 12 32
REMARK SMILES IDX 101 33 99 35 97 37 30 39 31 40 32 41 33 42 34 43 95 44 35 45
REMARK SMILES IDX 94 46 36 47 37 48 38 49 88 50 39 51 93 52 87 53 89 54 40 55
REMARK SMILES IDX 92 56 86 57 85 58 41 60 73 61 53 62 72 63 54 64 57 65 71 66
REMARK SMILES IDX 90 67 55 68 56 69 70 71 91 72 58 73 42 74 43 75 51 76 44 77
REMARK SMILES IDX 50 78 52 79 49 80 45 81 46 82 47 83 48 84 74 85 75 86 83 87
REMARK SMILES IDX 76 88 82 89 84 90 81 91 77 92 78 93 79 94 80 95 59 96 60 97
REMARK SMILES IDX 68 98 61 99 67 100 69 101 66 102 62 103 63 104 64 105 65 106
REMARK H PARENT 101 34 99 36 97 38 89 59 57 70
REMARK Flexibility Score: inf
ROOT
ATOM      1  C   UNL A   1      32.552  36.793  30.568  1.00  0.00     0.275 C 
ENDROOT
BRANCH   1   2
ATOM      2  C   UNL A   1      33.277  36.326  29.305  1.00  0.00     0.274 C 
BRANCH   2   3
ATOM      3  O   UNL A   1      33.699  34.954  29.454  1.00  0.00    -0.460 OA
BRANCH   3   4
ATOM      4  C   UNL A   1      33.320  34.089  28.486  1.00  0.00     0.338 C 
ATOM      5  O   UNL A   1      32.375  34.256  27.723  1.00  0.00    -0.249 OA
BRANCH   4   6
ATOM      6  C   UNL A   1      34.194  32.831  28.426  1.00  0.00     0.262 C 
ATOM      7  C   UNL A   1      34.563  30.610  27.567  1.00  0.00     0.282 C 
ATOM      8  O   UNL A   1      33.805  31.822  27.498  1.00  0.00    -0.332 OA
ATOM      9  C   UNL A   1      36.098  30.806  27.706  1.00  0.00     0.202 C 
ATOM     10  C   UNL A   1      36.505  32.023  28.547  1.00  0.00     0.180 C 
ATOM     11  C   UNL A   1      35.644  33.232  28.152  1.00  0.00     0.186 C 
BRANCH   7  12
ATOM     12  O   UNL A   1      34.167  29.646  26.575  1.00  0.00    -0.346 OA
BRANCH  12  13
ATOM     13  C   UNL A   1      32.866  29.389  26.038  1.00  0.00     0.127 C 
ATOM     14  C   UNL A   1      31.406  28.266  24.276  1.00  0.00     0.014 C 
ATOM     15  C   UNL A   1      32.658  28.097  25.195  1.00  0.00    -0.003 C 
ATOM     16  C   UNL A   1      33.824  27.641  24.321  1.00  0.00     0.010 C 
ATOM     17  C   UNL A   1      32.410  27.088  26.320  1.00  0.00     0.001 C 
ATOM     18  C   UNL A   1      33.592  26.224  23.762  1.00  0.00     0.006 C 
ATOM     19  C   UNL A   1      32.157  25.653  25.862  1.00  0.00    -0.003 C 
ATOM     20  C   UNL A   1      31.407  27.802  27.238  1.00  0.00     0.007 C 
ATOM     21  C   UNL A   1      31.681  29.314  27.023  1.00  0.00     0.033 C 
ATOM     22  C   UNL A   1      33.270  25.180  24.860  1.00  0.00     0.006 C 
ATOM     23  C   UNL A   1      32.170  24.707  27.081  1.00  0.00     0.009 C 
ATOM     24  C   UNL A   1      32.985  23.715  24.349  1.00  0.00     0.010 C 
ATOM     25  C   UNL A   1      31.978  23.244  26.696  1.00  0.00     0.032 C 
ATOM     26  C   UNL A   1      32.902  22.802  25.584  1.00  0.00    -0.056 C 
ATOM     27  C   UNL A   1      34.048  23.220  23.373  1.00  0.00    -0.012 C 
ATOM     28  C   UNL A   1      31.660  23.612  23.567  1.00  0.00     0.021 C 
ATOM     29  C   UNL A   1      33.624  21.675  25.722  1.00  0.00     0.052 C 
ATOM     30  C   UNL A   1      34.746  22.083  23.502  1.00  0.00     0.048 C 
ATOM     31  C   UNL A   1      34.583  21.226  24.690  1.00  0.00     0.178 C 
ATOM     32  O   UNL A   1      35.250  20.211  24.840  1.00  0.00    -0.290 OA
ENDBRANCH  12  13
ENDBRANCH   7  12
BRANCH   9  33
ATOM     33  O   UNL A   1      36.739  29.614  28.185  1.00  0.00    -0.385 OA
ATOM     34  H   UNL A   1      36.333  28.839  27.766  1.00  0.00     0.211 HD
ENDBRANCH   9  33
BRANCH  10  35
ATOM     35  O   UNL A   1      37.900  32.303  28.345  1.00  0.00    -0.387 OA
ATOM     36  H   UNL A   1      38.217  31.823  27.564  1.00  0.00     0.211 HD
ENDBRANCH  10  35
BRANCH  11  37
ATOM     37  O   UNL A   1      36.100  34.398  28.831  1.00  0.00    -0.387 OA
ATOM     38  H   UNL A   1      36.404  35.052  28.183  1.00  0.00     0.211 HD
ENDBRANCH  11  37
ENDBRANCH   4   6
ENDBRANCH   3   4
ENDBRANCH   2   3
ENDBRANCH   1   2
BRANCH   1  39
ATOM     39  O   UNL A   1      33.399  36.621  31.700  1.00  0.00    -0.458 OA
BRANCH  39  40
ATOM     40  C   UNL A   1      32.989  35.670  32.569  1.00  0.00     0.338 C 
ATOM     41  O   UNL A   1      31.853  35.350  32.859  1.00  0.00    -0.246 OA
BRANCH  40  42
ATOM     42  C   UNL A   1      34.191  34.893  32.857  1.00  0.00     0.060 A 
ATOM     43  C   UNL A   1      34.024  33.576  33.293  1.00  0.00     0.016 A 
ATOM     44  C   UNL A   1      35.450  35.425  32.573  1.00  0.00     0.016 A 
ATOM     45  C   UNL A   1      35.131  32.762  33.427  1.00  0.00     0.010 A 
ATOM     46  C   UNL A   1      36.562  34.618  32.724  1.00  0.00     0.010 A 
ATOM     47  C   UNL A   1      36.399  33.296  33.170  1.00  0.00    -0.014 A 
BRANCH  47  48
ATOM     48  C   UNL A   1      37.582  32.544  33.599  1.00  0.00     0.031 A 
ATOM     49  C   UNL A   1      38.182  32.932  34.916  1.00  0.00     0.074 A 
ATOM     50  C   UNL A   1      38.059  31.555  32.829  1.00  0.00     0.049 A 
ATOM     51  N   UNL A   1      39.278  32.515  35.480  1.00  0.00    -0.248 NA
ATOM     52  C   UNL A   1      37.450  33.949  35.694  1.00  0.00     0.031 C 
ATOM     53  C   UNL A   1      37.469  31.113  31.562  1.00  0.00     0.029 A 
ATOM     54  N   UNL A   1      39.146  30.746  32.994  1.00  0.00    -0.354 N 
ATOM     55  C   UNL A   1      39.382  33.236  36.665  1.00  0.00     0.074 A 
ATOM     56  C   UNL A   1      38.258  34.139  36.723  1.00  0.00     0.031 C 
ATOM     57  C   UNL A   1      38.210  30.109  31.065  1.00  0.00     0.029 A 
ATOM     58  C   UNL A   1      39.348  29.879  31.948  1.00  0.00     0.049 A 
ATOM     59  H   UNL A   1      39.729  30.782  33.787  1.00  0.00     0.167 HD
ATOM     60  C   UNL A   1      40.342  33.136  37.613  1.00  0.00     0.034 A 
ATOM     61  C   UNL A   1      40.367  29.024  31.735  1.00  0.00     0.034 A 
ATOM     62  C   UNL A   1      41.441  32.214  37.493  1.00  0.00     0.049 A 
ATOM     63  C   UNL A   1      41.443  28.961  32.792  1.00  0.00     0.074 A 
ATOM     64  C   UNL A   1      42.494  32.004  38.361  1.00  0.00     0.029 A 
ATOM     65  N   UNL A   1      41.621  31.343  36.422  1.00  0.00    -0.354 N 
ATOM     66  N   UNL A   1      41.551  29.655  33.906  1.00  0.00    -0.248 NA
ATOM     67  C   UNL A   1      42.524  27.994  32.579  1.00  0.00     0.031 C 
ATOM     68  C   UNL A   1      43.344  31.056  37.783  1.00  0.00     0.029 A 
ATOM     69  C   UNL A   1      42.777  30.605  36.599  1.00  0.00     0.049 A 
ATOM     70  H   UNL A   1      41.014  31.264  35.651  1.00  0.00     0.167 HD
ATOM     71  C   UNL A   1      42.690  29.178  34.545  1.00  0.00     0.074 A 
ATOM     72  C   UNL A   1      43.220  28.127  33.697  1.00  0.00     0.031 C 
ATOM     73  C   UNL A   1      43.254  29.562  35.721  1.00  0.00     0.034 A 
BRANCH  60  74
ATOM     74  C   UNL A   1      40.266  34.081  38.786  1.00  0.00     0.023 A 
ATOM     75  C   UNL A   1      39.651  33.719  39.999  1.00  0.00     0.031 A 
ATOM     76  C   UNL A   1      40.777  35.385  38.673  1.00  0.00     0.131 A 
ATOM     77  C   UNL A   1      39.508  34.669  41.022  1.00  0.00     0.055 A 
ATOM     78  C   UNL A   1      40.702  36.301  39.723  1.00  0.00     0.041 A 
ATOM     79  F   UNL A   1      41.340  35.801  37.527  1.00  0.00    -0.206 F 
ATOM     80  C   UNL A   1      40.054  35.949  40.904  1.00  0.00     0.022 A 
BRANCH  77  81
ATOM     81  S   UNL A   1      38.484  34.253  42.462  1.00  0.00     0.124 S 
ATOM     82  O   UNL A   1      39.478  34.240  43.534  1.00  0.00    -0.237 OA
ATOM     83  O   UNL A   1      37.523  35.348  42.497  1.00  0.00    -0.237 OA
ATOM     84  O   UNL A   1      37.927  32.945  42.121  1.00  0.00    -0.744 OA
ENDBRANCH  77  81
ENDBRANCH  60  74
BRANCH  61  85
ATOM     85  C   UNL A   1      40.433  28.200  30.493  1.00  0.00     0.023 A 
ATOM     86  C   UNL A   1      41.389  28.460  29.500  1.00  0.00     0.031 A 
ATOM     87  C   UNL A   1      39.507  27.168  30.254  1.00  0.00     0.131 A 
ATOM     88  C   UNL A   1      41.361  27.743  28.292  1.00  0.00     0.055 A 
ATOM     89  C   UNL A   1      39.523  26.414  29.079  1.00  0.00     0.041 A 
ATOM     90  F   UNL A   1      38.568  26.872  31.167  1.00  0.00    -0.206 F 
ATOM     91  C   UNL A   1      40.444  26.712  28.080  1.00  0.00     0.022 A 
BRANCH  88  92
ATOM     92  S   UNL A   1      42.469  28.262  26.951  1.00  0.00     0.124 S 
ATOM     93  O   UNL A   1      43.536  27.272  27.049  1.00  0.00    -0.237 OA
ATOM     94  O   UNL A   1      41.599  28.156  25.785  1.00  0.00    -0.237 OA
ATOM     95  O   UNL A   1      42.843  29.623  27.328  1.00  0.00    -0.744 OA
ENDBRANCH  88  92
ENDBRANCH  61  85
BRANCH  73  96
ATOM     96  C   UNL A   1      44.461  28.782  36.173  1.00  0.00     0.023 A 
ATOM     97  C   UNL A   1      44.350  27.693  37.051  1.00  0.00     0.031 A 
ATOM     98  C   UNL A   1      45.740  29.150  35.720  1.00  0.00     0.131 A 
ATOM     99  C   UNL A   1      45.509  27.057  37.512  1.00  0.00     0.055 A 
ATOM    100  C   UNL A   1      46.883  28.461  36.121  1.00  0.00     0.041 A 
ATOM    101  F   UNL A   1      45.897  30.184  34.878  1.00  0.00    -0.206 F 
ATOM    102  C   UNL A   1      46.773  27.418  37.037  1.00  0.00     0.022 A 
BRANCH  99 103
ATOM    103  S   UNL A   1      45.351  25.835  38.841  1.00  0.00     0.124 S 
ATOM    104  O   UNL A   1      46.680  25.869  39.442  1.00  0.00    -0.237 OA
ATOM    105  O   UNL A   1      44.272  26.393  39.650  1.00  0.00    -0.237 OA
ATOM    106  O   UNL A   1      45.021  24.600  38.132  1.00  0.00    -0.744 OA
ENDBRANCH  99 103
ENDBRANCH  73  96
ENDBRANCH  47  48
ENDBRANCH  40  42
ENDBRANCH  39  40
ENDBRANCH   1  39
TORSDOF 19
ENDMDL
MODEL 3
REMARK VINA RESULT:     -12.0     10.549     16.250
REMARK SMILES C[C@]12CC[C@H]3[C@@H](CCC4=CC(=O)C=C[C@@]43C)[C@@H]1CC[C@H]2O[C@@H]1O[C@H](C(=O)OCCOC(=O)c2ccc(-c3c4nc(c(-c5cc(S(=O)(=O)[O-])ccc5F)c5ccc([nH]5)c(-c5cc(S(=O)(=O)[O-])ccc5F)c5nc(c(-c6cc(S(=O)(=O)[O-])ccc6F)c6ccc3[nH]6)C=C5)C=C4)cc2)[C@@H](O)[C@H](O)[C@H]1O
REMARK SMILES IDX 29 1 28 2 27 3 25 4 26 5 24 6 22 7 23 8 100 9 98 10 96 11
REMARK SMILES IDX 21 12 20 13 1 14 2 15 3 16 17 17 4 18 6 19 18 20 19 21 5 22
REMARK SMILES IDX 7 23 15 24 8 25 9 26 14 27 16 28 10 29 13 30 11 31 12 32
REMARK SMILES IDX 101 33 99 35 97 37 30 39 31 40 32 41 33 42 34 43 95 44 35 45
REMARK SMILES IDX 94 46 36 47 37 48 38 49 88 50 39 51 93 52 87 53 89 54 40 55
REMARK SMILES IDX 92 56 86 57 85 58 41 60 73 61 53 62 72 63 54 64 57 65 71 66
REMARK SMILES IDX 90 67 55 68 56 69 70 71 91 72 58 73 42 74 43 75 51 76 44 77
REMARK SMILES IDX 50 78 52 79 49 80 45 81 46 82 47 83 48 84 74 85 75 86 83 87
REMARK SMILES IDX 76 88 82 89 84 90 81 91 77 92 78 93 79 94 80 95 59 96 60 97
REMARK SMILES IDX 68 98 61 99 67 100 69 101 66 102 62 103 63 104 64 105 65 106
REMARK H PARENT 101 34 99 36 97 38 89 59 57 70
REMARK Flexibility Score: inf
ROOT
ATOM      1  C   UNL A   1      48.449  37.670  28.274  1.00  0.00     0.275 C 
ENDROOT
BRANCH   1   2
ATOM      2  C   UNL A   1      48.459  38.955  27.446  1.00  0.00     0.274 C 
BRANCH   2   3
ATOM      3  O   UNL A   1      47.109  39.346  27.120  1.00  0.00    -0.460 OA
BRANCH   3   4
ATOM      4  C   UNL A   1      46.809  39.477  25.808  1.00  0.00     0.338 C 
ATOM      5  O   UNL A   1      47.182  38.715  24.921  1.00  0.00    -0.249 OA
BRANCH   4   6
ATOM      6  C   UNL A   1      45.945  40.707  25.506  1.00  0.00     0.262 C 
ATOM      7  C   UNL A   1      45.297  42.452  23.976  1.00  0.00     0.282 C 
ATOM      8  O   UNL A   1      46.011  41.229  24.182  1.00  0.00    -0.332 OA
ATOM      9  C   UNL A   1      43.885  42.502  24.624  1.00  0.00     0.202 C 
ATOM     10  C   UNL A   1      43.778  41.757  25.960  1.00  0.00     0.180 C 
ATOM     11  C   UNL A   1      44.487  40.400  25.851  1.00  0.00     0.186 C 
BRANCH   7  12
ATOM     12  O   UNL A   1      45.350  42.909  22.613  1.00  0.00    -0.346 OA
BRANCH  12  13
ATOM     13  C   UNL A   1      46.476  43.377  21.863  1.00  0.00     0.127 C 
ATOM     14  C   UNL A   1      47.512  43.982  19.615  1.00  0.00     0.014 C 
ATOM     15  C   UNL A   1      46.215  44.049  20.484  1.00  0.00    -0.003 C 
ATOM     16  C   UNL A   1      45.061  43.499  19.649  1.00  0.00     0.010 C 
ATOM     17  C   UNL A   1      45.908  45.477  20.943  1.00  0.00     0.001 C 
ATOM     18  C   UNL A   1      44.741  44.416  18.452  1.00  0.00     0.006 C 
ATOM     19  C   UNL A   1      45.590  46.466  19.822  1.00  0.00    -0.003 C 
ATOM     20  C   UNL A   1      47.017  45.782  21.960  1.00  0.00     0.007 C 
ATOM     21  C   UNL A   1      47.417  44.398  22.536  1.00  0.00     0.033 C 
ATOM     22  C   UNL A   1      44.489  45.889  18.862  1.00  0.00     0.006 C 
ATOM     23  C   UNL A   1      45.062  47.784  20.425  1.00  0.00     0.009 C 
ATOM     24  C   UNL A   1      44.193  46.887  17.677  1.00  0.00     0.010 C 
ATOM     25  C   UNL A   1      44.670  48.805  19.362  1.00  0.00     0.032 C 
ATOM     26  C   UNL A   1      43.765  48.227  18.298  1.00  0.00    -0.056 C 
ATOM     27  C   UNL A   1      43.126  46.361  16.722  1.00  0.00    -0.012 C 
ATOM     28  C   UNL A   1      45.429  47.126  16.787  1.00  0.00     0.021 C 
ATOM     29  C   UNL A   1      42.631  48.871  17.963  1.00  0.00     0.052 C 
ATOM     30  C   UNL A   1      42.011  47.016  16.372  1.00  0.00     0.048 C 
ATOM     31  C   UNL A   1      41.683  48.323  16.970  1.00  0.00     0.178 C 
ATOM     32  O   UNL A   1      40.644  48.908  16.692  1.00  0.00    -0.290 OA
ENDBRANCH  12  13
ENDBRANCH   7  12
BRANCH   9  33
ATOM     33  O   UNL A   1      43.411  43.851  24.748  1.00  0.00    -0.385 OA
ATOM     34  H   UNL A   1      43.786  44.393  24.036  1.00  0.00     0.211 HD
ENDBRANCH   9  33
BRANCH  10  35
ATOM     35  O   UNL A   1      42.393  41.583  26.304  1.00  0.00    -0.387 OA
ATOM     36  H   UNL A   1      42.148  40.650  26.200  1.00  0.00     0.211 HD
ENDBRANCH  10  35
BRANCH  11  37
ATOM     37  O   UNL A   1      44.282  39.645  27.042  1.00  0.00    -0.387 OA
ATOM     38  H   UNL A   1      45.101  39.629  27.560  1.00  0.00     0.211 HD
ENDBRANCH  11  37
ENDBRANCH   4   6
ENDBRANCH   3   4
ENDBRANCH   2   3
ENDBRANCH   1   2
BRANCH   1  39
ATOM     39  O   UNL A   1      47.139  37.110  28.277  1.00  0.00    -0.458 OA
BRANCH  39  40
ATOM     40  C   UNL A   1      46.703  36.705  29.491  1.00  0.00     0.338 C 
ATOM     41  O   UNL A   1      46.637  37.344  30.523  1.00  0.00    -0.246 OA
BRANCH  40  42
ATOM     42  C   UNL A   1      46.036  35.432  29.236  1.00  0.00     0.060 A 
ATOM     43  C   UNL A   1      46.212  34.408  30.170  1.00  0.00     0.016 A 
ATOM     44  C   UNL A   1      45.153  35.311  28.161  1.00  0.00     0.016 A 
ATOM     45  C   UNL A   1      45.477  33.246  30.046  1.00  0.00     0.010 A 
ATOM     46  C   UNL A   1      44.429  34.141  28.025  1.00  0.00     0.010 A 
ATOM     47  C   UNL A   1      44.610  33.106  28.957  1.00  0.00    -0.014 A 
BRANCH  47  48
ATOM     48  C   UNL A   1      44.067  31.778  28.653  1.00  0.00     0.031 A 
ATOM     49  C   UNL A   1      42.720  31.458  29.224  1.00  0.00     0.074 A 
ATOM     50  C   UNL A   1      44.767  30.933  27.882  1.00  0.00     0.049 A 
ATOM     51  N   UNL A   1      42.059  30.337  29.205  1.00  0.00    -0.248 NA
ATOM     52  C   UNL A   1      42.032  32.553  29.933  1.00  0.00     0.031 C 
ATOM     53  C   UNL A   1      46.062  31.230  27.264  1.00  0.00     0.029 A 
ATOM     54  N   UNL A   1      44.493  29.654  27.491  1.00  0.00    -0.354 N 
ATOM     55  C   UNL A   1      40.892  30.582  29.920  1.00  0.00     0.074 A 
ATOM     56  C   UNL A   1      40.950  31.946  30.389  1.00  0.00     0.031 C 
ATOM     57  C   UNL A   1      46.470  30.154  26.570  1.00  0.00     0.029 A 
ATOM     58  C   UNL A   1      45.493  29.084  26.741  1.00  0.00     0.049 A 
ATOM     59  H   UNL A   1      43.658  29.186  27.724  1.00  0.00     0.167 HD
ATOM     60  C   UNL A   1      39.870  29.728  30.154  1.00  0.00     0.034 A 
ATOM     61  C   UNL A   1      45.600  27.822  26.283  1.00  0.00     0.034 A 
ATOM     62  C   UNL A   1      39.875  28.376  29.660  1.00  0.00     0.049 A 
ATOM     63  C   UNL A   1      44.460  26.880  26.591  1.00  0.00     0.074 A 
ATOM     64  C   UNL A   1      38.922  27.391  29.821  1.00  0.00     0.029 A 
ATOM     65  N   UNL A   1      40.902  27.823  28.899  1.00  0.00    -0.354 N 
ATOM     66  N   UNL A   1      43.364  27.107  27.283  1.00  0.00    -0.248 NA
ATOM     67  C   UNL A   1      44.560  25.523  26.048  1.00  0.00     0.031 C 
ATOM     68  C   UNL A   1      39.402  26.225  29.217  1.00  0.00     0.029 A 
ATOM     69  C   UNL A   1      40.613  26.505  28.598  1.00  0.00     0.049 A 
ATOM     70  H   UNL A   1      41.715  28.301  28.617  1.00  0.00     0.167 HD
ATOM     71  C   UNL A   1      42.623  25.932  27.222  1.00  0.00     0.074 A 
ATOM     72  C   UNL A   1      43.395  25.008  26.411  1.00  0.00     0.031 C 
ATOM     73  C   UNL A   1      41.419  25.631  27.777  1.00  0.00     0.034 A 
BRANCH  60  74
ATOM     74  C   UNL A   1      38.735  30.216  31.019  1.00  0.00     0.023 A 
ATOM     75  C   UNL A   1      37.617  30.881  30.482  1.00  0.00     0.031 A 
ATOM     76  C   UNL A   1      38.796  30.057  32.414  1.00  0.00     0.131 A 
ATOM     77  C   UNL A   1      36.641  31.414  31.338  1.00  0.00     0.055 A 
ATOM     78  C   UNL A   1      37.782  30.520  33.255  1.00  0.00     0.041 A 
ATOM     79  F   UNL A   1      39.856  29.467  32.989  1.00  0.00    -0.206 F 
ATOM     80  C   UNL A   1      36.700  31.214  32.719  1.00  0.00     0.022 A 
BRANCH  77  81
ATOM     81  S   UNL A   1      35.356  32.486  30.635  1.00  0.00     0.124 S 
ATOM     82  O   UNL A   1      35.006  31.762  29.415  1.00  0.00    -0.237 OA
ATOM     83  O   UNL A   1      34.342  32.496  31.683  1.00  0.00    -0.237 OA
ATOM     84  O   UNL A   1      36.046  33.756  30.423  1.00  0.00    -0.744 OA
ENDBRANCH  77  81
ENDBRANCH  60  74
BRANCH  61  85
ATOM     85  C   UNL A   1      46.808  27.377  25.528  1.00  0.00     0.023 A 
ATOM     86  C   UNL A   1      47.043  27.809  24.214  1.00  0.00     0.031 A 
ATOM     87  C   UNL A   1      47.725  26.471  26.092  1.00  0.00     0.131 A 
ATOM     88  C   UNL A   1      48.127  27.290  23.487  1.00  0.00     0.055 A 
ATOM     89  C   UNL A   1      48.838  26.007  25.387  1.00  0.00     0.041 A 
ATOM     90  F   UNL A   1      47.555  26.022  27.346  1.00  0.00    -0.206 F 
ATOM     91  C   UNL A   1      49.034  26.404  24.068  1.00  0.00     0.022 A 
BRANCH  88  92
ATOM     92  S   UNL A   1      48.263  27.702  21.724  1.00  0.00     0.124 S 
ATOM     93  O   UNL A   1      48.458  26.385  21.127  1.00  0.00    -0.237 OA
ATOM     94  O   UNL A   1      46.978  28.341  21.465  1.00  0.00    -0.237 OA
ATOM     95  O   UNL A   1      49.423  28.590  21.672  1.00  0.00    -0.744 OA
ENDBRANCH  88  92
ENDBRANCH  61  85
BRANCH  73  96
ATOM     96  C   UNL A   1      40.851  24.274  27.454  1.00  0.00     0.023 A 
ATOM     97  C   UNL A   1      39.757  24.118  26.589  1.00  0.00     0.031 A 
ATOM     98  C   UNL A   1      41.414  23.124  28.035  1.00  0.00     0.131 A 
ATOM     99  C   UNL A   1      39.208  22.845  26.391  1.00  0.00     0.055 A 
ATOM    100  C   UNL A   1      40.913  21.851  27.770  1.00  0.00     0.041 A 
ATOM    101  F   UNL A   1      42.463  23.222  28.868  1.00  0.00    -0.206 F 
ATOM    102  C   UNL A   1      39.792  21.708  26.957  1.00  0.00     0.022 A 
BRANCH  99 103
ATOM    103  S   UNL A   1      37.644  22.711  25.486  1.00  0.00     0.124 S 
ATOM    104  O   UNL A   1      37.870  21.523  24.669  1.00  0.00    -0.237 OA
ATOM    105  O   UNL A   1      36.672  22.567  26.564  1.00  0.00    -0.237 OA
ATOM    106  O   UNL A   1      37.569  23.970  24.746  1.00  0.00    -0.744 OA
ENDBRANCH  99 103
ENDBRANCH  73  96
ENDBRANCH  47  48
ENDBRANCH  40  42
ENDBRANCH  39  40
ENDBRANCH   1  39
TORSDOF 19
ENDMDL
