MODEL 1
REMARK VINA RESULT:     -10.5      0.000      0.000
REMARK SMILES C[C@@H](CO)CS[C@@H](C)C[C@@](C)([NH3+])C(=O)OCCOC(=O)c1ccc(-c2c3nc(c(-c4cc(S(=O)(=O)[O-])ccc4F)c4ccc([nH]4)c(-c4cc(S(=O)(=O)[O-])ccc4F)c4nc(c(-c5cc(S(=O)(=O)[O-])ccc5F)c5ccc2[nH]5)C=C4)C=C3)cc1
REMARK SMILES IDX 13 1 14 2 10 3 11 4 9 5 7 6 8 7 6 8 5 9 2 10 1 11 3 12 4 13
REMARK SMILES IDX 12 15 15 19 16 20 17 21 18 22 19 23 20 24 21 25 22 26 83 27
REMARK SMILES IDX 23 28 82 29 24 30 25 31 26 32 76 33 27 34 81 35 75 36 77 37
REMARK SMILES IDX 28 38 80 39 74 40 73 41 29 43 61 44 41 45 60 46 42 47 45 48
REMARK SMILES IDX 59 49 78 50 43 51 44 52 58 54 79 55 46 56 30 57 31 58 39 59
REMARK SMILES IDX 32 60 38 61 40 62 37 63 33 64 34 65 35 66 36 67 62 68 63 69
REMARK SMILES IDX 71 70 64 71 70 72 72 73 69 74 65 75 66 76 67 77 68 78 47 79
REMARK SMILES IDX 48 80 56 81 49 82 55 83 57 84 54 85 50 86 51 87 52 88 53 89
REMARK H PARENT 4 14 12 16 12 17 12 18 77 42 45 53
REMARK Flexibility Score: inf
ROOT
ATOM      1  C   UNL A   1      34.649  22.205  26.095  1.00  0.00     0.367 C 
ATOM      2  O   UNL A   1      35.015  23.353  25.984  1.00  0.00    -0.245 OA
ENDROOT
BRANCH   1   3
ATOM      3  C   UNL A   1      33.256  21.758  26.534  1.00  0.00     0.191 C 
ATOM      4  C   UNL A   1      33.050  22.260  27.976  1.00  0.00     0.092 C 
BRANCH   3   5
ATOM      5  C   UNL A   1      32.162  22.286  25.570  1.00  0.00     0.094 C 
BRANCH   5   6
ATOM      6  C   UNL A   1      32.111  22.098  23.981  1.00  0.00     0.050 C 
ATOM      7  C   UNL A   1      31.358  23.328  23.423  1.00  0.00     0.019 C 
BRANCH   6   8
ATOM      8  S   UNL A   1      32.159  20.556  22.660  1.00  0.00    -0.158 SA
BRANCH   8   9
ATOM      9  C   UNL A   1      32.388  18.526  23.063  1.00  0.00     0.075 C 
BRANCH   9  10
ATOM     10  C   UNL A   1      33.261  17.246  23.765  1.00  0.00     0.021 C 
ATOM     11  C   UNL A   1      34.768  17.129  24.146  1.00  0.00     0.011 C 
BRANCH  10  12
ATOM     12  C   UNL A   1      32.545  16.799  25.073  1.00  0.00     0.160 C 
BRANCH  12  13
ATOM     13  O   UNL A   1      33.207  17.302  26.226  1.00  0.00    -0.396 OA
ATOM     14  H   UNL A   1      32.803  16.923  27.022  1.00  0.00     0.210 HD
ENDBRANCH  12  13
ENDBRANCH  10  12
ENDBRANCH   9  10
ENDBRANCH   8   9
ENDBRANCH   6   8
ENDBRANCH   5   6
ENDBRANCH   3   5
BRANCH   3  15
ATOM     15  N   UNL A   1      33.160  20.277  26.711  1.00  0.00    -0.344 N 
ATOM     16  H   UNL A   1      32.805  20.068  27.645  1.00  0.00     0.345 HD
ATOM     17  H   UNL A   1      34.085  19.860  26.598  1.00  0.00     0.345 HD
ATOM     18  H   UNL A   1      32.525  19.892  26.011  1.00  0.00     0.345 HD
ENDBRANCH   3  15
ENDBRANCH   1   3
BRANCH   1  19
ATOM     19  O   UNL A   1      35.422  21.122  25.797  1.00  0.00    -0.457 OA
BRANCH  19  20
ATOM     20  C   UNL A   1      36.065  21.272  24.546  1.00  0.00     0.274 C 
BRANCH  20  21
ATOM     21  C   UNL A   1      37.590  21.242  24.760  1.00  0.00     0.275 C 
BRANCH  21  22
ATOM     22  O   UNL A   1      38.093  21.948  25.954  1.00  0.00    -0.458 OA
BRANCH  22  23
ATOM     23  C   UNL A   1      39.359  21.868  26.451  1.00  0.00     0.338 C 
ATOM     24  O   UNL A   1      39.994  20.823  26.455  1.00  0.00    -0.246 OA
BRANCH  23  25
ATOM     25  C   UNL A   1      39.947  23.185  26.989  1.00  0.00     0.060 A 
ATOM     26  C   UNL A   1      39.529  24.396  26.440  1.00  0.00     0.016 A 
ATOM     27  C   UNL A   1      40.952  23.285  27.958  1.00  0.00     0.016 A 
ATOM     28  C   UNL A   1      40.092  25.616  26.865  1.00  0.00     0.010 A 
ATOM     29  C   UNL A   1      41.561  24.460  28.360  1.00  0.00     0.010 A 
ATOM     30  C   UNL A   1      41.120  25.641  27.817  1.00  0.00    -0.014 A 
BRANCH  30  31
ATOM     31  C   UNL A   1      41.775  26.870  28.274  1.00  0.00     0.031 A 
ATOM     32  C   UNL A   1      43.187  27.116  27.873  1.00  0.00     0.074 A 
ATOM     33  C   UNL A   1      41.113  27.668  29.128  1.00  0.00     0.049 A 
ATOM     34  N   UNL A   1      43.860  28.228  27.894  1.00  0.00    -0.248 NA
ATOM     35  C   UNL A   1      43.954  25.947  27.406  1.00  0.00     0.031 C 
ATOM     36  C   UNL A   1      39.833  27.334  29.750  1.00  0.00     0.029 A 
ATOM     37  N   UNL A   1      41.396  28.907  29.620  1.00  0.00    -0.354 N 
ATOM     38  C   UNL A   1      45.108  27.916  27.370  1.00  0.00     0.074 A 
ATOM     39  C   UNL A   1      45.130  26.491  27.129  1.00  0.00     0.031 C 
ATOM     40  C   UNL A   1      39.387  28.376  30.462  1.00  0.00     0.029 A 
ATOM     41  C   UNL A   1      40.357  29.450  30.347  1.00  0.00     0.049 A 
ATOM     42  H   UNL A   1      42.253  29.368  29.471  1.00  0.00     0.167 HD
ATOM     43  C   UNL A   1      46.115  28.779  27.103  1.00  0.00     0.034 A 
ATOM     44  C   UNL A   1      40.200  30.702  30.811  1.00  0.00     0.034 A 
ATOM     45  C   UNL A   1      46.030  30.168  27.491  1.00  0.00     0.049 A 
ATOM     46  C   UNL A   1      41.296  31.666  30.451  1.00  0.00     0.074 A 
ATOM     47  C   UNL A   1      46.936  31.191  27.301  1.00  0.00     0.029 A 
ATOM     48  N   UNL A   1      44.956  30.714  28.201  1.00  0.00    -0.354 N 
ATOM     49  N   UNL A   1      42.410  31.429  29.788  1.00  0.00    -0.248 NA
ATOM     50  C   UNL A   1      41.112  33.056  30.861  1.00  0.00     0.031 C 
ATOM     51  C   UNL A   1      46.442  32.330  27.952  1.00  0.00     0.029 A 
ATOM     52  C   UNL A   1      45.189  32.047  28.481  1.00  0.00     0.049 A 
ATOM     53  H   UNL A   1      44.148  30.217  28.464  1.00  0.00     0.167 HD
ATOM     54  C   UNL A   1      43.065  32.647  29.696  1.00  0.00     0.074 A 
ATOM     55  C   UNL A   1      42.187  33.620  30.332  1.00  0.00     0.031 C 
ATOM     56  C   UNL A   1      44.279  32.947  29.159  1.00  0.00     0.034 A 
BRANCH  43  57
ATOM     57  C   UNL A   1      47.340  28.225  26.414  1.00  0.00     0.023 A 
ATOM     58  C   UNL A   1      47.494  28.312  25.014  1.00  0.00     0.031 A 
ATOM     59  C   UNL A   1      48.338  27.549  27.134  1.00  0.00     0.131 A 
ATOM     60  C   UNL A   1      48.567  27.667  24.376  1.00  0.00     0.055 A 
ATOM     61  C   UNL A   1      49.446  26.975  26.501  1.00  0.00     0.041 A 
ATOM     62  F   UNL A   1      48.241  27.402  28.464  1.00  0.00    -0.206 F 
ATOM     63  C   UNL A   1      49.558  27.018  25.114  1.00  0.00     0.022 A 
BRANCH  60  64
ATOM     64  S   UNL A   1      48.568  27.561  22.563  1.00  0.00     0.124 S 
ATOM     65  O   UNL A   1      47.320  28.242  22.227  1.00  0.00    -0.237 OA
ATOM     66  O   UNL A   1      49.795  28.264  22.206  1.00  0.00    -0.237 OA
ATOM     67  O   UNL A   1      48.574  26.123  22.303  1.00  0.00    -0.744 OA
ENDBRANCH  60  64
ENDBRANCH  43  57
BRANCH  44  68
ATOM     68  C   UNL A   1      38.965  31.094  31.553  1.00  0.00     0.023 A 
ATOM     69  C   UNL A   1      37.812  31.536  30.884  1.00  0.00     0.031 A 
ATOM     70  C   UNL A   1      38.906  31.000  32.957  1.00  0.00     0.131 A 
ATOM     71  C   UNL A   1      36.668  31.902  31.616  1.00  0.00     0.055 A 
ATOM     72  C   UNL A   1      37.750  31.312  33.677  1.00  0.00     0.041 A 
ATOM     73  F   UNL A   1      39.969  30.567  33.654  1.00  0.00    -0.206 F 
ATOM     74  C   UNL A   1      36.625  31.779  33.007  1.00  0.00     0.022 A 
BRANCH  71  75
ATOM     75  S   UNL A   1      35.254  32.619  30.732  1.00  0.00     0.124 S 
ATOM     76  O   UNL A   1      35.681  34.003  30.557  1.00  0.00    -0.237 OA
ATOM     77  O   UNL A   1      35.207  31.804  29.522  1.00  0.00    -0.237 OA
ATOM     78  O   UNL A   1      34.139  32.424  31.656  1.00  0.00    -0.744 OA
ENDBRANCH  71  75
ENDBRANCH  44  68
BRANCH  56  79
ATOM     79  C   UNL A   1      44.690  34.388  29.270  1.00  0.00     0.023 A 
ATOM     80  C   UNL A   1      45.395  34.852  30.392  1.00  0.00     0.031 A 
ATOM     81  C   UNL A   1      44.332  35.308  28.272  1.00  0.00     0.131 A 
ATOM     82  C   UNL A   1      45.639  36.221  30.534  1.00  0.00     0.055 A 
ATOM     83  C   UNL A   1      44.657  36.658  28.380  1.00  0.00     0.041 A 
ATOM     84  F   UNL A   1      43.653  34.909  27.185  1.00  0.00    -0.206 F 
ATOM     85  C   UNL A   1      45.295  37.125  29.526  1.00  0.00     0.022 A 
BRANCH  82  86
ATOM     86  S   UNL A   1      46.272  36.815  32.124  1.00  0.00     0.124 S 
ATOM     87  O   UNL A   1      45.395  37.952  32.390  1.00  0.00    -0.237 OA
ATOM     88  O   UNL A   1      46.089  35.654  32.987  1.00  0.00    -0.237 OA
ATOM     89  O   UNL A   1      47.662  37.159  31.831  1.00  0.00    -0.744 OA
ENDBRANCH  82  86
ENDBRANCH  56  79
ENDBRANCH  30  31
ENDBRANCH  23  25
ENDBRANCH  22  23
ENDBRANCH  21  22
ENDBRANCH  20  21
ENDBRANCH  19  20
ENDBRANCH   1  19
TORSDOF 22
ENDMDL
MODEL 2
REMARK VINA RESULT:     -10.4      2.924      4.159
REMARK SMILES C[C@@H](CO)CS[C@@H](C)C[C@@](C)([NH3+])C(=O)OCCOC(=O)c1ccc(-c2c3nc(c(-c4cc(S(=O)(=O)[O-])ccc4F)c4ccc([nH]4)c(-c4cc(S(=O)(=O)[O-])ccc4F)c4nc(c(-c5cc(S(=O)(=O)[O-])ccc5F)c5ccc2[nH]5)C=C4)C=C3)cc1
REMARK SMILES IDX 13 1 14 2 10 3 11 4 9 5 7 6 8 7 6 8 5 9 2 10 1 11 3 12 4 13
REMARK SMILES IDX 12 15 15 19 16 20 17 21 18 22 19 23 20 24 21 25 22 26 83 27
REMARK SMILES IDX 23 28 82 29 24 30 25 31 26 32 76 33 27 34 81 35 75 36 77 37
REMARK SMILES IDX 28 38 80 39 74 40 73 41 29 43 61 44 41 45 60 46 42 47 45 48
REMARK SMILES IDX 59 49 78 50 43 51 44 52 58 54 79 55 46 56 30 57 31 58 39 59
REMARK SMILES IDX 32 60 38 61 40 62 37 63 33 64 34 65 35 66 36 67 62 68 63 69
REMARK SMILES IDX 71 70 64 71 70 72 72 73 69 74 65 75 66 76 67 77 68 78 47 79
REMARK SMILES IDX 48 80 56 81 49 82 55 83 57 84 54 85 50 86 51 87 52 88 53 89
REMARK H PARENT 4 14 12 16 12 17 12 18 77 42 45 53
REMARK Flexibility Score: inf
ROOT
ATOM      1  C   UNL A   1      32.936  23.511  25.861  1.00  0.00     0.367 C 
ATOM      2  O   UNL A   1      33.222  24.494  26.505  1.00  0.00    -0.245 OA
ENDROOT
BRANCH   1   3
ATOM      3  C   UNL A   1      31.518  23.083  25.482  1.00  0.00     0.191 C 
ATOM      4  C   UNL A   1      30.586  23.540  26.619  1.00  0.00     0.092 C 
BRANCH   3   5
ATOM      5  C   UNL A   1      31.099  23.671  24.109  1.00  0.00     0.094 C 
BRANCH   5   6
ATOM      6  C   UNL A   1      31.462  25.119  23.533  1.00  0.00     0.050 C 
ATOM      7  C   UNL A   1      32.307  24.879  22.260  1.00  0.00     0.019 C 
BRANCH   6   8
ATOM      8  S   UNL A   1      31.681  27.002  24.262  1.00  0.00    -0.158 SA
BRANCH   8   9
ATOM      9  C   UNL A   1      30.479  28.665  23.905  1.00  0.00     0.075 C 
BRANCH   9  10
ATOM     10  C   UNL A   1      29.157  29.395  23.122  1.00  0.00     0.021 C 
ATOM     11  C   UNL A   1      29.051  30.079  21.725  1.00  0.00     0.011 C 
BRANCH  10  12
ATOM     12  C   UNL A   1      27.963  28.397  23.102  1.00  0.00     0.160 C 
BRANCH  12  13
ATOM     13  O   UNL A   1      26.753  29.041  22.728  1.00  0.00    -0.396 OA
ATOM     14  H   UNL A   1      26.043  28.770  23.331  1.00  0.00     0.210 HD
ENDBRANCH  12  13
ENDBRANCH  10  12
ENDBRANCH   9  10
ENDBRANCH   8   9
ENDBRANCH   6   8
ENDBRANCH   5   6
ENDBRANCH   3   5
BRANCH   3  15
ATOM     15  N   UNL A   1      31.340  21.599  25.518  1.00  0.00    -0.344 N 
ATOM     16  H   UNL A   1      31.383  21.228  24.569  1.00  0.00     0.345 HD
ATOM     17  H   UNL A   1      30.434  21.376  25.931  1.00  0.00     0.345 HD
ATOM     18  H   UNL A   1      32.083  21.182  26.081  1.00  0.00     0.345 HD
ENDBRANCH   3  15
ENDBRANCH   1   3
BRANCH   1  19
ATOM     19  O   UNL A   1      33.848  22.649  25.330  1.00  0.00    -0.457 OA
BRANCH  19  20
ATOM     20  C   UNL A   1      34.684  22.096  26.329  1.00  0.00     0.274 C 
BRANCH  20  21
ATOM     21  C   UNL A   1      35.767  21.233  25.656  1.00  0.00     0.275 C 
BRANCH  21  22
ATOM     22  O   UNL A   1      37.021  21.923  25.301  1.00  0.00    -0.458 OA
BRANCH  22  23
ATOM     23  C   UNL A   1      38.265  21.595  25.751  1.00  0.00     0.338 C 
ATOM     24  O   UNL A   1      38.677  20.444  25.751  1.00  0.00    -0.246 OA
BRANCH  23  25
ATOM     25  C   UNL A   1      39.127  22.772  26.240  1.00  0.00     0.060 A 
ATOM     26  C   UNL A   1      40.161  22.534  27.144  1.00  0.00     0.016 A 
ATOM     27  C   UNL A   1      38.918  24.118  25.915  1.00  0.00     0.016 A 
ATOM     28  C   UNL A   1      40.930  23.596  27.661  1.00  0.00     0.010 A 
ATOM     29  C   UNL A   1      39.618  25.187  26.444  1.00  0.00     0.010 A 
ATOM     30  C   UNL A   1      40.643  24.925  27.318  1.00  0.00    -0.014 A 
BRANCH  30  31
ATOM     31  C   UNL A   1      41.376  26.077  27.850  1.00  0.00     0.031 A 
ATOM     32  C   UNL A   1      42.815  26.229  27.501  1.00  0.00     0.074 A 
ATOM     33  C   UNL A   1      40.750  26.887  28.720  1.00  0.00     0.049 A 
ATOM     34  N   UNL A   1      43.571  27.283  27.592  1.00  0.00    -0.248 NA
ATOM     35  C   UNL A   1      43.503  25.025  27.003  1.00  0.00     0.031 C 
ATOM     36  C   UNL A   1      39.430  26.628  29.290  1.00  0.00     0.029 A 
ATOM     37  N   UNL A   1      41.112  28.078  29.276  1.00  0.00    -0.354 N 
ATOM     38  C   UNL A   1      44.807  26.897  27.090  1.00  0.00     0.074 A 
ATOM     39  C   UNL A   1      44.727  25.486  26.785  1.00  0.00     0.031 C 
ATOM     40  C   UNL A   1      39.043  27.670  30.035  1.00  0.00     0.029 A 
ATOM     41  C   UNL A   1      40.096  28.669  29.998  1.00  0.00     0.049 A 
ATOM     42  H   UNL A   1      42.007  28.476  29.174  1.00  0.00     0.167 HD
ATOM     43  C   UNL A   1      45.886  27.689  26.892  1.00  0.00     0.034 A 
ATOM     44  C   UNL A   1      40.021  29.908  30.514  1.00  0.00     0.034 A 
ATOM     45  C   UNL A   1      45.896  29.062  27.340  1.00  0.00     0.049 A 
ATOM     46  C   UNL A   1      41.200  30.798  30.231  1.00  0.00     0.074 A 
ATOM     47  C   UNL A   1      46.884  30.018  27.223  1.00  0.00     0.029 A 
ATOM     48  N   UNL A   1      44.846  29.659  28.044  1.00  0.00    -0.354 N 
ATOM     49  N   UNL A   1      42.313  30.503  29.589  1.00  0.00    -0.248 NA
ATOM     50  C   UNL A   1      41.111  32.178  30.698  1.00  0.00     0.031 C 
ATOM     51  C   UNL A   1      46.460  31.162  27.912  1.00  0.00     0.029 A 
ATOM     52  C   UNL A   1      45.171  30.956  28.392  1.00  0.00     0.049 A 
ATOM     53  H   UNL A   1      43.994  29.216  28.261  1.00  0.00     0.167 HD
ATOM     54  C   UNL A   1      43.063  31.668  29.572  1.00  0.00     0.074 A 
ATOM     55  C   UNL A   1      42.243  32.678  30.227  1.00  0.00     0.031 C 
ATOM     56  C   UNL A   1      44.313  31.894  29.084  1.00  0.00     0.034 A 
BRANCH  43  57
ATOM     57  C   UNL A   1      47.086  27.071  26.213  1.00  0.00     0.023 A 
ATOM     58  C   UNL A   1      48.069  26.381  26.953  1.00  0.00     0.031 A 
ATOM     59  C   UNL A   1      47.297  27.214  24.833  1.00  0.00     0.131 A 
ATOM     60  C   UNL A   1      49.247  25.938  26.329  1.00  0.00     0.055 A 
ATOM     61  C   UNL A   1      48.436  26.702  24.202  1.00  0.00     0.041 A 
ATOM     62  F   UNL A   1      46.418  27.885  24.072  1.00  0.00    -0.206 F 
ATOM     63  C   UNL A   1      49.426  26.073  24.951  1.00  0.00     0.022 A 
BRANCH  60  64
ATOM     64  S   UNL A   1      50.604  25.317  27.364  1.00  0.00     0.124 S 
ATOM     65  O   UNL A   1      50.922  26.493  28.170  1.00  0.00    -0.237 OA
ATOM     66  O   UNL A   1      49.978  24.207  28.075  1.00  0.00    -0.237 OA
ATOM     67  O   UNL A   1      51.630  24.938  26.395  1.00  0.00    -0.744 OA
ENDBRANCH  60  64
ENDBRANCH  43  57
BRANCH  44  68
ATOM     68  C   UNL A   1      38.797  30.363  31.238  1.00  0.00     0.023 A 
ATOM     69  C   UNL A   1      37.760  31.042  30.578  1.00  0.00     0.031 A 
ATOM     70  C   UNL A   1      38.629  30.095  32.610  1.00  0.00     0.131 A 
ATOM     71  C   UNL A   1      36.623  31.460  31.292  1.00  0.00     0.055 A 
ATOM     72  C   UNL A   1      37.474  30.464  33.305  1.00  0.00     0.041 A 
ATOM     73  F   UNL A   1      39.576  29.434  33.294  1.00  0.00    -0.206 F 
ATOM     74  C   UNL A   1      36.467  31.163  32.649  1.00  0.00     0.022 A 
BRANCH  71  75
ATOM     75  S   UNL A   1      35.378  32.472  30.444  1.00  0.00     0.124 S 
ATOM     76  O   UNL A   1      34.370  32.642  31.485  1.00  0.00    -0.237 OA
ATOM     77  O   UNL A   1      36.144  33.663  30.092  1.00  0.00    -0.237 OA
ATOM     78  O   UNL A   1      34.972  31.637  29.315  1.00  0.00    -0.744 OA
ENDBRANCH  71  75
ENDBRANCH  44  68
BRANCH  56  79
ATOM     79  C   UNL A   1      44.830  33.293  29.272  1.00  0.00     0.023 A 
ATOM     80  C   UNL A   1      44.665  34.263  28.271  1.00  0.00     0.031 A 
ATOM     81  C   UNL A   1      45.532  33.640  30.437  1.00  0.00     0.131 A 
ATOM     82  C   UNL A   1      45.278  35.512  28.413  1.00  0.00     0.055 A 
ATOM     83  C   UNL A   1      46.065  34.915  30.610  1.00  0.00     0.041 A 
ATOM     84  F   UNL A   1      45.717  32.743  31.418  1.00  0.00    -0.206 F 
ATOM     85  C   UNL A   1      45.958  35.853  29.585  1.00  0.00     0.022 A 
BRANCH  82  86
ATOM     86  S   UNL A   1      45.303  36.620  26.981  1.00  0.00     0.124 S 
ATOM     87  O   UNL A   1      45.764  35.728  25.920  1.00  0.00    -0.237 OA
ATOM     88  O   UNL A   1      43.911  37.048  26.893  1.00  0.00    -0.237 OA
ATOM     89  O   UNL A   1      46.250  37.661  27.371  1.00  0.00    -0.744 OA
ENDBRANCH  82  86
ENDBRANCH  56  79
ENDBRANCH  30  31
ENDBRANCH  23  25
ENDBRANCH  22  23
ENDBRANCH  21  22
ENDBRANCH  20  21
ENDBRANCH  19  20
ENDBRANCH   1  19
TORSDOF 22
ENDMDL
MODEL 3
REMARK VINA RESULT:     -10.3      2.845      4.159
REMARK SMILES C[C@@H](CO)CS[C@@H](C)C[C@@](C)([NH3+])C(=O)OCCOC(=O)c1ccc(-c2c3nc(c(-c4cc(S(=O)(=O)[O-])ccc4F)c4ccc([nH]4)c(-c4cc(S(=O)(=O)[O-])ccc4F)c4nc(c(-c5cc(S(=O)(=O)[O-])ccc5F)c5ccc2[nH]5)C=C4)C=C3)cc1
REMARK SMILES IDX 13 1 14 2 10 3 11 4 9 5 7 6 8 7 6 8 5 9 2 10 1 11 3 12 4 13
REMARK SMILES IDX 12 15 15 19 16 20 17 21 18 22 19 23 20 24 21 25 22 26 83 27
REMARK SMILES IDX 23 28 82 29 24 30 25 31 26 32 76 33 27 34 81 35 75 36 77 37
REMARK SMILES IDX 28 38 80 39 74 40 73 41 29 43 61 44 41 45 60 46 42 47 45 48
REMARK SMILES IDX 59 49 78 50 43 51 44 52 58 54 79 55 46 56 30 57 31 58 39 59
REMARK SMILES IDX 32 60 38 61 40 62 37 63 33 64 34 65 35 66 36 67 62 68 63 69
REMARK SMILES IDX 71 70 64 71 70 72 72 73 69 74 65 75 66 76 67 77 68 78 47 79
REMARK SMILES IDX 48 80 56 81 49 82 55 83 57 84 54 85 50 86 51 87 52 88 53 89
REMARK H PARENT 4 14 12 16 12 17 12 18 77 42 45 53
REMARK Flexibility Score: inf
ROOT
ATOM      1  C   UNL A   1      34.260  23.463  23.577  1.00  0.00     0.367 C 
ATOM      2  O   UNL A   1      34.267  23.345  22.373  1.00  0.00    -0.245 OA
ENDROOT
BRANCH   1   3
ATOM      3  C   UNL A   1      33.359  24.411  24.368  1.00  0.00     0.191 C 
ATOM      4  C   UNL A   1      33.799  24.333  25.842  1.00  0.00     0.092 C 
BRANCH   3   5
ATOM      5  C   UNL A   1      33.431  25.856  23.812  1.00  0.00     0.094 C 
BRANCH   5   6
ATOM      6  C   UNL A   1      32.264  26.658  23.067  1.00  0.00     0.050 C 
ATOM      7  C   UNL A   1      32.062  25.961  21.701  1.00  0.00     0.019 C 
BRANCH   6   8
ATOM      8  S   UNL A   1      31.489  28.535  23.097  1.00  0.00    -0.158 SA
BRANCH   8   9
ATOM      9  C   UNL A   1      29.721  29.210  22.228  1.00  0.00     0.075 C 
BRANCH   9  10
ATOM     10  C   UNL A   1      28.076  29.623  22.351  1.00  0.00     0.021 C 
ATOM     11  C   UNL A   1      26.910  28.944  23.133  1.00  0.00     0.011 C 
BRANCH  10  12
ATOM     12  C   UNL A   1      27.956  31.111  22.790  1.00  0.00     0.160 C 
BRANCH  12  13
ATOM     13  O   UNL A   1      27.048  31.262  23.873  1.00  0.00    -0.396 OA
ATOM     14  H   UNL A   1      26.985  32.200  24.113  1.00  0.00     0.210 HD
ENDBRANCH  12  13
ENDBRANCH  10  12
ENDBRANCH   9  10
ENDBRANCH   8   9
ENDBRANCH   6   8
ENDBRANCH   5   6
ENDBRANCH   3   5
BRANCH   3  15
ATOM     15  N   UNL A   1      31.947  23.924  24.445  1.00  0.00    -0.344 N 
ATOM     16  H   UNL A   1      31.672  23.535  23.543  1.00  0.00     0.345 HD
ATOM     17  H   UNL A   1      31.332  24.703  24.682  1.00  0.00     0.345 HD
ATOM     18  H   UNL A   1      31.876  23.203  25.164  1.00  0.00     0.345 HD
ENDBRANCH   3  15
ENDBRANCH   1   3
BRANCH   1  19
ATOM     19  O   UNL A   1      35.033  22.727  24.425  1.00  0.00    -0.457 OA
BRANCH  19  20
ATOM     20  C   UNL A   1      36.329  22.517  23.896  1.00  0.00     0.274 C 
BRANCH  20  21
ATOM     21  C   UNL A   1      36.895  21.203  24.464  1.00  0.00     0.275 C 
BRANCH  21  22
ATOM     22  O   UNL A   1      37.529  21.288  25.794  1.00  0.00    -0.458 OA
BRANCH  22  23
ATOM     23  C   UNL A   1      38.867  21.233  26.043  1.00  0.00     0.338 C 
ATOM     24  O   UNL A   1      39.529  20.227  25.836  1.00  0.00    -0.246 OA
BRANCH  23  25
ATOM     25  C   UNL A   1      39.497  22.530  26.583  1.00  0.00     0.060 A 
ATOM     26  C   UNL A   1      39.118  23.754  26.035  1.00  0.00     0.016 A 
ATOM     27  C   UNL A   1      40.505  22.596  27.551  1.00  0.00     0.016 A 
ATOM     28  C   UNL A   1      39.720  24.955  26.462  1.00  0.00     0.010 A 
ATOM     29  C   UNL A   1      41.152  23.750  27.955  1.00  0.00     0.010 A 
ATOM     30  C   UNL A   1      40.749  24.946  27.413  1.00  0.00    -0.014 A 
BRANCH  30  31
ATOM     31  C   UNL A   1      41.443  26.152  27.872  1.00  0.00     0.031 A 
ATOM     32  C   UNL A   1      42.870  26.340  27.492  1.00  0.00     0.074 A 
ATOM     33  C   UNL A   1      40.798  26.982  28.709  1.00  0.00     0.049 A 
ATOM     34  N   UNL A   1      43.585  27.426  27.516  1.00  0.00    -0.248 NA
ATOM     35  C   UNL A   1      43.598  25.139  27.048  1.00  0.00     0.031 C 
ATOM     36  C   UNL A   1      39.497  26.702  29.312  1.00  0.00     0.029 A 
ATOM     37  N   UNL A   1      41.121  28.214  29.196  1.00  0.00    -0.354 N 
ATOM     38  C   UNL A   1      44.828  27.062  27.016  1.00  0.00     0.074 A 
ATOM     39  C   UNL A   1      44.800  25.636  26.786  1.00  0.00     0.031 C 
ATOM     40  C   UNL A   1      39.079  27.767  30.008  1.00  0.00     0.029 A 
ATOM     41  C   UNL A   1      40.092  28.802  29.901  1.00  0.00     0.049 A 
ATOM     42  H   UNL A   1      41.997  28.640  29.058  1.00  0.00     0.167 HD
ATOM     43  C   UNL A   1      45.872  27.884  26.759  1.00  0.00     0.034 A 
ATOM     44  C   UNL A   1      39.975  30.063  30.353  1.00  0.00     0.034 A 
ATOM     45  C   UNL A   1      45.834  29.278  27.135  1.00  0.00     0.049 A 
ATOM     46  C   UNL A   1      41.114  30.981  30.005  1.00  0.00     0.074 A 
ATOM     47  C   UNL A   1      46.782  30.265  26.952  1.00  0.00     0.029 A 
ATOM     48  N   UNL A   1      44.771  29.871  27.823  1.00  0.00    -0.354 N 
ATOM     49  N   UNL A   1      42.228  30.696  29.362  1.00  0.00    -0.248 NA
ATOM     50  C   UNL A   1      40.977  32.381  30.401  1.00  0.00     0.031 C 
ATOM     51  C   UNL A   1      46.322  31.426  27.586  1.00  0.00     0.029 A 
ATOM     52  C   UNL A   1      45.050  31.196  28.097  1.00  0.00     0.049 A 
ATOM     53  H   UNL A   1      43.940  29.407  28.077  1.00  0.00     0.167 HD
ATOM     54  C   UNL A   1      42.932  31.888  29.272  1.00  0.00     0.074 A 
ATOM     55  C   UNL A   1      42.082  32.898  29.886  1.00  0.00     0.031 C 
ATOM     56  C   UNL A   1      44.164  32.136  28.752  1.00  0.00     0.034 A 
BRANCH  43  57
ATOM     57  C   UNL A   1      47.086  27.278  26.095  1.00  0.00     0.023 A 
ATOM     58  C   UNL A   1      48.037  26.547  26.837  1.00  0.00     0.031 A 
ATOM     59  C   UNL A   1      47.343  27.474  24.729  1.00  0.00     0.131 A 
ATOM     60  C   UNL A   1      49.229  26.113  26.233  1.00  0.00     0.055 A 
ATOM     61  C   UNL A   1      48.496  26.972  24.114  1.00  0.00     0.041 A 
ATOM     62  F   UNL A   1      46.498  28.185  23.968  1.00  0.00    -0.206 F 
ATOM     63  C   UNL A   1      49.454  26.301  24.869  1.00  0.00     0.022 A 
BRANCH  60  64
ATOM     64  S   UNL A   1      50.544  25.434  27.286  1.00  0.00     0.124 S 
ATOM     65  O   UNL A   1      49.845  24.347  27.966  1.00  0.00    -0.237 OA
ATOM     66  O   UNL A   1      51.554  25.033  26.312  1.00  0.00    -0.237 OA
ATOM     67  O   UNL A   1      50.915  26.559  28.142  1.00  0.00    -0.744 OA
ENDBRANCH  60  64
ENDBRANCH  43  57
BRANCH  44  68
ATOM     68  C   UNL A   1      38.744  30.508  31.072  1.00  0.00     0.023 A 
ATOM     69  C   UNL A   1      37.716  31.202  30.413  1.00  0.00     0.031 A 
ATOM     70  C   UNL A   1      38.559  30.214  32.437  1.00  0.00     0.131 A 
ATOM     71  C   UNL A   1      36.573  31.610  31.122  1.00  0.00     0.055 A 
ATOM     72  C   UNL A   1      37.398  30.573  33.125  1.00  0.00     0.041 A 
ATOM     73  F   UNL A   1      39.497  29.538  33.119  1.00  0.00    -0.206 F 
ATOM     74  C   UNL A   1      36.401  31.288  32.471  1.00  0.00     0.022 A 
BRANCH  71  75
ATOM     75  S   UNL A   1      35.340  32.642  30.279  1.00  0.00     0.124 S 
ATOM     76  O   UNL A   1      34.856  31.741  29.239  1.00  0.00    -0.237 OA
ATOM     77  O   UNL A   1      34.404  32.938  31.358  1.00  0.00    -0.237 OA
ATOM     78  O   UNL A   1      36.120  33.782  29.802  1.00  0.00    -0.744 OA
ENDBRANCH  71  75
ENDBRANCH  44  68
BRANCH  56  79
ATOM     79  C   UNL A   1      44.629  33.561  28.859  1.00  0.00     0.023 A 
ATOM     80  C   UNL A   1      45.356  34.000  29.977  1.00  0.00     0.031 A 
ATOM     81  C   UNL A   1      44.299  34.492  27.862  1.00  0.00     0.131 A 
ATOM     82  C   UNL A   1      45.652  35.360  30.116  1.00  0.00     0.055 A 
ATOM     83  C   UNL A   1      44.674  35.830  27.966  1.00  0.00     0.041 A 
ATOM     84  F   UNL A   1      43.601  34.117  26.779  1.00  0.00    -0.206 F 
ATOM     85  C   UNL A   1      45.336  36.274  29.108  1.00  0.00     0.022 A 
BRANCH  82  86
ATOM     86  S   UNL A   1      46.314  35.932  31.702  1.00  0.00     0.124 S 
ATOM     87  O   UNL A   1      46.461  37.366  31.466  1.00  0.00    -0.237 OA
ATOM     88  O   UNL A   1      45.264  35.545  32.638  1.00  0.00    -0.237 OA
ATOM     89  O   UNL A   1      47.568  35.194  31.834  1.00  0.00    -0.744 OA
ENDBRANCH  82  86
ENDBRANCH  56  79
ENDBRANCH  30  31
ENDBRANCH  23  25
ENDBRANCH  22  23
ENDBRANCH  21  22
ENDBRANCH  20  21
ENDBRANCH  19  20
ENDBRANCH   1  19
TORSDOF 22
ENDMDL
