MODEL 1
REMARK VINA RESULT:     -12.3      0.000      0.000
REMARK SMILES C[C@H]1CC[C@@](NC(=O)N[C@H]2CCOC2)(C(=O)OCCOC(=O)c2ccc(-c3c4nc(c(-c5cc(S(=O)(=O)[O-])ccc5F)c5ccc([nH]5)c(-c5cc(S(=O)(=O)[O-])ccc5F)c5nc(c(-c6cc(S(=O)(=O)[O-])ccc6F)c6ccc3[nH]6)C=C5)C=C4)cc2)CC1
REMARK SMILES IDX 19 1 18 2 17 3 15 4 16 5 5 6 1 7 2 8 87 9 3 10 86 11 4 12
REMARK SMILES IDX 6 13 7 14 8 16 9 17 10 19 11 20 14 21 12 22 13 23 20 24
REMARK SMILES IDX 21 25 22 26 23 27 24 28 85 29 25 30 84 31 26 32 27 33 28 34
REMARK SMILES IDX 78 35 29 36 83 37 77 38 79 39 30 40 82 41 76 42 75 43 31 45
REMARK SMILES IDX 63 46 43 47 62 48 44 49 47 50 61 51 80 52 45 53 46 54 60 56
REMARK SMILES IDX 81 57 48 58 32 59 33 60 41 61 34 62 40 63 42 64 39 65 35 66
REMARK SMILES IDX 36 67 37 68 38 69 64 70 65 71 73 72 66 73 72 74 74 75 71 76
REMARK SMILES IDX 67 77 68 78 69 79 70 80 49 81 50 82 58 83 51 84 57 85 59 86
REMARK SMILES IDX 56 87 52 88 53 89 54 90 55 91
REMARK H PARENT 6 15 9 18 79 44 47 55
REMARK Flexibility Score: inf
ROOT
ATOM      1  C   UNL A   1      31.775  29.683  27.180  1.00  0.00     0.275 C 
ENDROOT
BRANCH   1   2
ATOM      2  C   UNL A   1      31.987  28.198  27.537  1.00  0.00     0.274 C 
BRANCH   2   3
ATOM      3  O   UNL A   1      31.132  27.154  27.014  1.00  0.00    -0.460 OA
BRANCH   3   4
ATOM      4  C   UNL A   1      31.649  26.093  26.349  1.00  0.00     0.332 C 
ATOM      5  O   UNL A   1      32.781  25.684  26.502  1.00  0.00    -0.249 OA
BRANCH   4   6
ATOM      6  C   UNL A   1      30.615  25.341  25.498  1.00  0.00     0.139 C 
ATOM      7  C   UNL A   1      32.348  28.120  22.788  1.00  0.00     0.007 C 
ATOM      8  C   UNL A   1      31.440  26.901  23.030  1.00  0.00    -0.014 C 
ATOM      9  C   UNL A   1      30.230  27.329  23.884  1.00  0.00     0.006 C 
ATOM     10  C   UNL A   1      32.279  25.740  23.586  1.00  0.00     0.006 C 
ATOM     11  C   UNL A   1      29.601  26.266  24.796  1.00  0.00     0.041 C 
ATOM     12  C   UNL A   1      31.461  24.701  24.359  1.00  0.00     0.041 C 
BRANCH   6  13
ATOM     13  N   UNL A   1      29.917  24.257  26.236  1.00  0.00    -0.322 N 
ATOM     14  C   UNL A   1      30.234  23.243  27.036  1.00  0.00     0.316 C 
ATOM     15  H   UNL A   1      28.944  24.302  26.091  1.00  0.00     0.166 HD
ATOM     16  O   UNL A   1      29.320  22.803  27.744  1.00  0.00    -0.249 OA
ATOM     17  N   UNL A   1      31.405  22.623  27.158  1.00  0.00    -0.333 N 
ATOM     18  H   UNL A   1      31.401  22.037  27.950  1.00  0.00     0.165 HD
BRANCH  17  19
ATOM     19  C   UNL A   1      32.690  22.545  26.480  1.00  0.00     0.112 C 
ATOM     20  C   UNL A   1      33.849  22.251  27.410  1.00  0.00     0.056 C 
ATOM     21  C   UNL A   1      32.808  21.337  25.538  1.00  0.00     0.185 C 
ATOM     22  C   UNL A   1      34.905  21.765  26.435  1.00  0.00     0.162 C 
ATOM     23  O   UNL A   1      34.205  21.022  25.423  1.00  0.00    -0.379 OA
ENDBRANCH  17  19
ENDBRANCH   6  13
ENDBRANCH   4   6
ENDBRANCH   3   4
ENDBRANCH   2   3
ENDBRANCH   1   2
BRANCH   1  24
ATOM     24  O   UNL A   1      32.889  30.274  26.467  1.00  0.00    -0.458 OA
BRANCH  24  25
ATOM     25  C   UNL A   1      33.534  31.236  27.198  1.00  0.00     0.338 C 
ATOM     26  O   UNL A   1      33.012  32.269  27.600  1.00  0.00    -0.246 OA
BRANCH  25  27
ATOM     27  C   UNL A   1      34.951  30.893  27.543  1.00  0.00     0.060 A 
ATOM     28  C   UNL A   1      35.397  29.577  27.655  1.00  0.00     0.016 A 
ATOM     29  C   UNL A   1      35.816  31.913  27.955  1.00  0.00     0.016 A 
ATOM     30  C   UNL A   1      36.615  29.282  28.291  1.00  0.00     0.010 A 
ATOM     31  C   UNL A   1      37.084  31.616  28.489  1.00  0.00     0.010 A 
ATOM     32  C   UNL A   1      37.488  30.290  28.725  1.00  0.00    -0.014 A 
BRANCH  32  33
ATOM     33  C   UNL A   1      38.754  29.978  29.486  1.00  0.00     0.031 A 
ATOM     34  C   UNL A   1      39.784  29.025  28.903  1.00  0.00     0.074 A 
ATOM     35  C   UNL A   1      39.032  30.544  30.682  1.00  0.00     0.049 A 
ATOM     36  N   UNL A   1      40.786  28.414  29.490  1.00  0.00    -0.248 NA
ATOM     37  C   UNL A   1      39.654  28.708  27.474  1.00  0.00     0.031 C 
ATOM     38  C   UNL A   1      38.209  31.544  31.364  1.00  0.00     0.029 A 
ATOM     39  N   UNL A   1      40.097  30.367  31.540  1.00  0.00    -0.354 N 
ATOM     40  C   UNL A   1      41.350  27.579  28.525  1.00  0.00     0.074 A 
ATOM     41  C   UNL A   1      40.576  27.768  27.315  1.00  0.00     0.031 C 
ATOM     42  C   UNL A   1      38.822  31.932  32.491  1.00  0.00     0.029 A 
ATOM     43  C   UNL A   1      40.010  31.114  32.695  1.00  0.00     0.049 A 
ATOM     44  H   UNL A   1      40.850  29.763  31.345  1.00  0.00     0.167 HD
ATOM     45  C   UNL A   1      42.407  26.732  28.637  1.00  0.00     0.034 A 
ATOM     46  C   UNL A   1      40.745  31.102  33.827  1.00  0.00     0.034 A 
ATOM     47  C   UNL A   1      43.222  26.605  29.826  1.00  0.00     0.049 A 
ATOM     48  C   UNL A   1      41.879  30.117  33.956  1.00  0.00     0.074 A 
ATOM     49  C   UNL A   1      44.315  25.779  30.043  1.00  0.00     0.029 A 
ATOM     50  N   UNL A   1      43.052  27.338  30.993  1.00  0.00    -0.354 N 
ATOM     51  N   UNL A   1      42.317  29.241  33.083  1.00  0.00    -0.248 NA
ATOM     52  C   UNL A   1      42.598  30.105  35.237  1.00  0.00     0.031 C 
ATOM     53  C   UNL A   1      44.762  25.968  31.355  1.00  0.00     0.029 A 
ATOM     54  C   UNL A   1      44.001  26.967  31.937  1.00  0.00     0.049 A 
ATOM     55  H   UNL A   1      42.358  28.023  31.131  1.00  0.00     0.167 HD
ATOM     56  C   UNL A   1      43.369  28.578  33.711  1.00  0.00     0.074 A 
ATOM     57  C   UNL A   1      43.521  29.182  35.017  1.00  0.00     0.031 C 
ATOM     58  C   UNL A   1      44.131  27.552  33.251  1.00  0.00     0.034 A 
BRANCH  45  59
ATOM     59  C   UNL A   1      42.698  25.812  27.469  1.00  0.00     0.023 A 
ATOM     60  C   UNL A   1      42.137  24.529  27.353  1.00  0.00     0.031 A 
ATOM     61  C   UNL A   1      43.584  26.231  26.456  1.00  0.00     0.131 A 
ATOM     62  C   UNL A   1      42.523  23.687  26.296  1.00  0.00     0.055 A 
ATOM     63  C   UNL A   1      43.900  25.421  25.364  1.00  0.00     0.041 A 
ATOM     64  F   UNL A   1      44.167  27.439  26.516  1.00  0.00    -0.206 F 
ATOM     65  C   UNL A   1      43.381  24.134  25.288  1.00  0.00     0.022 A 
BRANCH  62  66
ATOM     66  S   UNL A   1      42.006  21.949  26.334  1.00  0.00     0.124 S 
ATOM     67  O   UNL A   1      40.578  22.059  26.046  1.00  0.00    -0.237 OA
ATOM     68  O   UNL A   1      42.825  21.352  25.287  1.00  0.00    -0.237 OA
ATOM     69  O   UNL A   1      42.327  21.523  27.696  1.00  0.00    -0.744 OA
ENDBRANCH  62  66
ENDBRANCH  45  59
BRANCH  46  70
ATOM     70  C   UNL A   1      40.372  31.977  34.982  1.00  0.00     0.023 A 
ATOM     71  C   UNL A   1      39.420  31.569  35.931  1.00  0.00     0.031 A 
ATOM     72  C   UNL A   1      40.930  33.262  35.125  1.00  0.00     0.131 A 
ATOM     73  C   UNL A   1      39.033  32.448  36.957  1.00  0.00     0.055 A 
ATOM     74  C   UNL A   1      40.592  34.104  36.184  1.00  0.00     0.041 A 
ATOM     75  F   UNL A   1      41.835  33.712  34.241  1.00  0.00    -0.206 F 
ATOM     76  C   UNL A   1      39.628  33.703  37.102  1.00  0.00     0.022 A 
BRANCH  73  77
ATOM     77  S   UNL A   1      37.675  31.961  38.057  1.00  0.00     0.124 S 
ATOM     78  O   UNL A   1      38.278  32.139  39.372  1.00  0.00    -0.237 OA
ATOM     79  O   UNL A   1      36.634  32.918  37.694  1.00  0.00    -0.237 OA
ATOM     80  O   UNL A   1      37.406  30.577  37.674  1.00  0.00    -0.744 OA
ENDBRANCH  73  77
ENDBRANCH  46  70
BRANCH  58  81
ATOM     81  C   UNL A   1      45.218  27.051  34.173  1.00  0.00     0.023 A 
ATOM     82  C   UNL A   1      44.974  26.036  35.117  1.00  0.00     0.031 A 
ATOM     83  C   UNL A   1      46.496  27.637  34.153  1.00  0.00     0.131 A 
ATOM     84  C   UNL A   1      45.962  25.697  36.053  1.00  0.00     0.055 A 
ATOM     85  C   UNL A   1      47.499  27.246  35.042  1.00  0.00     0.041 A 
ATOM     86  F   UNL A   1      46.787  28.613  33.277  1.00  0.00    -0.206 F 
ATOM     87  C   UNL A   1      47.229  26.284  36.012  1.00  0.00     0.022 A 
BRANCH  84  88
ATOM     88  S   UNL A   1      45.526  24.576  37.411  1.00  0.00     0.124 S 
ATOM     89  O   UNL A   1      45.721  23.266  36.798  1.00  0.00    -0.237 OA
ATOM     90  O   UNL A   1      46.489  24.947  38.444  1.00  0.00    -0.237 OA
ATOM     91  O   UNL A   1      44.137  24.920  37.708  1.00  0.00    -0.744 OA
ENDBRANCH  84  88
ENDBRANCH  58  81
ENDBRANCH  32  33
ENDBRANCH  25  27
ENDBRANCH  24  25
ENDBRANCH   1  24
TORSDOF 16
ENDMDL
MODEL 2
REMARK VINA RESULT:     -12.3      4.977      9.905
REMARK SMILES C[C@H]1CC[C@@](NC(=O)N[C@H]2CCOC2)(C(=O)OCCOC(=O)c2ccc(-c3c4nc(c(-c5cc(S(=O)(=O)[O-])ccc5F)c5ccc([nH]5)c(-c5cc(S(=O)(=O)[O-])ccc5F)c5nc(c(-c6cc(S(=O)(=O)[O-])ccc6F)c6ccc3[nH]6)C=C5)C=C4)cc2)CC1
REMARK SMILES IDX 19 1 18 2 17 3 15 4 16 5 5 6 1 7 2 8 87 9 3 10 86 11 4 12
REMARK SMILES IDX 6 13 7 14 8 16 9 17 10 19 11 20 14 21 12 22 13 23 20 24
REMARK SMILES IDX 21 25 22 26 23 27 24 28 85 29 25 30 84 31 26 32 27 33 28 34
REMARK SMILES IDX 78 35 29 36 83 37 77 38 79 39 30 40 82 41 76 42 75 43 31 45
REMARK SMILES IDX 63 46 43 47 62 48 44 49 47 50 61 51 80 52 45 53 46 54 60 56
REMARK SMILES IDX 81 57 48 58 32 59 33 60 41 61 34 62 40 63 42 64 39 65 35 66
REMARK SMILES IDX 36 67 37 68 38 69 64 70 65 71 73 72 66 73 72 74 74 75 71 76
REMARK SMILES IDX 67 77 68 78 69 79 70 80 49 81 50 82 58 83 51 84 57 85 59 86
REMARK SMILES IDX 56 87 52 88 53 89 54 90 55 91
REMARK H PARENT 6 15 9 18 79 44 47 55
REMARK Flexibility Score: inf
ROOT
ATOM      1  C   UNL A   1      37.159  20.235  24.960  1.00  0.00     0.275 C 
ENDROOT
BRANCH   1   2
ATOM      2  C   UNL A   1      35.620  20.156  25.006  1.00  0.00     0.274 C 
BRANCH   2   3
ATOM      3  O   UNL A   1      34.826  21.095  25.769  1.00  0.00    -0.460 OA
BRANCH   3   4
ATOM      4  C   UNL A   1      33.492  21.216  25.561  1.00  0.00     0.332 C 
ATOM      5  O   UNL A   1      32.751  20.278  25.358  1.00  0.00    -0.249 OA
BRANCH   4   6
ATOM      6  C   UNL A   1      32.968  22.644  25.772  1.00  0.00     0.139 C 
ATOM      7  C   UNL A   1      36.012  23.092  22.838  1.00  0.00     0.007 C 
ATOM      8  C   UNL A   1      34.840  23.700  23.631  1.00  0.00    -0.014 C 
ATOM      9  C   UNL A   1      35.213  23.759  25.126  1.00  0.00     0.006 C 
ATOM     10  C   UNL A   1      33.545  22.946  23.290  1.00  0.00     0.006 C 
ATOM     11  C   UNL A   1      34.067  23.659  26.142  1.00  0.00     0.041 C 
ATOM     12  C   UNL A   1      32.458  23.068  24.363  1.00  0.00     0.041 C 
BRANCH   6  13
ATOM     13  N   UNL A   1      31.834  22.722  26.728  1.00  0.00    -0.322 N 
ATOM     14  C   UNL A   1      30.734  23.452  26.900  1.00  0.00     0.316 C 
ATOM     15  H   UNL A   1      31.921  22.043  27.435  1.00  0.00     0.166 HD
ATOM     16  O   UNL A   1      29.855  22.949  27.611  1.00  0.00    -0.249 OA
ATOM     17  N   UNL A   1      30.465  24.665  26.424  1.00  0.00    -0.333 N 
ATOM     18  H   UNL A   1      29.513  24.880  26.556  1.00  0.00     0.165 HD
BRANCH  17  19
ATOM     19  C   UNL A   1      31.146  25.771  25.769  1.00  0.00     0.112 C 
ATOM     20  C   UNL A   1      30.314  26.448  24.701  1.00  0.00     0.056 C 
ATOM     21  C   UNL A   1      31.392  26.970  26.698  1.00  0.00     0.185 C 
ATOM     22  C   UNL A   1      31.032  27.776  24.553  1.00  0.00     0.162 C 
ATOM     23  O   UNL A   1      31.481  28.139  25.869  1.00  0.00    -0.379 OA
ENDBRANCH  17  19
ENDBRANCH   6  13
ENDBRANCH   4   6
ENDBRANCH   3   4
ENDBRANCH   2   3
ENDBRANCH   1   2
BRANCH   1  24
ATOM     24  O   UNL A   1      37.688  21.522  25.361  1.00  0.00    -0.458 OA
BRANCH  24  25
ATOM     25  C   UNL A   1      38.913  21.425  25.968  1.00  0.00     0.338 C 
ATOM     26  O   UNL A   1      39.650  20.450  25.888  1.00  0.00    -0.246 OA
BRANCH  25  27
ATOM     27  C   UNL A   1      39.330  22.662  26.703  1.00  0.00     0.060 A 
ATOM     28  C   UNL A   1      38.796  23.918  26.418  1.00  0.00     0.016 A 
ATOM     29  C   UNL A   1      40.425  22.599  27.572  1.00  0.00     0.016 A 
ATOM     30  C   UNL A   1      39.426  25.088  26.876  1.00  0.00     0.010 A 
ATOM     31  C   UNL A   1      40.984  23.769  28.119  1.00  0.00     0.010 A 
ATOM     32  C   UNL A   1      40.534  25.045  27.735  1.00  0.00    -0.014 A 
BRANCH  32  33
ATOM     33  C   UNL A   1      41.266  26.296  28.158  1.00  0.00     0.031 A 
ATOM     34  C   UNL A   1      40.553  27.365  28.967  1.00  0.00     0.074 A 
ATOM     35  C   UNL A   1      42.571  26.500  27.864  1.00  0.00     0.049 A 
ATOM     36  N   UNL A   1      40.895  28.611  29.195  1.00  0.00    -0.248 NA
ATOM     37  C   UNL A   1      39.276  26.982  29.586  1.00  0.00     0.031 C 
ATOM     38  C   UNL A   1      43.446  25.554  27.169  1.00  0.00     0.029 A 
ATOM     39  N   UNL A   1      43.398  27.572  28.122  1.00  0.00    -0.354 N 
ATOM     40  C   UNL A   1      39.840  29.181  29.908  1.00  0.00     0.074 A 
ATOM     41  C   UNL A   1      38.848  28.138  30.074  1.00  0.00     0.031 C 
ATOM     42  C   UNL A   1      44.687  26.057  27.111  1.00  0.00     0.029 A 
ATOM     43  C   UNL A   1      44.677  27.417  27.633  1.00  0.00     0.049 A 
ATOM     44  H   UNL A   1      43.103  28.375  28.611  1.00  0.00     0.167 HD
ATOM     45  C   UNL A   1      39.707  30.450  30.373  1.00  0.00     0.034 A 
ATOM     46  C   UNL A   1      45.711  28.281  27.537  1.00  0.00     0.034 A 
ATOM     47  C   UNL A   1      40.734  31.464  30.270  1.00  0.00     0.049 A 
ATOM     48  C   UNL A   1      45.527  29.701  28.007  1.00  0.00     0.074 A 
ATOM     49  C   UNL A   1      40.701  32.779  30.710  1.00  0.00     0.029 A 
ATOM     50  N   UNL A   1      41.989  31.275  29.706  1.00  0.00    -0.354 N 
ATOM     51  N   UNL A   1      44.477  30.260  28.560  1.00  0.00    -0.248 NA
ATOM     52  C   UNL A   1      46.664  30.611  27.814  1.00  0.00     0.031 C 
ATOM     53  C   UNL A   1      41.906  33.398  30.357  1.00  0.00     0.029 A 
ATOM     54  C   UNL A   1      42.726  32.451  29.766  1.00  0.00     0.049 A 
ATOM     55  H   UNL A   1      42.311  30.428  29.320  1.00  0.00     0.167 HD
ATOM     56  C   UNL A   1      44.831  31.588  28.785  1.00  0.00     0.074 A 
ATOM     57  C   UNL A   1      46.202  31.732  28.345  1.00  0.00     0.031 C 
ATOM     58  C   UNL A   1      44.084  32.600  29.299  1.00  0.00     0.034 A 
BRANCH  45  59
ATOM     59  C   UNL A   1      38.371  30.844  30.970  1.00  0.00     0.023 A 
ATOM     60  C   UNL A   1      37.350  31.448  30.216  1.00  0.00     0.031 A 
ATOM     61  C   UNL A   1      38.129  30.627  32.342  1.00  0.00     0.131 A 
ATOM     62  C   UNL A   1      36.172  31.878  30.849  1.00  0.00     0.055 A 
ATOM     63  C   UNL A   1      36.922  30.982  32.948  1.00  0.00     0.041 A 
ATOM     64  F   UNL A   1      39.069  30.070  33.121  1.00  0.00    -0.206 F 
ATOM     65  C   UNL A   1      35.941  31.627  32.204  1.00  0.00     0.022 A 
BRANCH  62  66
ATOM     66  S   UNL A   1      35.004  32.903  29.911  1.00  0.00     0.124 S 
ATOM     67  O   UNL A   1      35.889  33.924  29.354  1.00  0.00    -0.237 OA
ATOM     68  O   UNL A   1      34.444  31.953  28.958  1.00  0.00    -0.237 OA
ATOM     69  O   UNL A   1      34.074  33.386  30.930  1.00  0.00    -0.744 OA
ENDBRANCH  62  66
ENDBRANCH  45  59
BRANCH  46  70
ATOM     70  C   UNL A   1      46.985  27.866  26.872  1.00  0.00     0.023 A 
ATOM     71  C   UNL A   1      47.138  27.933  25.477  1.00  0.00     0.031 A 
ATOM     72  C   UNL A   1      48.057  27.347  27.624  1.00  0.00     0.131 A 
ATOM     73  C   UNL A   1      48.318  27.460  24.879  1.00  0.00     0.055 A 
ATOM     74  C   UNL A   1      49.251  26.940  27.031  1.00  0.00     0.041 A 
ATOM     75  F   UNL A   1      47.963  27.245  28.960  1.00  0.00    -0.206 F 
ATOM     76  C   UNL A   1      49.382  26.985  25.647  1.00  0.00     0.022 A 
BRANCH  73  77
ATOM     77  S   UNL A   1      48.412  27.394  23.069  1.00  0.00     0.124 S 
ATOM     78  O   UNL A   1      48.304  25.961  22.817  1.00  0.00    -0.237 OA
ATOM     79  O   UNL A   1      47.263  28.203  22.675  1.00  0.00    -0.237 OA
ATOM     80  O   UNL A   1      49.717  27.984  22.773  1.00  0.00    -0.744 OA
ENDBRANCH  73  77
ENDBRANCH  46  70
BRANCH  58  81
ATOM     81  C   UNL A   1      44.765  33.942  29.433  1.00  0.00     0.023 A 
ATOM     82  C   UNL A   1      44.796  34.862  28.370  1.00  0.00     0.031 A 
ATOM     83  C   UNL A   1      45.444  34.280  30.617  1.00  0.00     0.131 A 
ATOM     84  C   UNL A   1      45.558  36.034  28.480  1.00  0.00     0.055 A 
ATOM     85  C   UNL A   1      46.144  35.481  30.746  1.00  0.00     0.041 A 
ATOM     86  F   UNL A   1      45.453  33.440  31.665  1.00  0.00    -0.206 F 
ATOM     87  C   UNL A   1      46.220  36.358  29.667  1.00  0.00     0.022 A 
BRANCH  84  88
ATOM     88  S   UNL A   1      45.785  37.066  27.004  1.00  0.00     0.124 S 
ATOM     89  O   UNL A   1      46.030  36.067  25.970  1.00  0.00    -0.237 OA
ATOM     90  O   UNL A   1      44.511  37.773  26.920  1.00  0.00    -0.237 OA
ATOM     91  O   UNL A   1      46.935  37.902  27.343  1.00  0.00    -0.744 OA
ENDBRANCH  84  88
ENDBRANCH  58  81
ENDBRANCH  32  33
ENDBRANCH  25  27
ENDBRANCH  24  25
ENDBRANCH   1  24
TORSDOF 16
ENDMDL
MODEL 3
REMARK VINA RESULT:     -12.3      5.231     10.046
REMARK SMILES C[C@H]1CC[C@@](NC(=O)N[C@H]2CCOC2)(C(=O)OCCOC(=O)c2ccc(-c3c4nc(c(-c5cc(S(=O)(=O)[O-])ccc5F)c5ccc([nH]5)c(-c5cc(S(=O)(=O)[O-])ccc5F)c5nc(c(-c6cc(S(=O)(=O)[O-])ccc6F)c6ccc3[nH]6)C=C5)C=C4)cc2)CC1
REMARK SMILES IDX 19 1 18 2 17 3 15 4 16 5 5 6 1 7 2 8 87 9 3 10 86 11 4 12
REMARK SMILES IDX 6 13 7 14 8 16 9 17 10 19 11 20 14 21 12 22 13 23 20 24
REMARK SMILES IDX 21 25 22 26 23 27 24 28 85 29 25 30 84 31 26 32 27 33 28 34
REMARK SMILES IDX 78 35 29 36 83 37 77 38 79 39 30 40 82 41 76 42 75 43 31 45
REMARK SMILES IDX 63 46 43 47 62 48 44 49 47 50 61 51 80 52 45 53 46 54 60 56
REMARK SMILES IDX 81 57 48 58 32 59 33 60 41 61 34 62 40 63 42 64 39 65 35 66
REMARK SMILES IDX 36 67 37 68 38 69 64 70 65 71 73 72 66 73 72 74 74 75 71 76
REMARK SMILES IDX 67 77 68 78 69 79 70 80 49 81 50 82 58 83 51 84 57 85 59 86
REMARK SMILES IDX 56 87 52 88 53 89 54 90 55 91
REMARK H PARENT 6 15 9 18 79 44 47 55
REMARK Flexibility Score: inf
ROOT
ATOM      1  C   UNL A   1      35.946  21.046  25.389  1.00  0.00     0.275 C 
ENDROOT
BRANCH   1   2
ATOM      2  C   UNL A   1      34.694  21.079  24.490  1.00  0.00     0.274 C 
BRANCH   2   3
ATOM      3  O   UNL A   1      34.280  22.280  23.795  1.00  0.00    -0.460 OA
BRANCH   3   4
ATOM      4  C   UNL A   1      33.038  22.390  23.265  1.00  0.00     0.332 C 
ATOM      5  O   UNL A   1      32.319  21.443  23.024  1.00  0.00    -0.249 OA
BRANCH   4   6
ATOM      6  C   UNL A   1      32.549  23.841  23.149  1.00  0.00     0.139 C 
ATOM      7  C   UNL A   1      32.248  22.985  27.302  1.00  0.00     0.007 C 
ATOM      8  C   UNL A   1      32.196  24.013  26.157  1.00  0.00    -0.014 C 
ATOM      9  C   UNL A   1      31.013  23.680  25.226  1.00  0.00     0.006 C 
ATOM     10  C   UNL A   1      33.576  24.102  25.486  1.00  0.00     0.006 C 
ATOM     11  C   UNL A   1      31.148  24.072  23.748  1.00  0.00     0.041 C 
ATOM     12  C   UNL A   1      33.532  24.641  24.052  1.00  0.00     0.041 C 
BRANCH   6  13
ATOM     13  N   UNL A   1      32.628  24.384  21.768  1.00  0.00    -0.322 N 
ATOM     14  C   UNL A   1      32.616  25.573  21.171  1.00  0.00     0.316 C 
ATOM     15  H   UNL A   1      32.711  23.658  21.108  1.00  0.00     0.166 HD
ATOM     16  O   UNL A   1      33.085  25.610  20.027  1.00  0.00    -0.249 OA
ATOM     17  N   UNL A   1      32.145  26.726  21.637  1.00  0.00    -0.333 N 
ATOM     18  H   UNL A   1      32.433  27.471  21.061  1.00  0.00     0.165 HD
BRANCH  17  19
ATOM     19  C   UNL A   1      31.334  27.225  22.737  1.00  0.00     0.112 C 
ATOM     20  C   UNL A   1      32.145  27.849  23.854  1.00  0.00     0.056 C 
ATOM     21  C   UNL A   1      30.462  28.430  22.353  1.00  0.00     0.185 C 
ATOM     22  C   UNL A   1      31.090  28.669  24.573  1.00  0.00     0.162 C 
ATOM     23  O   UNL A   1      30.211  29.174  23.555  1.00  0.00    -0.379 OA
ENDBRANCH  17  19
ENDBRANCH   6  13
ENDBRANCH   4   6
ENDBRANCH   3   4
ENDBRANCH   2   3
ENDBRANCH   1   2
BRANCH   1  24
ATOM     24  O   UNL A   1      37.148  21.515  24.731  1.00  0.00    -0.458 OA
BRANCH  24  25
ATOM     25  C   UNL A   1      38.285  21.225  25.438  1.00  0.00     0.338 C 
ATOM     26  O   UNL A   1      38.861  20.144  25.412  1.00  0.00    -0.246 OA
BRANCH  25  27
ATOM     27  C   UNL A   1      38.832  22.381  26.218  1.00  0.00     0.060 A 
ATOM     28  C   UNL A   1      38.332  23.676  26.086  1.00  0.00     0.016 A 
ATOM     29  C   UNL A   1      40.004  22.206  26.961  1.00  0.00     0.016 A 
ATOM     30  C   UNL A   1      39.060  24.780  26.563  1.00  0.00     0.010 A 
ATOM     31  C   UNL A   1      40.670  23.306  27.535  1.00  0.00     0.010 A 
ATOM     32  C   UNL A   1      40.245  24.625  27.297  1.00  0.00    -0.014 A 
BRANCH  32  33
ATOM     33  C   UNL A   1      41.073  25.808  27.735  1.00  0.00     0.031 A 
ATOM     34  C   UNL A   1      40.470  26.879  28.628  1.00  0.00     0.074 A 
ATOM     35  C   UNL A   1      42.372  25.947  27.381  1.00  0.00     0.049 A 
ATOM     36  N   UNL A   1      40.901  28.089  28.893  1.00  0.00    -0.248 NA
ATOM     37  C   UNL A   1      39.206  26.543  29.297  1.00  0.00     0.031 C 
ATOM     38  C   UNL A   1      43.150  24.986  26.599  1.00  0.00     0.029 A 
ATOM     39  N   UNL A   1      43.276  26.955  27.642  1.00  0.00    -0.354 N 
ATOM     40  C   UNL A   1      39.921  28.686  29.686  1.00  0.00     0.074 A 
ATOM     41  C   UNL A   1      38.876  27.698  29.859  1.00  0.00     0.031 C 
ATOM     42  C   UNL A   1      44.416  25.415  26.497  1.00  0.00     0.029 A 
ATOM     43  C   UNL A   1      44.517  26.748  27.078  1.00  0.00     0.049 A 
ATOM     44  H   UNL A   1      43.057  27.749  28.182  1.00  0.00     0.167 HD
ATOM     45  C   UNL A   1      39.891  29.938  30.215  1.00  0.00     0.034 A 
ATOM     46  C   UNL A   1      45.596  27.551  26.966  1.00  0.00     0.034 A 
ATOM     47  C   UNL A   1      40.973  30.892  30.101  1.00  0.00     0.049 A 
ATOM     48  C   UNL A   1      45.525  28.955  27.508  1.00  0.00     0.074 A 
ATOM     49  C   UNL A   1      41.043  32.184  30.601  1.00  0.00     0.029 A 
ATOM     50  N   UNL A   1      42.183  30.656  29.463  1.00  0.00    -0.354 N 
ATOM     51  N   UNL A   1      44.541  29.550  28.141  1.00  0.00    -0.248 NA
ATOM     52  C   UNL A   1      46.705  29.804  27.295  1.00  0.00     0.031 C 
ATOM     53  C   UNL A   1      42.265  32.746  30.211  1.00  0.00     0.029 A 
ATOM     54  C   UNL A   1      42.993  31.781  29.536  1.00  0.00     0.049 A 
ATOM     55  H   UNL A   1      42.431  29.810  29.023  1.00  0.00     0.167 HD
ATOM     56  C   UNL A   1      44.988  30.841  28.406  1.00  0.00     0.074 A 
ATOM     57  C   UNL A   1      46.342  30.925  27.899  1.00  0.00     0.031 C 
ATOM     58  C   UNL A   1      44.333  31.870  29.004  1.00  0.00     0.034 A 
BRANCH  45  59
ATOM     59  C   UNL A   1      38.614  30.382  30.899  1.00  0.00     0.023 A 
ATOM     60  C   UNL A   1      37.562  31.011  30.211  1.00  0.00     0.031 A 
ATOM     61  C   UNL A   1      38.463  30.188  32.287  1.00  0.00     0.131 A 
ATOM     62  C   UNL A   1      36.446  31.486  30.920  1.00  0.00     0.055 A 
ATOM     63  C   UNL A   1      37.315  30.589  32.973  1.00  0.00     0.041 A 
ATOM     64  F   UNL A   1      39.438  29.608  33.005  1.00  0.00    -0.206 F 
ATOM     65  C   UNL A   1      36.304  31.257  32.291  1.00  0.00     0.022 A 
BRANCH  62  66
ATOM     66  S   UNL A   1      35.249  32.539  30.054  1.00  0.00     0.124 S 
ATOM     67  O   UNL A   1      34.811  31.661  28.972  1.00  0.00    -0.237 OA
ATOM     68  O   UNL A   1      34.262  32.816  31.092  1.00  0.00    -0.237 OA
ATOM     69  O   UNL A   1      36.045  33.689  29.628  1.00  0.00    -0.744 OA
ENDBRANCH  62  66
ENDBRANCH  45  59
BRANCH  46  70
ATOM     70  C   UNL A   1      46.807  27.093  26.216  1.00  0.00     0.023 A 
ATOM     71  C   UNL A   1      47.085  27.561  24.921  1.00  0.00     0.031 A 
ATOM     72  C   UNL A   1      47.681  26.137  26.769  1.00  0.00     0.131 A 
ATOM     73  C   UNL A   1      48.186  27.049  24.214  1.00  0.00     0.055 A 
ATOM     74  C   UNL A   1      48.809  25.682  26.088  1.00  0.00     0.041 A 
ATOM     75  F   UNL A   1      47.458  25.643  27.998  1.00  0.00    -0.206 F 
ATOM     76  C   UNL A   1      49.061  26.130  24.796  1.00  0.00     0.022 A 
BRANCH  73  77
ATOM     77  S   UNL A   1      48.414  27.538  22.481  1.00  0.00     0.124 S 
ATOM     78  O   UNL A   1      47.189  28.285  22.219  1.00  0.00    -0.237 OA
ATOM     79  O   UNL A   1      49.643  28.324  22.547  1.00  0.00    -0.237 OA
ATOM     80  O   UNL A   1      48.530  26.262  21.779  1.00  0.00    -0.744 OA
ENDBRANCH  73  77
ENDBRANCH  46  70
BRANCH  58  81
ATOM     81  C   UNL A   1      45.102  33.162  29.161  1.00  0.00     0.023 A 
ATOM     82  C   UNL A   1      45.092  34.152  28.162  1.00  0.00     0.031 A 
ATOM     83  C   UNL A   1      45.904  33.379  30.296  1.00  0.00     0.131 A 
ATOM     84  C   UNL A   1      45.929  35.271  28.276  1.00  0.00     0.055 A 
ATOM     85  C   UNL A   1      46.683  34.529  30.436  1.00  0.00     0.041 A 
ATOM     86  F   UNL A   1      45.957  32.467  31.280  1.00  0.00    -0.206 F 
ATOM     87  C   UNL A   1      46.713  35.474  29.414  1.00  0.00     0.022 A 
BRANCH  84  88
ATOM     88  S   UNL A   1      46.084  36.391  26.857  1.00  0.00     0.124 S 
ATOM     89  O   UNL A   1      44.870  37.192  26.969  1.00  0.00    -0.237 OA
ATOM     90  O   UNL A   1      47.335  37.085  27.143  1.00  0.00    -0.237 OA
ATOM     91  O   UNL A   1      46.126  35.487  25.709  1.00  0.00    -0.744 OA
ENDBRANCH  84  88
ENDBRANCH  58  81
ENDBRANCH  32  33
ENDBRANCH  25  27
ENDBRANCH  24  25
ENDBRANCH   1  24
TORSDOF 16
ENDMDL
