MODEL 1
REMARK VINA RESULT:     -12.2      0.000      0.000
REMARK SMILES Cc1cc(F)cc(N[C@@](C)(C(=O)OCCOC(=O)c2ccc(-c3c4nc(c(-c5cc(S(=O)(=O)[O-])ccc5F)c5ccc([nH]5)c(-c5cc(S(=O)(=O)[O-])ccc5F)c5nc(c(-c6cc(S(=O)(=O)[O-])ccc6F)c6ccc3[nH]6)C=C5)C=C4)cc2)c2ccc(O)cc2)c1
REMARK SMILES IDX 15 1 14 2 13 3 11 4 12 5 9 6 10 7 8 8 7 10 1 11 2 12 3 13
REMARK SMILES IDX 89 14 4 15 5 16 6 17 82 18 83 19 88 20 84 21 87 22 85 23
REMARK SMILES IDX 86 24 16 26 17 27 18 28 19 29 20 30 81 31 21 32 80 33 22 34
REMARK SMILES IDX 23 35 24 36 74 37 25 38 79 39 73 40 75 41 26 42 78 43 72 44
REMARK SMILES IDX 71 45 27 47 59 48 39 49 58 50 40 51 43 52 57 53 76 54 41 55
REMARK SMILES IDX 42 56 56 58 77 59 44 60 28 61 29 62 37 63 30 64 36 65 38 66
REMARK SMILES IDX 35 67 31 68 32 69 33 70 34 71 60 72 61 73 69 74 62 75 68 76
REMARK SMILES IDX 70 77 67 78 63 79 64 80 65 81 66 82 45 83 46 84 54 85 47 86
REMARK SMILES IDX 53 87 55 88 52 89 48 90 49 91 50 92 51 93
REMARK H PARENT 8 9 86 25 75 46 43 57
REMARK Flexibility Score: inf
ROOT
ATOM      1  C   UNL A   1      36.651  20.556  24.971  1.00  0.00     0.275 C 
ENDROOT
BRANCH   1   2
ATOM      2  C   UNL A   1      35.228  21.056  24.739  1.00  0.00     0.274 C 
BRANCH   2   3
ATOM      3  O   UNL A   1      35.190  22.500  24.791  1.00  0.00    -0.460 OA
BRANCH   3   4
ATOM      4  C   UNL A   1      35.016  23.138  23.583  1.00  0.00     0.336 C 
ATOM      5  O   UNL A   1      35.911  23.205  22.748  1.00  0.00    -0.249 OA
BRANCH   4   6
ATOM      6  C   UNL A   1      33.627  23.878  23.507  1.00  0.00     0.158 C 
ATOM      7  C   UNL A   1      32.949  23.253  22.263  1.00  0.00     0.053 C 
BRANCH   6   8
ATOM      8  N   UNL A   1      33.848  25.319  23.162  1.00  0.00    -0.366 N 
ATOM      9  H   UNL A   1      34.658  25.465  22.623  1.00  0.00     0.162 HD
BRANCH   8  10
ATOM     10  C   UNL A   1      33.165  26.487  23.433  1.00  0.00     0.038 A 
ATOM     11  C   UNL A   1      29.481  27.556  23.257  1.00  0.00     0.044 C 
ATOM     12  C   UNL A   1      30.956  27.595  23.517  1.00  0.00    -0.046 A 
ATOM     13  C   UNL A   1      31.513  28.663  24.221  1.00  0.00     0.042 A 
ATOM     14  C   UNL A   1      31.787  26.523  23.139  1.00  0.00     0.029 A 
ATOM     15  C   UNL A   1      32.870  28.654  24.495  1.00  0.00     0.125 A 
ATOM     16  F   UNL A   1      33.412  29.672  25.177  1.00  0.00    -0.207 F 
ATOM     17  C   UNL A   1      33.683  27.589  24.107  1.00  0.00     0.065 A 
ENDBRANCH   8  10
ENDBRANCH   6   8
BRANCH   6  18
ATOM     18  C   UNL A   1      32.657  23.637  24.693  1.00  0.00    -0.011 A 
ATOM     19  C   UNL A   1      31.726  22.575  24.653  1.00  0.00     0.010 A 
ATOM     20  C   UNL A   1      32.658  24.414  25.870  1.00  0.00     0.010 A 
ATOM     21  C   UNL A   1      30.732  22.432  25.627  1.00  0.00     0.046 A 
ATOM     22  C   UNL A   1      31.683  24.255  26.865  1.00  0.00     0.046 A 
ATOM     23  C   UNL A   1      30.696  23.298  26.707  1.00  0.00     0.115 A 
BRANCH  23  24
ATOM     24  O   UNL A   1      29.667  23.182  27.589  1.00  0.00    -0.508 OA
ATOM     25  H   UNL A   1      29.124  23.922  27.775  1.00  0.00     0.293 HD
ENDBRANCH  23  24
ENDBRANCH   6  18
ENDBRANCH   4   6
ENDBRANCH   3   4
ENDBRANCH   2   3
ENDBRANCH   1   2
BRANCH   1  26
ATOM     26  O   UNL A   1      37.377  21.564  25.687  1.00  0.00    -0.458 OA
BRANCH  26  27
ATOM     27  C   UNL A   1      38.683  21.299  25.924  1.00  0.00     0.338 C 
ATOM     28  O   UNL A   1      39.265  20.247  25.704  1.00  0.00    -0.246 OA
BRANCH  27  29
ATOM     29  C   UNL A   1      39.315  22.498  26.511  1.00  0.00     0.060 A 
ATOM     30  C   UNL A   1      38.877  23.768  26.138  1.00  0.00     0.016 A 
ATOM     31  C   UNL A   1      40.403  22.370  27.372  1.00  0.00     0.016 A 
ATOM     32  C   UNL A   1      39.565  24.902  26.560  1.00  0.00     0.010 A 
ATOM     33  C   UNL A   1      41.035  23.518  27.869  1.00  0.00     0.010 A 
ATOM     34  C   UNL A   1      40.640  24.800  27.445  1.00  0.00    -0.014 A 
BRANCH  34  35
ATOM     35  C   UNL A   1      41.390  26.023  27.846  1.00  0.00     0.031 A 
ATOM     36  C   UNL A   1      40.705  27.069  28.684  1.00  0.00     0.074 A 
ATOM     37  C   UNL A   1      42.687  26.186  27.512  1.00  0.00     0.049 A 
ATOM     38  N   UNL A   1      41.080  28.292  28.957  1.00  0.00    -0.248 NA
ATOM     39  C   UNL A   1      39.417  26.685  29.279  1.00  0.00     0.031 C 
ATOM     40  C   UNL A   1      43.507  25.215  26.785  1.00  0.00     0.029 A 
ATOM     41  N   UNL A   1      43.547  27.234  27.742  1.00  0.00    -0.354 N 
ATOM     42  C   UNL A   1      40.048  28.845  29.707  1.00  0.00     0.074 A 
ATOM     43  C   UNL A   1      39.031  27.821  29.838  1.00  0.00     0.031 C 
ATOM     44  C   UNL A   1      44.750  25.702  26.648  1.00  0.00     0.029 A 
ATOM     45  C   UNL A   1      44.794  27.058  27.185  1.00  0.00     0.049 A 
ATOM     46  H   UNL A   1      43.295  28.034  28.259  1.00  0.00     0.167 HD
ATOM     47  C   UNL A   1      39.956  30.093  30.230  1.00  0.00     0.034 A 
ATOM     48  C   UNL A   1      45.831  27.911  27.061  1.00  0.00     0.034 A 
ATOM     49  C   UNL A   1      41.001  31.085  30.128  1.00  0.00     0.049 A 
ATOM     50  C   UNL A   1      45.686  29.317  27.588  1.00  0.00     0.074 A 
ATOM     51  C   UNL A   1      41.012  32.383  30.607  1.00  0.00     0.029 A 
ATOM     52  N   UNL A   1      42.230  30.882  29.512  1.00  0.00    -0.354 N 
ATOM     53  N   UNL A   1      44.664  29.868  28.200  1.00  0.00    -0.248 NA
ATOM     54  C   UNL A   1      46.826  30.222  27.388  1.00  0.00     0.031 C 
ATOM     55  C   UNL A   1      42.220  32.982  30.233  1.00  0.00     0.029 A 
ATOM     56  C   UNL A   1      42.996  32.037  29.578  1.00  0.00     0.049 A 
ATOM     57  H   UNL A   1      42.517  30.040  29.089  1.00  0.00     0.167 HD
ATOM     58  C   UNL A   1      45.042  31.182  28.465  1.00  0.00     0.074 A 
ATOM     59  C   UNL A   1      46.395  31.331  27.968  1.00  0.00     0.031 C 
ATOM     60  C   UNL A   1      44.337  32.176  29.062  1.00  0.00     0.034 A 
BRANCH  47  61
ATOM     61  C   UNL A   1      38.648  30.477  30.877  1.00  0.00     0.023 A 
ATOM     62  C   UNL A   1      37.596  31.075  30.160  1.00  0.00     0.031 A 
ATOM     63  C   UNL A   1      38.473  30.280  32.260  1.00  0.00     0.131 A 
ATOM     64  C   UNL A   1      36.450  31.519  30.841  1.00  0.00     0.055 A 
ATOM     65  C   UNL A   1      37.301  30.654  32.917  1.00  0.00     0.041 A 
ATOM     66  F   UNL A   1      39.452  29.736  33.001  1.00  0.00    -0.206 F 
ATOM     67  C   UNL A   1      36.286  31.291  32.209  1.00  0.00     0.022 A 
BRANCH  64  68
ATOM     68  S   UNL A   1      35.234  32.524  29.943  1.00  0.00     0.124 S 
ATOM     69  O   UNL A   1      34.239  32.786  30.979  1.00  0.00    -0.237 OA
ATOM     70  O   UNL A   1      36.028  33.670  29.514  1.00  0.00    -0.237 OA
ATOM     71  O   UNL A   1      34.784  31.641  28.869  1.00  0.00    -0.744 OA
ENDBRANCH  64  68
ENDBRANCH  47  61
BRANCH  48  72
ATOM     72  C   UNL A   1      47.064  27.500  26.327  1.00  0.00     0.023 A 
ATOM     73  C   UNL A   1      47.242  27.807  24.969  1.00  0.00     0.031 A 
ATOM     74  C   UNL A   1      48.066  26.747  26.968  1.00  0.00     0.131 A 
ATOM     75  C   UNL A   1      48.375  27.334  24.288  1.00  0.00     0.055 A 
ATOM     76  C   UNL A   1      49.217  26.327  26.301  1.00  0.00     0.041 A 
ATOM     77  F   UNL A   1      47.943  26.420  28.265  1.00  0.00    -0.206 F 
ATOM     78  C   UNL A   1      49.371  26.611  24.948  1.00  0.00     0.022 A 
BRANCH  75  79
ATOM     79  S   UNL A   1      48.495  27.609  22.499  1.00  0.00     0.124 S 
ATOM     80  O   UNL A   1      47.243  28.304  22.221  1.00  0.00    -0.237 OA
ATOM     81  O   UNL A   1      49.710  28.410  22.398  1.00  0.00    -0.237 OA
ATOM     82  O   UNL A   1      48.595  26.258  21.953  1.00  0.00    -0.744 OA
ENDBRANCH  75  79
ENDBRANCH  48  72
BRANCH  60  83
ATOM     83  C   UNL A   1      45.037  33.500  29.236  1.00  0.00     0.023 A 
ATOM     84  C   UNL A   1      44.925  34.527  28.281  1.00  0.00     0.031 A 
ATOM     85  C   UNL A   1      45.839  33.731  30.367  1.00  0.00     0.131 A 
ATOM     86  C   UNL A   1      45.643  35.721  28.452  1.00  0.00     0.055 A 
ATOM     87  C   UNL A   1      46.510  34.941  30.558  1.00  0.00     0.041 A 
ATOM     88  F   UNL A   1      45.983  32.784  31.307  1.00  0.00    -0.206 F 
ATOM     89  C   UNL A   1      46.423  35.940  29.592  1.00  0.00     0.022 A 
BRANCH  86  90
ATOM     90  S   UNL A   1      45.610  36.959  27.126  1.00  0.00     0.124 S 
ATOM     91  O   UNL A   1      46.322  36.273  26.053  1.00  0.00    -0.237 OA
ATOM     92  O   UNL A   1      44.179  37.156  26.919  1.00  0.00    -0.237 OA
ATOM     93  O   UNL A   1      46.313  38.102  27.706  1.00  0.00    -0.744 OA
ENDBRANCH  86  90
ENDBRANCH  60  83
ENDBRANCH  34  35
ENDBRANCH  27  29
ENDBRANCH  26  27
ENDBRANCH   1  26
TORSDOF 18
ENDMDL
MODEL 2
REMARK VINA RESULT:     -12.1      1.638      2.937
REMARK SMILES Cc1cc(F)cc(N[C@@](C)(C(=O)OCCOC(=O)c2ccc(-c3c4nc(c(-c5cc(S(=O)(=O)[O-])ccc5F)c5ccc([nH]5)c(-c5cc(S(=O)(=O)[O-])ccc5F)c5nc(c(-c6cc(S(=O)(=O)[O-])ccc6F)c6ccc3[nH]6)C=C5)C=C4)cc2)c2ccc(O)cc2)c1
REMARK SMILES IDX 15 1 14 2 13 3 11 4 12 5 9 6 10 7 8 8 7 10 1 11 2 12 3 13
REMARK SMILES IDX 89 14 4 15 5 16 6 17 82 18 83 19 88 20 84 21 87 22 85 23
REMARK SMILES IDX 86 24 16 26 17 27 18 28 19 29 20 30 81 31 21 32 80 33 22 34
REMARK SMILES IDX 23 35 24 36 74 37 25 38 79 39 73 40 75 41 26 42 78 43 72 44
REMARK SMILES IDX 71 45 27 47 59 48 39 49 58 50 40 51 43 52 57 53 76 54 41 55
REMARK SMILES IDX 42 56 56 58 77 59 44 60 28 61 29 62 37 63 30 64 36 65 38 66
REMARK SMILES IDX 35 67 31 68 32 69 33 70 34 71 60 72 61 73 69 74 62 75 68 76
REMARK SMILES IDX 70 77 67 78 63 79 64 80 65 81 66 82 45 83 46 84 54 85 47 86
REMARK SMILES IDX 53 87 55 88 52 89 48 90 49 91 50 92 51 93
REMARK H PARENT 8 9 86 25 75 46 43 57
REMARK Flexibility Score: inf
ROOT
ATOM      1  C   UNL A   1      36.261  21.376  24.497  1.00  0.00     0.275 C 
ENDROOT
BRANCH   1   2
ATOM      2  C   UNL A   1      36.277  22.592  23.575  1.00  0.00     0.274 C 
BRANCH   2   3
ATOM      3  O   UNL A   1      35.705  23.737  24.247  1.00  0.00    -0.460 OA
BRANCH   3   4
ATOM      4  C   UNL A   1      34.510  24.193  23.739  1.00  0.00     0.336 C 
ATOM      5  O   UNL A   1      34.394  24.558  22.574  1.00  0.00    -0.249 OA
BRANCH   4   6
ATOM      6  C   UNL A   1      33.413  24.332  24.861  1.00  0.00     0.158 C 
ATOM      7  C   UNL A   1      34.205  24.112  26.174  1.00  0.00     0.053 C 
BRANCH   6   8
ATOM      8  N   UNL A   1      32.459  23.181  24.771  1.00  0.00    -0.366 N 
ATOM      9  H   UNL A   1      31.619  23.339  25.261  1.00  0.00     0.162 HD
BRANCH   8  10
ATOM     10  C   UNL A   1      32.497  21.947  24.154  1.00  0.00     0.038 A 
ATOM     11  C   UNL A   1      32.624  18.316  25.398  1.00  0.00     0.044 C 
ATOM     12  C   UNL A   1      32.539  19.496  24.478  1.00  0.00    -0.046 A 
ATOM     13  C   UNL A   1      32.263  19.307  23.124  1.00  0.00     0.042 A 
ATOM     14  C   UNL A   1      32.647  20.810  24.973  1.00  0.00     0.029 A 
ATOM     15  C   UNL A   1      32.138  20.414  22.302  1.00  0.00     0.125 A 
ATOM     16  F   UNL A   1      31.865  20.242  21.001  1.00  0.00    -0.207 F 
ATOM     17  C   UNL A   1      32.255  21.710  22.804  1.00  0.00     0.065 A 
ENDBRANCH   8  10
ENDBRANCH   6   8
BRANCH   6  18
ATOM     18  C   UNL A   1      32.739  25.723  24.993  1.00  0.00    -0.011 A 
ATOM     19  C   UNL A   1      31.551  26.014  24.286  1.00  0.00     0.010 A 
ATOM     20  C   UNL A   1      33.230  26.750  25.826  1.00  0.00     0.010 A 
ATOM     21  C   UNL A   1      31.013  27.304  24.253  1.00  0.00     0.046 A 
ATOM     22  C   UNL A   1      32.675  28.037  25.822  1.00  0.00     0.046 A 
ATOM     23  C   UNL A   1      31.602  28.316  24.994  1.00  0.00     0.115 A 
BRANCH  23  24
ATOM     24  O   UNL A   1      31.101  29.575  24.872  1.00  0.00    -0.508 OA
ATOM     25  H   UNL A   1      31.391  30.129  24.175  1.00  0.00     0.293 HD
ENDBRANCH  23  24
ENDBRANCH   6  18
ENDBRANCH   4   6
ENDBRANCH   3   4
ENDBRANCH   2   3
ENDBRANCH   1   2
BRANCH   1  26
ATOM     26  O   UNL A   1      36.933  21.719  25.716  1.00  0.00    -0.458 OA
BRANCH  26  27
ATOM     27  C   UNL A   1      38.256  21.442  25.762  1.00  0.00     0.338 C 
ATOM     28  O   UNL A   1      38.801  20.417  25.377  1.00  0.00    -0.246 OA
BRANCH  27  29
ATOM     29  C   UNL A   1      38.964  22.585  26.371  1.00  0.00     0.060 A 
ATOM     30  C   UNL A   1      38.516  23.884  26.139  1.00  0.00     0.016 A 
ATOM     31  C   UNL A   1      40.128  22.381  27.110  1.00  0.00     0.016 A 
ATOM     32  C   UNL A   1      39.262  24.976  26.573  1.00  0.00     0.010 A 
ATOM     33  C   UNL A   1      40.827  23.481  27.626  1.00  0.00     0.010 A 
ATOM     34  C   UNL A   1      40.415  24.796  27.339  1.00  0.00    -0.014 A 
BRANCH  34  35
ATOM     35  C   UNL A   1      41.223  25.977  27.754  1.00  0.00     0.031 A 
ATOM     36  C   UNL A   1      40.588  27.046  28.602  1.00  0.00     0.074 A 
ATOM     37  C   UNL A   1      42.527  26.081  27.424  1.00  0.00     0.049 A 
ATOM     38  N   UNL A   1      41.021  28.246  28.889  1.00  0.00    -0.248 NA
ATOM     39  C   UNL A   1      39.282  26.718  29.191  1.00  0.00     0.031 C 
ATOM     40  C   UNL A   1      43.301  25.079  26.687  1.00  0.00     0.029 A 
ATOM     41  N   UNL A   1      43.437  27.083  27.666  1.00  0.00    -0.354 N 
ATOM     42  C   UNL A   1      40.015  28.841  29.643  1.00  0.00     0.074 A 
ATOM     43  C   UNL A   1      38.950  27.866  29.762  1.00  0.00     0.031 C 
ATOM     44  C   UNL A   1      44.566  25.506  26.557  1.00  0.00     0.029 A 
ATOM     45  C   UNL A   1      44.674  26.853  27.108  1.00  0.00     0.049 A 
ATOM     46  H   UNL A   1      43.223  27.888  28.191  1.00  0.00     0.167 HD
ATOM     47  C   UNL A   1      39.983  30.086  30.179  1.00  0.00     0.034 A 
ATOM     48  C   UNL A   1      45.752  27.656  26.995  1.00  0.00     0.034 A 
ATOM     49  C   UNL A   1      41.076  31.027  30.089  1.00  0.00     0.049 A 
ATOM     50  C   UNL A   1      45.674  29.062  27.537  1.00  0.00     0.074 A 
ATOM     51  C   UNL A   1      41.149  32.318  30.582  1.00  0.00     0.029 A 
ATOM     52  N   UNL A   1      42.295  30.771  29.473  1.00  0.00    -0.354 N 
ATOM     53  N   UNL A   1      44.678  29.655  28.153  1.00  0.00    -0.248 NA
ATOM     54  C   UNL A   1      46.857  29.912  27.348  1.00  0.00     0.031 C 
ATOM     55  C   UNL A   1      42.385  32.861  30.216  1.00  0.00     0.029 A 
ATOM     56  C   UNL A   1      43.115  31.888  29.552  1.00  0.00     0.049 A 
ATOM     57  H   UNL A   1      42.541  29.921  29.041  1.00  0.00     0.167 HD
ATOM     58  C   UNL A   1      45.119  30.946  28.433  1.00  0.00     0.074 A 
ATOM     59  C   UNL A   1      46.479  31.035  27.939  1.00  0.00     0.031 C 
ATOM     60  C   UNL A   1      44.462  31.967  29.039  1.00  0.00     0.034 A 
BRANCH  47  61
ATOM     61  C   UNL A   1      38.694  30.526  30.829  1.00  0.00     0.023 A 
ATOM     62  C   UNL A   1      37.643  31.114  30.102  1.00  0.00     0.031 A 
ATOM     63  C   UNL A   1      38.537  30.394  32.222  1.00  0.00     0.131 A 
ATOM     64  C   UNL A   1      36.518  31.612  30.781  1.00  0.00     0.055 A 
ATOM     65  C   UNL A   1      37.384  30.821  32.879  1.00  0.00     0.041 A 
ATOM     66  F   UNL A   1      39.517  29.863  32.971  1.00  0.00    -0.206 F 
ATOM     67  C   UNL A   1      36.372  31.448  32.160  1.00  0.00     0.022 A 
BRANCH  64  68
ATOM     68  S   UNL A   1      35.309  32.602  29.857  1.00  0.00     0.124 S 
ATOM     69  O   UNL A   1      36.070  33.815  29.571  1.00  0.00    -0.237 OA
ATOM     70  O   UNL A   1      35.010  31.749  28.712  1.00  0.00    -0.237 OA
ATOM     71  O   UNL A   1      34.211  32.777  30.807  1.00  0.00    -0.744 OA
ENDBRANCH  64  68
ENDBRANCH  47  61
BRANCH  48  72
ATOM     72  C   UNL A   1      46.965  27.193  26.258  1.00  0.00     0.023 A 
ATOM     73  C   UNL A   1      47.205  27.581  24.931  1.00  0.00     0.031 A 
ATOM     74  C   UNL A   1      47.881  26.312  26.862  1.00  0.00     0.131 A 
ATOM     75  C   UNL A   1      48.312  27.061  24.240  1.00  0.00     0.055 A 
ATOM     76  C   UNL A   1      49.010  25.843  26.190  1.00  0.00     0.041 A 
ATOM     77  F   UNL A   1      47.696  25.904  28.128  1.00  0.00    -0.206 F 
ATOM     78  C   UNL A   1      49.224  26.209  24.865  1.00  0.00     0.022 A 
BRANCH  75  79
ATOM     79  S   UNL A   1      48.503  27.454  22.479  1.00  0.00     0.124 S 
ATOM     80  O   UNL A   1      47.281  28.203  22.207  1.00  0.00    -0.237 OA
ATOM     81  O   UNL A   1      49.742  28.224  22.475  1.00  0.00    -0.237 OA
ATOM     82  O   UNL A   1      48.587  26.140  21.845  1.00  0.00    -0.744 OA
ENDBRANCH  75  79
ENDBRANCH  48  72
BRANCH  60  83
ATOM     83  C   UNL A   1      45.225  33.254  29.228  1.00  0.00     0.023 A 
ATOM     84  C   UNL A   1      45.180  34.287  28.275  1.00  0.00     0.031 A 
ATOM     85  C   UNL A   1      46.020  33.442  30.373  1.00  0.00     0.131 A 
ATOM     86  C   UNL A   1      45.955  35.443  28.461  1.00  0.00     0.055 A 
ATOM     87  C   UNL A   1      46.747  34.615  30.578  1.00  0.00     0.041 A 
ATOM     88  F   UNL A   1      46.100  32.486  31.312  1.00  0.00    -0.206 F 
ATOM     89  C   UNL A   1      46.727  35.619  29.613  1.00  0.00     0.022 A 
BRANCH  86  90
ATOM     90  S   UNL A   1      46.006  36.684  27.138  1.00  0.00     0.124 S 
ATOM     91  O   UNL A   1      44.682  37.291  27.240  1.00  0.00    -0.237 OA
ATOM     92  O   UNL A   1      47.127  37.524  27.542  1.00  0.00    -0.237 OA
ATOM     93  O   UNL A   1      46.232  35.889  25.931  1.00  0.00    -0.744 OA
ENDBRANCH  86  90
ENDBRANCH  60  83
ENDBRANCH  34  35
ENDBRANCH  27  29
ENDBRANCH  26  27
ENDBRANCH   1  26
TORSDOF 18
ENDMDL
MODEL 3
REMARK VINA RESULT:     -12.1      2.013      3.397
REMARK SMILES Cc1cc(F)cc(N[C@@](C)(C(=O)OCCOC(=O)c2ccc(-c3c4nc(c(-c5cc(S(=O)(=O)[O-])ccc5F)c5ccc([nH]5)c(-c5cc(S(=O)(=O)[O-])ccc5F)c5nc(c(-c6cc(S(=O)(=O)[O-])ccc6F)c6ccc3[nH]6)C=C5)C=C4)cc2)c2ccc(O)cc2)c1
REMARK SMILES IDX 15 1 14 2 13 3 11 4 12 5 9 6 10 7 8 8 7 10 1 11 2 12 3 13
REMARK SMILES IDX 89 14 4 15 5 16 6 17 82 18 83 19 88 20 84 21 87 22 85 23
REMARK SMILES IDX 86 24 16 26 17 27 18 28 19 29 20 30 81 31 21 32 80 33 22 34
REMARK SMILES IDX 23 35 24 36 74 37 25 38 79 39 73 40 75 41 26 42 78 43 72 44
REMARK SMILES IDX 71 45 27 47 59 48 39 49 58 50 40 51 43 52 57 53 76 54 41 55
REMARK SMILES IDX 42 56 56 58 77 59 44 60 28 61 29 62 37 63 30 64 36 65 38 66
REMARK SMILES IDX 35 67 31 68 32 69 33 70 34 71 60 72 61 73 69 74 62 75 68 76
REMARK SMILES IDX 70 77 67 78 63 79 64 80 65 81 66 82 45 83 46 84 54 85 47 86
REMARK SMILES IDX 53 87 55 88 52 89 48 90 49 91 50 92 51 93
REMARK H PARENT 8 9 86 25 75 46 43 57
REMARK Flexibility Score: inf
ROOT
ATOM      1  C   UNL A   1      37.707  20.240  24.721  1.00  0.00     0.275 C 
ENDROOT
BRANCH   1   2
ATOM      2  C   UNL A   1      36.215  20.096  25.012  1.00  0.00     0.274 C 
BRANCH   2   3
ATOM      3  O   UNL A   1      35.720  21.276  25.685  1.00  0.00    -0.460 OA
BRANCH   3   4
ATOM      4  C   UNL A   1      34.670  21.919  25.071  1.00  0.00     0.336 C 
ATOM      5  O   UNL A   1      34.794  22.485  23.990  1.00  0.00    -0.249 OA
BRANCH   4   6
ATOM      6  C   UNL A   1      33.393  21.965  25.993  1.00  0.00     0.158 C 
ATOM      7  C   UNL A   1      33.956  21.683  27.408  1.00  0.00     0.053 C 
BRANCH   6   8
ATOM      8  N   UNL A   1      32.505  20.801  25.676  1.00  0.00    -0.366 N 
ATOM      9  H   UNL A   1      31.630  20.852  26.123  1.00  0.00     0.162 HD
BRANCH   8  10
ATOM     10  C   UNL A   1      32.644  19.672  24.894  1.00  0.00     0.038 A 
ATOM     11  C   UNL A   1      32.916  15.911  25.619  1.00  0.00     0.044 C 
ATOM     12  C   UNL A   1      32.810  17.205  24.871  1.00  0.00    -0.046 A 
ATOM     13  C   UNL A   1      32.612  17.200  23.491  1.00  0.00     0.042 A 
ATOM     14  C   UNL A   1      32.818  18.438  25.552  1.00  0.00     0.029 A 
ATOM     15  C   UNL A   1      32.465  18.405  22.826  1.00  0.00     0.125 A 
ATOM     16  F   UNL A   1      32.266  18.409  21.501  1.00  0.00    -0.207 F 
ATOM     17  C   UNL A   1      32.484  19.620  23.512  1.00  0.00     0.065 A 
ENDBRANCH   8  10
ENDBRANCH   6   8
BRANCH   6  18
ATOM     18  C   UNL A   1      32.663  23.331  26.084  1.00  0.00    -0.011 A 
ATOM     19  C   UNL A   1      31.251  23.389  26.097  1.00  0.00     0.010 A 
ATOM     20  C   UNL A   1      33.334  24.566  26.191  1.00  0.00     0.010 A 
ATOM     21  C   UNL A   1      30.565  24.605  26.012  1.00  0.00     0.046 A 
ATOM     22  C   UNL A   1      32.649  25.789  26.139  1.00  0.00     0.046 A 
ATOM     23  C   UNL A   1      31.272  25.796  25.996  1.00  0.00     0.115 A 
BRANCH  23  24
ATOM     24  O   UNL A   1      30.577  26.953  25.829  1.00  0.00    -0.508 OA
ATOM     25  H   UNL A   1      30.807  27.713  26.325  1.00  0.00     0.293 HD
ENDBRANCH  23  24
ENDBRANCH   6  18
ENDBRANCH   4   6
ENDBRANCH   3   4
ENDBRANCH   2   3
ENDBRANCH   1   2
BRANCH   1  26
ATOM     26  O   UNL A   1      38.225  21.312  25.519  1.00  0.00    -0.458 OA
BRANCH  26  27
ATOM     27  C   UNL A   1      39.392  21.066  26.158  1.00  0.00     0.338 C 
ATOM     28  O   UNL A   1      39.945  19.981  26.274  1.00  0.00    -0.246 OA
BRANCH  27  29
ATOM     29  C   UNL A   1      39.908  22.331  26.720  1.00  0.00     0.060 A 
ATOM     30  C   UNL A   1      39.487  23.549  26.188  1.00  0.00     0.016 A 
ATOM     31  C   UNL A   1      40.876  22.314  27.722  1.00  0.00     0.016 A 
ATOM     32  C   UNL A   1      40.082  24.739  26.598  1.00  0.00     0.010 A 
ATOM     33  C   UNL A   1      41.405  23.522  28.198  1.00  0.00     0.010 A 
ATOM     34  C   UNL A   1      41.033  24.749  27.620  1.00  0.00    -0.014 A 
BRANCH  34  35
ATOM     35  C   UNL A   1      41.689  26.029  28.011  1.00  0.00     0.031 A 
ATOM     36  C   UNL A   1      40.913  27.044  28.806  1.00  0.00     0.074 A 
ATOM     37  C   UNL A   1      42.980  26.272  27.705  1.00  0.00     0.049 A 
ATOM     38  N   UNL A   1      41.199  28.295  29.060  1.00  0.00    -0.248 NA
ATOM     39  C   UNL A   1      39.639  26.588  29.378  1.00  0.00     0.031 C 
ATOM     40  C   UNL A   1      43.882  25.342  27.022  1.00  0.00     0.029 A 
ATOM     41  N   UNL A   1      43.762  27.379  27.932  1.00  0.00    -0.354 N 
ATOM     42  C   UNL A   1      40.112  28.794  29.771  1.00  0.00     0.074 A 
ATOM     43  C   UNL A   1      39.163  27.707  29.901  1.00  0.00     0.031 C 
ATOM     44  C   UNL A   1      45.093  25.908  26.904  1.00  0.00     0.029 A 
ATOM     45  C   UNL A   1      45.032  27.276  27.410  1.00  0.00     0.049 A 
ATOM     46  H   UNL A   1      43.444  28.172  28.423  1.00  0.00     0.167 HD
ATOM     47  C   UNL A   1      39.924  30.045  30.261  1.00  0.00     0.034 A 
ATOM     48  C   UNL A   1      46.013  28.194  27.291  1.00  0.00     0.034 A 
ATOM     49  C   UNL A   1      40.903  31.102  30.161  1.00  0.00     0.049 A 
ATOM     50  C   UNL A   1      45.761  29.598  27.781  1.00  0.00     0.074 A 
ATOM     51  C   UNL A   1      40.815  32.408  30.610  1.00  0.00     0.029 A 
ATOM     52  N   UNL A   1      42.159  30.969  29.581  1.00  0.00    -0.354 N 
ATOM     53  N   UNL A   1      44.688  30.092  28.355  1.00  0.00    -0.248 NA
ATOM     54  C   UNL A   1      46.842  30.572  27.588  1.00  0.00     0.031 C 
ATOM     55  C   UNL A   1      41.990  33.078  30.251  1.00  0.00     0.029 A 
ATOM     56  C   UNL A   1      42.844  32.174  29.639  1.00  0.00     0.049 A 
ATOM     57  H   UNL A   1      42.512  30.138  29.186  1.00  0.00     0.167 HD
ATOM     58  C   UNL A   1      44.971  31.434  28.597  1.00  0.00     0.074 A 
ATOM     59  C   UNL A   1      46.324  31.663  28.131  1.00  0.00     0.031 C 
ATOM     60  C   UNL A   1      44.186  32.391  29.152  1.00  0.00     0.034 A 
BRANCH  47  61
ATOM     61  C   UNL A   1      38.576  30.354  30.866  1.00  0.00     0.023 A 
ATOM     62  C   UNL A   1      37.557  31.005  30.150  1.00  0.00     0.031 A 
ATOM     63  C   UNL A   1      38.329  30.027  32.213  1.00  0.00     0.131 A 
ATOM     64  C   UNL A   1      36.369  31.373  30.804  1.00  0.00     0.055 A 
ATOM     65  C   UNL A   1      37.117  30.326  32.835  1.00  0.00     0.041 A 
ATOM     66  F   UNL A   1      39.273  29.426  32.955  1.00  0.00    -0.206 F 
ATOM     67  C   UNL A   1      36.133  31.017  32.133  1.00  0.00     0.022 A 
BRANCH  64  68
ATOM     68  S   UNL A   1      35.189  32.445  29.936  1.00  0.00     0.124 S 
ATOM     69  O   UNL A   1      34.709  31.565  28.874  1.00  0.00    -0.237 OA
ATOM     70  O   UNL A   1      34.226  32.768  30.983  1.00  0.00    -0.237 OA
ATOM     71  O   UNL A   1      36.013  33.564  29.481  1.00  0.00    -0.744 OA
ENDBRANCH  64  68
ENDBRANCH  47  61
BRANCH  48  72
ATOM     72  C   UNL A   1      47.290  27.851  26.598  1.00  0.00     0.023 A 
ATOM     73  C   UNL A   1      47.402  27.918  25.201  1.00  0.00     0.031 A 
ATOM     74  C   UNL A   1      48.406  27.400  27.327  1.00  0.00     0.131 A 
ATOM     75  C   UNL A   1      48.592  27.509  24.574  1.00  0.00     0.055 A 
ATOM     76  C   UNL A   1      49.604  27.048  26.705  1.00  0.00     0.041 A 
ATOM     77  F   UNL A   1      48.350  27.310  28.666  1.00  0.00    -0.206 F 
ATOM     78  C   UNL A   1      49.697  27.091  25.318  1.00  0.00     0.022 A 
BRANCH  75  79
ATOM     79  S   UNL A   1      48.648  27.456  22.762  1.00  0.00     0.124 S 
ATOM     80  O   UNL A   1      48.639  26.020  22.507  1.00  0.00    -0.237 OA
ATOM     81  O   UNL A   1      47.435  28.180  22.401  1.00  0.00    -0.237 OA
ATOM     82  O   UNL A   1      49.899  28.141  22.441  1.00  0.00    -0.744 OA
ENDBRANCH  75  79
ENDBRANCH  48  72
BRANCH  60  83
ATOM     83  C   UNL A   1      44.791  33.763  29.313  1.00  0.00     0.023 A 
ATOM     84  C   UNL A   1      44.586  34.778  28.360  1.00  0.00     0.031 A 
ATOM     85  C   UNL A   1      45.596  34.054  30.428  1.00  0.00     0.131 A 
ATOM     86  C   UNL A   1      45.218  36.021  28.517  1.00  0.00     0.055 A 
ATOM     87  C   UNL A   1      46.181  35.309  30.605  1.00  0.00     0.041 A 
ATOM     88  F   UNL A   1      45.826  33.121  31.365  1.00  0.00    -0.206 F 
ATOM     89  C   UNL A   1      46.003  36.298  29.641  1.00  0.00     0.022 A 
BRANCH  86  90
ATOM     90  S   UNL A   1      45.070  37.251  27.190  1.00  0.00     0.124 S 
ATOM     91  O   UNL A   1      45.395  38.491  27.888  1.00  0.00    -0.237 OA
ATOM     92  O   UNL A   1      46.057  36.785  26.222  1.00  0.00    -0.237 OA
ATOM     93  O   UNL A   1      43.678  37.127  26.762  1.00  0.00    -0.744 OA
ENDBRANCH  86  90
ENDBRANCH  60  83
ENDBRANCH  34  35
ENDBRANCH  27  29
ENDBRANCH  26  27
ENDBRANCH   1  26
TORSDOF 18
ENDMDL
