MODEL 1
REMARK VINA RESULT:     -11.7      0.000      0.000
REMARK SMILES C[C@H]1[C@H](C(=O)OCCOC(=O)c2ccc(-c3c4nc(c(-c5cc(S(=O)(=O)[O-])ccc5F)c5ccc([nH]5)c(-c5cc(S(=O)(=O)[O-])ccc5F)c5nc(c(-c6cc(S(=O)(=O)[O-])ccc6F)c6ccc3[nH]6)C=C5)C=C4)cc2)CCN1S(=O)(=O)N(C)Cc1ccccc1
REMARK SMILES IDX 7 1 6 2 4 3 5 4 3 5 1 6 2 7 77 8 75 9 76 10 78 11 79 12
REMARK SMILES IDX 80 13 81 14 82 15 83 16 84 17 85 18 89 19 86 20 88 21 87 22
REMARK SMILES IDX 8 23 9 24 10 25 11 26 12 27 13 28 74 29 14 30 73 31 15 32
REMARK SMILES IDX 16 33 17 34 67 35 18 36 72 37 66 38 68 39 19 40 71 41 65 42
REMARK SMILES IDX 64 43 20 45 52 46 32 47 51 48 33 49 36 50 50 51 69 52 34 53
REMARK SMILES IDX 35 54 49 56 70 57 37 58 21 59 22 60 30 61 23 62 29 63 31 64
REMARK SMILES IDX 28 65 24 66 25 67 26 68 27 69 53 70 54 71 62 72 55 73 61 74
REMARK SMILES IDX 63 75 60 76 56 77 57 78 58 79 59 80 38 81 39 82 47 83 40 84
REMARK SMILES IDX 46 85 48 86 45 87 41 88 42 89 43 90 44 91
REMARK H PARENT 68 44 36 55
REMARK Flexibility Score: inf
ROOT
ATOM      1  C   UNL A   1      32.467  28.548  25.237  1.00  0.00     0.274 C 
ENDROOT
BRANCH   1   2
ATOM      2  O   UNL A   1      31.327  27.685  25.066  1.00  0.00    -0.462 OA
BRANCH   2   3
ATOM      3  C   UNL A   1      31.131  26.705  25.978  1.00  0.00     0.310 C 
ATOM      4  O   UNL A   1      31.256  26.846  27.190  1.00  0.00    -0.252 OA
BRANCH   3   5
ATOM      5  C   UNL A   1      30.718  25.378  25.366  1.00  0.00     0.118 C 
ATOM      6  C   UNL A   1      31.080  24.599  22.983  1.00  0.00     0.027 C 
ATOM      7  C   UNL A   1      31.718  24.760  24.370  1.00  0.00     0.085 C 
ATOM      8  N   UNL A   1      32.053  23.382  24.893  1.00  0.00    -0.185 NA
ATOM      9  C   UNL A   1      30.484  24.318  26.432  1.00  0.00     0.034 C 
ATOM     10  C   UNL A   1      30.875  23.022  25.744  1.00  0.00     0.105 C 
BRANCH   8  11
ATOM     11  S   UNL A   1      33.522  23.242  25.742  1.00  0.00     0.282 S 
ATOM     12  O   UNL A   1      34.174  24.528  25.662  1.00  0.00    -0.195 OA
ATOM     13  O   UNL A   1      33.224  22.673  27.040  1.00  0.00    -0.195 OA
BRANCH  11  14
ATOM     14  N   UNL A   1      34.432  22.102  24.934  1.00  0.00    -0.188 NA
ATOM     15  C   UNL A   1      35.561  22.405  24.065  1.00  0.00     0.126 C 
BRANCH  14  16
ATOM     16  C   UNL A   1      34.420  20.741  25.511  1.00  0.00     0.138 C 
BRANCH  16  17
ATOM     17  C   UNL A   1      33.928  19.603  24.635  1.00  0.00    -0.033 A 
ATOM     18  C   UNL A   1      32.722  19.653  23.920  1.00  0.00     0.005 A 
ATOM     19  C   UNL A   1      34.690  18.426  24.562  1.00  0.00     0.005 A 
ATOM     20  C   UNL A   1      32.313  18.580  23.125  1.00  0.00     0.000 A 
ATOM     21  C   UNL A   1      34.279  17.350  23.772  1.00  0.00     0.000 A 
ATOM     22  C   UNL A   1      33.092  17.430  23.048  1.00  0.00     0.000 A 
ENDBRANCH  16  17
ENDBRANCH  14  16
ENDBRANCH  11  14
ENDBRANCH   8  11
ENDBRANCH   3   5
ENDBRANCH   2   3
ENDBRANCH   1   2
BRANCH   1  23
ATOM     23  C   UNL A   1      32.000  29.947  25.643  1.00  0.00     0.275 C 
BRANCH  23  24
ATOM     24  O   UNL A   1      32.399  30.242  26.993  1.00  0.00    -0.458 OA
BRANCH  24  25
ATOM     25  C   UNL A   1      33.007  31.438  27.166  1.00  0.00     0.338 C 
ATOM     26  O   UNL A   1      32.527  32.546  27.003  1.00  0.00    -0.246 OA
BRANCH  25  27
ATOM     27  C   UNL A   1      34.339  31.212  27.739  1.00  0.00     0.060 A 
ATOM     28  C   UNL A   1      34.666  29.924  28.171  1.00  0.00     0.016 A 
ATOM     29  C   UNL A   1      35.231  32.267  27.910  1.00  0.00     0.016 A 
ATOM     30  C   UNL A   1      35.881  29.682  28.803  1.00  0.00     0.010 A 
ATOM     31  C   UNL A   1      36.463  32.020  28.521  1.00  0.00     0.010 A 
ATOM     32  C   UNL A   1      36.789  30.730  28.981  1.00  0.00    -0.014 A 
BRANCH  32  33
ATOM     33  C   UNL A   1      38.070  30.502  29.688  1.00  0.00     0.031 A 
ATOM     34  C   UNL A   1      39.096  29.599  29.071  1.00  0.00     0.074 A 
ATOM     35  C   UNL A   1      38.292  31.079  30.884  1.00  0.00     0.049 A 
ATOM     36  N   UNL A   1      40.168  29.077  29.603  1.00  0.00    -0.248 NA
ATOM     37  C   UNL A   1      38.872  29.228  27.666  1.00  0.00     0.031 C 
ATOM     38  C   UNL A   1      37.399  32.036  31.539  1.00  0.00     0.029 A 
ATOM     39  N   UNL A   1      39.326  30.924  31.772  1.00  0.00    -0.354 N 
ATOM     40  C   UNL A   1      40.733  28.284  28.610  1.00  0.00     0.074 A 
ATOM     41  C   UNL A   1      39.875  28.389  27.449  1.00  0.00     0.031 C 
ATOM     42  C   UNL A   1      37.914  32.367  32.733  1.00  0.00     0.029 A 
ATOM     43  C   UNL A   1      39.129  31.590  32.959  1.00  0.00     0.049 A 
ATOM     44  H   UNL A   1      40.129  30.387  31.579  1.00  0.00     0.167 HD
ATOM     45  C   UNL A   1      41.862  27.535  28.675  1.00  0.00     0.034 A 
ATOM     46  C   UNL A   1      39.818  31.531  34.117  1.00  0.00     0.034 A 
ATOM     47  C   UNL A   1      42.696  27.454  29.849  1.00  0.00     0.049 A 
ATOM     48  C   UNL A   1      41.015  30.620  34.200  1.00  0.00     0.074 A 
ATOM     49  C   UNL A   1      43.857  26.725  30.037  1.00  0.00     0.029 A 
ATOM     50  N   UNL A   1      42.453  28.127  31.041  1.00  0.00    -0.354 N 
ATOM     51  N   UNL A   1      41.516  29.831  33.276  1.00  0.00    -0.248 NA
ATOM     52  C   UNL A   1      41.737  30.583  35.479  1.00  0.00     0.031 C 
ATOM     53  C   UNL A   1      44.280  26.908  31.357  1.00  0.00     0.029 A 
ATOM     54  C   UNL A   1      43.426  27.810  31.974  1.00  0.00     0.049 A 
ATOM     55  H   UNL A   1      41.698  28.739  31.199  1.00  0.00     0.167 HD
ATOM     56  C   UNL A   1      42.631  29.231  33.853  1.00  0.00     0.074 A 
ATOM     57  C   UNL A   1      42.728  29.747  35.204  1.00  0.00     0.031 C 
ATOM     58  C   UNL A   1      43.504  28.343  33.314  1.00  0.00     0.034 A 
BRANCH  45  59
ATOM     59  C   UNL A   1      42.206  26.697  27.469  1.00  0.00     0.023 A 
ATOM     60  C   UNL A   1      41.833  25.346  27.370  1.00  0.00     0.031 A 
ATOM     61  C   UNL A   1      42.959  27.250  26.418  1.00  0.00     0.131 A 
ATOM     62  C   UNL A   1      42.273  24.577  26.281  1.00  0.00     0.055 A 
ATOM     63  C   UNL A   1      43.327  26.501  25.299  1.00  0.00     0.041 A 
ATOM     64  F   UNL A   1      43.367  28.529  26.468  1.00  0.00    -0.206 F 
ATOM     65  C   UNL A   1      42.997  25.151  25.234  1.00  0.00     0.022 A 
BRANCH  62  66
ATOM     66  S   UNL A   1      42.012  22.782  26.327  1.00  0.00     0.124 S 
ATOM     67  O   UNL A   1      40.557  22.697  26.411  1.00  0.00    -0.237 OA
ATOM     68  O   UNL A   1      42.607  22.344  25.069  1.00  0.00    -0.237 OA
ATOM     69  O   UNL A   1      42.725  22.363  27.532  1.00  0.00    -0.744 OA
ENDBRANCH  62  66
ENDBRANCH  45  59
BRANCH  46  70
ATOM     70  C   UNL A   1      39.352  32.298  35.308  1.00  0.00     0.023 A 
ATOM     71  C   UNL A   1      39.790  33.610  35.542  1.00  0.00     0.031 A 
ATOM     72  C   UNL A   1      38.483  31.714  36.248  1.00  0.00     0.131 A 
ATOM     73  C   UNL A   1      39.387  34.283  36.707  1.00  0.00     0.055 A 
ATOM     74  C   UNL A   1      38.043  32.407  37.377  1.00  0.00     0.041 A 
ATOM     75  F   UNL A   1      38.035  30.461  36.073  1.00  0.00    -0.206 F 
ATOM     76  C   UNL A   1      38.505  33.696  37.617  1.00  0.00     0.022 A 
BRANCH  73  77
ATOM     77  S   UNL A   1      40.097  35.915  37.055  1.00  0.00     0.124 S 
ATOM     78  O   UNL A   1      41.513  35.598  37.200  1.00  0.00    -0.237 OA
ATOM     79  O   UNL A   1      39.727  36.667  35.860  1.00  0.00    -0.237 OA
ATOM     80  O   UNL A   1      39.419  36.326  38.282  1.00  0.00    -0.744 OA
ENDBRANCH  73  77
ENDBRANCH  46  70
BRANCH  58  81
ATOM     81  C   UNL A   1      44.678  27.932  34.161  1.00  0.00     0.023 A 
ATOM     82  C   UNL A   1      44.639  26.797  34.988  1.00  0.00     0.031 A 
ATOM     83  C   UNL A   1      45.868  28.682  34.114  1.00  0.00     0.131 A 
ATOM     84  C   UNL A   1      45.761  26.461  35.762  1.00  0.00     0.055 A 
ATOM     85  C   UNL A   1      46.995  28.317  34.848  1.00  0.00     0.041 A 
ATOM     86  F   UNL A   1      45.954  29.775  33.338  1.00  0.00    -0.206 F 
ATOM     87  C   UNL A   1      46.943  27.205  35.684  1.00  0.00     0.022 A 
BRANCH  84  88
ATOM     88  S   UNL A   1      45.647  25.060  36.907  1.00  0.00     0.124 S 
ATOM     89  O   UNL A   1      44.769  25.590  37.946  1.00  0.00    -0.237 OA
ATOM     90  O   UNL A   1      45.078  24.012  36.067  1.00  0.00    -0.237 OA
ATOM     91  O   UNL A   1      47.032  24.839  37.319  1.00  0.00    -0.744 OA
ENDBRANCH  84  88
ENDBRANCH  58  81
ENDBRANCH  32  33
ENDBRANCH  25  27
ENDBRANCH  24  25
ENDBRANCH  23  24
ENDBRANCH   1  23
TORSDOF 18
ENDMDL
MODEL 2
REMARK VINA RESULT:     -11.6      4.595      9.868
REMARK SMILES C[C@H]1[C@H](C(=O)OCCOC(=O)c2ccc(-c3c4nc(c(-c5cc(S(=O)(=O)[O-])ccc5F)c5ccc([nH]5)c(-c5cc(S(=O)(=O)[O-])ccc5F)c5nc(c(-c6cc(S(=O)(=O)[O-])ccc6F)c6ccc3[nH]6)C=C5)C=C4)cc2)CCN1S(=O)(=O)N(C)Cc1ccccc1
REMARK SMILES IDX 7 1 6 2 4 3 5 4 3 5 1 6 2 7 77 8 75 9 76 10 78 11 79 12
REMARK SMILES IDX 80 13 81 14 82 15 83 16 84 17 85 18 89 19 86 20 88 21 87 22
REMARK SMILES IDX 8 23 9 24 10 25 11 26 12 27 13 28 74 29 14 30 73 31 15 32
REMARK SMILES IDX 16 33 17 34 67 35 18 36 72 37 66 38 68 39 19 40 71 41 65 42
REMARK SMILES IDX 64 43 20 45 52 46 32 47 51 48 33 49 36 50 50 51 69 52 34 53
REMARK SMILES IDX 35 54 49 56 70 57 37 58 21 59 22 60 30 61 23 62 29 63 31 64
REMARK SMILES IDX 28 65 24 66 25 67 26 68 27 69 53 70 54 71 62 72 55 73 61 74
REMARK SMILES IDX 63 75 60 76 56 77 57 78 58 79 59 80 38 81 39 82 47 83 40 84
REMARK SMILES IDX 46 85 48 86 45 87 41 88 42 89 43 90 44 91
REMARK H PARENT 68 44 36 55
REMARK Flexibility Score: inf
ROOT
ATOM      1  C   UNL A   1      35.271  20.289  25.032  1.00  0.00     0.274 C 
ENDROOT
BRANCH   1   2
ATOM      2  O   UNL A   1      34.085  20.697  24.325  1.00  0.00    -0.462 OA
BRANCH   2   3
ATOM      3  C   UNL A   1      32.902  20.630  24.978  1.00  0.00     0.310 C 
ATOM      4  O   UNL A   1      32.147  19.664  24.951  1.00  0.00    -0.252 OA
BRANCH   3   5
ATOM      5  C   UNL A   1      32.579  21.876  25.784  1.00  0.00     0.118 C 
ATOM      6  C   UNL A   1      34.163  23.740  26.441  1.00  0.00     0.027 C 
ATOM      7  C   UNL A   1      33.278  23.170  25.324  1.00  0.00     0.085 C 
ATOM      8  N   UNL A   1      32.184  24.172  25.036  1.00  0.00    -0.185 NA
ATOM      9  C   UNL A   1      31.089  22.180  25.771  1.00  0.00     0.034 C 
ATOM     10  C   UNL A   1      31.030  23.695  25.861  1.00  0.00     0.105 C 
BRANCH   8  11
ATOM     11  S   UNL A   1      31.762  24.366  23.397  1.00  0.00     0.282 S 
ATOM     12  O   UNL A   1      32.495  23.366  22.657  1.00  0.00    -0.195 OA
ATOM     13  O   UNL A   1      30.316  24.395  23.320  1.00  0.00    -0.195 OA
BRANCH  11  14
ATOM     14  N   UNL A   1      32.280  25.886  22.950  1.00  0.00    -0.188 NA
ATOM     15  C   UNL A   1      32.959  26.197  21.698  1.00  0.00     0.126 C 
BRANCH  14  16
ATOM     16  C   UNL A   1      31.586  27.021  23.595  1.00  0.00     0.138 C 
BRANCH  16  17
ATOM     17  C   UNL A   1      32.137  27.534  24.913  1.00  0.00    -0.033 A 
ATOM     18  C   UNL A   1      31.346  27.715  26.057  1.00  0.00     0.005 A 
ATOM     19  C   UNL A   1      33.496  27.883  24.989  1.00  0.00     0.005 A 
ATOM     20  C   UNL A   1      31.901  28.187  27.248  1.00  0.00     0.000 A 
ATOM     21  C   UNL A   1      34.050  28.362  26.178  1.00  0.00     0.000 A 
ATOM     22  C   UNL A   1      33.254  28.508  27.310  1.00  0.00     0.000 A 
ENDBRANCH  16  17
ENDBRANCH  14  16
ENDBRANCH  11  14
ENDBRANCH   8  11
ENDBRANCH   3   5
ENDBRANCH   2   3
ENDBRANCH   1   2
BRANCH   1  23
ATOM     23  C   UNL A   1      36.444  21.187  24.636  1.00  0.00     0.275 C 
BRANCH  23  24
ATOM     24  O   UNL A   1      37.112  21.692  25.806  1.00  0.00    -0.458 OA
BRANCH  24  25
ATOM     25  C   UNL A   1      38.423  21.371  25.905  1.00  0.00     0.338 C 
ATOM     26  O   UNL A   1      38.973  20.359  25.507  1.00  0.00    -0.246 OA
BRANCH  25  27
ATOM     27  C   UNL A   1      39.149  22.521  26.457  1.00  0.00     0.060 A 
ATOM     28  C   UNL A   1      38.702  23.805  26.135  1.00  0.00     0.016 A 
ATOM     29  C   UNL A   1      40.295  22.339  27.227  1.00  0.00     0.016 A 
ATOM     30  C   UNL A   1      39.413  24.923  26.560  1.00  0.00     0.010 A 
ATOM     31  C   UNL A   1      40.994  23.462  27.676  1.00  0.00     0.010 A 
ATOM     32  C   UNL A   1      40.564  24.758  27.335  1.00  0.00    -0.014 A 
BRANCH  32  33
ATOM     33  C   UNL A   1      41.357  25.933  27.762  1.00  0.00     0.031 A 
ATOM     34  C   UNL A   1      40.700  26.999  28.589  1.00  0.00     0.074 A 
ATOM     35  C   UNL A   1      42.643  26.052  27.384  1.00  0.00     0.049 A 
ATOM     36  N   UNL A   1      41.118  28.202  28.875  1.00  0.00    -0.248 NA
ATOM     37  C   UNL A   1      39.387  26.659  29.159  1.00  0.00     0.031 C 
ATOM     38  C   UNL A   1      43.404  25.042  26.649  1.00  0.00     0.029 A 
ATOM     39  N   UNL A   1      43.529  27.087  27.545  1.00  0.00    -0.354 N 
ATOM     40  C   UNL A   1      40.106  28.782  29.632  1.00  0.00     0.074 A 
ATOM     41  C   UNL A   1      39.050  27.798  29.747  1.00  0.00     0.031 C 
ATOM     42  C   UNL A   1      44.636  25.514  26.405  1.00  0.00     0.029 A 
ATOM     43  C   UNL A   1      44.726  26.886  26.898  1.00  0.00     0.049 A 
ATOM     44  H   UNL A   1      43.328  27.894  28.072  1.00  0.00     0.167 HD
ATOM     45  C   UNL A   1      40.068  30.027  30.169  1.00  0.00     0.034 A 
ATOM     46  C   UNL A   1      45.751  27.732  26.676  1.00  0.00     0.034 A 
ATOM     47  C   UNL A   1      41.140  30.983  30.035  1.00  0.00     0.049 A 
ATOM     48  C   UNL A   1      45.650  29.142  27.200  1.00  0.00     0.074 A 
ATOM     49  C   UNL A   1      41.213  32.274  30.528  1.00  0.00     0.029 A 
ATOM     50  N   UNL A   1      42.328  30.751  29.354  1.00  0.00    -0.354 N 
ATOM     51  N   UNL A   1      44.669  29.704  27.869  1.00  0.00    -0.248 NA
ATOM     52  C   UNL A   1      46.787  30.034  26.936  1.00  0.00     0.031 C 
ATOM     53  C   UNL A   1      42.416  32.841  30.093  1.00  0.00     0.029 A 
ATOM     54  C   UNL A   1      43.128  31.881  29.391  1.00  0.00     0.049 A 
ATOM     55  H   UNL A   1      42.567  29.906  28.908  1.00  0.00     0.167 HD
ATOM     56  C   UNL A   1      45.087  31.005  28.134  1.00  0.00     0.074 A 
ATOM     57  C   UNL A   1      46.406  31.145  27.552  1.00  0.00     0.031 C 
ATOM     58  C   UNL A   1      44.444  31.993  28.807  1.00  0.00     0.034 A 
BRANCH  45  59
ATOM     59  C   UNL A   1      38.802  30.436  30.879  1.00  0.00     0.023 A 
ATOM     60  C   UNL A   1      37.730  31.042  30.202  1.00  0.00     0.031 A 
ATOM     61  C   UNL A   1      38.683  30.253  32.268  1.00  0.00     0.131 A 
ATOM     62  C   UNL A   1      36.620  31.507  30.925  1.00  0.00     0.055 A 
ATOM     63  C   UNL A   1      37.542  30.646  32.970  1.00  0.00     0.041 A 
ATOM     64  F   UNL A   1      39.684  29.702  32.974  1.00  0.00    -0.206 F 
ATOM     65  C   UNL A   1      36.508  31.292  32.300  1.00  0.00     0.022 A 
BRANCH  62  66
ATOM     66  S   UNL A   1      35.392  32.529  30.063  1.00  0.00     0.124 S 
ATOM     67  O   UNL A   1      34.336  32.630  31.066  1.00  0.00    -0.237 OA
ATOM     68  O   UNL A   1      36.136  33.754  29.791  1.00  0.00    -0.237 OA
ATOM     69  O   UNL A   1      35.050  31.732  28.886  1.00  0.00    -0.744 OA
ENDBRANCH  62  66
ENDBRANCH  45  59
BRANCH  46  70
ATOM     70  C   UNL A   1      46.923  27.297  25.864  1.00  0.00     0.023 A 
ATOM     71  C   UNL A   1      47.089  27.730  24.540  1.00  0.00     0.031 A 
ATOM     72  C   UNL A   1      47.882  26.414  26.394  1.00  0.00     0.131 A 
ATOM     73  C   UNL A   1      48.166  27.251  23.778  1.00  0.00     0.055 A 
ATOM     74  C   UNL A   1      48.981  25.982  25.650  1.00  0.00     0.041 A 
ATOM     75  F   UNL A   1      47.771  25.968  27.656  1.00  0.00    -0.206 F 
ATOM     76  C   UNL A   1      49.121  26.392  24.329  1.00  0.00     0.022 A 
BRANCH  73  77
ATOM     77  S   UNL A   1      48.260  27.707  22.025  1.00  0.00     0.124 S 
ATOM     78  O   UNL A   1      48.451  26.408  21.391  1.00  0.00    -0.237 OA
ATOM     79  O   UNL A   1      46.966  28.343  21.808  1.00  0.00    -0.237 OA
ATOM     80  O   UNL A   1      49.412  28.605  21.969  1.00  0.00    -0.744 OA
ENDBRANCH  73  77
ENDBRANCH  46  70
BRANCH  58  81
ATOM     81  C   UNL A   1      45.191  33.284  29.012  1.00  0.00     0.023 A 
ATOM     82  C   UNL A   1      46.030  33.490  30.120  1.00  0.00     0.031 A 
ATOM     83  C   UNL A   1      45.077  34.313  28.061  1.00  0.00     0.131 A 
ATOM     84  C   UNL A   1      46.700  34.715  30.265  1.00  0.00     0.055 A 
ATOM     85  C   UNL A   1      45.781  35.509  28.186  1.00  0.00     0.041 A 
ATOM     86  F   UNL A   1      44.287  34.162  26.984  1.00  0.00    -0.206 F 
ATOM     87  C   UNL A   1      46.593  35.718  29.297  1.00  0.00     0.022 A 
BRANCH  84  88
ATOM     88  S   UNL A   1      47.685  35.002  31.760  1.00  0.00     0.124 S 
ATOM     89  O   UNL A   1      48.562  33.834  31.773  1.00  0.00    -0.237 OA
ATOM     90  O   UNL A   1      48.330  36.279  31.473  1.00  0.00    -0.237 OA
ATOM     91  O   UNL A   1      46.686  35.040  32.827  1.00  0.00    -0.744 OA
ENDBRANCH  84  88
ENDBRANCH  58  81
ENDBRANCH  32  33
ENDBRANCH  25  27
ENDBRANCH  24  25
ENDBRANCH  23  24
ENDBRANCH   1  23
TORSDOF 18
ENDMDL
MODEL 3
REMARK VINA RESULT:     -11.6      4.598      9.973
REMARK SMILES C[C@H]1[C@H](C(=O)OCCOC(=O)c2ccc(-c3c4nc(c(-c5cc(S(=O)(=O)[O-])ccc5F)c5ccc([nH]5)c(-c5cc(S(=O)(=O)[O-])ccc5F)c5nc(c(-c6cc(S(=O)(=O)[O-])ccc6F)c6ccc3[nH]6)C=C5)C=C4)cc2)CCN1S(=O)(=O)N(C)Cc1ccccc1
REMARK SMILES IDX 7 1 6 2 4 3 5 4 3 5 1 6 2 7 77 8 75 9 76 10 78 11 79 12
REMARK SMILES IDX 80 13 81 14 82 15 83 16 84 17 85 18 89 19 86 20 88 21 87 22
REMARK SMILES IDX 8 23 9 24 10 25 11 26 12 27 13 28 74 29 14 30 73 31 15 32
REMARK SMILES IDX 16 33 17 34 67 35 18 36 72 37 66 38 68 39 19 40 71 41 65 42
REMARK SMILES IDX 64 43 20 45 52 46 32 47 51 48 33 49 36 50 50 51 69 52 34 53
REMARK SMILES IDX 35 54 49 56 70 57 37 58 21 59 22 60 30 61 23 62 29 63 31 64
REMARK SMILES IDX 28 65 24 66 25 67 26 68 27 69 53 70 54 71 62 72 55 73 61 74
REMARK SMILES IDX 63 75 60 76 56 77 57 78 58 79 59 80 38 81 39 82 47 83 40 84
REMARK SMILES IDX 46 85 48 86 45 87 41 88 42 89 43 90 44 91
REMARK H PARENT 68 44 36 55
REMARK Flexibility Score: inf
ROOT
ATOM      1  C   UNL A   1      34.980  20.318  25.039  1.00  0.00     0.274 C 
ENDROOT
BRANCH   1   2
ATOM      2  O   UNL A   1      33.798  20.814  24.384  1.00  0.00    -0.462 OA
BRANCH   2   3
ATOM      3  C   UNL A   1      32.620  20.720  25.042  1.00  0.00     0.310 C 
ATOM      4  O   UNL A   1      31.876  19.745  25.001  1.00  0.00    -0.252 OA
BRANCH   3   5
ATOM      5  C   UNL A   1      32.287  21.946  25.874  1.00  0.00     0.118 C 
ATOM      6  C   UNL A   1      33.878  23.751  26.665  1.00  0.00     0.027 C 
ATOM      7  C   UNL A   1      33.034  23.238  25.490  1.00  0.00     0.085 C 
ATOM      8  N   UNL A   1      31.976  24.274  25.186  1.00  0.00    -0.185 NA
ATOM      9  C   UNL A   1      30.806  22.285  25.803  1.00  0.00     0.034 C 
ATOM     10  C   UNL A   1      30.775  23.797  25.941  1.00  0.00     0.105 C 
BRANCH   8  11
ATOM     11  S   UNL A   1      31.634  24.530  23.537  1.00  0.00     0.282 S 
ATOM     12  O   UNL A   1      32.664  23.851  22.788  1.00  0.00    -0.195 OA
ATOM     13  O   UNL A   1      30.245  24.182  23.320  1.00  0.00    -0.195 OA
BRANCH  11  14
ATOM     14  N   UNL A   1      31.746  26.174  23.279  1.00  0.00    -0.188 NA
ATOM     15  C   UNL A   1      32.397  26.792  22.131  1.00  0.00     0.126 C 
BRANCH  14  16
ATOM     16  C   UNL A   1      30.726  27.004  23.954  1.00  0.00     0.138 C 
BRANCH  16  17
ATOM     17  C   UNL A   1      31.190  27.956  25.041  1.00  0.00    -0.033 A 
ATOM     18  C   UNL A   1      31.495  29.304  24.801  1.00  0.00     0.005 A 
ATOM     19  C   UNL A   1      31.361  27.463  26.345  1.00  0.00     0.005 A 
ATOM     20  C   UNL A   1      31.916  30.141  25.836  1.00  0.00     0.000 A 
ATOM     21  C   UNL A   1      31.788  28.299  27.380  1.00  0.00     0.000 A 
ATOM     22  C   UNL A   1      32.060  29.640  27.126  1.00  0.00     0.000 A 
ENDBRANCH  16  17
ENDBRANCH  14  16
ENDBRANCH  11  14
ENDBRANCH   8  11
ENDBRANCH   3   5
ENDBRANCH   2   3
ENDBRANCH   1   2
BRANCH   1  23
ATOM     23  C   UNL A   1      36.187  21.171  24.646  1.00  0.00     0.275 C 
BRANCH  23  24
ATOM     24  O   UNL A   1      36.914  21.587  25.815  1.00  0.00    -0.458 OA
BRANCH  24  25
ATOM     25  C   UNL A   1      38.210  21.200  25.857  1.00  0.00     0.338 C 
ATOM     26  O   UNL A   1      38.675  20.125  25.523  1.00  0.00    -0.246 OA
BRANCH  25  27
ATOM     27  C   UNL A   1      39.034  22.353  26.242  1.00  0.00     0.060 A 
ATOM     28  C   UNL A   1      40.157  22.127  27.043  1.00  0.00     0.016 A 
ATOM     29  C   UNL A   1      38.669  23.645  25.875  1.00  0.00     0.016 A 
ATOM     30  C   UNL A   1      40.913  23.198  27.508  1.00  0.00     0.010 A 
ATOM     31  C   UNL A   1      39.444  24.719  26.320  1.00  0.00     0.010 A 
ATOM     32  C   UNL A   1      40.563  24.502  27.147  1.00  0.00    -0.014 A 
BRANCH  32  33
ATOM     33  C   UNL A   1      41.331  25.657  27.665  1.00  0.00     0.031 A 
ATOM     34  C   UNL A   1      40.621  26.707  28.468  1.00  0.00     0.074 A 
ATOM     35  C   UNL A   1      42.643  25.773  27.390  1.00  0.00     0.049 A 
ATOM     36  N   UNL A   1      41.026  27.898  28.817  1.00  0.00    -0.248 NA
ATOM     37  C   UNL A   1      39.266  26.366  28.926  1.00  0.00     0.031 C 
ATOM     38  C   UNL A   1      43.450  24.774  26.687  1.00  0.00     0.029 A 
ATOM     39  N   UNL A   1      43.523  26.794  27.645  1.00  0.00    -0.354 N 
ATOM     40  C   UNL A   1      39.964  28.469  29.510  1.00  0.00     0.074 A 
ATOM     41  C   UNL A   1      38.894  27.493  29.518  1.00  0.00     0.031 C 
ATOM     42  C   UNL A   1      44.701  25.240  26.551  1.00  0.00     0.029 A 
ATOM     43  C   UNL A   1      44.763  26.597  27.086  1.00  0.00     0.049 A 
ATOM     44  H   UNL A   1      43.288  27.589  28.177  1.00  0.00     0.167 HD
ATOM     45  C   UNL A   1      39.895  29.699  30.076  1.00  0.00     0.034 A 
ATOM     46  C   UNL A   1      45.810  27.439  26.966  1.00  0.00     0.034 A 
ATOM     47  C   UNL A   1      40.982  30.648  30.050  1.00  0.00     0.049 A 
ATOM     48  C   UNL A   1      45.680  28.835  27.518  1.00  0.00     0.074 A 
ATOM     49  C   UNL A   1      41.028  31.924  30.581  1.00  0.00     0.029 A 
ATOM     50  N   UNL A   1      42.217  30.421  29.455  1.00  0.00    -0.354 N 
ATOM     51  N   UNL A   1      44.656  29.389  28.125  1.00  0.00    -0.248 NA
ATOM     52  C   UNL A   1      46.841  29.722  27.365  1.00  0.00     0.031 C 
ATOM     53  C   UNL A   1      42.265  32.490  30.255  1.00  0.00     0.029 A 
ATOM     54  C   UNL A   1      43.021  31.541  29.584  1.00  0.00     0.049 A 
ATOM     55  H   UNL A   1      42.482  29.586  29.006  1.00  0.00     0.167 HD
ATOM     56  C   UNL A   1      45.063  30.679  28.456  1.00  0.00     0.074 A 
ATOM     57  C   UNL A   1      46.424  30.820  27.980  1.00  0.00     0.031 C 
ATOM     58  C   UNL A   1      44.379  31.655  29.105  1.00  0.00     0.034 A 
BRANCH  45  59
ATOM     59  C   UNL A   1      38.582  30.103  30.698  1.00  0.00     0.023 A 
ATOM     60  C   UNL A   1      37.583  30.766  29.966  1.00  0.00     0.031 A 
ATOM     61  C   UNL A   1      38.343  29.854  32.061  1.00  0.00     0.131 A 
ATOM     62  C   UNL A   1      36.425  31.221  30.616  1.00  0.00     0.055 A 
ATOM     63  C   UNL A   1      37.155  30.240  32.685  1.00  0.00     0.041 A 
ATOM     64  F   UNL A   1      39.271  29.247  32.819  1.00  0.00    -0.206 F 
ATOM     65  C   UNL A   1      36.194  30.942  31.965  1.00  0.00     0.022 A 
BRANCH  62  66
ATOM     66  S   UNL A   1      35.294  32.312  29.709  1.00  0.00     0.124 S 
ATOM     67  O   UNL A   1      34.365  32.716  30.761  1.00  0.00    -0.237 OA
ATOM     68  O   UNL A   1      36.189  33.352  29.212  1.00  0.00    -0.237 OA
ATOM     69  O   UNL A   1      34.724  31.439  28.685  1.00  0.00    -0.744 OA
ENDBRANCH  62  66
ENDBRANCH  45  59
BRANCH  46  70
ATOM     70  C   UNL A   1      47.037  27.013  26.234  1.00  0.00     0.023 A 
ATOM     71  C   UNL A   1      48.088  26.363  26.897  1.00  0.00     0.031 A 
ATOM     72  C   UNL A   1      47.187  27.279  24.860  1.00  0.00     0.131 A 
ATOM     73  C   UNL A   1      49.259  26.034  26.195  1.00  0.00     0.055 A 
ATOM     74  C   UNL A   1      48.332  26.902  24.155  1.00  0.00     0.041 A 
ATOM     75  F   UNL A   1      46.212  27.899  24.177  1.00  0.00    -0.206 F 
ATOM     76  C   UNL A   1      49.381  26.285  24.827  1.00  0.00     0.022 A 
BRANCH  73  77
ATOM     77  S   UNL A   1      50.657  25.339  27.118  1.00  0.00     0.124 S 
ATOM     78  O   UNL A   1      51.072  26.478  27.929  1.00  0.00    -0.237 OA
ATOM     79  O   UNL A   1      50.028  24.236  27.836  1.00  0.00    -0.237 OA
ATOM     80  O   UNL A   1      51.594  24.944  26.069  1.00  0.00    -0.744 OA
ENDBRANCH  73  77
ENDBRANCH  46  70
BRANCH  58  81
ATOM     81  C   UNL A   1      45.119  32.932  29.401  1.00  0.00     0.023 A 
ATOM     82  C   UNL A   1      45.125  34.014  28.504  1.00  0.00     0.031 A 
ATOM     83  C   UNL A   1      45.807  33.072  30.619  1.00  0.00     0.131 A 
ATOM     84  C   UNL A   1      45.835  35.181  28.828  1.00  0.00     0.055 A 
ATOM     85  C   UNL A   1      46.472  34.250  30.956  1.00  0.00     0.041 A 
ATOM     86  F   UNL A   1      45.830  32.065  31.509  1.00  0.00    -0.206 F 
ATOM     87  C   UNL A   1      46.494  35.310  30.055  1.00  0.00     0.022 A 
BRANCH  84  88
ATOM     88  S   UNL A   1      45.924  36.518  27.607  1.00  0.00     0.124 S 
ATOM     89  O   UNL A   1      46.966  37.372  28.169  1.00  0.00    -0.237 OA
ATOM     90  O   UNL A   1      46.277  35.804  26.384  1.00  0.00    -0.237 OA
ATOM     91  O   UNL A   1      44.578  37.088  27.623  1.00  0.00    -0.744 OA
ENDBRANCH  84  88
ENDBRANCH  58  81
ENDBRANCH  32  33
ENDBRANCH  25  27
ENDBRANCH  24  25
ENDBRANCH  23  24
ENDBRANCH   1  23
TORSDOF 18
ENDMDL
