MODEL 1
REMARK VINA RESULT:     -11.9      0.000      0.000
REMARK SMILES O=C(OCCOC(=O)[C@@H]1O[C@H](OC(=O)c2cccnc2)[C@@H](O)[C@H](O)[C@H]1O)c1ccc(-c2c3nc(c(-c4cc(S(=O)(=O)[O-])ccc4F)c4ccc([nH]4)c(-c4cc(S(=O)(=O)[O-])ccc4F)c4nc(c(-c5cc(S(=O)(=O)[O-])ccc5F)c5ccc2[nH]5)C=C4)C=C3)cc1
REMARK SMILES IDX 4 1 3 2 2 3 1 4 27 5 28 6 89 7 29 8 88 9 30 10 31 11 32 12
REMARK SMILES IDX 82 13 33 14 87 15 81 16 83 17 34 18 86 19 80 20 79 21 35 23
REMARK SMILES IDX 67 24 47 25 66 26 48 27 51 28 65 29 84 30 49 31 50 32 64 34
REMARK SMILES IDX 85 35 52 36 36 37 37 38 45 39 38 40 44 41 46 42 43 43 39 44
REMARK SMILES IDX 40 45 41 46 42 47 68 48 69 49 77 50 70 51 76 52 78 53 75 54
REMARK SMILES IDX 71 55 72 56 73 57 74 58 53 59 54 60 62 61 55 62 61 63 63 64
REMARK SMILES IDX 60 65 56 66 57 67 58 68 59 69 5 70 6 71 7 72 8 73 9 74 10 75
REMARK SMILES IDX 25 76 11 77 23 78 21 79 26 80 12 82 13 83 14 84 15 85 16 86
REMARK SMILES IDX 20 87 17 88 19 89 18 90 24 91 22 93
REMARK H PARENT 83 22 51 33 26 81 24 92 22 94
REMARK Flexibility Score: inf
ROOT
ATOM      1  C   UNL A   1      32.915  29.628  26.219  1.00  0.00     0.275 C 
ENDROOT
BRANCH   1   2
ATOM      2  O   UNL A   1      33.085  30.819  27.015  1.00  0.00    -0.458 OA
BRANCH   2   3
ATOM      3  C   UNL A   1      34.157  31.283  27.707  1.00  0.00     0.338 C 
ATOM      4  O   UNL A   1      34.096  32.446  28.112  1.00  0.00    -0.246 OA
BRANCH   3   5
ATOM      5  C   UNL A   1      35.428  30.517  28.003  1.00  0.00     0.060 A 
ATOM      6  C   UNL A   1      36.565  30.402  27.200  1.00  0.00     0.016 A 
ATOM      7  C   UNL A   1      35.492  29.872  29.257  1.00  0.00     0.016 A 
ATOM      8  C   UNL A   1      37.775  29.835  27.698  1.00  0.00     0.010 A 
ATOM      9  C   UNL A   1      36.688  29.297  29.742  1.00  0.00     0.010 A 
ATOM     10  C   UNL A   1      37.891  29.362  29.015  1.00  0.00    -0.014 A 
BRANCH  10  11
ATOM     11  C   UNL A   1      39.158  28.707  29.539  1.00  0.00     0.031 A 
ATOM     12  C   UNL A   1      39.708  29.346  30.776  1.00  0.00     0.074 A 
ATOM     13  C   UNL A   1      39.836  27.633  29.037  1.00  0.00     0.049 A 
ATOM     14  N   UNL A   1      40.726  28.979  31.501  1.00  0.00    -0.248 NA
ATOM     15  C   UNL A   1      38.999  30.538  31.269  1.00  0.00     0.031 C 
ATOM     16  C   UNL A   1      39.455  26.837  27.901  1.00  0.00     0.029 A 
ATOM     17  N   UNL A   1      41.021  26.999  29.380  1.00  0.00    -0.354 N 
ATOM     18  C   UNL A   1      40.738  29.853  32.573  1.00  0.00     0.074 A 
ATOM     19  C   UNL A   1      39.688  30.822  32.358  1.00  0.00     0.031 C 
ATOM     20  C   UNL A   1      40.310  25.868  27.596  1.00  0.00     0.029 A 
ATOM     21  C   UNL A   1      41.389  25.959  28.526  1.00  0.00     0.049 A 
ATOM     22  H   UNL A   1      41.557  27.260  30.164  1.00  0.00     0.167 HD
ATOM     23  C   UNL A   1      41.541  29.826  33.659  1.00  0.00     0.034 A 
ATOM     24  C   UNL A   1      42.450  25.134  28.439  1.00  0.00     0.034 A 
ATOM     25  C   UNL A   1      42.653  28.926  33.794  1.00  0.00     0.049 A 
ATOM     26  C   UNL A   1      43.419  25.229  29.556  1.00  0.00     0.074 A 
ATOM     27  C   UNL A   1      43.596  28.871  34.800  1.00  0.00     0.029 A 
ATOM     28  N   UNL A   1      43.004  27.950  32.863  1.00  0.00    -0.354 N 
ATOM     29  N   UNL A   1      43.372  26.047  30.580  1.00  0.00    -0.248 NA
ATOM     30  C   UNL A   1      44.534  24.286  29.555  1.00  0.00     0.031 C 
ATOM     31  C   UNL A   1      44.562  27.926  34.439  1.00  0.00     0.029 A 
ATOM     32  C   UNL A   1      44.177  27.324  33.250  1.00  0.00     0.049 A 
ATOM     33  H   UNL A   1      42.492  27.736  32.050  1.00  0.00     0.167 HD
ATOM     34  C   UNL A   1      44.439  25.694  31.377  1.00  0.00     0.074 A 
ATOM     35  C   UNL A   1      45.095  24.574  30.719  1.00  0.00     0.031 C 
ATOM     36  C   UNL A   1      44.832  26.247  32.550  1.00  0.00     0.034 A 
BRANCH  23  37
ATOM     37  C   UNL A   1      41.262  30.883  34.692  1.00  0.00     0.023 A 
ATOM     38  C   UNL A   1      40.186  30.755  35.593  1.00  0.00     0.031 A 
ATOM     39  C   UNL A   1      41.961  32.098  34.660  1.00  0.00     0.131 A 
ATOM     40  C   UNL A   1      39.778  31.862  36.348  1.00  0.00     0.055 A 
ATOM     41  C   UNL A   1      41.608  33.165  35.485  1.00  0.00     0.041 A 
ATOM     42  F   UNL A   1      42.959  32.288  33.782  1.00  0.00    -0.206 F 
ATOM     43  C   UNL A   1      40.499  33.058  36.320  1.00  0.00     0.022 A 
BRANCH  40  44
ATOM     44  S   UNL A   1      38.181  31.786  37.209  1.00  0.00     0.124 S 
ATOM     45  O   UNL A   1      37.418  32.812  36.501  1.00  0.00    -0.237 OA
ATOM     46  O   UNL A   1      37.761  30.408  36.981  1.00  0.00    -0.237 OA
ATOM     47  O   UNL A   1      38.522  32.113  38.591  1.00  0.00    -0.744 OA
ENDBRANCH  40  44
ENDBRANCH  23  37
BRANCH  24  48
ATOM     48  C   UNL A   1      42.605  24.157  27.303  1.00  0.00     0.023 A 
ATOM     49  C   UNL A   1      42.034  22.872  27.338  1.00  0.00     0.031 A 
ATOM     50  C   UNL A   1      43.313  24.516  26.135  1.00  0.00     0.131 A 
ATOM     51  C   UNL A   1      42.202  21.991  26.252  1.00  0.00     0.055 A 
ATOM     52  C   UNL A   1      43.437  23.654  25.040  1.00  0.00     0.041 A 
ATOM     53  F   UNL A   1      43.866  25.735  26.025  1.00  0.00    -0.206 F 
ATOM     54  C   UNL A   1      42.888  22.378  25.100  1.00  0.00     0.022 A 
BRANCH  51  55
ATOM     55  S   UNL A   1      41.568  20.293  26.388  1.00  0.00     0.124 S 
ATOM     56  O   UNL A   1      42.307  19.611  25.332  1.00  0.00    -0.237 OA
ATOM     57  O   UNL A   1      41.935  19.946  27.757  1.00  0.00    -0.237 OA
ATOM     58  O   UNL A   1      40.135  20.443  26.147  1.00  0.00    -0.744 OA
ENDBRANCH  51  55
ENDBRANCH  24  48
BRANCH  36  59
ATOM     59  C   UNL A   1      46.044  25.624  33.169  1.00  0.00     0.023 A 
ATOM     60  C   UNL A   1      45.917  24.565  34.082  1.00  0.00     0.031 A 
ATOM     61  C   UNL A   1      47.320  26.140  32.900  1.00  0.00     0.131 A 
ATOM     62  C   UNL A   1      47.047  24.113  34.768  1.00  0.00     0.055 A 
ATOM     63  C   UNL A   1      48.453  25.624  33.522  1.00  0.00     0.041 A 
ATOM     64  F   UNL A   1      47.478  27.163  32.046  1.00  0.00    -0.206 F 
ATOM     65  C   UNL A   1      48.318  24.618  34.477  1.00  0.00     0.022 A 
BRANCH  62  66
ATOM     66  S   UNL A   1      46.802  22.965  36.145  1.00  0.00     0.124 S 
ATOM     67  O   UNL A   1      46.448  23.872  37.231  1.00  0.00    -0.237 OA
ATOM     68  O   UNL A   1      45.726  22.110  35.653  1.00  0.00    -0.237 OA
ATOM     69  O   UNL A   1      48.103  22.311  36.277  1.00  0.00    -0.744 OA
ENDBRANCH  62  66
ENDBRANCH  36  59
ENDBRANCH  10  11
ENDBRANCH   3   5
ENDBRANCH   2   3
ENDBRANCH   1   2
BRANCH   1  70
ATOM     70  C   UNL A   1      31.803  28.691  26.703  1.00  0.00     0.274 C 
BRANCH  70  71
ATOM     71  O   UNL A   1      32.287  27.350  26.764  1.00  0.00    -0.460 OA
BRANCH  71  72
ATOM     72  C   UNL A   1      31.516  26.282  26.329  1.00  0.00     0.338 C 
ATOM     73  O   UNL A   1      31.434  25.183  26.859  1.00  0.00    -0.249 OA
BRANCH  72  74
ATOM     74  C   UNL A   1      30.822  26.797  25.037  1.00  0.00     0.263 C 
ATOM     75  O   UNL A   1      29.579  26.941  24.375  1.00  0.00    -0.322 OA
ATOM     76  C   UNL A   1      31.722  26.222  23.934  1.00  0.00     0.186 C 
ATOM     77  C   UNL A   1      29.682  28.003  23.358  1.00  0.00     0.343 C 
ATOM     78  C   UNL A   1      32.212  27.502  23.318  1.00  0.00     0.181 C 
ATOM     79  C   UNL A   1      31.009  28.046  22.481  1.00  0.00     0.214 C 
BRANCH  76  80
ATOM     80  O   UNL A   1      32.833  25.387  24.290  1.00  0.00    -0.387 OA
ATOM     81  H   UNL A   1      33.390  25.848  24.937  1.00  0.00     0.211 HD
ENDBRANCH  76  80
BRANCH  77  82
ATOM     82  O   UNL A   1      28.520  28.111  22.502  1.00  0.00    -0.429 OA
BRANCH  82  83
ATOM     83  C   UNL A   1      27.535  28.916  22.956  1.00  0.00     0.342 C 
ATOM     84  O   UNL A   1      26.555  28.581  23.596  1.00  0.00    -0.246 OA
BRANCH  83  85
ATOM     85  C   UNL A   1      27.818  30.316  22.613  1.00  0.00     0.078 A 
ATOM     86  C   UNL A   1      27.974  31.339  23.548  1.00  0.00     0.019 A 
ATOM     87  C   UNL A   1      27.993  30.610  21.270  1.00  0.00     0.126 A 
ATOM     88  C   UNL A   1      28.282  32.623  23.091  1.00  0.00     0.021 A 
ATOM     89  N   UNL A   1      28.263  31.851  20.799  1.00  0.00    -0.264 NA
ATOM     90  C   UNL A   1      28.408  32.826  21.723  1.00  0.00     0.111 A 
ENDBRANCH  83  85
ENDBRANCH  82  83
ENDBRANCH  77  82
BRANCH  78  91
ATOM     91  O   UNL A   1      33.521  27.181  22.845  1.00  0.00    -0.387 OA
ATOM     92  H   UNL A   1      34.050  26.824  23.576  1.00  0.00     0.211 HD
ENDBRANCH  78  91
BRANCH  79  93
ATOM     93  O   UNL A   1      31.125  29.410  22.052  1.00  0.00    -0.384 OA
ATOM     94  H   UNL A   1      31.437  29.956  22.790  1.00  0.00     0.211 HD
ENDBRANCH  79  93
ENDBRANCH  72  74
ENDBRANCH  71  72
ENDBRANCH  70  71
ENDBRANCH   1  70
TORSDOF 20
ENDMDL
MODEL 2
REMARK VINA RESULT:     -11.7      1.804      2.463
REMARK SMILES O=C(OCCOC(=O)[C@@H]1O[C@H](OC(=O)c2cccnc2)[C@@H](O)[C@H](O)[C@H]1O)c1ccc(-c2c3nc(c(-c4cc(S(=O)(=O)[O-])ccc4F)c4ccc([nH]4)c(-c4cc(S(=O)(=O)[O-])ccc4F)c4nc(c(-c5cc(S(=O)(=O)[O-])ccc5F)c5ccc2[nH]5)C=C4)C=C3)cc1
REMARK SMILES IDX 4 1 3 2 2 3 1 4 27 5 28 6 89 7 29 8 88 9 30 10 31 11 32 12
REMARK SMILES IDX 82 13 33 14 87 15 81 16 83 17 34 18 86 19 80 20 79 21 35 23
REMARK SMILES IDX 67 24 47 25 66 26 48 27 51 28 65 29 84 30 49 31 50 32 64 34
REMARK SMILES IDX 85 35 52 36 36 37 37 38 45 39 38 40 44 41 46 42 43 43 39 44
REMARK SMILES IDX 40 45 41 46 42 47 68 48 69 49 77 50 70 51 76 52 78 53 75 54
REMARK SMILES IDX 71 55 72 56 73 57 74 58 53 59 54 60 62 61 55 62 61 63 63 64
REMARK SMILES IDX 60 65 56 66 57 67 58 68 59 69 5 70 6 71 7 72 8 73 9 74 10 75
REMARK SMILES IDX 25 76 11 77 23 78 21 79 26 80 12 82 13 83 14 84 15 85 16 86
REMARK SMILES IDX 20 87 17 88 19 89 18 90 24 91 22 93
REMARK H PARENT 83 22 51 33 26 81 24 92 22 94
REMARK Flexibility Score: inf
ROOT
ATOM      1  C   UNL A   1      31.850  32.821  26.563  1.00  0.00     0.275 C 
ENDROOT
BRANCH   1   2
ATOM      2  O   UNL A   1      32.386  33.237  27.837  1.00  0.00    -0.458 OA
BRANCH   2   3
ATOM      3  C   UNL A   1      33.573  33.810  28.159  1.00  0.00     0.338 C 
ATOM      4  O   UNL A   1      33.611  35.043  28.164  1.00  0.00    -0.246 OA
BRANCH   3   5
ATOM      5  C   UNL A   1      34.859  33.080  28.484  1.00  0.00     0.060 A 
ATOM      6  C   UNL A   1      36.166  33.474  28.185  1.00  0.00     0.016 A 
ATOM      7  C   UNL A   1      34.728  31.877  29.208  1.00  0.00     0.016 A 
ATOM      8  C   UNL A   1      37.292  32.803  28.745  1.00  0.00     0.010 A 
ATOM      9  C   UNL A   1      35.847  31.204  29.749  1.00  0.00     0.010 A 
ATOM     10  C   UNL A   1      37.152  31.714  29.621  1.00  0.00    -0.014 A 
BRANCH  10  11
ATOM     11  C   UNL A   1      38.346  30.958  30.180  1.00  0.00     0.031 A 
ATOM     12  C   UNL A   1      38.749  31.387  31.556  1.00  0.00     0.074 A 
ATOM     13  C   UNL A   1      39.075  29.960  29.599  1.00  0.00     0.049 A 
ATOM     14  N   UNL A   1      39.673  30.890  32.329  1.00  0.00    -0.248 NA
ATOM     15  C   UNL A   1      37.992  32.504  32.143  1.00  0.00     0.031 C 
ATOM     16  C   UNL A   1      38.827  29.356  28.317  1.00  0.00     0.029 A 
ATOM     17  N   UNL A   1      40.207  29.254  29.975  1.00  0.00    -0.354 N 
ATOM     18  C   UNL A   1      39.562  31.588  33.518  1.00  0.00     0.074 A 
ATOM     19  C   UNL A   1      38.549  32.601  33.335  1.00  0.00     0.031 C 
ATOM     20  C   UNL A   1      39.708  28.427  27.966  1.00  0.00     0.029 A 
ATOM     21  C   UNL A   1      40.670  28.350  29.018  1.00  0.00     0.049 A 
ATOM     22  H   UNL A   1      40.648  29.379  30.846  1.00  0.00     0.167 HD
ATOM     23  C   UNL A   1      40.231  31.376  34.672  1.00  0.00     0.034 A 
ATOM     24  C   UNL A   1      41.730  27.524  28.927  1.00  0.00     0.034 A 
ATOM     25  C   UNL A   1      41.316  30.441  34.794  1.00  0.00     0.049 A 
ATOM     26  C   UNL A   1      42.561  27.425  30.151  1.00  0.00     0.074 A 
ATOM     27  C   UNL A   1      42.132  30.211  35.882  1.00  0.00     0.029 A 
ATOM     28  N   UNL A   1      41.769  29.612  33.769  1.00  0.00    -0.354 N 
ATOM     29  N   UNL A   1      42.397  28.076  31.277  1.00  0.00    -0.248 NA
ATOM     30  C   UNL A   1      43.664  26.468  30.132  1.00  0.00     0.031 C 
ATOM     31  C   UNL A   1      43.131  29.312  35.492  1.00  0.00     0.029 A 
ATOM     32  C   UNL A   1      42.886  28.908  34.187  1.00  0.00     0.049 A 
ATOM     33  H   UNL A   1      41.356  29.538  32.879  1.00  0.00     0.167 HD
ATOM     34  C   UNL A   1      43.361  27.580  32.128  1.00  0.00     0.074 A 
ATOM     35  C   UNL A   1      44.085  26.561  31.384  1.00  0.00     0.031 C 
ATOM     36  C   UNL A   1      43.615  27.937  33.410  1.00  0.00     0.034 A 
BRANCH  23  37
ATOM     37  C   UNL A   1      39.836  32.267  35.817  1.00  0.00     0.023 A 
ATOM     38  C   UNL A   1      38.978  31.807  36.837  1.00  0.00     0.031 A 
ATOM     39  C   UNL A   1      40.174  33.628  35.797  1.00  0.00     0.131 A 
ATOM     40  C   UNL A   1      38.406  32.723  37.728  1.00  0.00     0.055 A 
ATOM     41  C   UNL A   1      39.675  34.518  36.747  1.00  0.00     0.041 A 
ATOM     42  F   UNL A   1      40.944  34.125  34.816  1.00  0.00    -0.206 F 
ATOM     43  C   UNL A   1      38.771  34.072  37.707  1.00  0.00     0.022 A 
BRANCH  40  44
ATOM     44  S   UNL A   1      37.033  32.172  38.780  1.00  0.00     0.124 S 
ATOM     45  O   UNL A   1      37.479  32.613  40.099  1.00  0.00    -0.237 OA
ATOM     46  O   UNL A   1      35.894  32.891  38.219  1.00  0.00    -0.237 OA
ATOM     47  O   UNL A   1      37.013  30.724  38.586  1.00  0.00    -0.744 OA
ENDBRANCH  40  44
ENDBRANCH  23  37
BRANCH  24  48
ATOM     48  C   UNL A   1      42.015  26.730  27.679  1.00  0.00     0.023 A 
ATOM     49  C   UNL A   1      41.777  25.347  27.602  1.00  0.00     0.031 A 
ATOM     50  C   UNL A   1      42.506  27.365  26.517  1.00  0.00     0.131 A 
ATOM     51  C   UNL A   1      42.055  24.644  26.413  1.00  0.00     0.055 A 
ATOM     52  C   UNL A   1      42.737  26.670  25.325  1.00  0.00     0.041 A 
ATOM     53  F   UNL A   1      42.736  28.688  26.514  1.00  0.00    -0.206 F 
ATOM     54  C   UNL A   1      42.521  25.298  25.272  1.00  0.00     0.022 A 
BRANCH  51  55
ATOM     55  S   UNL A   1      41.865  22.835  26.393  1.00  0.00     0.124 S 
ATOM     56  O   UNL A   1      42.407  22.491  25.084  1.00  0.00    -0.237 OA
ATOM     57  O   UNL A   1      42.667  22.438  27.546  1.00  0.00    -0.237 OA
ATOM     58  O   UNL A   1      40.425  22.641  26.542  1.00  0.00    -0.744 OA
ENDBRANCH  51  55
ENDBRANCH  24  48
BRANCH  36  59
ATOM     59  C   UNL A   1      44.742  27.199  34.061  1.00  0.00     0.023 A 
ATOM     60  C   UNL A   1      44.507  26.008  34.765  1.00  0.00     0.031 A 
ATOM     61  C   UNL A   1      46.040  27.729  34.038  1.00  0.00     0.131 A 
ATOM     62  C   UNL A   1      45.544  25.429  35.499  1.00  0.00     0.055 A 
ATOM     63  C   UNL A   1      47.089  27.098  34.700  1.00  0.00     0.041 A 
ATOM     64  F   UNL A   1      46.301  28.876  33.390  1.00  0.00    -0.206 F 
ATOM     65  C   UNL A   1      46.840  25.951  35.452  1.00  0.00     0.022 A 
BRANCH  62  66
ATOM     66  S   UNL A   1      45.134  24.075  36.627  1.00  0.00     0.124 S 
ATOM     67  O   UNL A   1      44.268  23.246  35.795  1.00  0.00    -0.237 OA
ATOM     68  O   UNL A   1      46.446  23.515  36.936  1.00  0.00    -0.237 OA
ATOM     69  O   UNL A   1      44.469  24.750  37.741  1.00  0.00    -0.744 OA
ENDBRANCH  62  66
ENDBRANCH  36  59
ENDBRANCH  10  11
ENDBRANCH   3   5
ENDBRANCH   2   3
ENDBRANCH   1   2
BRANCH   1  70
ATOM     70  C   UNL A   1      31.395  31.358  26.509  1.00  0.00     0.274 C 
BRANCH  70  71
ATOM     71  O   UNL A   1      32.469  30.500  26.894  1.00  0.00    -0.460 OA
BRANCH  71  72
ATOM     72  C   UNL A   1      32.341  29.119  26.855  1.00  0.00     0.338 C 
ATOM     73  O   UNL A   1      32.726  28.331  27.707  1.00  0.00    -0.249 OA
BRANCH  72  74
ATOM     74  C   UNL A   1      31.633  28.827  25.503  1.00  0.00     0.263 C 
ATOM     75  O   UNL A   1      30.456  28.318  24.904  1.00  0.00    -0.322 OA
ATOM     76  C   UNL A   1      32.742  28.133  24.699  1.00  0.00     0.186 C 
ATOM     77  C   UNL A   1      30.333  28.841  23.532  1.00  0.00     0.343 C 
ATOM     78  C   UNL A   1      32.897  29.122  23.579  1.00  0.00     0.181 C 
ATOM     79  C   UNL A   1      31.659  28.897  22.653  1.00  0.00     0.214 C 
BRANCH  76  80
ATOM     80  O   UNL A   1      34.012  27.881  25.317  1.00  0.00    -0.387 OA
ATOM     81  H   UNL A   1      34.486  27.199  24.816  1.00  0.00     0.211 HD
ENDBRANCH  76  80
BRANCH  77  82
ATOM     82  O   UNL A   1      29.259  28.244  22.768  1.00  0.00    -0.429 OA
BRANCH  82  83
ATOM     83  C   UNL A   1      28.047  28.821  22.919  1.00  0.00     0.342 C 
ATOM     84  O   UNL A   1      27.065  28.330  23.445  1.00  0.00    -0.246 OA
BRANCH  83  85
ATOM     85  C   UNL A   1      28.062  30.192  22.391  1.00  0.00     0.078 A 
ATOM     86  C   UNL A   1      28.117  30.512  21.034  1.00  0.00     0.019 A 
ATOM     87  C   UNL A   1      27.957  31.221  23.313  1.00  0.00     0.126 A 
ATOM     88  C   UNL A   1      28.083  31.858  20.662  1.00  0.00     0.021 A 
ATOM     89  N   UNL A   1      27.951  32.534  22.980  1.00  0.00    -0.264 NA
ATOM     90  C   UNL A   1      28.008  32.820  21.661  1.00  0.00     0.111 A 
ENDBRANCH  83  85
ENDBRANCH  82  83
ENDBRANCH  77  82
BRANCH  78  91
ATOM     91  O   UNL A   1      34.277  29.027  23.220  1.00  0.00    -0.387 OA
ATOM     92  H   UNL A   1      34.397  29.343  22.311  1.00  0.00     0.211 HD
ENDBRANCH  78  91
BRANCH  79  93
ATOM     93  O   UNL A   1      31.418  29.929  21.685  1.00  0.00    -0.384 OA
ATOM     94  H   UNL A   1      31.276  29.529  20.813  1.00  0.00     0.211 HD
ENDBRANCH  79  93
ENDBRANCH  72  74
ENDBRANCH  71  72
ENDBRANCH  70  71
ENDBRANCH   1  70
TORSDOF 20
ENDMDL
MODEL 3
REMARK VINA RESULT:     -11.5      5.280     10.230
REMARK SMILES O=C(OCCOC(=O)[C@@H]1O[C@H](OC(=O)c2cccnc2)[C@@H](O)[C@H](O)[C@H]1O)c1ccc(-c2c3nc(c(-c4cc(S(=O)(=O)[O-])ccc4F)c4ccc([nH]4)c(-c4cc(S(=O)(=O)[O-])ccc4F)c4nc(c(-c5cc(S(=O)(=O)[O-])ccc5F)c5ccc2[nH]5)C=C4)C=C3)cc1
REMARK SMILES IDX 4 1 3 2 2 3 1 4 27 5 28 6 89 7 29 8 88 9 30 10 31 11 32 12
REMARK SMILES IDX 82 13 33 14 87 15 81 16 83 17 34 18 86 19 80 20 79 21 35 23
REMARK SMILES IDX 67 24 47 25 66 26 48 27 51 28 65 29 84 30 49 31 50 32 64 34
REMARK SMILES IDX 85 35 52 36 36 37 37 38 45 39 38 40 44 41 46 42 43 43 39 44
REMARK SMILES IDX 40 45 41 46 42 47 68 48 69 49 77 50 70 51 76 52 78 53 75 54
REMARK SMILES IDX 71 55 72 56 73 57 74 58 53 59 54 60 62 61 55 62 61 63 63 64
REMARK SMILES IDX 60 65 56 66 57 67 58 68 59 69 5 70 6 71 7 72 8 73 9 74 10 75
REMARK SMILES IDX 25 76 11 77 23 78 21 79 26 80 12 82 13 83 14 84 15 85 16 86
REMARK SMILES IDX 20 87 17 88 19 89 18 90 24 91 22 93
REMARK H PARENT 83 22 51 33 26 81 24 92 22 94
REMARK Flexibility Score: inf
ROOT
ATOM      1  C   UNL A   1      36.878  22.535  25.463  1.00  0.00     0.275 C 
ENDROOT
BRANCH   1   2
ATOM      2  O   UNL A   1      38.152  21.948  25.802  1.00  0.00    -0.458 OA
BRANCH   2   3
ATOM      3  C   UNL A   1      39.210  22.450  26.488  1.00  0.00     0.338 C 
ATOM      4  O   UNL A   1      40.139  21.674  26.724  1.00  0.00    -0.246 OA
BRANCH   3   5
ATOM      5  C   UNL A   1      39.343  23.862  27.017  1.00  0.00     0.060 A 
ATOM      6  C   UNL A   1      39.146  24.309  28.326  1.00  0.00     0.016 A 
ATOM      7  C   UNL A   1      39.752  24.841  26.087  1.00  0.00     0.016 A 
ATOM      8  C   UNL A   1      39.522  25.624  28.728  1.00  0.00     0.010 A 
ATOM      9  C   UNL A   1      40.109  26.149  26.485  1.00  0.00     0.010 A 
ATOM     10  C   UNL A   1      40.105  26.539  27.837  1.00  0.00    -0.014 A 
BRANCH  10  11
ATOM     11  C   UNL A   1      40.460  27.960  28.243  1.00  0.00     0.031 A 
ATOM     12  C   UNL A   1      41.922  28.269  28.165  1.00  0.00     0.074 A 
ATOM     13  C   UNL A   1      39.630  28.965  28.653  1.00  0.00     0.049 A 
ATOM     14  N   UNL A   1      42.529  29.404  28.373  1.00  0.00    -0.248 NA
ATOM     15  C   UNL A   1      42.808  27.160  27.779  1.00  0.00     0.031 C 
ATOM     16  C   UNL A   1      38.195  28.906  28.741  1.00  0.00     0.029 A 
ATOM     17  N   UNL A   1      39.839  30.258  29.108  1.00  0.00    -0.354 N 
ATOM     18  C   UNL A   1      43.858  29.161  28.075  1.00  0.00     0.074 A 
ATOM     19  C   UNL A   1      43.985  27.756  27.765  1.00  0.00     0.031 C 
ATOM     20  C   UNL A   1      37.626  30.011  29.206  1.00  0.00     0.029 A 
ATOM     21  C   UNL A   1      38.680  30.927  29.503  1.00  0.00     0.049 A 
ATOM     22  H   UNL A   1      40.732  30.671  29.147  1.00  0.00     0.167 HD
ATOM     23  C   UNL A   1      44.877  30.046  28.037  1.00  0.00     0.034 A 
ATOM     24  C   UNL A   1      38.419  32.132  30.046  1.00  0.00     0.034 A 
ATOM     25  C   UNL A   1      44.749  31.413  28.464  1.00  0.00     0.049 A 
ATOM     26  C   UNL A   1      39.583  33.042  30.155  1.00  0.00     0.074 A 
ATOM     27  C   UNL A   1      45.733  32.376  28.564  1.00  0.00     0.029 A 
ATOM     28  N   UNL A   1      43.567  31.999  28.912  1.00  0.00    -0.354 N 
ATOM     29  N   UNL A   1      40.825  32.787  29.822  1.00  0.00    -0.248 NA
ATOM     30  C   UNL A   1      39.329  34.393  30.647  1.00  0.00     0.031 C 
ATOM     31  C   UNL A   1      45.168  33.513  29.152  1.00  0.00     0.029 A 
ATOM     32  C   UNL A   1      43.810  33.294  29.336  1.00  0.00     0.049 A 
ATOM     33  H   UNL A   1      42.688  31.556  28.924  1.00  0.00     0.167 HD
ATOM     34  C   UNL A   1      41.508  33.965  30.029  1.00  0.00     0.074 A 
ATOM     35  C   UNL A   1      40.528  34.935  30.496  1.00  0.00     0.031 C 
ATOM     36  C   UNL A   1      42.825  34.219  29.842  1.00  0.00     0.034 A 
BRANCH  23  37
ATOM     37  C   UNL A   1      46.204  29.482  27.611  1.00  0.00     0.023 A 
ATOM     38  C   UNL A   1      46.463  29.166  26.261  1.00  0.00     0.031 A 
ATOM     39  C   UNL A   1      47.145  29.095  28.576  1.00  0.00     0.131 A 
ATOM     40  C   UNL A   1      47.583  28.392  25.933  1.00  0.00     0.055 A 
ATOM     41  C   UNL A   1      48.306  28.407  28.229  1.00  0.00     0.041 A 
ATOM     42  F   UNL A   1      46.919  29.325  29.879  1.00  0.00    -0.206 F 
ATOM     43  C   UNL A   1      48.521  28.034  26.904  1.00  0.00     0.022 A 
BRANCH  40  44
ATOM     44  S   UNL A   1      47.693  27.688  24.263  1.00  0.00     0.124 S 
ATOM     45  O   UNL A   1      46.796  28.566  23.516  1.00  0.00    -0.237 OA
ATOM     46  O   UNL A   1      49.113  27.818  23.956  1.00  0.00    -0.237 OA
ATOM     47  O   UNL A   1      47.215  26.319  24.436  1.00  0.00    -0.744 OA
ENDBRANCH  40  44
ENDBRANCH  23  37
BRANCH  24  48
ATOM     48  C   UNL A   1      37.028  32.528  30.467  1.00  0.00     0.023 A 
ATOM     49  C   UNL A   1      36.122  33.135  29.580  1.00  0.00     0.031 A 
ATOM     50  C   UNL A   1      36.571  32.270  31.778  1.00  0.00     0.131 A 
ATOM     51  C   UNL A   1      34.830  33.487  30.015  1.00  0.00     0.055 A 
ATOM     52  C   UNL A   1      35.271  32.580  32.192  1.00  0.00     0.041 A 
ATOM     53  F   UNL A   1      37.377  31.674  32.672  1.00  0.00    -0.206 F 
ATOM     54  C   UNL A   1      34.395  33.202  31.311  1.00  0.00     0.022 A 
BRANCH  51  55
ATOM     55  S   UNL A   1      33.733  34.392  28.882  1.00  0.00     0.124 S 
ATOM     56  O   UNL A   1      33.326  33.343  27.955  1.00  0.00    -0.237 OA
ATOM     57  O   UNL A   1      32.702  34.882  29.792  1.00  0.00    -0.237 OA
ATOM     58  O   UNL A   1      34.602  35.421  28.316  1.00  0.00    -0.744 OA
ENDBRANCH  51  55
ENDBRANCH  24  48
BRANCH  36  59
ATOM     59  C   UNL A   1      43.254  35.616  30.162  1.00  0.00     0.023 A 
ATOM     60  C   UNL A   1      43.245  36.612  29.174  1.00  0.00     0.031 A 
ATOM     61  C   UNL A   1      43.740  35.931  31.439  1.00  0.00     0.131 A 
ATOM     62  C   UNL A   1      43.803  37.861  29.454  1.00  0.00     0.055 A 
ATOM     63  C   UNL A   1      44.213  37.205  31.738  1.00  0.00     0.041 A 
ATOM     64  F   UNL A   1      43.781  34.999  32.405  1.00  0.00    -0.206 F 
ATOM     65  C   UNL A   1      44.264  38.173  30.737  1.00  0.00     0.022 A 
BRANCH  62  66
ATOM     66  S   UNL A   1      44.047  39.012  28.080  1.00  0.00     0.124 S 
ATOM     67  O   UNL A   1      43.325  40.190  28.546  1.00  0.00    -0.237 OA
ATOM     68  O   UNL A   1      45.500  39.136  28.028  1.00  0.00    -0.237 OA
ATOM     69  O   UNL A   1      43.442  38.318  26.944  1.00  0.00    -0.744 OA
ENDBRANCH  62  66
ENDBRANCH  36  59
ENDBRANCH  10  11
ENDBRANCH   3   5
ENDBRANCH   2   3
ENDBRANCH   1   2
BRANCH   1  70
ATOM     70  C   UNL A   1      35.895  21.574  24.784  1.00  0.00     0.274 C 
BRANCH  70  71
ATOM     71  O   UNL A   1      35.173  20.838  25.771  1.00  0.00    -0.460 OA
BRANCH  71  72
ATOM     72  C   UNL A   1      34.064  21.378  26.407  1.00  0.00     0.338 C 
ATOM     73  O   UNL A   1      33.731  21.190  27.568  1.00  0.00    -0.249 OA
BRANCH  72  74
ATOM     74  C   UNL A   1      33.361  22.233  25.316  1.00  0.00     0.263 C 
ATOM     75  O   UNL A   1      32.872  23.524  25.000  1.00  0.00    -0.322 OA
ATOM     76  C   UNL A   1      32.199  21.324  24.890  1.00  0.00     0.186 C 
ATOM     77  C   UNL A   1      32.775  23.670  23.537  1.00  0.00     0.343 C 
ATOM     78  C   UNL A   1      32.572  21.100  23.451  1.00  0.00     0.181 C 
ATOM     79  C   UNL A   1      32.207  22.430  22.717  1.00  0.00     0.214 C 
BRANCH  76  80
ATOM     80  O   UNL A   1      32.004  20.067  25.553  1.00  0.00    -0.387 OA
ATOM     81  H   UNL A   1      31.711  19.404  24.909  1.00  0.00     0.211 HD
ENDBRANCH  76  80
BRANCH  77  82
ATOM     82  O   UNL A   1      32.120  24.887  23.109  1.00  0.00    -0.429 OA
BRANCH  82  83
ATOM     83  C   UNL A   1      32.931  25.832  22.587  1.00  0.00     0.342 C 
ATOM     84  O   UNL A   1      33.575  25.754  21.557  1.00  0.00    -0.246 OA
BRANCH  83  85
ATOM     85  C   UNL A   1      32.914  27.041  23.421  1.00  0.00     0.078 A 
ATOM     86  C   UNL A   1      33.885  27.356  24.371  1.00  0.00     0.019 A 
ATOM     87  C   UNL A   1      31.887  27.945  23.195  1.00  0.00     0.126 A 
ATOM     88  C   UNL A   1      33.773  28.561  25.069  1.00  0.00     0.021 A 
ATOM     89  N   UNL A   1      31.740  29.104  23.878  1.00  0.00    -0.264 NA
ATOM     90  C   UNL A   1      32.691  29.387  24.795  1.00  0.00     0.111 A 
ENDBRANCH  83  85
ENDBRANCH  82  83
ENDBRANCH  77  82
BRANCH  78  91
ATOM     91  O   UNL A   1      32.080  19.789  23.166  1.00  0.00    -0.387 OA
ATOM     92  H   UNL A   1      31.839  19.731  22.228  1.00  0.00     0.211 HD
ENDBRANCH  78  91
BRANCH  79  93
ATOM     93  O   UNL A   1      32.755  22.575  21.398  1.00  0.00    -0.384 OA
ATOM     94  H   UNL A   1      33.501  23.193  21.424  1.00  0.00     0.211 HD
ENDBRANCH  79  93
ENDBRANCH  72  74
ENDBRANCH  71  72
ENDBRANCH  70  71
ENDBRANCH   1  70
TORSDOF 20
ENDMDL
