MODEL 1
REMARK VINA RESULT:     -13.2      0.000      0.000
REMARK SMILES O=C(OCCOC(=O)c1nn(Cc2ccc(F)cc2)c2c1CN(C(=O)[C@H]1CC1(F)F)CC2)c1ccc(-c2c3nc(c(-c4cc(S(=O)(=O)[O-])ccc4F)c4ccc([nH]4)c(-c4cc(S(=O)(=O)[O-])ccc4F)c4nc(c(-c5cc(S(=O)(=O)[O-])ccc5F)c5ccc2[nH]5)C=C4)C=C3)cc1
REMARK SMILES IDX 4 1 3 2 2 3 1 4 33 5 34 6 95 7 35 8 94 9 36 10 37 11 38 12
REMARK SMILES IDX 88 13 39 14 93 15 87 16 89 17 40 18 92 19 86 20 85 21 41 23
REMARK SMILES IDX 73 24 53 25 72 26 54 27 57 28 71 29 90 30 55 31 56 32 70 34
REMARK SMILES IDX 91 35 58 36 42 37 43 38 51 39 44 40 50 41 52 42 49 43 45 44
REMARK SMILES IDX 46 45 47 46 48 47 74 48 75 49 83 50 76 51 82 52 84 53 81 54
REMARK SMILES IDX 77 55 78 56 79 57 80 58 59 59 60 60 68 61 61 62 67 63 69 64
REMARK SMILES IDX 66 65 62 66 63 67 64 68 65 69 5 70 6 71 7 72 8 73 9 74 10 75
REMARK SMILES IDX 21 76 11 77 20 78 22 79 32 80 23 81 31 82 12 83 13 84 14 85
REMARK SMILES IDX 19 86 15 87 18 88 16 89 17 90 24 91 25 92 26 93 27 94 28 95
REMARK SMILES IDX 29 96 30 97
REMARK H PARENT 89 22 57 33
REMARK Flexibility Score: inf
ROOT
ATOM      1  C   UNL A   1      34.439  30.816  27.468  1.00  0.00     0.275 C 
ENDROOT
BRANCH   1   2
ATOM      2  O   UNL A   1      35.656  30.058  27.603  1.00  0.00    -0.458 OA
BRANCH   2   3
ATOM      3  C   UNL A   1      36.198  29.936  28.829  1.00  0.00     0.338 C 
ATOM      4  O   UNL A   1      35.621  30.189  29.876  1.00  0.00    -0.246 OA
BRANCH   3   5
ATOM      5  C   UNL A   1      37.596  29.460  28.740  1.00  0.00     0.060 A 
ATOM      6  C   UNL A   1      38.174  28.676  29.746  1.00  0.00     0.016 A 
ATOM      7  C   UNL A   1      38.315  29.742  27.578  1.00  0.00     0.016 A 
ATOM      8  C   UNL A   1      39.473  28.200  29.601  1.00  0.00     0.010 A 
ATOM      9  C   UNL A   1      39.596  29.223  27.415  1.00  0.00     0.010 A 
ATOM     10  C   UNL A   1      40.199  28.484  28.441  1.00  0.00    -0.014 A 
BRANCH  10  11
ATOM     11  C   UNL A   1      41.586  28.009  28.361  1.00  0.00     0.031 A 
ATOM     12  C   UNL A   1      41.865  26.693  27.697  1.00  0.00     0.074 A 
ATOM     13  C   UNL A   1      42.639  28.751  28.763  1.00  0.00     0.049 A 
ATOM     14  N   UNL A   1      42.514  25.676  28.172  1.00  0.00    -0.248 NA
ATOM     15  C   UNL A   1      41.365  26.479  26.332  1.00  0.00     0.031 C 
ATOM     16  C   UNL A   1      42.652  30.143  29.219  1.00  0.00     0.029 A 
ATOM     17  N   UNL A   1      43.963  28.420  28.743  1.00  0.00    -0.354 N 
ATOM     18  C   UNL A   1      42.648  24.760  27.129  1.00  0.00     0.074 A 
ATOM     19  C   UNL A   1      41.882  25.287  26.028  1.00  0.00     0.031 C 
ATOM     20  C   UNL A   1      43.917  30.609  29.195  1.00  0.00     0.029 A 
ATOM     21  C   UNL A   1      44.810  29.507  28.891  1.00  0.00     0.049 A 
ATOM     22  H   UNL A   1      44.286  27.497  28.633  1.00  0.00     0.167 HD
ATOM     23  C   UNL A   1      43.468  23.673  27.196  1.00  0.00     0.034 A 
ATOM     24  C   UNL A   1      46.155  29.521  28.747  1.00  0.00     0.034 A 
ATOM     25  C   UNL A   1      43.804  23.329  28.550  1.00  0.00     0.049 A 
ATOM     26  C   UNL A   1      46.637  28.149  29.025  1.00  0.00     0.074 A 
ATOM     27  C   UNL A   1      43.073  22.965  29.665  1.00  0.00     0.029 A 
ATOM     28  N   UNL A   1      45.054  23.643  29.025  1.00  0.00    -0.354 N 
ATOM     29  N   UNL A   1      46.514  27.559  30.182  1.00  0.00    -0.248 NA
ATOM     30  C   UNL A   1      46.937  27.268  27.909  1.00  0.00     0.031 C 
ATOM     31  C   UNL A   1      43.746  23.579  30.762  1.00  0.00     0.029 A 
ATOM     32  C   UNL A   1      44.860  24.244  30.245  1.00  0.00     0.049 A 
ATOM     33  H   UNL A   1      45.915  23.473  28.580  1.00  0.00     0.167 HD
ATOM     34  C   UNL A   1      46.309  26.223  29.883  1.00  0.00     0.074 A 
ATOM     35  C   UNL A   1      46.710  26.087  28.487  1.00  0.00     0.031 C 
ATOM     36  C   UNL A   1      45.583  25.411  30.708  1.00  0.00     0.034 A 
BRANCH  23  37
ATOM     37  C   UNL A   1      44.140  23.022  26.013  1.00  0.00     0.023 A 
ATOM     38  C   UNL A   1      43.889  21.663  25.731  1.00  0.00     0.031 A 
ATOM     39  C   UNL A   1      45.210  23.617  25.310  1.00  0.00     0.131 A 
ATOM     40  C   UNL A   1      44.687  20.960  24.807  1.00  0.00     0.055 A 
ATOM     41  C   UNL A   1      45.966  22.929  24.357  1.00  0.00     0.041 A 
ATOM     42  F   UNL A   1      45.621  24.866  25.578  1.00  0.00    -0.206 F 
ATOM     43  C   UNL A   1      45.716  21.588  24.110  1.00  0.00     0.022 A 
BRANCH  40  44
ATOM     44  S   UNL A   1      44.451  19.168  24.624  1.00  0.00     0.124 S 
ATOM     45  O   UNL A   1      44.856  18.950  23.239  1.00  0.00    -0.237 OA
ATOM     46  O   UNL A   1      45.346  18.639  25.648  1.00  0.00    -0.237 OA
ATOM     47  O   UNL A   1      43.026  18.984  24.891  1.00  0.00    -0.744 OA
ENDBRANCH  40  44
ENDBRANCH  23  37
BRANCH  24  48
ATOM     48  C   UNL A   1      46.967  30.599  28.134  1.00  0.00     0.023 A 
ATOM     49  C   UNL A   1      46.391  31.574  27.301  1.00  0.00     0.031 A 
ATOM     50  C   UNL A   1      48.301  30.823  28.549  1.00  0.00     0.131 A 
ATOM     51  C   UNL A   1      47.136  32.706  26.915  1.00  0.00     0.055 A 
ATOM     52  C   UNL A   1      49.043  31.932  28.144  1.00  0.00     0.041 A 
ATOM     53  F   UNL A   1      48.902  30.016  29.438  1.00  0.00    -0.206 F 
ATOM     54  C   UNL A   1      48.458  32.888  27.329  1.00  0.00     0.022 A 
BRANCH  51  55
ATOM     55  S   UNL A   1      46.338  34.048  25.980  1.00  0.00     0.124 S 
ATOM     56  O   UNL A   1      47.444  34.559  25.179  1.00  0.00    -0.237 OA
ATOM     57  O   UNL A   1      45.281  33.350  25.257  1.00  0.00    -0.237 OA
ATOM     58  O   UNL A   1      45.865  34.948  27.032  1.00  0.00    -0.744 OA
ENDBRANCH  51  55
ENDBRANCH  24  48
BRANCH  36  59
ATOM     59  C   UNL A   1      45.270  25.888  32.109  1.00  0.00     0.023 A 
ATOM     60  C   UNL A   1      44.110  26.612  32.461  1.00  0.00     0.031 A 
ATOM     61  C   UNL A   1      46.106  25.446  33.150  1.00  0.00     0.131 A 
ATOM     62  C   UNL A   1      43.827  26.875  33.815  1.00  0.00     0.055 A 
ATOM     63  C   UNL A   1      45.814  25.695  34.491  1.00  0.00     0.041 A 
ATOM     64  F   UNL A   1      47.202  24.718  32.878  1.00  0.00    -0.206 F 
ATOM     65  C   UNL A   1      44.673  26.412  34.829  1.00  0.00     0.022 A 
BRANCH  62  66
ATOM     66  S   UNL A   1      42.323  27.794  34.278  1.00  0.00     0.124 S 
ATOM     67  O   UNL A   1      41.394  26.739  34.666  1.00  0.00    -0.237 OA
ATOM     68  O   UNL A   1      42.795  28.663  35.352  1.00  0.00    -0.237 OA
ATOM     69  O   UNL A   1      41.961  28.499  33.046  1.00  0.00    -0.744 OA
ENDBRANCH  62  66
ENDBRANCH  36  59
ENDBRANCH  10  11
ENDBRANCH   3   5
ENDBRANCH   2   3
ENDBRANCH   1   2
BRANCH   1  70
ATOM     70  C   UNL A   1      33.133  30.054  27.215  1.00  0.00     0.275 C 
BRANCH  70  71
ATOM     71  O   UNL A   1      33.314  28.635  27.390  1.00  0.00    -0.457 OA
BRANCH  71  72
ATOM     72  C   UNL A   1      32.186  27.862  27.300  1.00  0.00     0.359 C 
ATOM     73  O   UNL A   1      31.312  27.789  28.161  1.00  0.00    -0.244 OA
BRANCH  72  74
ATOM     74  C   UNL A   1      32.128  27.081  26.059  1.00  0.00     0.175 A 
ATOM     75  N   UNL A   1      32.554  25.799  26.015  1.00  0.00    -0.165 NA
ATOM     76  C   UNL A   1      31.556  27.462  24.814  1.00  0.00     0.028 A 
ATOM     77  N   UNL A   1      32.255  25.376  24.764  1.00  0.00    -0.264 N 
ATOM     78  C   UNL A   1      31.763  26.381  23.985  1.00  0.00     0.046 A 
ATOM     79  C   UNL A   1      30.891  28.721  24.381  1.00  0.00     0.159 C 
ATOM     80  C   UNL A   1      31.412  26.348  22.546  1.00  0.00     0.078 C 
ATOM     81  N   UNL A   1      30.514  28.659  22.952  1.00  0.00    -0.337 N 
ATOM     82  C   UNL A   1      31.318  27.805  22.050  1.00  0.00     0.126 C 
BRANCH  77  83
ATOM     83  C   UNL A   1      32.196  23.947  24.477  1.00  0.00     0.180 C 
BRANCH  83  84
ATOM     84  C   UNL A   1      33.548  23.292  24.385  1.00  0.00    -0.026 A 
ATOM     85  C   UNL A   1      34.401  23.582  23.307  1.00  0.00     0.008 A 
ATOM     86  C   UNL A   1      33.996  22.426  25.397  1.00  0.00     0.008 A 
ATOM     87  C   UNL A   1      35.682  23.037  23.252  1.00  0.00     0.039 A 
ATOM     88  C   UNL A   1      35.280  21.882  25.339  1.00  0.00     0.039 A 
ATOM     89  C   UNL A   1      36.113  22.199  24.273  1.00  0.00     0.123 A 
ATOM     90  F   UNL A   1      37.355  21.699  24.232  1.00  0.00    -0.207 F 
ENDBRANCH  83  84
ENDBRANCH  77  83
BRANCH  81  91
ATOM     91  C   UNL A   1      29.614  29.618  22.501  1.00  0.00     0.232 C 
ATOM     92  O   UNL A   1      29.351  29.785  21.316  1.00  0.00    -0.274 OA
BRANCH  91  93
ATOM     93  C   UNL A   1      28.932  30.448  23.517  1.00  0.00     0.154 C 
ATOM     94  C   UNL A   1      29.271  31.925  23.656  1.00  0.00     0.097 C 
ATOM     95  C   UNL A   1      27.975  31.492  23.083  1.00  0.00     0.260 C 
ATOM     96  F   UNL A   1      27.714  31.785  21.764  1.00  0.00    -0.206 F 
ATOM     97  F   UNL A   1      26.825  31.751  23.793  1.00  0.00    -0.206 F 
ENDBRANCH  91  93
ENDBRANCH  81  91
ENDBRANCH  72  74
ENDBRANCH  71  72
ENDBRANCH  70  71
ENDBRANCH   1  70
TORSDOF 18
ENDMDL
MODEL 2
REMARK VINA RESULT:     -13.2      2.541      8.141
REMARK SMILES O=C(OCCOC(=O)c1nn(Cc2ccc(F)cc2)c2c1CN(C(=O)[C@H]1CC1(F)F)CC2)c1ccc(-c2c3nc(c(-c4cc(S(=O)(=O)[O-])ccc4F)c4ccc([nH]4)c(-c4cc(S(=O)(=O)[O-])ccc4F)c4nc(c(-c5cc(S(=O)(=O)[O-])ccc5F)c5ccc2[nH]5)C=C4)C=C3)cc1
REMARK SMILES IDX 4 1 3 2 2 3 1 4 33 5 34 6 95 7 35 8 94 9 36 10 37 11 38 12
REMARK SMILES IDX 88 13 39 14 93 15 87 16 89 17 40 18 92 19 86 20 85 21 41 23
REMARK SMILES IDX 73 24 53 25 72 26 54 27 57 28 71 29 90 30 55 31 56 32 70 34
REMARK SMILES IDX 91 35 58 36 42 37 43 38 51 39 44 40 50 41 52 42 49 43 45 44
REMARK SMILES IDX 46 45 47 46 48 47 74 48 75 49 83 50 76 51 82 52 84 53 81 54
REMARK SMILES IDX 77 55 78 56 79 57 80 58 59 59 60 60 68 61 61 62 67 63 69 64
REMARK SMILES IDX 66 65 62 66 63 67 64 68 65 69 5 70 6 71 7 72 8 73 9 74 10 75
REMARK SMILES IDX 21 76 11 77 20 78 22 79 32 80 23 81 31 82 12 83 13 84 14 85
REMARK SMILES IDX 19 86 15 87 18 88 16 89 17 90 24 91 25 92 26 93 27 94 28 95
REMARK SMILES IDX 29 96 30 97
REMARK H PARENT 89 22 57 33
REMARK Flexibility Score: inf
ROOT
ATOM      1  C   UNL A   1      33.293  30.654  26.615  1.00  0.00     0.275 C 
ENDROOT
BRANCH   1   2
ATOM      2  O   UNL A   1      33.839  30.882  27.929  1.00  0.00    -0.458 OA
BRANCH   2   3
ATOM      3  C   UNL A   1      34.848  31.765  28.055  1.00  0.00     0.338 C 
ATOM      4  O   UNL A   1      34.741  32.973  27.905  1.00  0.00    -0.246 OA
BRANCH   3   5
ATOM      5  C   UNL A   1      36.111  31.072  28.392  1.00  0.00     0.060 A 
ATOM      6  C   UNL A   1      37.266  31.778  28.748  1.00  0.00     0.016 A 
ATOM      7  C   UNL A   1      36.109  29.677  28.427  1.00  0.00     0.016 A 
ATOM      8  C   UNL A   1      38.419  31.092  29.114  1.00  0.00     0.010 A 
ATOM      9  C   UNL A   1      37.249  28.995  28.840  1.00  0.00     0.010 A 
ATOM     10  C   UNL A   1      38.424  29.695  29.146  1.00  0.00    -0.014 A 
BRANCH  10  11
ATOM     11  C   UNL A   1      39.682  29.015  29.480  1.00  0.00     0.031 A 
ATOM     12  C   UNL A   1      40.065  28.866  30.923  1.00  0.00     0.074 A 
ATOM     13  C   UNL A   1      40.463  28.424  28.553  1.00  0.00     0.049 A 
ATOM     14  N   UNL A   1      41.170  29.218  31.501  1.00  0.00    -0.248 NA
ATOM     15  C   UNL A   1      39.101  28.242  31.840  1.00  0.00     0.031 C 
ATOM     16  C   UNL A   1      40.195  28.225  27.126  1.00  0.00     0.029 A 
ATOM     17  N   UNL A   1      41.647  27.770  28.738  1.00  0.00    -0.354 N 
ATOM     18  C   UNL A   1      41.119  28.726  32.805  1.00  0.00     0.074 A 
ATOM     19  C   UNL A   1      39.800  28.170  32.974  1.00  0.00     0.031 C 
ATOM     20  C   UNL A   1      41.049  27.304  26.635  1.00  0.00     0.029 A 
ATOM     21  C   UNL A   1      42.022  26.983  27.661  1.00  0.00     0.049 A 
ATOM     22  H   UNL A   1      42.184  27.850  29.559  1.00  0.00     0.167 HD
ATOM     23  C   UNL A   1      42.200  28.709  33.636  1.00  0.00     0.034 A 
ATOM     24  C   UNL A   1      43.045  26.098  27.611  1.00  0.00     0.034 A 
ATOM     25  C   UNL A   1      43.221  29.629  33.216  1.00  0.00     0.049 A 
ATOM     26  C   UNL A   1      44.048  26.536  28.607  1.00  0.00     0.074 A 
ATOM     27  C   UNL A   1      43.271  30.996  33.022  1.00  0.00     0.029 A 
ATOM     28  N   UNL A   1      44.347  29.136  32.602  1.00  0.00    -0.354 N 
ATOM     29  N   UNL A   1      44.691  27.669  28.536  1.00  0.00    -0.248 NA
ATOM     30  C   UNL A   1      44.085  25.883  29.905  1.00  0.00     0.031 C 
ATOM     31  C   UNL A   1      44.111  31.176  31.884  1.00  0.00     0.029 A 
ATOM     32  C   UNL A   1      44.543  29.909  31.483  1.00  0.00     0.049 A 
ATOM     33  H   UNL A   1      44.901  28.380  32.903  1.00  0.00     0.167 HD
ATOM     34  C   UNL A   1      44.857  28.070  29.851  1.00  0.00     0.074 A 
ATOM     35  C   UNL A   1      44.585  26.876  30.643  1.00  0.00     0.031 C 
ATOM     36  C   UNL A   1      44.934  29.392  30.188  1.00  0.00     0.034 A 
BRANCH  23  37
ATOM     37  C   UNL A   1      42.427  27.708  34.739  1.00  0.00     0.023 A 
ATOM     38  C   UNL A   1      43.134  26.518  34.465  1.00  0.00     0.031 A 
ATOM     39  C   UNL A   1      41.755  27.761  35.980  1.00  0.00     0.131 A 
ATOM     40  C   UNL A   1      43.140  25.454  35.388  1.00  0.00     0.055 A 
ATOM     41  C   UNL A   1      41.806  26.723  36.913  1.00  0.00     0.041 A 
ATOM     42  F   UNL A   1      40.953  28.787  36.303  1.00  0.00    -0.206 F 
ATOM     43  C   UNL A   1      42.489  25.554  36.615  1.00  0.00     0.022 A 
BRANCH  40  44
ATOM     44  S   UNL A   1      43.898  23.875  34.908  1.00  0.00     0.124 S 
ATOM     45  O   UNL A   1      42.739  23.103  34.471  1.00  0.00    -0.237 OA
ATOM     46  O   UNL A   1      44.827  24.291  33.862  1.00  0.00    -0.237 OA
ATOM     47  O   UNL A   1      44.525  23.409  36.143  1.00  0.00    -0.744 OA
ENDBRANCH  40  44
ENDBRANCH  23  37
BRANCH  24  48
ATOM     48  C   UNL A   1      43.042  24.781  26.931  1.00  0.00     0.023 A 
ATOM     49  C   UNL A   1      43.987  24.460  25.941  1.00  0.00     0.031 A 
ATOM     50  C   UNL A   1      42.241  23.720  27.416  1.00  0.00     0.131 A 
ATOM     51  C   UNL A   1      44.101  23.135  25.473  1.00  0.00     0.055 A 
ATOM     52  C   UNL A   1      42.341  22.415  26.932  1.00  0.00     0.041 A 
ATOM     53  F   UNL A   1      41.395  23.895  28.443  1.00  0.00    -0.206 F 
ATOM     54  C   UNL A   1      43.282  22.114  25.962  1.00  0.00     0.022 A 
BRANCH  51  55
ATOM     55  S   UNL A   1      45.434  22.687  24.319  1.00  0.00     0.124 S 
ATOM     56  O   UNL A   1      46.222  21.752  25.113  1.00  0.00    -0.237 OA
ATOM     57  O   UNL A   1      44.704  22.124  23.189  1.00  0.00    -0.237 OA
ATOM     58  O   UNL A   1      46.082  23.971  24.047  1.00  0.00    -0.744 OA
ENDBRANCH  51  55
ENDBRANCH  24  48
BRANCH  36  59
ATOM     59  C   UNL A   1      45.161  30.411  29.094  1.00  0.00     0.023 A 
ATOM     60  C   UNL A   1      46.435  30.848  28.668  1.00  0.00     0.031 A 
ATOM     61  C   UNL A   1      44.043  30.829  28.350  1.00  0.00     0.131 A 
ATOM     62  C   UNL A   1      46.552  31.679  27.536  1.00  0.00     0.055 A 
ATOM     63  C   UNL A   1      44.165  31.639  27.221  1.00  0.00     0.041 A 
ATOM     64  F   UNL A   1      42.811  30.412  28.684  1.00  0.00    -0.206 F 
ATOM     65  C   UNL A   1      45.421  32.069  26.811  1.00  0.00     0.022 A 
BRANCH  62  66
ATOM     66  S   UNL A   1      48.193  32.234  26.970  1.00  0.00     0.124 S 
ATOM     67  O   UNL A   1      48.770  32.840  28.164  1.00  0.00    -0.237 OA
ATOM     68  O   UNL A   1      48.812  30.992  26.513  1.00  0.00    -0.237 OA
ATOM     69  O   UNL A   1      47.881  33.182  25.898  1.00  0.00    -0.744 OA
ENDBRANCH  62  66
ENDBRANCH  36  59
ENDBRANCH  10  11
ENDBRANCH   3   5
ENDBRANCH   2   3
ENDBRANCH   1   2
BRANCH   1  70
ATOM     70  C   UNL A   1      33.515  29.284  25.965  1.00  0.00     0.275 C 
BRANCH  70  71
ATOM     71  O   UNL A   1      33.344  28.218  26.920  1.00  0.00    -0.457 OA
BRANCH  71  72
ATOM     72  C   UNL A   1      32.076  27.712  27.046  1.00  0.00     0.359 C 
ATOM     73  O   UNL A   1      31.389  27.783  28.062  1.00  0.00    -0.244 OA
BRANCH  72  74
ATOM     74  C   UNL A   1      31.612  27.029  25.834  1.00  0.00     0.175 A 
ATOM     75  N   UNL A   1      30.874  27.674  24.903  1.00  0.00    -0.165 NA
ATOM     76  C   UNL A   1      31.923  25.710  25.401  1.00  0.00     0.028 A 
ATOM     77  N   UNL A   1      30.724  26.779  23.897  1.00  0.00    -0.264 N 
ATOM     78  C   UNL A   1      31.240  25.558  24.214  1.00  0.00     0.046 A 
ATOM     79  C   UNL A   1      32.755  24.642  26.020  1.00  0.00     0.159 C 
ATOM     80  C   UNL A   1      31.189  24.302  23.431  1.00  0.00     0.078 C 
ATOM     81  N   UNL A   1      32.723  23.406  25.208  1.00  0.00    -0.337 N 
ATOM     82  C   UNL A   1      31.523  23.137  24.385  1.00  0.00     0.126 C 
BRANCH  77  83
ATOM     83  C   UNL A   1      30.338  27.241  22.569  1.00  0.00     0.180 C 
BRANCH  83  84
ATOM     84  C   UNL A   1      29.514  28.500  22.581  1.00  0.00    -0.026 A 
ATOM     85  C   UNL A   1      30.040  29.694  22.059  1.00  0.00     0.008 A 
ATOM     86  C   UNL A   1      28.194  28.489  23.063  1.00  0.00     0.008 A 
ATOM     87  C   UNL A   1      29.258  30.845  21.999  1.00  0.00     0.039 A 
ATOM     88  C   UNL A   1      27.413  29.643  23.001  1.00  0.00     0.039 A 
ATOM     89  C   UNL A   1      27.949  30.807  22.463  1.00  0.00     0.123 A 
ATOM     90  F   UNL A   1      27.190  31.908  22.378  1.00  0.00    -0.207 F 
ENDBRANCH  83  84
ENDBRANCH  77  83
BRANCH  81  91
ATOM     91  C   UNL A   1      33.693  22.450  25.489  1.00  0.00     0.232 C 
ATOM     92  O   UNL A   1      33.751  21.849  26.555  1.00  0.00    -0.274 OA
BRANCH  91  93
ATOM     93  C   UNL A   1      34.674  22.138  24.429  1.00  0.00     0.154 C 
ATOM     94  C   UNL A   1      35.560  23.234  23.855  1.00  0.00     0.097 C 
ATOM     95  C   UNL A   1      36.122  22.186  24.739  1.00  0.00     0.260 C 
ATOM     96  F   UNL A   1      36.627  22.565  25.961  1.00  0.00    -0.206 F 
ATOM     97  F   UNL A   1      37.002  21.276  24.199  1.00  0.00    -0.206 F 
ENDBRANCH  91  93
ENDBRANCH  81  91
ENDBRANCH  72  74
ENDBRANCH  71  72
ENDBRANCH  70  71
ENDBRANCH   1  70
TORSDOF 18
ENDMDL
MODEL 3
REMARK VINA RESULT:     -13.1      2.412      6.891
REMARK SMILES O=C(OCCOC(=O)c1nn(Cc2ccc(F)cc2)c2c1CN(C(=O)[C@H]1CC1(F)F)CC2)c1ccc(-c2c3nc(c(-c4cc(S(=O)(=O)[O-])ccc4F)c4ccc([nH]4)c(-c4cc(S(=O)(=O)[O-])ccc4F)c4nc(c(-c5cc(S(=O)(=O)[O-])ccc5F)c5ccc2[nH]5)C=C4)C=C3)cc1
REMARK SMILES IDX 4 1 3 2 2 3 1 4 33 5 34 6 95 7 35 8 94 9 36 10 37 11 38 12
REMARK SMILES IDX 88 13 39 14 93 15 87 16 89 17 40 18 92 19 86 20 85 21 41 23
REMARK SMILES IDX 73 24 53 25 72 26 54 27 57 28 71 29 90 30 55 31 56 32 70 34
REMARK SMILES IDX 91 35 58 36 42 37 43 38 51 39 44 40 50 41 52 42 49 43 45 44
REMARK SMILES IDX 46 45 47 46 48 47 74 48 75 49 83 50 76 51 82 52 84 53 81 54
REMARK SMILES IDX 77 55 78 56 79 57 80 58 59 59 60 60 68 61 61 62 67 63 69 64
REMARK SMILES IDX 66 65 62 66 63 67 64 68 65 69 5 70 6 71 7 72 8 73 9 74 10 75
REMARK SMILES IDX 21 76 11 77 20 78 22 79 32 80 23 81 31 82 12 83 13 84 14 85
REMARK SMILES IDX 19 86 15 87 18 88 16 89 17 90 24 91 25 92 26 93 27 94 28 95
REMARK SMILES IDX 29 96 30 97
REMARK H PARENT 89 22 57 33
REMARK Flexibility Score: inf
ROOT
ATOM      1  C   UNL A   1      33.144  31.729  27.280  1.00  0.00     0.275 C 
ENDROOT
BRANCH   1   2
ATOM      2  O   UNL A   1      34.227  31.581  28.218  1.00  0.00    -0.458 OA
BRANCH   2   3
ATOM      3  C   UNL A   1      35.345  32.305  28.020  1.00  0.00     0.338 C 
ATOM      4  O   UNL A   1      35.368  33.456  27.610  1.00  0.00    -0.246 OA
BRANCH   3   5
ATOM      5  C   UNL A   1      36.549  31.513  28.357  1.00  0.00     0.060 A 
ATOM      6  C   UNL A   1      37.627  32.071  29.054  1.00  0.00     0.016 A 
ATOM      7  C   UNL A   1      36.556  30.155  28.034  1.00  0.00     0.016 A 
ATOM      8  C   UNL A   1      38.717  31.281  29.403  1.00  0.00     0.010 A 
ATOM      9  C   UNL A   1      37.626  29.358  28.428  1.00  0.00     0.010 A 
ATOM     10  C   UNL A   1      38.732  29.922  29.077  1.00  0.00    -0.014 A 
BRANCH  10  11
ATOM     11  C   UNL A   1      39.931  29.144  29.414  1.00  0.00     0.031 A 
ATOM     12  C   UNL A   1      40.297  28.965  30.858  1.00  0.00     0.074 A 
ATOM     13  C   UNL A   1      40.664  28.491  28.489  1.00  0.00     0.049 A 
ATOM     14  N   UNL A   1      41.426  29.227  31.438  1.00  0.00    -0.248 NA
ATOM     15  C   UNL A   1      39.284  28.420  31.773  1.00  0.00     0.031 C 
ATOM     16  C   UNL A   1      40.384  28.314  27.062  1.00  0.00     0.029 A 
ATOM     17  N   UNL A   1      41.791  27.744  28.677  1.00  0.00    -0.354 N 
ATOM     18  C   UNL A   1      41.332  28.741  32.743  1.00  0.00     0.074 A 
ATOM     19  C   UNL A   1      39.972  28.293  32.909  1.00  0.00     0.031 C 
ATOM     20  C   UNL A   1      41.162  27.328  26.573  1.00  0.00     0.029 A 
ATOM     21  C   UNL A   1      42.104  26.929  27.601  1.00  0.00     0.049 A 
ATOM     22  H   UNL A   1      42.331  27.781  29.499  1.00  0.00     0.167 HD
ATOM     23  C   UNL A   1      42.407  28.638  33.576  1.00  0.00     0.034 A 
ATOM     24  C   UNL A   1      43.052  25.965  27.554  1.00  0.00     0.034 A 
ATOM     25  C   UNL A   1      43.499  29.472  33.158  1.00  0.00     0.049 A 
ATOM     26  C   UNL A   1      44.085  26.321  28.552  1.00  0.00     0.074 A 
ATOM     27  C   UNL A   1      43.659  30.831  32.964  1.00  0.00     0.029 A 
ATOM     28  N   UNL A   1      44.583  28.890  32.547  1.00  0.00    -0.354 N 
ATOM     29  N   UNL A   1      44.818  27.398  28.483  1.00  0.00    -0.248 NA
ATOM     30  C   UNL A   1      44.067  25.668  29.850  1.00  0.00     0.031 C 
ATOM     31  C   UNL A   1      44.513  30.942  31.828  1.00  0.00     0.029 A 
ATOM     32  C   UNL A   1      44.843  29.645  31.429  1.00  0.00     0.049 A 
ATOM     33  H   UNL A   1      45.075  28.093  32.849  1.00  0.00     0.167 HD
ATOM     34  C   UNL A   1      45.012  27.786  29.797  1.00  0.00     0.074 A 
ATOM     35  C   UNL A   1      44.643  26.618  30.589  1.00  0.00     0.031 C 
ATOM     36  C   UNL A   1      45.195  29.097  30.134  1.00  0.00     0.034 A 
BRANCH  23  37
ATOM     37  C   UNL A   1      42.550  27.622  34.680  1.00  0.00     0.023 A 
ATOM     38  C   UNL A   1      43.237  26.415  34.431  1.00  0.00     0.031 A 
ATOM     39  C   UNL A   1      41.818  27.684  35.886  1.00  0.00     0.131 A 
ATOM     40  C   UNL A   1      43.167  25.344  35.343  1.00  0.00     0.055 A 
ATOM     41  C   UNL A   1      41.793  26.637  36.811  1.00  0.00     0.041 A 
ATOM     42  F   UNL A   1      41.029  28.729  36.178  1.00  0.00    -0.206 F 
ATOM     43  C   UNL A   1      42.458  25.453  36.537  1.00  0.00     0.022 A 
BRANCH  40  44
ATOM     44  S   UNL A   1      43.905  23.748  34.887  1.00  0.00     0.124 S 
ATOM     45  O   UNL A   1      44.886  24.144  33.882  1.00  0.00    -0.237 OA
ATOM     46  O   UNL A   1      44.439  23.286  36.164  1.00  0.00    -0.237 OA
ATOM     47  O   UNL A   1      42.769  22.982  34.377  1.00  0.00    -0.744 OA
ENDBRANCH  40  44
ENDBRANCH  23  37
BRANCH  24  48
ATOM     48  C   UNL A   1      42.945  24.652  26.874  1.00  0.00     0.023 A 
ATOM     49  C   UNL A   1      43.943  24.191  25.998  1.00  0.00     0.031 A 
ATOM     50  C   UNL A   1      41.954  23.718  27.260  1.00  0.00     0.131 A 
ATOM     51  C   UNL A   1      43.926  22.857  25.543  1.00  0.00     0.055 A 
ATOM     52  C   UNL A   1      41.927  22.406  26.787  1.00  0.00     0.041 A 
ATOM     53  F   UNL A   1      41.028  24.022  28.183  1.00  0.00    -0.206 F 
ATOM     54  C   UNL A   1      42.923  21.965  25.931  1.00  0.00     0.022 A 
BRANCH  51  55
ATOM     55  S   UNL A   1      45.308  22.214  24.549  1.00  0.00     0.124 S 
ATOM     56  O   UNL A   1      44.718  21.027  23.941  1.00  0.00    -0.237 OA
ATOM     57  O   UNL A   1      45.601  23.326  23.651  1.00  0.00    -0.237 OA
ATOM     58  O   UNL A   1      46.341  21.951  25.551  1.00  0.00    -0.744 OA
ENDBRANCH  51  55
ENDBRANCH  24  48
BRANCH  36  59
ATOM     59  C   UNL A   1      45.505  30.094  29.041  1.00  0.00     0.023 A 
ATOM     60  C   UNL A   1      46.811  30.469  28.655  1.00  0.00     0.031 A 
ATOM     61  C   UNL A   1      44.434  30.556  28.255  1.00  0.00     0.131 A 
ATOM     62  C   UNL A   1      47.005  31.283  27.522  1.00  0.00     0.055 A 
ATOM     63  C   UNL A   1      44.631  31.349  27.124  1.00  0.00     0.041 A 
ATOM     64  F   UNL A   1      43.172  30.198  28.550  1.00  0.00    -0.206 F 
ATOM     65  C   UNL A   1      45.919  31.717  26.754  1.00  0.00     0.022 A 
BRANCH  62  66
ATOM     66  S   UNL A   1      48.688  31.757  27.008  1.00  0.00     0.124 S 
ATOM     67  O   UNL A   1      49.307  32.192  28.254  1.00  0.00    -0.237 OA
ATOM     68  O   UNL A   1      49.207  30.522  26.428  1.00  0.00    -0.237 OA
ATOM     69  O   UNL A   1      48.458  32.830  26.037  1.00  0.00    -0.744 OA
ENDBRANCH  62  66
ENDBRANCH  36  59
ENDBRANCH  10  11
ENDBRANCH   3   5
ENDBRANCH   2   3
ENDBRANCH   1   2
BRANCH   1  70
ATOM     70  C   UNL A   1      32.188  30.548  27.082  1.00  0.00     0.275 C 
BRANCH  70  71
ATOM     71  O   UNL A   1      32.887  29.290  27.160  1.00  0.00    -0.457 OA
BRANCH  71  72
ATOM     72  C   UNL A   1      32.109  28.167  27.263  1.00  0.00     0.359 C 
ATOM     73  O   UNL A   1      31.474  27.840  28.263  1.00  0.00    -0.244 OA
BRANCH  72  74
ATOM     74  C   UNL A   1      32.127  27.348  26.046  1.00  0.00     0.175 A 
ATOM     75  N   UNL A   1      32.792  26.171  26.000  1.00  0.00    -0.165 NA
ATOM     76  C   UNL A   1      31.416  27.569  24.834  1.00  0.00     0.028 A 
ATOM     77  N   UNL A   1      32.503  25.656  24.782  1.00  0.00    -0.264 N 
ATOM     78  C   UNL A   1      31.779  26.520  24.017  1.00  0.00     0.046 A 
ATOM     79  C   UNL A   1      30.493  28.660  24.420  1.00  0.00     0.159 C 
ATOM     80  C   UNL A   1      31.352  26.371  22.606  1.00  0.00     0.078 C 
ATOM     81  N   UNL A   1      30.048  28.478  23.021  1.00  0.00    -0.337 N 
ATOM     82  C   UNL A   1      30.946  27.766  22.086  1.00  0.00     0.126 C 
BRANCH  77  83
ATOM     83  C   UNL A   1      32.707  24.234  24.530  1.00  0.00     0.180 C 
BRANCH  83  84
ATOM     84  C   UNL A   1      34.153  23.817  24.547  1.00  0.00    -0.026 A 
ATOM     85  C   UNL A   1      34.878  23.831  25.751  1.00  0.00     0.008 A 
ATOM     86  C   UNL A   1      34.781  23.360  23.377  1.00  0.00     0.008 A 
ATOM     87  C   UNL A   1      36.194  23.376  25.789  1.00  0.00     0.039 A 
ATOM     88  C   UNL A   1      36.099  22.905  23.418  1.00  0.00     0.039 A 
ATOM     89  C   UNL A   1      36.791  22.910  24.624  1.00  0.00     0.123 A 
ATOM     90  F   UNL A   1      38.047  22.448  24.668  1.00  0.00    -0.207 F 
ENDBRANCH  83  84
ENDBRANCH  77  83
BRANCH  81  91
ATOM     91  C   UNL A   1      28.952  29.230  22.612  1.00  0.00     0.232 C 
ATOM     92  O   UNL A   1      27.828  28.759  22.481  1.00  0.00    -0.274 OA
BRANCH  91  93
ATOM     93  C   UNL A   1      29.168  30.669  22.352  1.00  0.00     0.154 C 
ATOM     94  C   UNL A   1      28.107  31.488  21.633  1.00  0.00     0.097 C 
ATOM     95  C   UNL A   1      28.355  31.671  23.081  1.00  0.00     0.260 C 
ATOM     96  F   UNL A   1      27.352  31.342  23.963  1.00  0.00    -0.206 F 
ATOM     97  F   UNL A   1      28.898  32.861  23.509  1.00  0.00    -0.206 F 
ENDBRANCH  91  93
ENDBRANCH  81  91
ENDBRANCH  72  74
ENDBRANCH  71  72
ENDBRANCH  70  71
ENDBRANCH   1  70
TORSDOF 18
ENDMDL
