MODEL 1
REMARK VINA RESULT:     -10.6      0.000      0.000
REMARK SMILES [NH3+]CCOCC(=O)Nc1ccc(C(=O)OCCOC(=O)c2ccc(-c3c4nc(c(-c5cc(S(=O)(=O)[O-])ccc5F)c5ccc([nH]5)c(-c5cc(S(=O)(=O)[O-])ccc5F)c5nc(c(-c6cc(S(=O)(=O)[O-])ccc6F)c6ccc3[nH]6)C=C5)C=C4)cc2)c(Cl)c1
REMARK SMILES IDX 15 1 13 2 14 3 12 4 9 5 10 6 86 7 11 8 84 9 85 10 8 11 6 12
REMARK SMILES IDX 7 13 5 15 4 16 3 17 2 18 1 19 16 23 17 24 18 25 19 26 20 27
REMARK SMILES IDX 21 28 22 29 83 30 23 31 82 32 24 33 25 34 26 35 76 36 27 37
REMARK SMILES IDX 81 38 75 39 77 40 28 41 80 42 74 43 73 44 29 46 61 47 41 48
REMARK SMILES IDX 60 49 42 50 45 51 59 52 78 53 43 54 44 55 58 57 79 58 46 59
REMARK SMILES IDX 30 60 31 61 39 62 32 63 38 64 40 65 37 66 33 67 34 68 35 69
REMARK SMILES IDX 36 70 62 71 63 72 71 73 64 74 70 75 72 76 69 77 65 78 66 79
REMARK SMILES IDX 67 80 68 81 47 82 48 83 56 84 49 85 55 86 57 87 54 88 50 89
REMARK SMILES IDX 51 90 52 91 53 92
REMARK H PARENT 8 14 1 20 1 21 1 22 77 45 45 56
REMARK Flexibility Score: inf
ROOT
ATOM      1  O   UNL A   1      35.843  21.080  24.635  1.00  0.00    -0.458 OA
ENDROOT
BRANCH   1   2
ATOM      2  C   UNL A   1      34.502  21.261  24.635  1.00  0.00     0.339 C 
ATOM      3  O   UNL A   1      33.657  20.493  25.069  1.00  0.00    -0.246 OA
BRANCH   2   4
ATOM      4  C   UNL A   1      34.181  22.623  24.170  1.00  0.00     0.078 A 
ATOM      5  C   UNL A   1      33.317  25.128  23.241  1.00  0.00     0.042 A 
ATOM      6  C   UNL A   1      32.965  23.966  22.559  1.00  0.00     0.027 A 
ATOM      7  C   UNL A   1      34.190  25.041  24.330  1.00  0.00     0.047 A 
ATOM      8  C   UNL A   1      33.419  22.723  23.001  1.00  0.00     0.019 A 
ATOM      9  C   UNL A   1      34.601  23.789  24.814  1.00  0.00     0.057 A 
ATOM     10  Cl  UNL A   1      35.676  23.769  26.168  1.00  0.00    -0.083 Cl
BRANCH   5  11
ATOM     11  N   UNL A   1      32.899  26.395  22.812  1.00  0.00    -0.324 N 
ATOM     12  C   UNL A   1      31.781  27.108  23.172  1.00  0.00     0.250 C 
ATOM     13  O   UNL A   1      31.428  28.059  22.468  1.00  0.00    -0.272 OA
ATOM     14  H   UNL A   1      33.490  26.835  22.160  1.00  0.00     0.170 HD
BRANCH  12  15
ATOM     15  C   UNL A   1      31.081  26.805  24.514  1.00  0.00     0.260 C 
BRANCH  15  16
ATOM     16  O   UNL A   1      31.637  27.280  25.721  1.00  0.00    -0.366 OA
BRANCH  16  17
ATOM     17  C   UNL A   1      32.200  28.591  25.672  1.00  0.00     0.222 C 
BRANCH  17  18
ATOM     18  C   UNL A   1      32.040  29.412  26.963  1.00  0.00     0.287 C 
BRANCH  18  19
ATOM     19  N   UNL A   1      33.265  29.543  27.757  1.00  0.00    -0.356 N 
ATOM     20  H   UNL A   1      33.840  30.294  27.373  1.00  0.00     0.344 HD
ATOM     21  H   UNL A   1      33.786  28.667  27.725  1.00  0.00     0.344 HD
ATOM     22  H   UNL A   1      33.023  29.760  28.723  1.00  0.00     0.344 HD
ENDBRANCH  18  19
ENDBRANCH  17  18
ENDBRANCH  16  17
ENDBRANCH  15  16
ENDBRANCH  12  15
ENDBRANCH   5  11
ENDBRANCH   2   4
ENDBRANCH   1   2
BRANCH   1  23
ATOM     23  C   UNL A   1      36.315  19.767  24.989  1.00  0.00     0.275 C 
BRANCH  23  24
ATOM     24  C   UNL A   1      37.843  19.717  24.935  1.00  0.00     0.275 C 
BRANCH  24  25
ATOM     25  O   UNL A   1      38.413  20.954  25.405  1.00  0.00    -0.458 OA
BRANCH  25  26
ATOM     26  C   UNL A   1      39.563  20.819  26.103  1.00  0.00     0.338 C 
ATOM     27  O   UNL A   1      40.286  19.836  26.154  1.00  0.00    -0.246 OA
BRANCH  26  28
ATOM     28  C   UNL A   1      39.922  22.098  26.733  1.00  0.00     0.060 A 
ATOM     29  C   UNL A   1      39.233  23.235  26.311  1.00  0.00     0.016 A 
ATOM     30  C   UNL A   1      41.011  22.215  27.594  1.00  0.00     0.016 A 
ATOM     31  C   UNL A   1      39.649  24.502  26.710  1.00  0.00     0.010 A 
ATOM     32  C   UNL A   1      41.422  23.490  28.011  1.00  0.00     0.010 A 
ATOM     33  C   UNL A   1      40.766  24.646  27.543  1.00  0.00    -0.014 A 
BRANCH  33  34
ATOM     34  C   UNL A   1      41.325  26.005  27.794  1.00  0.00     0.031 A 
ATOM     35  C   UNL A   1      42.661  26.373  27.200  1.00  0.00     0.074 A 
ATOM     36  C   UNL A   1      40.628  26.927  28.486  1.00  0.00     0.049 A 
ATOM     37  N   UNL A   1      43.385  27.448  27.381  1.00  0.00    -0.248 NA
ATOM     38  C   UNL A   1      43.264  25.388  26.289  1.00  0.00     0.031 C 
ATOM     39  C   UNL A   1      39.299  26.726  29.061  1.00  0.00     0.029 A 
ATOM     40  N   UNL A   1      40.941  28.224  28.813  1.00  0.00    -0.354 N 
ATOM     41  C   UNL A   1      44.552  27.248  26.648  1.00  0.00     0.074 A 
ATOM     42  C   UNL A   1      44.438  25.944  26.031  1.00  0.00     0.031 C 
ATOM     43  C   UNL A   1      38.902  27.864  29.654  1.00  0.00     0.029 A 
ATOM     44  C   UNL A   1      39.969  28.857  29.553  1.00  0.00     0.049 A 
ATOM     45  H   UNL A   1      41.782  28.660  28.544  1.00  0.00     0.167 HD
ATOM     46  C   UNL A   1      45.618  28.076  26.504  1.00  0.00     0.034 A 
ATOM     47  C   UNL A   1      39.951  30.085  30.110  1.00  0.00     0.034 A 
ATOM     48  C   UNL A   1      45.702  29.393  27.088  1.00  0.00     0.049 A 
ATOM     49  C   UNL A   1      41.150  30.986  29.944  1.00  0.00     0.074 A 
ATOM     50  C   UNL A   1      46.739  30.308  27.014  1.00  0.00     0.029 A 
ATOM     51  N   UNL A   1      44.701  29.993  27.841  1.00  0.00    -0.354 N 
ATOM     52  N   UNL A   1      42.278  30.753  29.314  1.00  0.00    -0.248 NA
ATOM     53  C   UNL A   1      41.072  32.314  30.568  1.00  0.00     0.031 C 
ATOM     54  C   UNL A   1      46.383  31.441  27.756  1.00  0.00     0.029 A 
ATOM     55  C   UNL A   1      45.098  31.259  28.242  1.00  0.00     0.049 A 
ATOM     56  H   UNL A   1      43.834  29.579  28.058  1.00  0.00     0.167 HD
ATOM     57  C   UNL A   1      43.036  31.912  29.455  1.00  0.00     0.074 A 
ATOM     58  C   UNL A   1      42.230  32.848  30.210  1.00  0.00     0.031 C 
ATOM     59  C   UNL A   1      44.287  32.178  29.002  1.00  0.00     0.034 A 
BRANCH  46  60
ATOM     60  C   UNL A   1      46.803  27.544  25.737  1.00  0.00     0.023 A 
ATOM     61  C   UNL A   1      47.092  27.961  24.426  1.00  0.00     0.031 A 
ATOM     62  C   UNL A   1      47.632  26.565  26.315  1.00  0.00     0.131 A 
ATOM     63  C   UNL A   1      48.133  27.346  23.711  1.00  0.00     0.055 A 
ATOM     64  C   UNL A   1      48.715  26.015  25.626  1.00  0.00     0.041 A 
ATOM     65  F   UNL A   1      47.391  26.113  27.556  1.00  0.00    -0.206 F 
ATOM     66  C   UNL A   1      48.960  26.393  24.310  1.00  0.00     0.022 A 
BRANCH  63  67
ATOM     67  S   UNL A   1      48.297  27.703  21.940  1.00  0.00     0.124 S 
ATOM     68  O   UNL A   1      48.574  26.374  21.396  1.00  0.00    -0.237 OA
ATOM     69  O   UNL A   1      46.994  28.268  21.609  1.00  0.00    -0.237 OA
ATOM     70  O   UNL A   1      49.417  28.638  21.880  1.00  0.00    -0.744 OA
ENDBRANCH  63  67
ENDBRANCH  46  60
BRANCH  47  71
ATOM     71  C   UNL A   1      38.784  30.526  30.926  1.00  0.00     0.023 A 
ATOM     72  C   UNL A   1      37.673  31.145  30.333  1.00  0.00     0.031 A 
ATOM     73  C   UNL A   1      38.789  30.375  32.324  1.00  0.00     0.131 A 
ATOM     74  C   UNL A   1      36.629  31.625  31.139  1.00  0.00     0.055 A 
ATOM     75  C   UNL A   1      37.726  30.811  33.117  1.00  0.00     0.041 A 
ATOM     76  F   UNL A   1      39.828  29.790  32.940  1.00  0.00    -0.206 F 
ATOM     77  C   UNL A   1      36.642  31.452  32.525  1.00  0.00     0.022 A 
BRANCH  74  78
ATOM     78  S   UNL A   1      35.279  32.550  30.354  1.00  0.00     0.124 S 
ATOM     79  O   UNL A   1      34.314  32.649  31.443  1.00  0.00    -0.237 OA
ATOM     80  O   UNL A   1      35.945  33.790  29.972  1.00  0.00    -0.237 OA
ATOM     81  O   UNL A   1      34.881  31.691  29.241  1.00  0.00    -0.744 OA
ENDBRANCH  74  78
ENDBRANCH  47  71
BRANCH  59  82
ATOM     82  C   UNL A   1      44.834  33.557  29.278  1.00  0.00     0.023 A 
ATOM     83  C   UNL A   1      44.641  34.621  28.381  1.00  0.00     0.031 A 
ATOM     84  C   UNL A   1      45.577  33.799  30.447  1.00  0.00     0.131 A 
ATOM     85  C   UNL A   1      45.229  35.869  28.642  1.00  0.00     0.055 A 
ATOM     86  C   UNL A   1      46.121  35.053  30.724  1.00  0.00     0.041 A 
ATOM     87  F   UNL A   1      45.791  32.815  31.336  1.00  0.00    -0.206 F 
ATOM     88  C   UNL A   1      45.958  36.094  29.813  1.00  0.00     0.022 A 
BRANCH  85  89
ATOM     89  S   UNL A   1      45.099  37.175  27.390  1.00  0.00     0.124 S 
ATOM     90  O   UNL A   1      46.103  36.762  26.413  1.00  0.00    -0.237 OA
ATOM     91  O   UNL A   1      43.709  37.060  26.962  1.00  0.00    -0.237 OA
ATOM     92  O   UNL A   1      45.420  38.394  28.129  1.00  0.00    -0.744 OA
ENDBRANCH  85  89
ENDBRANCH  59  82
ENDBRANCH  33  34
ENDBRANCH  26  28
ENDBRANCH  25  26
ENDBRANCH  24  25
ENDBRANCH  23  24
ENDBRANCH   1  23
TORSDOF 20
ENDMDL
MODEL 2
REMARK VINA RESULT:      -9.9      5.029      7.440
REMARK SMILES [NH3+]CCOCC(=O)Nc1ccc(C(=O)OCCOC(=O)c2ccc(-c3c4nc(c(-c5cc(S(=O)(=O)[O-])ccc5F)c5ccc([nH]5)c(-c5cc(S(=O)(=O)[O-])ccc5F)c5nc(c(-c6cc(S(=O)(=O)[O-])ccc6F)c6ccc3[nH]6)C=C5)C=C4)cc2)c(Cl)c1
REMARK SMILES IDX 15 1 13 2 14 3 12 4 9 5 10 6 86 7 11 8 84 9 85 10 8 11 6 12
REMARK SMILES IDX 7 13 5 15 4 16 3 17 2 18 1 19 16 23 17 24 18 25 19 26 20 27
REMARK SMILES IDX 21 28 22 29 83 30 23 31 82 32 24 33 25 34 26 35 76 36 27 37
REMARK SMILES IDX 81 38 75 39 77 40 28 41 80 42 74 43 73 44 29 46 61 47 41 48
REMARK SMILES IDX 60 49 42 50 45 51 59 52 78 53 43 54 44 55 58 57 79 58 46 59
REMARK SMILES IDX 30 60 31 61 39 62 32 63 38 64 40 65 37 66 33 67 34 68 35 69
REMARK SMILES IDX 36 70 62 71 63 72 71 73 64 74 70 75 72 76 69 77 65 78 66 79
REMARK SMILES IDX 67 80 68 81 47 82 48 83 56 84 49 85 55 86 57 87 54 88 50 89
REMARK SMILES IDX 51 90 52 91 53 92
REMARK H PARENT 8 14 1 20 1 21 1 22 77 45 45 56
REMARK Flexibility Score: inf
ROOT
ATOM      1  O   UNL A   1      32.031  29.502  24.488  1.00  0.00    -0.458 OA
ENDROOT
BRANCH   1   2
ATOM      2  C   UNL A   1      31.455  28.327  24.140  1.00  0.00     0.339 C 
ATOM      3  O   UNL A   1      30.401  28.175  23.539  1.00  0.00    -0.246 OA
BRANCH   2   4
ATOM      4  C   UNL A   1      32.368  27.212  24.448  1.00  0.00     0.078 A 
ATOM      5  C   UNL A   1      33.896  24.964  25.156  1.00  0.00     0.042 A 
ATOM      6  C   UNL A   1      33.035  25.549  26.082  1.00  0.00     0.027 A 
ATOM      7  C   UNL A   1      34.068  25.572  23.908  1.00  0.00     0.047 A 
ATOM      8  C   UNL A   1      32.298  26.684  25.742  1.00  0.00     0.019 A 
ATOM      9  C   UNL A   1      33.286  26.678  23.540  1.00  0.00     0.057 A 
ATOM     10  Cl  UNL A   1      33.556  27.365  21.977  1.00  0.00    -0.083 Cl
BRANCH   5  11
ATOM     11  N   UNL A   1      34.669  23.839  25.471  1.00  0.00    -0.324 N 
ATOM     12  C   UNL A   1      34.341  22.508  25.378  1.00  0.00     0.250 C 
ATOM     13  O   UNL A   1      35.031  21.681  25.981  1.00  0.00    -0.272 OA
ATOM     14  H   UNL A   1      35.574  24.029  25.805  1.00  0.00     0.170 HD
BRANCH  12  15
ATOM     15  C   UNL A   1      33.220  22.062  24.415  1.00  0.00     0.260 C 
BRANCH  15  16
ATOM     16  O   UNL A   1      31.885  22.443  24.665  1.00  0.00    -0.366 OA
BRANCH  16  17
ATOM     17  C   UNL A   1      31.389  22.148  25.971  1.00  0.00     0.222 C 
BRANCH  17  18
ATOM     18  C   UNL A   1      30.318  23.123  26.490  1.00  0.00     0.287 C 
BRANCH  18  19
ATOM     19  N   UNL A   1      29.221  22.487  27.223  1.00  0.00    -0.356 N 
ATOM     20  H   UNL A   1      28.329  22.788  26.827  1.00  0.00     0.344 HD
ATOM     21  H   UNL A   1      29.264  22.758  28.205  1.00  0.00     0.344 HD
ATOM     22  H   UNL A   1      29.302  21.473  27.146  1.00  0.00     0.344 HD
ENDBRANCH  18  19
ENDBRANCH  17  18
ENDBRANCH  16  17
ENDBRANCH  15  16
ENDBRANCH  12  15
ENDBRANCH   5  11
ENDBRANCH   2   4
ENDBRANCH   1   2
BRANCH   1  23
ATOM     23  C   UNL A   1      31.258  30.372  25.335  1.00  0.00     0.275 C 
BRANCH  23  24
ATOM     24  C   UNL A   1      31.786  30.327  26.770  1.00  0.00     0.275 C 
BRANCH  24  25
ATOM     25  O   UNL A   1      33.228  30.337  26.785  1.00  0.00    -0.458 OA
BRANCH  25  26
ATOM     26  C   UNL A   1      33.780  31.434  27.352  1.00  0.00     0.338 C 
ATOM     27  O   UNL A   1      33.259  32.528  27.508  1.00  0.00    -0.246 OA
BRANCH  26  28
ATOM     28  C   UNL A   1      35.108  31.105  27.891  1.00  0.00     0.060 A 
ATOM     29  C   UNL A   1      35.306  29.807  28.359  1.00  0.00     0.016 A 
ATOM     30  C   UNL A   1      36.085  32.080  28.086  1.00  0.00     0.016 A 
ATOM     31  C   UNL A   1      36.461  29.477  29.063  1.00  0.00     0.010 A 
ATOM     32  C   UNL A   1      37.257  31.746  28.780  1.00  0.00     0.010 A 
ATOM     33  C   UNL A   1      37.439  30.451  29.306  1.00  0.00    -0.014 A 
BRANCH  33  34
ATOM     34  C   UNL A   1      38.566  30.145  30.231  1.00  0.00     0.031 A 
ATOM     35  C   UNL A   1      39.711  29.294  29.743  1.00  0.00     0.074 A 
ATOM     36  C   UNL A   1      38.609  30.668  31.472  1.00  0.00     0.049 A 
ATOM     37  N   UNL A   1      40.731  28.811  30.405  1.00  0.00    -0.248 NA
ATOM     38  C   UNL A   1      39.693  28.932  28.318  1.00  0.00     0.031 C 
ATOM     39  C   UNL A   1      37.601  31.556  32.050  1.00  0.00     0.029 A 
ATOM     40  N   UNL A   1      39.546  30.534  32.467  1.00  0.00    -0.354 N 
ATOM     41  C   UNL A   1      41.449  28.046  29.490  1.00  0.00     0.074 A 
ATOM     42  C   UNL A   1      40.739  28.124  28.231  1.00  0.00     0.031 C 
ATOM     43  C   UNL A   1      37.983  31.903  33.291  1.00  0.00     0.029 A 
ATOM     44  C   UNL A   1      39.231  31.218  33.619  1.00  0.00     0.049 A 
ATOM     45  H   UNL A   1      40.366  29.998  32.366  1.00  0.00     0.167 HD
ATOM     46  C   UNL A   1      42.595  27.343  29.683  1.00  0.00     0.034 A 
ATOM     47  C   UNL A   1      39.860  31.264  34.811  1.00  0.00     0.034 A 
ATOM     48  C   UNL A   1      43.321  27.308  30.930  1.00  0.00     0.049 A 
ATOM     49  C   UNL A   1      41.128  30.470  35.006  1.00  0.00     0.074 A 
ATOM     50  C   UNL A   1      44.483  26.621  31.236  1.00  0.00     0.029 A 
ATOM     51  N   UNL A   1      42.961  28.005  32.077  1.00  0.00    -0.354 N 
ATOM     52  N   UNL A   1      41.752  29.688  34.156  1.00  0.00    -0.248 NA
ATOM     53  C   UNL A   1      41.771  30.563  36.324  1.00  0.00     0.031 C 
ATOM     54  C   UNL A   1      44.803  26.868  32.577  1.00  0.00     0.029 A 
ATOM     55  C   UNL A   1      43.874  27.758  33.091  1.00  0.00     0.049 A 
ATOM     56  H   UNL A   1      42.173  28.590  32.157  1.00  0.00     0.167 HD
ATOM     57  C   UNL A   1      42.870  29.210  34.834  1.00  0.00     0.074 A 
ATOM     58  C   UNL A   1      42.845  29.806  36.153  1.00  0.00     0.031 C 
ATOM     59  C   UNL A   1      43.831  28.353  34.404  1.00  0.00     0.034 A 
BRANCH  46  60
ATOM     60  C   UNL A   1      43.091  26.505  28.530  1.00  0.00     0.023 A 
ATOM     61  C   UNL A   1      44.180  26.899  27.734  1.00  0.00     0.031 A 
ATOM     62  C   UNL A   1      42.427  25.311  28.195  1.00  0.00     0.131 A 
ATOM     63  C   UNL A   1      44.524  26.146  26.600  1.00  0.00     0.055 A 
ATOM     64  C   UNL A   1      42.825  24.525  27.111  1.00  0.00     0.041 A 
ATOM     65  F   UNL A   1      41.367  24.896  28.906  1.00  0.00    -0.206 F 
ATOM     66  C   UNL A   1      43.870  24.951  26.296  1.00  0.00     0.022 A 
BRANCH  63  67
ATOM     67  S   UNL A   1      45.743  26.830  25.443  1.00  0.00     0.124 S 
ATOM     68  O   UNL A   1      46.787  27.296  26.354  1.00  0.00    -0.237 OA
ATOM     69  O   UNL A   1      46.082  25.674  24.621  1.00  0.00    -0.237 OA
ATOM     70  O   UNL A   1      45.008  27.890  24.757  1.00  0.00    -0.744 OA
ENDBRANCH  63  67
ENDBRANCH  46  60
BRANCH  47  71
ATOM     71  C   UNL A   1      39.279  32.046  35.939  1.00  0.00     0.023 A 
ATOM     72  C   UNL A   1      38.498  31.429  36.928  1.00  0.00     0.031 A 
ATOM     73  C   UNL A   1      39.461  33.439  36.014  1.00  0.00     0.131 A 
ATOM     74  C   UNL A   1      37.895  32.207  37.928  1.00  0.00     0.055 A 
ATOM     75  C   UNL A   1      38.899  34.202  37.039  1.00  0.00     0.041 A 
ATOM     76  F   UNL A   1      40.199  34.077  35.093  1.00  0.00    -0.206 F 
ATOM     77  C   UNL A   1      38.099  33.587  37.998  1.00  0.00     0.022 A 
BRANCH  74  78
ATOM     78  S   UNL A   1      36.773  31.398  39.103  1.00  0.00     0.124 S 
ATOM     79  O   UNL A   1      37.581  31.372  40.317  1.00  0.00    -0.237 OA
ATOM     80  O   UNL A   1      35.634  32.309  39.109  1.00  0.00    -0.237 OA
ATOM     81  O   UNL A   1      36.522  30.094  38.491  1.00  0.00    -0.744 OA
ENDBRANCH  74  78
ENDBRANCH  47  71
BRANCH  59  82
ATOM     82  C   UNL A   1      44.955  28.052  35.365  1.00  0.00     0.023 A 
ATOM     83  C   UNL A   1      46.102  28.861  35.436  1.00  0.00     0.031 A 
ATOM     84  C   UNL A   1      44.883  26.925  36.202  1.00  0.00     0.131 A 
ATOM     85  C   UNL A   1      47.156  28.502  36.291  1.00  0.00     0.055 A 
ATOM     86  C   UNL A   1      45.913  26.599  37.084  1.00  0.00     0.041 A 
ATOM     87  F   UNL A   1      43.809  26.119  36.171  1.00  0.00    -0.206 F 
ATOM     88  C   UNL A   1      47.063  27.383  37.123  1.00  0.00     0.022 A 
BRANCH  85  89
ATOM     89  S   UNL A   1      48.688  29.473  36.244  1.00  0.00     0.124 S 
ATOM     90  O   UNL A   1      49.625  28.533  35.635  1.00  0.00    -0.237 OA
ATOM     91  O   UNL A   1      48.308  30.616  35.422  1.00  0.00    -0.237 OA
ATOM     92  O   UNL A   1      48.945  29.779  37.650  1.00  0.00    -0.744 OA
ENDBRANCH  85  89
ENDBRANCH  59  82
ENDBRANCH  33  34
ENDBRANCH  26  28
ENDBRANCH  25  26
ENDBRANCH  24  25
ENDBRANCH  23  24
ENDBRANCH   1  23
TORSDOF 20
ENDMDL
MODEL 3
REMARK VINA RESULT:      -9.9      1.785      2.132
REMARK SMILES [NH3+]CCOCC(=O)Nc1ccc(C(=O)OCCOC(=O)c2ccc(-c3c4nc(c(-c5cc(S(=O)(=O)[O-])ccc5F)c5ccc([nH]5)c(-c5cc(S(=O)(=O)[O-])ccc5F)c5nc(c(-c6cc(S(=O)(=O)[O-])ccc6F)c6ccc3[nH]6)C=C5)C=C4)cc2)c(Cl)c1
REMARK SMILES IDX 15 1 13 2 14 3 12 4 9 5 10 6 86 7 11 8 84 9 85 10 8 11 6 12
REMARK SMILES IDX 7 13 5 15 4 16 3 17 2 18 1 19 16 23 17 24 18 25 19 26 20 27
REMARK SMILES IDX 21 28 22 29 83 30 23 31 82 32 24 33 25 34 26 35 76 36 27 37
REMARK SMILES IDX 81 38 75 39 77 40 28 41 80 42 74 43 73 44 29 46 61 47 41 48
REMARK SMILES IDX 60 49 42 50 45 51 59 52 78 53 43 54 44 55 58 57 79 58 46 59
REMARK SMILES IDX 30 60 31 61 39 62 32 63 38 64 40 65 37 66 33 67 34 68 35 69
REMARK SMILES IDX 36 70 62 71 63 72 71 73 64 74 70 75 72 76 69 77 65 78 66 79
REMARK SMILES IDX 67 80 68 81 47 82 48 83 56 84 49 85 55 86 57 87 54 88 50 89
REMARK SMILES IDX 51 90 52 91 53 92
REMARK H PARENT 8 14 1 20 1 21 1 22 77 45 45 56
REMARK Flexibility Score: inf
ROOT
ATOM      1  O   UNL A   1      36.147  21.273  24.333  1.00  0.00    -0.458 OA
ENDROOT
BRANCH   1   2
ATOM      2  C   UNL A   1      34.827  21.494  24.535  1.00  0.00     0.339 C 
ATOM      3  O   UNL A   1      34.015  20.713  25.008  1.00  0.00    -0.246 OA
BRANCH   2   4
ATOM      4  C   UNL A   1      34.506  22.905  24.249  1.00  0.00     0.078 A 
ATOM      5  C   UNL A   1      33.638  25.511  23.668  1.00  0.00     0.042 A 
ATOM      6  C   UNL A   1      33.220  24.439  22.882  1.00  0.00     0.027 A 
ATOM      7  C   UNL A   1      34.575  25.288  24.682  1.00  0.00     0.047 A 
ATOM      8  C   UNL A   1      33.674  23.148  23.151  1.00  0.00     0.019 A 
ATOM      9  C   UNL A   1      34.990  23.984  24.994  1.00  0.00     0.057 A 
ATOM     10  Cl  UNL A   1      36.146  23.794  26.265  1.00  0.00    -0.083 Cl
BRANCH   5  11
ATOM     11  N   UNL A   1      33.220  26.824  23.413  1.00  0.00    -0.324 N 
ATOM     12  C   UNL A   1      32.049  27.448  23.772  1.00  0.00     0.250 C 
ATOM     13  O   UNL A   1      31.734  28.496  23.203  1.00  0.00    -0.272 OA
ATOM     14  H   UNL A   1      33.855  27.378  22.905  1.00  0.00     0.170 HD
BRANCH  12  15
ATOM     15  C   UNL A   1      31.234  26.913  24.969  1.00  0.00     0.260 C 
BRANCH  15  16
ATOM     16  O   UNL A   1      29.873  26.583  24.801  1.00  0.00    -0.366 OA
BRANCH  16  17
ATOM     17  C   UNL A   1      29.335  26.809  23.498  1.00  0.00     0.222 C 
BRANCH  17  18
ATOM     18  C   UNL A   1      28.356  27.992  23.399  1.00  0.00     0.287 C 
BRANCH  18  19
ATOM     19  N   UNL A   1      28.709  28.990  22.387  1.00  0.00    -0.356 N 
ATOM     20  H   UNL A   1      28.019  28.970  21.635  1.00  0.00     0.344 HD
ATOM     21  H   UNL A   1      29.632  28.778  22.007  1.00  0.00     0.344 HD
ATOM     22  H   UNL A   1      28.721  29.917  22.812  1.00  0.00     0.344 HD
ENDBRANCH  18  19
ENDBRANCH  17  18
ENDBRANCH  16  17
ENDBRANCH  15  16
ENDBRANCH  12  15
ENDBRANCH   5  11
ENDBRANCH   2   4
ENDBRANCH   1   2
BRANCH   1  23
ATOM     23  C   UNL A   1      36.703  20.093  24.940  1.00  0.00     0.275 C 
BRANCH  23  24
ATOM     24  C   UNL A   1      38.228  20.105  24.832  1.00  0.00     0.275 C 
BRANCH  24  25
ATOM     25  O   UNL A   1      38.833  19.711  26.080  1.00  0.00    -0.458 OA
BRANCH  25  26
ATOM     26  C   UNL A   1      40.163  19.942  26.162  1.00  0.00     0.338 C 
ATOM     27  O   UNL A   1      41.064  19.241  25.729  1.00  0.00    -0.246 OA
BRANCH  26  28
ATOM     28  C   UNL A   1      40.407  21.263  26.763  1.00  0.00     0.060 A 
ATOM     29  C   UNL A   1      39.748  22.354  26.199  1.00  0.00     0.016 A 
ATOM     30  C   UNL A   1      41.376  21.456  27.745  1.00  0.00     0.016 A 
ATOM     31  C   UNL A   1      40.078  23.652  26.578  1.00  0.00     0.010 A 
ATOM     32  C   UNL A   1      41.699  22.763  28.141  1.00  0.00     0.010 A 
ATOM     33  C   UNL A   1      41.078  23.873  27.534  1.00  0.00    -0.014 A 
BRANCH  33  34
ATOM     34  C   UNL A   1      41.566  25.259  27.780  1.00  0.00     0.031 A 
ATOM     35  C   UNL A   1      42.928  25.661  27.274  1.00  0.00     0.074 A 
ATOM     36  C   UNL A   1      40.786  26.175  28.386  1.00  0.00     0.049 A 
ATOM     37  N   UNL A   1      43.596  26.769  27.471  1.00  0.00    -0.248 NA
ATOM     38  C   UNL A   1      43.633  24.673  26.444  1.00  0.00     0.031 C 
ATOM     39  C   UNL A   1      39.425  25.939  28.869  1.00  0.00     0.029 A 
ATOM     40  N   UNL A   1      41.025  27.492  28.693  1.00  0.00    -0.354 N 
ATOM     41  C   UNL A   1      44.822  26.592  26.834  1.00  0.00     0.074 A 
ATOM     42  C   UNL A   1      44.803  25.266  26.255  1.00  0.00     0.031 C 
ATOM     43  C   UNL A   1      38.943  27.079  29.392  1.00  0.00     0.029 A 
ATOM     44  C   UNL A   1      39.977  28.109  29.337  1.00  0.00     0.049 A 
ATOM     45  H   UNL A   1      41.868  27.952  28.471  1.00  0.00     0.167 HD
ATOM     46  C   UNL A   1      45.865  27.456  26.741  1.00  0.00     0.034 A 
ATOM     47  C   UNL A   1      39.873  29.353  29.849  1.00  0.00     0.034 A 
ATOM     48  C   UNL A   1      45.856  28.793  27.284  1.00  0.00     0.049 A 
ATOM     49  C   UNL A   1      41.047  30.295  29.742  1.00  0.00     0.074 A 
ATOM     50  C   UNL A   1      46.861  29.745  27.257  1.00  0.00     0.029 A 
ATOM     51  N   UNL A   1      44.780  29.376  27.942  1.00  0.00    -0.354 N 
ATOM     52  N   UNL A   1      42.227  30.086  29.205  1.00  0.00    -0.248 NA
ATOM     53  C   UNL A   1      40.874  31.637  30.313  1.00  0.00     0.031 C 
ATOM     54  C   UNL A   1      46.410  30.886  27.932  1.00  0.00     0.029 A 
ATOM     55  C   UNL A   1      45.100  30.669  28.328  1.00  0.00     0.049 A 
ATOM     56  H   UNL A   1      43.915  28.936  28.107  1.00  0.00     0.167 HD
ATOM     57  C   UNL A   1      42.929  31.278  29.363  1.00  0.00     0.074 A 
ATOM     58  C   UNL A   1      42.035  32.205  30.024  1.00  0.00     0.031 C 
ATOM     59  C   UNL A   1      44.200  31.579  28.994  1.00  0.00     0.034 A 
BRANCH  46  60
ATOM     60  C   UNL A   1      47.123  26.948  26.082  1.00  0.00     0.023 A 
ATOM     61  C   UNL A   1      48.119  26.265  26.800  1.00  0.00     0.031 A 
ATOM     62  C   UNL A   1      47.348  27.194  24.715  1.00  0.00     0.131 A 
ATOM     63  C   UNL A   1      49.324  25.921  26.167  1.00  0.00     0.055 A 
ATOM     64  C   UNL A   1      48.516  26.779  24.073  1.00  0.00     0.041 A 
ATOM     65  F   UNL A   1      46.441  27.861  23.983  1.00  0.00    -0.206 F 
ATOM     66  C   UNL A   1      49.520  26.152  24.804  1.00  0.00     0.022 A 
BRANCH  63  67
ATOM     67  S   UNL A   1      50.692  25.300  27.186  1.00  0.00     0.124 S 
ATOM     68  O   UNL A   1      50.049  24.203  27.906  1.00  0.00    -0.237 OA
ATOM     69  O   UNL A   1      51.681  24.914  26.186  1.00  0.00    -0.237 OA
ATOM     70  O   UNL A   1      51.055  26.450  28.011  1.00  0.00    -0.744 OA
ENDBRANCH  63  67
ENDBRANCH  46  60
BRANCH  47  71
ATOM     71  C   UNL A   1      38.633  29.772  30.561  1.00  0.00     0.023 A 
ATOM     72  C   UNL A   1      37.667  30.573  29.932  1.00  0.00     0.031 A 
ATOM     73  C   UNL A   1      38.422  29.415  31.905  1.00  0.00     0.131 A 
ATOM     74  C   UNL A   1      36.552  31.021  30.657  1.00  0.00     0.055 A 
ATOM     75  C   UNL A   1      37.288  29.825  32.608  1.00  0.00     0.041 A 
ATOM     76  F   UNL A   1      39.316  28.652  32.553  1.00  0.00    -0.206 F 
ATOM     77  C   UNL A   1      36.350  30.643  31.986  1.00  0.00     0.022 A 
BRANCH  74  78
ATOM     78  S   UNL A   1      35.400  32.173  29.858  1.00  0.00     0.124 S 
ATOM     79  O   UNL A   1      34.930  31.385  28.725  1.00  0.00    -0.237 OA
ATOM     80  O   UNL A   1      34.430  32.415  30.919  1.00  0.00    -0.237 OA
ATOM     81  O   UNL A   1      36.244  33.317  29.516  1.00  0.00    -0.744 OA
ENDBRANCH  74  78
ENDBRANCH  47  71
BRANCH  59  82
ATOM     82  C   UNL A   1      44.674  32.986  29.263  1.00  0.00     0.023 A 
ATOM     83  C   UNL A   1      44.651  33.976  28.266  1.00  0.00     0.031 A 
ATOM     84  C   UNL A   1      45.175  33.329  30.531  1.00  0.00     0.131 A 
ATOM     85  C   UNL A   1      45.168  35.252  28.539  1.00  0.00     0.055 A 
ATOM     86  C   UNL A   1      45.646  34.613  30.810  1.00  0.00     0.041 A 
ATOM     87  F   UNL A   1      45.220  32.419  31.517  1.00  0.00    -0.206 F 
ATOM     88  C   UNL A   1      45.656  35.579  29.807  1.00  0.00     0.022 A 
BRANCH  85  89
ATOM     89  S   UNL A   1      45.274  36.458  27.188  1.00  0.00     0.124 S 
ATOM     90  O   UNL A   1      45.586  35.607  26.043  1.00  0.00    -0.237 OA
ATOM     91  O   UNL A   1      43.943  37.053  27.195  1.00  0.00    -0.237 OA
ATOM     92  O   UNL A   1      46.354  37.350  27.607  1.00  0.00    -0.744 OA
ENDBRANCH  85  89
ENDBRANCH  59  82
ENDBRANCH  33  34
ENDBRANCH  26  28
ENDBRANCH  25  26
ENDBRANCH  24  25
ENDBRANCH  23  24
ENDBRANCH   1  23
TORSDOF 20
ENDMDL
