MODEL 1
REMARK VINA RESULT:     -12.0      0.000      0.000
REMARK SMILES Cc1ccc([C@@H](C)Nc2ccc(N)cc2C(=O)OCCOC(=O)c2ccc(-c3c4nc(c(-c5cc(S(=O)(=O)[O-])ccc5F)c5ccc([nH]5)c(-c5cc(S(=O)(=O)[O-])ccc5F)c5nc(c(-c6cc(S(=O)(=O)[O-])ccc6F)c6ccc3[nH]6)C=C5)C=C4)cc2)cc1F
REMARK SMILES IDX 19 1 18 2 16 3 17 4 15 5 9 6 10 7 11 8 14 9 12 10 8 11 6 13
REMARK SMILES IDX 7 14 5 15 1 16 2 17 3 18 88 19 4 20 87 21 89 22 13 23 20 26
REMARK SMILES IDX 21 27 22 28 23 29 24 30 25 31 86 32 26 33 85 34 27 35 28 36
REMARK SMILES IDX 29 37 79 38 30 39 84 40 78 41 80 42 31 43 83 44 77 45 76 46
REMARK SMILES IDX 32 48 64 49 44 50 63 51 45 52 48 53 62 54 81 55 46 56 47 57
REMARK SMILES IDX 61 59 82 60 49 61 33 62 34 63 42 64 35 65 41 66 43 67 40 68
REMARK SMILES IDX 36 69 37 70 38 71 39 72 65 73 66 74 74 75 67 76 73 77 75 78
REMARK SMILES IDX 72 79 68 80 69 81 70 82 71 83 50 84 51 85 59 86 52 87 58 88
REMARK SMILES IDX 60 89 57 90 53 91 54 92 55 93 56 94
REMARK H PARENT 8 12 13 24 13 25 80 47 48 58
REMARK Flexibility Score: inf
ROOT
ATOM      1  C   UNL A   1      32.911  31.161  27.528  1.00  0.00     0.275 C 
ENDROOT
BRANCH   1   2
ATOM      2  O   UNL A   1      32.314  30.533  26.369  1.00  0.00    -0.458 OA
BRANCH   2   3
ATOM      3  C   UNL A   1      32.064  29.199  26.447  1.00  0.00     0.340 C 
ATOM      4  O   UNL A   1      32.407  28.475  27.378  1.00  0.00    -0.246 OA
BRANCH   3   5
ATOM      5  C   UNL A   1      31.324  28.679  25.268  1.00  0.00     0.085 A 
ATOM      6  C   UNL A   1      30.955  27.341  25.028  1.00  0.00     0.049 A 
ATOM      7  C   UNL A   1      30.251  27.095  23.819  1.00  0.00     0.029 A 
ATOM      8  C   UNL A   1      29.944  28.087  22.891  1.00  0.00     0.027 A 
ATOM      9  C   UNL A   1      30.988  29.682  24.324  1.00  0.00     0.043 A 
ATOM     10  C   UNL A   1      30.368  29.382  23.111  1.00  0.00     0.032 A 
BRANCH   6  11
ATOM     11  N   UNL A   1      31.073  26.217  25.816  1.00  0.00    -0.378 N 
ATOM     12  H   UNL A   1      30.904  26.420  26.765  1.00  0.00     0.161 HD
BRANCH  11  13
ATOM     13  C   UNL A   1      31.380  24.812  25.617  1.00  0.00     0.106 C 
ATOM     14  C   UNL A   1      30.819  23.871  26.682  1.00  0.00     0.036 C 
BRANCH  13  15
ATOM     15  C   UNL A   1      32.774  24.577  25.040  1.00  0.00    -0.023 A 
ATOM     16  C   UNL A   1      36.666  23.159  23.752  1.00  0.00     0.047 C 
ATOM     17  C   UNL A   1      35.346  23.707  24.196  1.00  0.00    -0.015 A 
ATOM     18  C   UNL A   1      35.181  24.338  25.430  1.00  0.00     0.007 A 
ATOM     19  C   UNL A   1      34.233  23.572  23.370  1.00  0.00     0.126 A 
ATOM     20  C   UNL A   1      33.911  24.760  25.848  1.00  0.00     0.006 A 
ATOM     21  C   UNL A   1      32.970  24.009  23.768  1.00  0.00     0.045 A 
ATOM     22  F   UNL A   1      34.371  22.953  22.188  1.00  0.00    -0.207 F 
ENDBRANCH  13  15
ENDBRANCH  11  13
ENDBRANCH   6  11
BRANCH  10  23
ATOM     23  N   UNL A   1      30.102  30.381  22.163  1.00  0.00    -0.399 N 
ATOM     24  H   UNL A   1      29.183  30.513  21.833  1.00  0.00     0.156 HD
ATOM     25  H   UNL A   1      30.831  30.949  21.829  1.00  0.00     0.156 HD
ENDBRANCH  10  23
ENDBRANCH   3   5
ENDBRANCH   2   3
ENDBRANCH   1   2
BRANCH   1  26
ATOM     26  C   UNL A   1      34.422  31.316  27.415  1.00  0.00     0.275 C 
BRANCH  26  27
ATOM     27  O   UNL A   1      34.926  32.044  28.537  1.00  0.00    -0.458 OA
BRANCH  27  28
ATOM     28  C   UNL A   1      36.157  31.598  28.877  1.00  0.00     0.338 C 
ATOM     29  O   UNL A   1      37.113  32.295  29.179  1.00  0.00    -0.246 OA
BRANCH  28  30
ATOM     30  C   UNL A   1      36.311  30.166  28.565  1.00  0.00     0.060 A 
ATOM     31  C   UNL A   1      36.604  29.450  29.734  1.00  0.00     0.016 A 
ATOM     32  C   UNL A   1      37.090  30.022  27.413  1.00  0.00     0.016 A 
ATOM     33  C   UNL A   1      37.909  29.032  29.915  1.00  0.00     0.010 A 
ATOM     34  C   UNL A   1      38.389  29.607  27.593  1.00  0.00     0.010 A 
ATOM     35  C   UNL A   1      38.812  29.214  28.871  1.00  0.00    -0.014 A 
BRANCH  35  36
ATOM     36  C   UNL A   1      40.200  28.825  28.976  1.00  0.00     0.031 A 
ATOM     37  C   UNL A   1      40.509  27.406  28.775  1.00  0.00     0.074 A 
ATOM     38  C   UNL A   1      41.175  29.750  29.097  1.00  0.00     0.049 A 
ATOM     39  N   UNL A   1      41.599  26.842  29.156  1.00  0.00    -0.248 NA
ATOM     40  C   UNL A   1      39.544  26.490  28.173  1.00  0.00     0.031 C 
ATOM     41  C   UNL A   1      42.567  29.595  28.711  1.00  0.00     0.029 A 
ATOM     42  N   UNL A   1      41.130  30.983  29.751  1.00  0.00    -0.354 N 
ATOM     43  C   UNL A   1      41.621  25.605  28.555  1.00  0.00     0.074 A 
ATOM     44  C   UNL A   1      40.268  25.372  28.104  1.00  0.00     0.031 C 
ATOM     45  C   UNL A   1      43.292  30.559  29.298  1.00  0.00     0.029 A 
ATOM     46  C   UNL A   1      42.426  31.235  30.247  1.00  0.00     0.049 A 
ATOM     47  H   UNL A   1      40.342  31.565  29.847  1.00  0.00     0.167 HD
ATOM     48  C   UNL A   1      42.825  25.017  28.307  1.00  0.00     0.034 A 
ATOM     49  C   UNL A   1      42.733  31.469  31.560  1.00  0.00     0.034 A 
ATOM     50  C   UNL A   1      43.927  25.818  28.857  1.00  0.00     0.049 A 
ATOM     51  C   UNL A   1      43.704  30.442  32.141  1.00  0.00     0.074 A 
ATOM     52  C   UNL A   1      44.819  26.721  28.297  1.00  0.00     0.029 A 
ATOM     53  N   UNL A   1      44.006  26.019  30.229  1.00  0.00    -0.354 N 
ATOM     54  N   UNL A   1      44.249  29.466  31.473  1.00  0.00    -0.248 NA
ATOM     55  C   UNL A   1      43.967  30.344  33.579  1.00  0.00     0.031 C 
ATOM     56  C   UNL A   1      45.451  27.444  29.346  1.00  0.00     0.029 A 
ATOM     57  C   UNL A   1      44.959  26.977  30.551  1.00  0.00     0.049 A 
ATOM     58  H   UNL A   1      43.455  25.543  30.891  1.00  0.00     0.167 HD
ATOM     59  C   UNL A   1      44.747  28.537  32.355  1.00  0.00     0.074 A 
ATOM     60  C   UNL A   1      44.561  29.143  33.659  1.00  0.00     0.031 C 
ATOM     61  C   UNL A   1      45.190  27.306  31.956  1.00  0.00     0.034 A 
BRANCH  48  62
ATOM     62  C   UNL A   1      42.984  23.918  27.272  1.00  0.00     0.023 A 
ATOM     63  C   UNL A   1      42.520  22.594  27.442  1.00  0.00     0.031 A 
ATOM     64  C   UNL A   1      43.540  24.197  26.009  1.00  0.00     0.131 A 
ATOM     65  C   UNL A   1      42.466  21.683  26.372  1.00  0.00     0.055 A 
ATOM     66  C   UNL A   1      43.551  23.268  24.960  1.00  0.00     0.041 A 
ATOM     67  F   UNL A   1      44.068  25.393  25.717  1.00  0.00    -0.206 F 
ATOM     68  C   UNL A   1      42.980  22.016  25.125  1.00  0.00     0.022 A 
BRANCH  65  69
ATOM     69  S   UNL A   1      41.621  20.080  26.541  1.00  0.00     0.124 S 
ATOM     70  O   UNL A   1      40.210  20.469  26.535  1.00  0.00    -0.237 OA
ATOM     71  O   UNL A   1      42.072  19.360  25.354  1.00  0.00    -0.237 OA
ATOM     72  O   UNL A   1      42.104  19.562  27.817  1.00  0.00    -0.744 OA
ENDBRANCH  65  69
ENDBRANCH  48  62
BRANCH  49  73
ATOM     73  C   UNL A   1      41.574  31.975  32.349  1.00  0.00     0.023 A 
ATOM     74  C   UNL A   1      40.800  31.024  33.021  1.00  0.00     0.031 A 
ATOM     75  C   UNL A   1      40.990  33.208  32.012  1.00  0.00     0.131 A 
ATOM     76  C   UNL A   1      39.427  31.213  33.148  1.00  0.00     0.055 A 
ATOM     77  C   UNL A   1      39.615  33.396  32.142  1.00  0.00     0.041 A 
ATOM     78  F   UNL A   1      41.710  34.156  31.388  1.00  0.00    -0.206 F 
ATOM     79  C   UNL A   1      38.818  32.378  32.673  1.00  0.00     0.022 A 
BRANCH  76  80
ATOM     80  S   UNL A   1      38.435  29.799  33.682  1.00  0.00     0.124 S 
ATOM     81  O   UNL A   1      37.147  30.083  33.056  1.00  0.00    -0.237 OA
ATOM     82  O   UNL A   1      39.181  28.659  33.165  1.00  0.00    -0.237 OA
ATOM     83  O   UNL A   1      38.442  29.896  35.137  1.00  0.00    -0.744 OA
ENDBRANCH  76  80
ENDBRANCH  49  73
BRANCH  61  84
ATOM     84  C   UNL A   1      45.832  26.263  32.854  1.00  0.00     0.023 A 
ATOM     85  C   UNL A   1      45.013  25.467  33.691  1.00  0.00     0.031 A 
ATOM     86  C   UNL A   1      47.192  25.910  32.833  1.00  0.00     0.131 A 
ATOM     87  C   UNL A   1      45.539  24.452  34.497  1.00  0.00     0.055 A 
ATOM     88  C   UNL A   1      47.730  24.932  33.681  1.00  0.00     0.041 A 
ATOM     89  F   UNL A   1      48.042  26.431  31.937  1.00  0.00    -0.206 F 
ATOM     90  C   UNL A   1      46.904  24.202  34.525  1.00  0.00     0.022 A 
BRANCH  87  91
ATOM     91  S   UNL A   1      44.449  23.374  35.468  1.00  0.00     0.124 S 
ATOM     92  O   UNL A   1      43.144  23.664  34.878  1.00  0.00    -0.237 OA
ATOM     93  O   UNL A   1      44.989  22.050  35.170  1.00  0.00    -0.237 OA
ATOM     94  O   UNL A   1      44.630  23.832  36.841  1.00  0.00    -0.744 OA
ENDBRANCH  87  91
ENDBRANCH  61  84
ENDBRANCH  35  36
ENDBRANCH  28  30
ENDBRANCH  27  28
ENDBRANCH  26  27
ENDBRANCH   1  26
TORSDOF 18
ENDMDL
MODEL 2
REMARK VINA RESULT:     -11.9      4.042      8.654
REMARK SMILES Cc1ccc([C@@H](C)Nc2ccc(N)cc2C(=O)OCCOC(=O)c2ccc(-c3c4nc(c(-c5cc(S(=O)(=O)[O-])ccc5F)c5ccc([nH]5)c(-c5cc(S(=O)(=O)[O-])ccc5F)c5nc(c(-c6cc(S(=O)(=O)[O-])ccc6F)c6ccc3[nH]6)C=C5)C=C4)cc2)cc1F
REMARK SMILES IDX 19 1 18 2 16 3 17 4 15 5 9 6 10 7 11 8 14 9 12 10 8 11 6 13
REMARK SMILES IDX 7 14 5 15 1 16 2 17 3 18 88 19 4 20 87 21 89 22 13 23 20 26
REMARK SMILES IDX 21 27 22 28 23 29 24 30 25 31 86 32 26 33 85 34 27 35 28 36
REMARK SMILES IDX 29 37 79 38 30 39 84 40 78 41 80 42 31 43 83 44 77 45 76 46
REMARK SMILES IDX 32 48 64 49 44 50 63 51 45 52 48 53 62 54 81 55 46 56 47 57
REMARK SMILES IDX 61 59 82 60 49 61 33 62 34 63 42 64 35 65 41 66 43 67 40 68
REMARK SMILES IDX 36 69 37 70 38 71 39 72 65 73 66 74 74 75 67 76 73 77 75 78
REMARK SMILES IDX 72 79 68 80 69 81 70 82 71 83 50 84 51 85 59 86 52 87 58 88
REMARK SMILES IDX 60 89 57 90 53 91 54 92 55 93 56 94
REMARK H PARENT 8 12 13 24 13 25 80 47 48 58
REMARK Flexibility Score: inf
ROOT
ATOM      1  C   UNL A   1      38.719  23.900  26.265  1.00  0.00     0.275 C 
ENDROOT
BRANCH   1   2
ATOM      2  O   UNL A   1      37.509  23.126  26.436  1.00  0.00    -0.458 OA
BRANCH   2   3
ATOM      3  C   UNL A   1      36.370  23.628  25.890  1.00  0.00     0.340 C 
ATOM      4  O   UNL A   1      36.158  24.821  25.683  1.00  0.00    -0.246 OA
BRANCH   3   5
ATOM      5  C   UNL A   1      35.371  22.577  25.562  1.00  0.00     0.085 A 
ATOM      6  C   UNL A   1      33.974  22.735  25.495  1.00  0.00     0.049 A 
ATOM      7  C   UNL A   1      33.230  21.571  25.164  1.00  0.00     0.029 A 
ATOM      8  C   UNL A   1      33.810  20.326  24.932  1.00  0.00     0.027 A 
ATOM      9  C   UNL A   1      35.951  21.309  25.306  1.00  0.00     0.043 A 
ATOM     10  C   UNL A   1      35.175  20.175  25.063  1.00  0.00     0.032 A 
BRANCH   6  11
ATOM     11  N   UNL A   1      33.186  23.859  25.603  1.00  0.00    -0.378 N 
ATOM     12  H   UNL A   1      32.761  23.921  26.490  1.00  0.00     0.161 HD
BRANCH  11  13
ATOM     13  C   UNL A   1      32.815  24.979  24.755  1.00  0.00     0.106 C 
ATOM     14  C   UNL A   1      33.293  24.879  23.308  1.00  0.00     0.036 C 
BRANCH  13  15
ATOM     15  C   UNL A   1      32.843  26.320  25.484  1.00  0.00    -0.023 A 
ATOM     16  C   UNL A   1      32.353  30.358  26.993  1.00  0.00     0.047 C 
ATOM     17  C   UNL A   1      32.581  28.965  26.494  1.00  0.00    -0.015 A 
ATOM     18  C   UNL A   1      33.508  28.678  25.490  1.00  0.00     0.007 A 
ATOM     19  C   UNL A   1      31.838  27.914  27.025  1.00  0.00     0.126 A 
ATOM     20  C   UNL A   1      33.631  27.374  24.988  1.00  0.00     0.006 A 
ATOM     21  C   UNL A   1      31.969  26.611  26.547  1.00  0.00     0.045 A 
ATOM     22  F   UNL A   1      30.931  28.176  27.978  1.00  0.00    -0.207 F 
ENDBRANCH  13  15
ENDBRANCH  11  13
ENDBRANCH   6  11
BRANCH  10  23
ATOM     23  N   UNL A   1      35.766  18.917  24.875  1.00  0.00    -0.399 N 
ATOM     24  H   UNL A   1      35.943  18.589  23.963  1.00  0.00     0.156 HD
ATOM     25  H   UNL A   1      36.003  18.363  25.652  1.00  0.00     0.156 HD
ENDBRANCH  10  23
ENDBRANCH   3   5
ENDBRANCH   2   3
ENDBRANCH   1   2
BRANCH   1  26
ATOM     26  C   UNL A   1      39.525  24.045  27.550  1.00  0.00     0.275 C 
BRANCH  26  27
ATOM     27  O   UNL A   1      39.116  25.219  28.256  1.00  0.00    -0.458 OA
BRANCH  27  28
ATOM     28  C   UNL A   1      40.102  26.145  28.246  1.00  0.00     0.338 C 
ATOM     29  O   UNL A   1      41.240  25.983  28.658  1.00  0.00    -0.246 OA
BRANCH  28  30
ATOM     30  C   UNL A   1      39.572  27.486  27.943  1.00  0.00     0.060 A 
ATOM     31  C   UNL A   1      40.625  28.358  27.635  1.00  0.00     0.016 A 
ATOM     32  C   UNL A   1      38.601  27.828  28.889  1.00  0.00     0.016 A 
ATOM     33  C   UNL A   1      40.994  29.278  28.599  1.00  0.00     0.010 A 
ATOM     34  C   UNL A   1      38.968  28.741  29.849  1.00  0.00     0.010 A 
ATOM     35  C   UNL A   1      40.212  29.381  29.747  1.00  0.00    -0.014 A 
BRANCH  35  36
ATOM     36  C   UNL A   1      40.530  30.299  30.816  1.00  0.00     0.031 A 
ATOM     37  C   UNL A   1      41.129  29.727  32.027  1.00  0.00     0.074 A 
ATOM     38  C   UNL A   1      40.424  31.633  30.643  1.00  0.00     0.049 A 
ATOM     39  N   UNL A   1      41.159  30.318  33.168  1.00  0.00    -0.248 NA
ATOM     40  C   UNL A   1      41.689  28.378  32.041  1.00  0.00     0.031 C 
ATOM     41  C   UNL A   1      41.151  32.660  31.370  1.00  0.00     0.029 A 
ATOM     42  N   UNL A   1      39.505  32.340  29.866  1.00  0.00    -0.354 N 
ATOM     43  C   UNL A   1      42.025  29.593  33.953  1.00  0.00     0.074 A 
ATOM     44  C   UNL A   1      42.188  28.326  33.276  1.00  0.00     0.031 C 
ATOM     45  C   UNL A   1      40.538  33.839  31.188  1.00  0.00     0.029 A 
ATOM     46  C   UNL A   1      39.280  33.574  30.513  1.00  0.00     0.049 A 
ATOM     47  H   UNL A   1      39.091  32.035  29.027  1.00  0.00     0.167 HD
ATOM     48  C   UNL A   1      42.679  30.226  34.966  1.00  0.00     0.034 A 
ATOM     49  C   UNL A   1      38.058  34.035  30.922  1.00  0.00     0.034 A 
ATOM     50  C   UNL A   1      42.228  31.618  35.097  1.00  0.00     0.049 A 
ATOM     51  C   UNL A   1      37.981  34.275  32.429  1.00  0.00     0.074 A 
ATOM     52  C   UNL A   1      42.750  32.832  34.674  1.00  0.00     0.029 A 
ATOM     53  N   UNL A   1      40.905  31.878  35.431  1.00  0.00    -0.354 N 
ATOM     54  N   UNL A   1      38.971  34.123  33.263  1.00  0.00    -0.248 NA
ATOM     55  C   UNL A   1      36.710  34.518  33.116  1.00  0.00     0.031 C 
ATOM     56  C   UNL A   1      41.737  33.824  34.783  1.00  0.00     0.029 A 
ATOM     57  C   UNL A   1      40.598  33.225  35.286  1.00  0.00     0.049 A 
ATOM     58  H   UNL A   1      40.266  31.194  35.732  1.00  0.00     0.167 HD
ATOM     59  C   UNL A   1      38.476  34.050  34.543  1.00  0.00     0.074 A 
ATOM     60  C   UNL A   1      37.059  34.322  34.397  1.00  0.00     0.031 C 
ATOM     61  C   UNL A   1      39.249  33.685  35.611  1.00  0.00     0.034 A 
BRANCH  48  62
ATOM     62  C   UNL A   1      43.953  29.666  35.572  1.00  0.00     0.023 A 
ATOM     63  C   UNL A   1      44.022  29.039  36.837  1.00  0.00     0.031 A 
ATOM     64  C   UNL A   1      45.156  29.662  34.839  1.00  0.00     0.131 A 
ATOM     65  C   UNL A   1      45.159  28.320  37.248  1.00  0.00     0.055 A 
ATOM     66  C   UNL A   1      46.313  29.005  35.278  1.00  0.00     0.041 A 
ATOM     67  F   UNL A   1      45.259  30.263  33.646  1.00  0.00    -0.206 F 
ATOM     68  C   UNL A   1      46.310  28.298  36.470  1.00  0.00     0.022 A 
BRANCH  65  69
ATOM     69  S   UNL A   1      45.133  27.298  38.753  1.00  0.00     0.124 S 
ATOM     70  O   UNL A   1      43.917  26.505  38.571  1.00  0.00    -0.237 OA
ATOM     71  O   UNL A   1      46.383  26.552  38.648  1.00  0.00    -0.237 OA
ATOM     72  O   UNL A   1      45.067  28.273  39.839  1.00  0.00    -0.744 OA
ENDBRANCH  65  69
ENDBRANCH  48  62
BRANCH  49  73
ATOM     73  C   UNL A   1      36.923  33.423  30.174  1.00  0.00     0.023 A 
ATOM     74  C   UNL A   1      36.060  34.297  29.507  1.00  0.00     0.031 A 
ATOM     75  C   UNL A   1      36.448  32.155  30.548  1.00  0.00     0.131 A 
ATOM     76  C   UNL A   1      34.703  33.998  29.420  1.00  0.00     0.055 A 
ATOM     77  C   UNL A   1      35.090  31.857  30.459  1.00  0.00     0.041 A 
ATOM     78  F   UNL A   1      37.257  31.279  31.169  1.00  0.00    -0.206 F 
ATOM     79  C   UNL A   1      34.201  32.798  29.932  1.00  0.00     0.022 A 
BRANCH  76  80
ATOM     80  S   UNL A   1      33.588  35.319  28.888  1.00  0.00     0.124 S 
ATOM     81  O   UNL A   1      34.466  36.133  28.053  1.00  0.00    -0.237 OA
ATOM     82  O   UNL A   1      32.521  34.595  28.210  1.00  0.00    -0.237 OA
ATOM     83  O   UNL A   1      33.172  35.949  30.135  1.00  0.00    -0.744 OA
ENDBRANCH  76  80
ENDBRANCH  49  73
BRANCH  61  84
ATOM     84  C   UNL A   1      38.800  33.665  37.061  1.00  0.00     0.023 A 
ATOM     85  C   UNL A   1      37.950  32.625  37.512  1.00  0.00     0.031 A 
ATOM     86  C   UNL A   1      39.270  34.533  38.061  1.00  0.00     0.131 A 
ATOM     87  C   UNL A   1      37.550  32.521  38.849  1.00  0.00     0.055 A 
ATOM     88  C   UNL A   1      38.826  34.464  39.390  1.00  0.00     0.041 A 
ATOM     89  F   UNL A   1      40.240  35.427  37.820  1.00  0.00    -0.206 F 
ATOM     90  C   UNL A   1      37.955  33.459  39.788  1.00  0.00     0.022 A 
BRANCH  87  91
ATOM     91  S   UNL A   1      36.558  31.112  39.417  1.00  0.00     0.124 S 
ATOM     92  O   UNL A   1      37.106  30.884  40.753  1.00  0.00    -0.237 OA
ATOM     93  O   UNL A   1      35.205  31.660  39.383  1.00  0.00    -0.237 OA
ATOM     94  O   UNL A   1      36.837  30.066  38.440  1.00  0.00    -0.744 OA
ENDBRANCH  87  91
ENDBRANCH  61  84
ENDBRANCH  35  36
ENDBRANCH  28  30
ENDBRANCH  27  28
ENDBRANCH  26  27
ENDBRANCH   1  26
TORSDOF 18
ENDMDL
MODEL 3
REMARK VINA RESULT:     -11.9      2.782      3.547
REMARK SMILES Cc1ccc([C@@H](C)Nc2ccc(N)cc2C(=O)OCCOC(=O)c2ccc(-c3c4nc(c(-c5cc(S(=O)(=O)[O-])ccc5F)c5ccc([nH]5)c(-c5cc(S(=O)(=O)[O-])ccc5F)c5nc(c(-c6cc(S(=O)(=O)[O-])ccc6F)c6ccc3[nH]6)C=C5)C=C4)cc2)cc1F
REMARK SMILES IDX 19 1 18 2 16 3 17 4 15 5 9 6 10 7 11 8 14 9 12 10 8 11 6 13
REMARK SMILES IDX 7 14 5 15 1 16 2 17 3 18 88 19 4 20 87 21 89 22 13 23 20 26
REMARK SMILES IDX 21 27 22 28 23 29 24 30 25 31 86 32 26 33 85 34 27 35 28 36
REMARK SMILES IDX 29 37 79 38 30 39 84 40 78 41 80 42 31 43 83 44 77 45 76 46
REMARK SMILES IDX 32 48 64 49 44 50 63 51 45 52 48 53 62 54 81 55 46 56 47 57
REMARK SMILES IDX 61 59 82 60 49 61 33 62 34 63 42 64 35 65 41 66 43 67 40 68
REMARK SMILES IDX 36 69 37 70 38 71 39 72 65 73 66 74 74 75 67 76 73 77 75 78
REMARK SMILES IDX 72 79 68 80 69 81 70 82 71 83 50 84 51 85 59 86 52 87 58 88
REMARK SMILES IDX 60 89 57 90 53 91 54 92 55 93 56 94
REMARK H PARENT 8 12 13 24 13 25 80 47 48 58
REMARK Flexibility Score: inf
ROOT
ATOM      1  C   UNL A   1      34.033  29.829  27.271  1.00  0.00     0.275 C 
ENDROOT
BRANCH   1   2
ATOM      2  O   UNL A   1      33.297  29.333  26.128  1.00  0.00    -0.458 OA
BRANCH   2   3
ATOM      3  C   UNL A   1      32.353  28.383  26.363  1.00  0.00     0.340 C 
ATOM      4  O   UNL A   1      32.119  27.885  27.461  1.00  0.00    -0.246 OA
BRANCH   3   5
ATOM      5  C   UNL A   1      31.614  27.985  25.137  1.00  0.00     0.085 A 
ATOM      6  C   UNL A   1      30.965  26.757  24.906  1.00  0.00     0.049 A 
ATOM      7  C   UNL A   1      30.328  26.615  23.644  1.00  0.00     0.029 A 
ATOM      8  C   UNL A   1      30.341  27.600  22.660  1.00  0.00     0.027 A 
ATOM      9  C   UNL A   1      31.603  28.987  24.134  1.00  0.00     0.043 A 
ATOM     10  C   UNL A   1      31.034  28.773  22.878  1.00  0.00     0.032 A 
BRANCH   6  11
ATOM     11  N   UNL A   1      30.751  25.679  25.737  1.00  0.00    -0.378 N 
ATOM     12  H   UNL A   1      30.415  25.962  26.619  1.00  0.00     0.161 HD
BRANCH  11  13
ATOM     13  C   UNL A   1      30.888  24.236  25.657  1.00  0.00     0.106 C 
ATOM     14  C   UNL A   1      30.195  23.458  26.773  1.00  0.00     0.036 C 
BRANCH  13  15
ATOM     15  C   UNL A   1      32.255  23.790  25.142  1.00  0.00    -0.023 A 
ATOM     16  C   UNL A   1      36.210  23.310  23.424  1.00  0.00     0.047 C 
ATOM     17  C   UNL A   1      34.834  23.415  24.006  1.00  0.00    -0.015 A 
ATOM     18  C   UNL A   1      33.685  23.232  23.233  1.00  0.00     0.007 A 
ATOM     19  C   UNL A   1      34.679  23.723  25.355  1.00  0.00     0.126 A 
ATOM     20  C   UNL A   1      32.415  23.424  23.793  1.00  0.00     0.006 A 
ATOM     21  C   UNL A   1      33.419  23.895  25.925  1.00  0.00     0.045 A 
ATOM     22  F   UNL A   1      35.772  23.919  26.107  1.00  0.00    -0.207 F 
ENDBRANCH  13  15
ENDBRANCH  11  13
ENDBRANCH   6  11
BRANCH  10  23
ATOM     23  N   UNL A   1      31.090  29.755  21.878  1.00  0.00    -0.399 N 
ATOM     24  H   UNL A   1      31.961  30.043  21.520  1.00  0.00     0.156 HD
ATOM     25  H   UNL A   1      30.260  30.155  21.535  1.00  0.00     0.156 HD
ENDBRANCH  10  23
ENDBRANCH   3   5
ENDBRANCH   2   3
ENDBRANCH   1   2
BRANCH   1  26
ATOM     26  C   UNL A   1      33.668  31.260  27.645  1.00  0.00     0.275 C 
BRANCH  26  27
ATOM     27  O   UNL A   1      34.417  31.675  28.790  1.00  0.00    -0.458 OA
BRANCH  27  28
ATOM     28  C   UNL A   1      35.174  32.756  28.495  1.00  0.00     0.338 C 
ATOM     29  O   UNL A   1      35.504  33.115  27.376  1.00  0.00    -0.246 OA
BRANCH  28  30
ATOM     30  C   UNL A   1      35.810  33.308  29.704  1.00  0.00     0.060 A 
ATOM     31  C   UNL A   1      36.965  34.022  29.354  1.00  0.00     0.016 A 
ATOM     32  C   UNL A   1      35.838  32.331  30.704  1.00  0.00     0.016 A 
ATOM     33  C   UNL A   1      38.185  33.421  29.602  1.00  0.00     0.010 A 
ATOM     34  C   UNL A   1      37.052  31.732  30.949  1.00  0.00     0.010 A 
ATOM     35  C   UNL A   1      38.199  32.223  30.310  1.00  0.00    -0.014 A 
BRANCH  35  36
ATOM     36  C   UNL A   1      39.425  31.514  30.600  1.00  0.00     0.031 A 
ATOM     37  C   UNL A   1      39.585  30.188  29.993  1.00  0.00     0.074 A 
ATOM     38  C   UNL A   1      40.433  32.111  31.268  1.00  0.00     0.049 A 
ATOM     39  N   UNL A   1      40.422  29.302  30.401  1.00  0.00    -0.248 NA
ATOM     40  C   UNL A   1      38.732  29.740  28.896  1.00  0.00     0.031 C 
ATOM     41  C   UNL A   1      41.843  31.765  31.197  1.00  0.00     0.029 A 
ATOM     42  N   UNL A   1      40.360  33.068  32.282  1.00  0.00    -0.354 N 
ATOM     43  C   UNL A   1      40.457  28.331  29.427  1.00  0.00     0.074 A 
ATOM     44  C   UNL A   1      39.284  28.560  28.614  1.00  0.00     0.031 C 
ATOM     45  C   UNL A   1      42.480  32.315  32.240  1.00  0.00     0.029 A 
ATOM     46  C   UNL A   1      41.469  32.856  33.130  1.00  0.00     0.049 A 
ATOM     47  H   UNL A   1      39.667  33.759  32.386  1.00  0.00     0.167 HD
ATOM     48  C   UNL A   1      41.587  27.585  29.284  1.00  0.00     0.034 A 
ATOM     49  C   UNL A   1      41.393  32.610  34.474  1.00  0.00     0.034 A 
ATOM     50  C   UNL A   1      42.570  27.911  30.327  1.00  0.00     0.049 A 
ATOM     51  C   UNL A   1      41.995  31.263  34.871  1.00  0.00     0.074 A 
ATOM     52  C   UNL A   1      43.703  28.711  30.351  1.00  0.00     0.029 A 
ATOM     53  N   UNL A   1      42.257  27.669  31.658  1.00  0.00    -0.354 N 
ATOM     54  N   UNL A   1      42.579  30.433  34.053  1.00  0.00    -0.248 NA
ATOM     55  C   UNL A   1      41.795  30.681  36.201  1.00  0.00     0.031 C 
ATOM     56  C   UNL A   1      44.081  28.922  31.706  1.00  0.00     0.029 A 
ATOM     57  C   UNL A   1      43.190  28.241  32.514  1.00  0.00     0.049 A 
ATOM     58  H   UNL A   1      41.473  27.155  31.958  1.00  0.00     0.167 HD
ATOM     59  C   UNL A   1      42.656  29.195  34.644  1.00  0.00     0.074 A 
ATOM     60  C   UNL A   1      42.169  29.409  35.994  1.00  0.00     0.031 C 
ATOM     61  C   UNL A   1      43.028  28.072  33.957  1.00  0.00     0.034 A 
BRANCH  48  62
ATOM     62  C   UNL A   1      41.901  26.841  27.999  1.00  0.00     0.023 A 
ATOM     63  C   UNL A   1      41.957  25.433  27.890  1.00  0.00     0.031 A 
ATOM     64  C   UNL A   1      42.068  27.539  26.787  1.00  0.00     0.131 A 
ATOM     65  C   UNL A   1      42.003  24.785  26.642  1.00  0.00     0.055 A 
ATOM     66  C   UNL A   1      42.184  26.896  25.548  1.00  0.00     0.041 A 
ATOM     67  F   UNL A   1      42.090  28.878  26.739  1.00  0.00    -0.206 F 
ATOM     68  C   UNL A   1      42.116  25.514  25.465  1.00  0.00     0.022 A 
BRANCH  65  69
ATOM     69  S   UNL A   1      41.803  22.982  26.509  1.00  0.00     0.124 S 
ATOM     70  O   UNL A   1      40.361  22.814  26.693  1.00  0.00    -0.237 OA
ATOM     71  O   UNL A   1      42.293  22.710  25.161  1.00  0.00    -0.237 OA
ATOM     72  O   UNL A   1      42.621  22.456  27.598  1.00  0.00    -0.744 OA
ENDBRANCH  65  69
ENDBRANCH  48  62
BRANCH  49  73
ATOM     73  C   UNL A   1      40.130  33.108  35.089  1.00  0.00     0.023 A 
ATOM     74  C   UNL A   1      40.238  34.181  35.978  1.00  0.00     0.031 A 
ATOM     75  C   UNL A   1      39.023  32.249  35.195  1.00  0.00     0.131 A 
ATOM     76  C   UNL A   1      39.388  34.257  37.078  1.00  0.00     0.055 A 
ATOM     77  C   UNL A   1      38.173  32.327  36.296  1.00  0.00     0.041 A 
ATOM     78  F   UNL A   1      38.873  31.221  34.341  1.00  0.00    -0.206 F 
ATOM     79  C   UNL A   1      38.379  33.309  37.269  1.00  0.00     0.022 A 
BRANCH  76  80
ATOM     80  S   UNL A   1      39.811  35.438  38.381  1.00  0.00     0.124 S 
ATOM     81  O   UNL A   1      38.843  35.097  39.419  1.00  0.00    -0.237 OA
ATOM     82  O   UNL A   1      41.209  35.135  38.659  1.00  0.00    -0.237 OA
ATOM     83  O   UNL A   1      39.604  36.738  37.755  1.00  0.00    -0.744 OA
ENDBRANCH  76  80
ENDBRANCH  49  73
BRANCH  61  84
ATOM     84  C   UNL A   1      43.222  26.691  34.556  1.00  0.00     0.023 A 
ATOM     85  C   UNL A   1      44.528  26.251  34.882  1.00  0.00     0.031 A 
ATOM     86  C   UNL A   1      42.183  25.834  34.956  1.00  0.00     0.131 A 
ATOM     87  C   UNL A   1      44.765  25.014  35.491  1.00  0.00     0.055 A 
ATOM     88  C   UNL A   1      42.420  24.569  35.513  1.00  0.00     0.041 A 
ATOM     89  F   UNL A   1      40.898  26.213  34.905  1.00  0.00    -0.206 F 
ATOM     90  C   UNL A   1      43.717  24.150  35.777  1.00  0.00     0.022 A 
BRANCH  87  91
ATOM     91  S   UNL A   1      46.438  24.532  36.002  1.00  0.00     0.124 S 
ATOM     92  O   UNL A   1      46.841  23.654  34.905  1.00  0.00    -0.237 OA
ATOM     93  O   UNL A   1      47.122  25.821  36.052  1.00  0.00    -0.237 OA
ATOM     94  O   UNL A   1      46.240  23.875  37.288  1.00  0.00    -0.744 OA
ENDBRANCH  87  91
ENDBRANCH  61  84
ENDBRANCH  35  36
ENDBRANCH  28  30
ENDBRANCH  27  28
ENDBRANCH  26  27
ENDBRANCH   1  26
TORSDOF 18
ENDMDL
