MODEL 1
REMARK VINA RESULT:     -11.7      0.000      0.000
REMARK SMILES Cc1nn(-c2cccc(C(F)(F)F)c2)c(C)c1CC(=O)OCCOC(=O)c1ccc(-c2c3nc(c(-c4cc(S(=O)(=O)[O-])ccc4F)c4ccc([nH]4)c(-c4cc(S(=O)(=O)[O-])ccc4F)c4nc(c(-c5cc(S(=O)(=O)[O-])ccc5F)c5ccc2[nH]5)C=C4)C=C3)cc1
REMARK SMILES IDX 22 1 21 2 19 3 20 4 18 5 17 6 1 7 2 8 3 9 4 10 15 11 16 12
REMARK SMILES IDX 5 13 6 14 14 15 7 16 9 17 8 18 10 19 11 20 12 21 13 22 23 23
REMARK SMILES IDX 24 24 25 25 26 26 27 27 28 28 89 29 29 30 88 31 30 32 31 33
REMARK SMILES IDX 32 34 82 35 33 36 87 37 81 38 83 39 34 40 86 41 80 42 79 43
REMARK SMILES IDX 35 45 67 46 47 47 66 48 48 49 51 50 65 51 84 52 49 53 50 54
REMARK SMILES IDX 64 56 85 57 52 58 36 59 37 60 45 61 38 62 44 63 46 64 43 65
REMARK SMILES IDX 39 66 40 67 41 68 42 69 68 70 69 71 77 72 70 73 76 74 78 75
REMARK SMILES IDX 75 76 71 77 72 78 73 79 74 80 53 81 54 82 62 83 55 84 61 85
REMARK SMILES IDX 63 86 60 87 56 88 57 89 58 90 59 91
REMARK H PARENT 83 44 51 55
REMARK Flexibility Score: inf
ROOT
ATOM      1  C   UNL A   1      37.219  22.535  24.811  1.00  0.00     0.274 C 
ENDROOT
BRANCH   1   2
ATOM      2  O   UNL A   1      35.902  22.459  25.410  1.00  0.00    -0.462 OA
BRANCH   2   3
ATOM      3  C   UNL A   1      35.111  21.430  25.000  1.00  0.00     0.310 C 
ATOM      4  O   UNL A   1      35.485  20.256  24.984  1.00  0.00    -0.252 OA
BRANCH   3   5
ATOM      5  C   UNL A   1      33.729  21.816  24.495  1.00  0.00     0.162 C 
BRANCH   5   6
ATOM      6  C   UNL A   1      33.331  23.264  24.479  1.00  0.00     0.007 A 
ATOM      7  C   UNL A   1      33.287  23.738  21.914  1.00  0.00     0.069 C 
ATOM      8  C   UNL A   1      33.151  24.108  23.344  1.00  0.00     0.064 A 
ATOM      9  N   UNL A   1      32.697  25.327  23.673  1.00  0.00    -0.173 NA
ATOM     10  N   UNL A   1      32.719  25.324  25.024  1.00  0.00    -0.238 N 
ATOM     11  C   UNL A   1      32.830  24.040  25.515  1.00  0.00     0.045 A 
ATOM     12  C   UNL A   1      32.378  23.713  26.891  1.00  0.00     0.067 C 
BRANCH  10  13
ATOM     13  C   UNL A   1      32.552  26.490  25.799  1.00  0.00     0.065 A 
ATOM     14  C   UNL A   1      31.303  26.807  26.333  1.00  0.00     0.028 A 
ATOM     15  C   UNL A   1      33.687  27.256  26.114  1.00  0.00     0.041 A 
ATOM     16  C   UNL A   1      31.210  27.865  27.239  1.00  0.00     0.003 A 
ATOM     17  C   UNL A   1      33.582  28.363  26.971  1.00  0.00     0.058 A 
ATOM     18  C   UNL A   1      32.337  28.637  27.552  1.00  0.00     0.013 A 
BRANCH  17  19
ATOM     19  C   UNL A   1      34.786  29.237  27.259  1.00  0.00     0.416 C 
ATOM     20  F   UNL A   1      34.576  30.545  26.951  1.00  0.00    -0.166 F 
ATOM     21  F   UNL A   1      35.227  29.165  28.536  1.00  0.00    -0.166 F 
ATOM     22  F   UNL A   1      35.866  28.872  26.493  1.00  0.00    -0.166 F 
ENDBRANCH  17  19
ENDBRANCH  10  13
ENDBRANCH   5   6
ENDBRANCH   3   5
ENDBRANCH   2   3
ENDBRANCH   1   2
BRANCH   1  23
ATOM     23  C   UNL A   1      38.359  22.211  25.788  1.00  0.00     0.275 C 
BRANCH  23  24
ATOM     24  O   UNL A   1      38.697  23.281  26.686  1.00  0.00    -0.458 OA
BRANCH  24  25
ATOM     25  C   UNL A   1      40.001  23.259  27.027  1.00  0.00     0.338 C 
ATOM     26  O   UNL A   1      40.604  22.310  27.496  1.00  0.00    -0.246 OA
BRANCH  25  27
ATOM     27  C   UNL A   1      40.627  24.576  27.076  1.00  0.00     0.060 A 
ATOM     28  C   UNL A   1      41.551  24.738  28.114  1.00  0.00     0.016 A 
ATOM     29  C   UNL A   1      39.960  25.660  26.509  1.00  0.00     0.016 A 
ATOM     30  C   UNL A   1      41.589  25.939  28.780  1.00  0.00     0.010 A 
ATOM     31  C   UNL A   1      40.074  26.892  27.125  1.00  0.00     0.010 A 
ATOM     32  C   UNL A   1      40.804  26.998  28.315  1.00  0.00    -0.014 A 
BRANCH  32  33
ATOM     33  C   UNL A   1      40.931  28.269  29.018  1.00  0.00     0.031 A 
ATOM     34  C   UNL A   1      42.051  29.107  28.509  1.00  0.00     0.074 A 
ATOM     35  C   UNL A   1      40.022  28.715  29.906  1.00  0.00     0.049 A 
ATOM     36  N   UNL A   1      43.022  29.658  29.159  1.00  0.00    -0.248 NA
ATOM     37  C   UNL A   1      42.193  29.186  27.042  1.00  0.00     0.031 C 
ATOM     38  C   UNL A   1      38.755  28.079  30.273  1.00  0.00     0.029 A 
ATOM     39  N   UNL A   1      39.958  29.922  30.533  1.00  0.00    -0.354 N 
ATOM     40  C   UNL A   1      43.778  30.330  28.200  1.00  0.00     0.074 A 
ATOM     41  C   UNL A   1      43.355  29.821  26.928  1.00  0.00     0.031 C 
ATOM     42  C   UNL A   1      37.939  29.011  30.806  1.00  0.00     0.029 A 
ATOM     43  C   UNL A   1      38.666  30.266  30.918  1.00  0.00     0.049 A 
ATOM     44  H   UNL A   1      40.743  30.493  30.696  1.00  0.00     0.167 HD
ATOM     45  C   UNL A   1      44.510  31.433  28.505  1.00  0.00     0.034 A 
ATOM     46  C   UNL A   1      38.196  31.515  31.177  1.00  0.00     0.034 A 
ATOM     47  C   UNL A   1      44.821  31.475  29.917  1.00  0.00     0.049 A 
ATOM     48  C   UNL A   1      39.367  32.385  31.452  1.00  0.00     0.074 A 
ATOM     49  C   UNL A   1      45.477  30.618  30.782  1.00  0.00     0.029 A 
ATOM     50  N   UNL A   1      44.136  32.356  30.725  1.00  0.00    -0.354 N 
ATOM     51  N   UNL A   1      40.147  32.245  32.488  1.00  0.00    -0.248 NA
ATOM     52  C   UNL A   1      39.945  33.132  30.344  1.00  0.00     0.031 C 
ATOM     53  C   UNL A   1      44.765  30.714  32.013  1.00  0.00     0.029 A 
ATOM     54  C   UNL A   1      43.758  31.668  31.851  1.00  0.00     0.049 A 
ATOM     55  H   UNL A   1      43.951  33.303  30.531  1.00  0.00     0.167 HD
ATOM     56  C   UNL A   1      41.426  32.498  32.014  1.00  0.00     0.074 A 
ATOM     57  C   UNL A   1      41.227  33.147  30.722  1.00  0.00     0.031 C 
ATOM     58  C   UNL A   1      42.522  31.904  32.574  1.00  0.00     0.034 A 
BRANCH  45  59
ATOM     59  C   UNL A   1      44.595  32.653  27.604  1.00  0.00     0.023 A 
ATOM     60  C   UNL A   1      43.926  33.808  28.046  1.00  0.00     0.031 A 
ATOM     61  C   UNL A   1      45.004  32.675  26.247  1.00  0.00     0.131 A 
ATOM     62  C   UNL A   1      43.548  34.816  27.145  1.00  0.00     0.055 A 
ATOM     63  C   UNL A   1      44.688  33.716  25.370  1.00  0.00     0.041 A 
ATOM     64  F   UNL A   1      45.664  31.673  25.659  1.00  0.00    -0.206 F 
ATOM     65  C   UNL A   1      43.915  34.774  25.804  1.00  0.00     0.022 A 
BRANCH  62  66
ATOM     66  S   UNL A   1      42.375  36.067  27.720  1.00  0.00     0.124 S 
ATOM     67  O   UNL A   1      42.793  36.235  29.109  1.00  0.00    -0.237 OA
ATOM     68  O   UNL A   1      42.663  37.178  26.820  1.00  0.00    -0.237 OA
ATOM     69  O   UNL A   1      41.077  35.425  27.530  1.00  0.00    -0.744 OA
ENDBRANCH  62  66
ENDBRANCH  45  59
BRANCH  46  70
ATOM     70  C   UNL A   1      36.835  32.025  30.854  1.00  0.00     0.023 A 
ATOM     71  C   UNL A   1      36.009  32.639  31.815  1.00  0.00     0.031 A 
ATOM     72  C   UNL A   1      36.398  32.092  29.509  1.00  0.00     0.131 A 
ATOM     73  C   UNL A   1      34.799  33.259  31.420  1.00  0.00     0.055 A 
ATOM     74  C   UNL A   1      35.194  32.683  29.128  1.00  0.00     0.041 A 
ATOM     75  F   UNL A   1      37.170  31.652  28.502  1.00  0.00    -0.206 F 
ATOM     76  C   UNL A   1      34.388  33.275  30.085  1.00  0.00     0.022 A 
BRANCH  73  77
ATOM     77  S   UNL A   1      33.782  34.148  32.640  1.00  0.00     0.124 S 
ATOM     78  O   UNL A   1      32.994  35.040  31.798  1.00  0.00    -0.237 OA
ATOM     79  O   UNL A   1      33.059  33.065  33.296  1.00  0.00    -0.237 OA
ATOM     80  O   UNL A   1      34.773  34.817  33.486  1.00  0.00    -0.744 OA
ENDBRANCH  73  77
ENDBRANCH  46  70
BRANCH  58  81
ATOM     81  C   UNL A   1      42.386  31.237  33.928  1.00  0.00     0.023 A 
ATOM     82  C   UNL A   1      42.141  29.861  34.130  1.00  0.00     0.031 A 
ATOM     83  C   UNL A   1      42.647  32.027  35.063  1.00  0.00     0.131 A 
ATOM     84  C   UNL A   1      42.158  29.327  35.434  1.00  0.00     0.055 A 
ATOM     85  C   UNL A   1      42.683  31.493  36.350  1.00  0.00     0.041 A 
ATOM     86  F   UNL A   1      42.914  33.338  34.935  1.00  0.00    -0.206 F 
ATOM     87  C   UNL A   1      42.432  30.140  36.540  1.00  0.00     0.022 A 
BRANCH  84  88
ATOM     88  S   UNL A   1      41.796  27.569  35.739  1.00  0.00     0.124 S 
ATOM     89  O   UNL A   1      43.112  26.959  35.883  1.00  0.00    -0.237 OA
ATOM     90  O   UNL A   1      40.976  27.624  36.947  1.00  0.00    -0.237 OA
ATOM     91  O   UNL A   1      41.064  27.165  34.536  1.00  0.00    -0.744 OA
ENDBRANCH  84  88
ENDBRANCH  58  81
ENDBRANCH  32  33
ENDBRANCH  25  27
ENDBRANCH  24  25
ENDBRANCH  23  24
ENDBRANCH   1  23
TORSDOF 17
ENDMDL
MODEL 2
REMARK VINA RESULT:     -11.4      3.883      9.249
REMARK SMILES Cc1nn(-c2cccc(C(F)(F)F)c2)c(C)c1CC(=O)OCCOC(=O)c1ccc(-c2c3nc(c(-c4cc(S(=O)(=O)[O-])ccc4F)c4ccc([nH]4)c(-c4cc(S(=O)(=O)[O-])ccc4F)c4nc(c(-c5cc(S(=O)(=O)[O-])ccc5F)c5ccc2[nH]5)C=C4)C=C3)cc1
REMARK SMILES IDX 22 1 21 2 19 3 20 4 18 5 17 6 1 7 2 8 3 9 4 10 15 11 16 12
REMARK SMILES IDX 5 13 6 14 14 15 7 16 9 17 8 18 10 19 11 20 12 21 13 22 23 23
REMARK SMILES IDX 24 24 25 25 26 26 27 27 28 28 89 29 29 30 88 31 30 32 31 33
REMARK SMILES IDX 32 34 82 35 33 36 87 37 81 38 83 39 34 40 86 41 80 42 79 43
REMARK SMILES IDX 35 45 67 46 47 47 66 48 48 49 51 50 65 51 84 52 49 53 50 54
REMARK SMILES IDX 64 56 85 57 52 58 36 59 37 60 45 61 38 62 44 63 46 64 43 65
REMARK SMILES IDX 39 66 40 67 41 68 42 69 68 70 69 71 77 72 70 73 76 74 78 75
REMARK SMILES IDX 75 76 71 77 72 78 73 79 74 80 53 81 54 82 62 83 55 84 61 85
REMARK SMILES IDX 63 86 60 87 56 88 57 89 58 90 59 91
REMARK H PARENT 83 44 51 55
REMARK Flexibility Score: inf
ROOT
ATOM      1  C   UNL A   1      32.243  30.016  26.214  1.00  0.00     0.274 C 
ENDROOT
BRANCH   1   2
ATOM      2  O   UNL A   1      32.519  28.660  25.785  1.00  0.00    -0.462 OA
BRANCH   2   3
ATOM      3  C   UNL A   1      32.000  28.291  24.582  1.00  0.00     0.310 C 
ATOM      4  O   UNL A   1      31.854  29.072  23.641  1.00  0.00    -0.252 OA
BRANCH   3   5
ATOM      5  C   UNL A   1      31.544  26.844  24.473  1.00  0.00     0.162 C 
BRANCH   5   6
ATOM      6  C   UNL A   1      32.507  25.806  23.971  1.00  0.00     0.007 A 
ATOM      7  C   UNL A   1      32.593  26.396  21.431  1.00  0.00     0.069 C 
ATOM      8  C   UNL A   1      32.955  25.605  22.633  1.00  0.00     0.064 A 
ATOM      9  N   UNL A   1      33.895  24.650  22.540  1.00  0.00    -0.173 NA
ATOM     10  N   UNL A   1      33.952  24.136  23.788  1.00  0.00    -0.238 N 
ATOM     11  C   UNL A   1      33.346  24.974  24.699  1.00  0.00     0.045 A 
ATOM     12  C   UNL A   1      33.700  24.912  26.140  1.00  0.00     0.067 C 
BRANCH  10  13
ATOM     13  C   UNL A   1      34.636  22.941  24.096  1.00  0.00     0.065 A 
ATOM     14  C   UNL A   1      36.002  22.965  24.376  1.00  0.00     0.028 A 
ATOM     15  C   UNL A   1      33.893  21.756  24.227  1.00  0.00     0.041 A 
ATOM     16  C   UNL A   1      36.609  21.800  24.851  1.00  0.00     0.003 A 
ATOM     17  C   UNL A   1      34.516  20.567  24.638  1.00  0.00     0.058 A 
ATOM     18  C   UNL A   1      35.875  20.613  24.977  1.00  0.00     0.013 A 
BRANCH  17  19
ATOM     19  C   UNL A   1      33.738  19.269  24.711  1.00  0.00     0.416 C 
ATOM     20  F   UNL A   1      32.726  19.206  23.805  1.00  0.00    -0.166 F 
ATOM     21  F   UNL A   1      34.502  18.161  24.575  1.00  0.00    -0.166 F 
ATOM     22  F   UNL A   1      33.120  19.123  25.929  1.00  0.00    -0.166 F 
ENDBRANCH  17  19
ENDBRANCH  10  13
ENDBRANCH   5   6
ENDBRANCH   3   5
ENDBRANCH   2   3
ENDBRANCH   1   2
BRANCH   1  23
ATOM     23  C   UNL A   1      33.134  30.489  27.372  1.00  0.00     0.275 C 
BRANCH  23  24
ATOM     24  O   UNL A   1      34.539  30.514  27.073  1.00  0.00    -0.458 OA
BRANCH  24  25
ATOM     25  C   UNL A   1      35.194  31.432  27.811  1.00  0.00     0.338 C 
ATOM     26  O   UNL A   1      35.184  32.636  27.633  1.00  0.00    -0.246 OA
BRANCH  25  27
ATOM     27  C   UNL A   1      36.198  30.869  28.709  1.00  0.00     0.060 A 
ATOM     28  C   UNL A   1      37.225  31.752  29.055  1.00  0.00     0.016 A 
ATOM     29  C   UNL A   1      36.375  29.487  28.738  1.00  0.00     0.016 A 
ATOM     30  C   UNL A   1      38.508  31.269  29.145  1.00  0.00     0.010 A 
ATOM     31  C   UNL A   1      37.654  28.997  28.923  1.00  0.00     0.010 A 
ATOM     32  C   UNL A   1      38.724  29.893  29.020  1.00  0.00    -0.014 A 
BRANCH  32  33
ATOM     33  C   UNL A   1      40.095  29.426  29.188  1.00  0.00     0.031 A 
ATOM     34  C   UNL A   1      40.522  29.373  30.613  1.00  0.00     0.074 A 
ATOM     35  C   UNL A   1      40.831  28.923  28.179  1.00  0.00     0.049 A 
ATOM     36  N   UNL A   1      41.565  29.891  31.174  1.00  0.00    -0.248 NA
ATOM     37  C   UNL A   1      39.547  28.808  31.566  1.00  0.00     0.031 C 
ATOM     38  C   UNL A   1      40.403  28.692  26.798  1.00  0.00     0.029 A 
ATOM     39  N   UNL A   1      42.064  28.345  28.224  1.00  0.00    -0.354 N 
ATOM     40  C   UNL A   1      41.479  29.532  32.519  1.00  0.00     0.074 A 
ATOM     41  C   UNL A   1      40.135  29.078  32.727  1.00  0.00     0.031 C 
ATOM     42  C   UNL A   1      41.223  27.781  26.234  1.00  0.00     0.029 A 
ATOM     43  C   UNL A   1      42.287  27.461  27.173  1.00  0.00     0.049 A 
ATOM     44  H   UNL A   1      42.728  28.533  28.925  1.00  0.00     0.167 HD
ATOM     45  C   UNL A   1      42.584  29.394  33.297  1.00  0.00     0.034 A 
ATOM     46  C   UNL A   1      43.194  26.449  27.135  1.00  0.00     0.034 A 
ATOM     47  C   UNL A   1      43.697  30.142  32.756  1.00  0.00     0.049 A 
ATOM     48  C   UNL A   1      44.219  26.729  28.172  1.00  0.00     0.074 A 
ATOM     49  C   UNL A   1      43.899  31.474  32.447  1.00  0.00     0.029 A 
ATOM     50  N   UNL A   1      44.710  29.461  32.117  1.00  0.00    -0.354 N 
ATOM     51  N   UNL A   1      45.043  27.738  28.124  1.00  0.00    -0.248 NA
ATOM     52  C   UNL A   1      44.037  26.148  29.495  1.00  0.00     0.031 C 
ATOM     53  C   UNL A   1      44.696  31.467  31.266  1.00  0.00     0.029 A 
ATOM     54  C   UNL A   1      44.988  30.137  30.955  1.00  0.00     0.049 A 
ATOM     55  H   UNL A   1      45.154  28.641  32.435  1.00  0.00     0.167 HD
ATOM     56  C   UNL A   1      45.145  28.185  29.432  1.00  0.00     0.074 A 
ATOM     57  C   UNL A   1      44.598  27.103  30.244  1.00  0.00     0.031 C 
ATOM     58  C   UNL A   1      45.396  29.498  29.718  1.00  0.00     0.034 A 
BRANCH  45  59
ATOM     59  C   UNL A   1      42.755  28.275  34.311  1.00  0.00     0.023 A 
ATOM     60  C   UNL A   1      43.621  27.227  33.949  1.00  0.00     0.031 A 
ATOM     61  C   UNL A   1      41.925  28.013  35.429  1.00  0.00     0.131 A 
ATOM     62  C   UNL A   1      43.523  25.965  34.554  1.00  0.00     0.055 A 
ATOM     63  C   UNL A   1      41.883  26.775  36.076  1.00  0.00     0.041 A 
ATOM     64  F   UNL A   1      41.052  28.896  35.923  1.00  0.00    -0.206 F 
ATOM     65  C   UNL A   1      42.651  25.726  35.612  1.00  0.00     0.022 A 
BRANCH  62  66
ATOM     66  S   UNL A   1      44.399  24.586  33.780  1.00  0.00     0.124 S 
ATOM     67  O   UNL A   1      43.834  24.607  32.434  1.00  0.00    -0.237 OA
ATOM     68  O   UNL A   1      45.789  25.012  33.904  1.00  0.00    -0.237 OA
ATOM     69  O   UNL A   1      44.018  23.440  34.601  1.00  0.00    -0.744 OA
ENDBRANCH  62  66
ENDBRANCH  45  59
BRANCH  46  70
ATOM     70  C   UNL A   1      43.002  25.121  26.490  1.00  0.00     0.023 A 
ATOM     71  C   UNL A   1      43.909  24.598  25.549  1.00  0.00     0.031 A 
ATOM     72  C   UNL A   1      41.993  24.242  26.952  1.00  0.00     0.131 A 
ATOM     73  C   UNL A   1      43.772  23.264  25.095  1.00  0.00     0.055 A 
ATOM     74  C   UNL A   1      41.848  22.936  26.485  1.00  0.00     0.041 A 
ATOM     75  F   UNL A   1      41.156  24.597  27.941  1.00  0.00    -0.206 F 
ATOM     76  C   UNL A   1      42.743  22.438  25.554  1.00  0.00     0.022 A 
BRANCH  73  77
ATOM     77  S   UNL A   1      45.006  22.548  23.963  1.00  0.00     0.124 S 
ATOM     78  O   UNL A   1      44.206  22.247  22.782  1.00  0.00    -0.237 OA
ATOM     79  O   UNL A   1      45.977  23.628  23.834  1.00  0.00    -0.237 OA
ATOM     80  O   UNL A   1      45.493  21.374  24.691  1.00  0.00    -0.744 OA
ENDBRANCH  73  77
ENDBRANCH  46  70
BRANCH  58  81
ATOM     81  C   UNL A   1      45.904  30.406  28.616  1.00  0.00     0.023 A 
ATOM     82  C   UNL A   1      45.101  31.290  27.863  1.00  0.00     0.031 A 
ATOM     83  C   UNL A   1      47.296  30.460  28.419  1.00  0.00     0.131 A 
ATOM     84  C   UNL A   1      45.700  32.179  26.948  1.00  0.00     0.055 A 
ATOM     85  C   UNL A   1      47.888  31.354  27.528  1.00  0.00     0.041 A 
ATOM     86  F   UNL A   1      48.117  29.664  29.125  1.00  0.00    -0.206 F 
ATOM     87  C   UNL A   1      47.089  32.214  26.784  1.00  0.00     0.022 A 
BRANCH  84  88
ATOM     88  S   UNL A   1      44.694  33.297  25.922  1.00  0.00     0.124 S 
ATOM     89  O   UNL A   1      44.063  34.188  26.887  1.00  0.00    -0.237 OA
ATOM     90  O   UNL A   1      45.694  33.900  25.046  1.00  0.00    -0.237 OA
ATOM     91  O   UNL A   1      43.771  32.386  25.240  1.00  0.00    -0.744 OA
ENDBRANCH  84  88
ENDBRANCH  58  81
ENDBRANCH  32  33
ENDBRANCH  25  27
ENDBRANCH  24  25
ENDBRANCH  23  24
ENDBRANCH   1  23
TORSDOF 17
ENDMDL
MODEL 3
REMARK VINA RESULT:     -11.3      4.601     10.461
REMARK SMILES Cc1nn(-c2cccc(C(F)(F)F)c2)c(C)c1CC(=O)OCCOC(=O)c1ccc(-c2c3nc(c(-c4cc(S(=O)(=O)[O-])ccc4F)c4ccc([nH]4)c(-c4cc(S(=O)(=O)[O-])ccc4F)c4nc(c(-c5cc(S(=O)(=O)[O-])ccc5F)c5ccc2[nH]5)C=C4)C=C3)cc1
REMARK SMILES IDX 22 1 21 2 19 3 20 4 18 5 17 6 1 7 2 8 3 9 4 10 15 11 16 12
REMARK SMILES IDX 5 13 6 14 14 15 7 16 9 17 8 18 10 19 11 20 12 21 13 22 23 23
REMARK SMILES IDX 24 24 25 25 26 26 27 27 28 28 89 29 29 30 88 31 30 32 31 33
REMARK SMILES IDX 32 34 82 35 33 36 87 37 81 38 83 39 34 40 86 41 80 42 79 43
REMARK SMILES IDX 35 45 67 46 47 47 66 48 48 49 51 50 65 51 84 52 49 53 50 54
REMARK SMILES IDX 64 56 85 57 52 58 36 59 37 60 45 61 38 62 44 63 46 64 43 65
REMARK SMILES IDX 39 66 40 67 41 68 42 69 68 70 69 71 77 72 70 73 76 74 78 75
REMARK SMILES IDX 75 76 71 77 72 78 73 79 74 80 53 81 54 82 62 83 55 84 61 85
REMARK SMILES IDX 63 86 60 87 56 88 57 89 58 90 59 91
REMARK H PARENT 83 44 51 55
REMARK Flexibility Score: inf
ROOT
ATOM      1  C   UNL A   1      33.854  34.244  28.089  1.00  0.00     0.274 C 
ENDROOT
BRANCH   1   2
ATOM      2  O   UNL A   1      34.236  35.431  28.826  1.00  0.00    -0.462 OA
BRANCH   2   3
ATOM      3  C   UNL A   1      33.246  36.052  29.525  1.00  0.00     0.310 C 
ATOM      4  O   UNL A   1      32.643  37.042  29.107  1.00  0.00    -0.252 OA
BRANCH   3   5
ATOM      5  C   UNL A   1      32.953  35.485  30.905  1.00  0.00     0.162 C 
BRANCH   5   6
ATOM      6  C   UNL A   1      34.094  35.196  31.838  1.00  0.00     0.007 A 
ATOM      7  C   UNL A   1      34.040  37.317  33.358  1.00  0.00     0.069 C 
ATOM      8  C   UNL A   1      34.576  36.009  32.905  1.00  0.00     0.064 A 
ATOM      9  N   UNL A   1      35.552  35.413  33.609  1.00  0.00    -0.173 NA
ATOM     10  N   UNL A   1      35.801  34.281  32.916  1.00  0.00    -0.238 N 
ATOM     11  C   UNL A   1      34.779  34.005  32.033  1.00  0.00     0.045 A 
ATOM     12  C   UNL A   1      34.553  32.621  31.542  1.00  0.00     0.067 C 
BRANCH  10  13
ATOM     13  C   UNL A   1      36.923  33.462  33.159  1.00  0.00     0.065 A 
ATOM     14  C   UNL A   1      36.782  32.268  33.866  1.00  0.00     0.028 A 
ATOM     15  C   UNL A   1      38.152  33.815  32.577  1.00  0.00     0.041 A 
ATOM     16  C   UNL A   1      37.871  31.396  33.934  1.00  0.00     0.003 A 
ATOM     17  C   UNL A   1      39.267  32.972  32.702  1.00  0.00     0.058 A 
ATOM     18  C   UNL A   1      39.102  31.746  33.362  1.00  0.00     0.013 A 
BRANCH  17  19
ATOM     19  C   UNL A   1      40.614  33.379  32.141  1.00  0.00     0.416 C 
ATOM     20  F   UNL A   1      40.645  33.369  30.781  1.00  0.00    -0.166 F 
ATOM     21  F   UNL A   1      41.048  34.586  32.569  1.00  0.00    -0.166 F 
ATOM     22  F   UNL A   1      41.599  32.498  32.514  1.00  0.00    -0.166 F 
ENDBRANCH  17  19
ENDBRANCH  10  13
ENDBRANCH   5   6
ENDBRANCH   3   5
ENDBRANCH   2   3
ENDBRANCH   1   2
BRANCH   1  23
ATOM     23  C   UNL A   1      35.008  33.253  27.878  1.00  0.00     0.275 C 
BRANCH  23  24
ATOM     24  O   UNL A   1      35.071  32.195  28.848  1.00  0.00    -0.458 OA
BRANCH  24  25
ATOM     25  C   UNL A   1      35.725  31.116  28.374  1.00  0.00     0.338 C 
ATOM     26  O   UNL A   1      35.411  30.457  27.399  1.00  0.00    -0.246 OA
BRANCH  25  27
ATOM     27  C   UNL A   1      36.720  30.570  29.293  1.00  0.00     0.060 A 
ATOM     28  C   UNL A   1      37.810  31.412  29.531  1.00  0.00     0.016 A 
ATOM     29  C   UNL A   1      36.811  29.188  29.441  1.00  0.00     0.016 A 
ATOM     30  C   UNL A   1      39.063  30.855  29.630  1.00  0.00     0.010 A 
ATOM     31  C   UNL A   1      38.061  28.633  29.636  1.00  0.00     0.010 A 
ATOM     32  C   UNL A   1      39.189  29.463  29.624  1.00  0.00    -0.014 A 
BRANCH  32  33
ATOM     33  C   UNL A   1      40.532  28.924  29.797  1.00  0.00     0.031 A 
ATOM     34  C   UNL A   1      40.906  28.738  31.226  1.00  0.00     0.074 A 
ATOM     35  C   UNL A   1      41.282  28.472  28.774  1.00  0.00     0.049 A 
ATOM     36  N   UNL A   1      41.948  29.163  31.861  1.00  0.00    -0.248 NA
ATOM     37  C   UNL A   1      39.875  28.142  32.098  1.00  0.00     0.031 C 
ATOM     38  C   UNL A   1      40.894  28.371  27.366  1.00  0.00     0.029 A 
ATOM     39  N   UNL A   1      42.488  27.838  28.811  1.00  0.00    -0.354 N 
ATOM     40  C   UNL A   1      41.800  28.701  33.168  1.00  0.00     0.074 A 
ATOM     41  C   UNL A   1      40.432  28.292  33.296  1.00  0.00     0.031 C 
ATOM     42  C   UNL A   1      41.696  27.474  26.757  1.00  0.00     0.029 A 
ATOM     43  C   UNL A   1      42.712  27.032  27.700  1.00  0.00     0.049 A 
ATOM     44  H   UNL A   1      43.133  27.940  29.547  1.00  0.00     0.167 HD
ATOM     45  C   UNL A   1      42.870  28.453  33.968  1.00  0.00     0.034 A 
ATOM     46  C   UNL A   1      43.576  25.988  27.609  1.00  0.00     0.034 A 
ATOM     47  C   UNL A   1      44.031  29.192  33.526  1.00  0.00     0.049 A 
ATOM     48  C   UNL A   1      44.574  26.138  28.698  1.00  0.00     0.074 A 
ATOM     49  C   UNL A   1      44.299  30.535  33.333  1.00  0.00     0.029 A 
ATOM     50  N   UNL A   1      45.037  28.521  32.867  1.00  0.00    -0.354 N 
ATOM     51  N   UNL A   1      45.441  27.111  28.758  1.00  0.00    -0.248 NA
ATOM     52  C   UNL A   1      44.322  25.461  29.962  1.00  0.00     0.031 C 
ATOM     53  C   UNL A   1      45.136  30.587  32.181  1.00  0.00     0.029 A 
ATOM     54  C   UNL A   1      45.384  29.275  31.773  1.00  0.00     0.049 A 
ATOM     55  H   UNL A   1      45.436  27.660  33.131  1.00  0.00     0.167 HD
ATOM     56  C   UNL A   1      45.515  27.447  30.102  1.00  0.00     0.074 A 
ATOM     57  C   UNL A   1      44.894  26.327  30.804  1.00  0.00     0.031 C 
ATOM     58  C   UNL A   1      45.809  28.720  30.502  1.00  0.00     0.034 A 
BRANCH  45  59
ATOM     59  C   UNL A   1      42.958  27.250  34.892  1.00  0.00     0.023 A 
ATOM     60  C   UNL A   1      43.763  26.182  34.457  1.00  0.00     0.031 A 
ATOM     61  C   UNL A   1      42.098  26.953  35.978  1.00  0.00     0.131 A 
ATOM     62  C   UNL A   1      43.580  24.885  34.960  1.00  0.00     0.055 A 
ATOM     63  C   UNL A   1      41.972  25.673  36.525  1.00  0.00     0.041 A 
ATOM     64  F   UNL A   1      41.273  27.847  36.532  1.00  0.00    -0.206 F 
ATOM     65  C   UNL A   1      42.681  24.619  35.987  1.00  0.00     0.022 A 
BRANCH  62  66
ATOM     66  S   UNL A   1      44.382  23.519  34.087  1.00  0.00     0.124 S 
ATOM     67  O   UNL A   1      45.416  24.225  33.337  1.00  0.00    -0.237 OA
ATOM     68  O   UNL A   1      44.840  22.688  35.195  1.00  0.00    -0.237 OA
ATOM     69  O   UNL A   1      43.302  22.952  33.283  1.00  0.00    -0.744 OA
ENDBRANCH  62  66
ENDBRANCH  45  59
BRANCH  46  70
ATOM     70  C   UNL A   1      43.353  24.725  26.851  1.00  0.00     0.023 A 
ATOM     71  C   UNL A   1      42.377  23.782  27.223  1.00  0.00     0.031 A 
ATOM     72  C   UNL A   1      43.986  24.522  25.602  1.00  0.00     0.131 A 
ATOM     73  C   UNL A   1      42.089  22.685  26.375  1.00  0.00     0.055 A 
ATOM     74  C   UNL A   1      43.716  23.427  24.780  1.00  0.00     0.041 A 
ATOM     75  F   UNL A   1      44.837  25.428  25.094  1.00  0.00    -0.206 F 
ATOM     76  C   UNL A   1      42.759  22.504  25.163  1.00  0.00     0.022 A 
BRANCH  73  77
ATOM     77  S   UNL A   1      40.752  21.523  26.798  1.00  0.00     0.124 S 
ATOM     78  O   UNL A   1      40.818  21.491  28.254  1.00  0.00    -0.237 OA
ATOM     79  O   UNL A   1      39.581  22.166  26.214  1.00  0.00    -0.237 OA
ATOM     80  O   UNL A   1      41.160  20.282  26.136  1.00  0.00    -0.744 OA
ENDBRANCH  73  77
ENDBRANCH  46  70
BRANCH  58  81
ATOM     81  C   UNL A   1      46.393  29.690  29.495  1.00  0.00     0.023 A 
ATOM     82  C   UNL A   1      45.637  30.555  28.673  1.00  0.00     0.031 A 
ATOM     83  C   UNL A   1      47.794  29.824  29.469  1.00  0.00     0.131 A 
ATOM     84  C   UNL A   1      46.290  31.505  27.863  1.00  0.00     0.055 A 
ATOM     85  C   UNL A   1      48.436  30.778  28.681  1.00  0.00     0.041 A 
ATOM     86  F   UNL A   1      48.568  29.049  30.247  1.00  0.00    -0.206 F 
ATOM     87  C   UNL A   1      47.685  31.619  27.870  1.00  0.00     0.022 A 
BRANCH  84  88
ATOM     88  S   UNL A   1      45.352  32.603  26.753  1.00  0.00     0.124 S 
ATOM     89  O   UNL A   1      44.038  32.694  27.377  1.00  0.00    -0.237 OA
ATOM     90  O   UNL A   1      46.158  33.821  26.767  1.00  0.00    -0.237 OA
ATOM     91  O   UNL A   1      45.374  31.885  25.476  1.00  0.00    -0.744 OA
ENDBRANCH  84  88
ENDBRANCH  58  81
ENDBRANCH  32  33
ENDBRANCH  25  27
ENDBRANCH  24  25
ENDBRANCH  23  24
ENDBRANCH   1  23
TORSDOF 17
ENDMDL
