MODEL 1
REMARK VINA RESULT:     -11.2      0.000      0.000
REMARK SMILES O=C(OCCOC(=O)c1ccc(-c2c3nc(c(-c4cc(S(=O)(=O)[O-])ccc4F)c4ccc([nH]4)c(-c4cc(S(=O)(=O)[O-])ccc4F)c4nc(c(-c5cc(S(=O)(=O)[O-])ccc5F)c5ccc2[nH]5)C=C4)C=C3)cc1)C1=C[C@H]2C=C[C@@H]1[C@@H]1C=C[C@H]21
REMARK SMILES IDX 6 1 5 2 4 3 3 4 2 5 1 6 72 7 73 8 77 9 74 10 76 11 78 12
REMARK SMILES IDX 75 13 81 14 79 15 80 16 7 17 8 18 9 19 10 20 71 21 11 22
REMARK SMILES IDX 70 23 12 24 13 25 14 26 64 27 15 28 69 29 63 30 65 31 16 32
REMARK SMILES IDX 68 33 62 34 61 35 17 37 49 38 29 39 48 40 30 41 33 42 47 43
REMARK SMILES IDX 66 44 31 45 32 46 46 48 67 49 34 50 18 51 19 52 27 53 20 54
REMARK SMILES IDX 26 55 28 56 25 57 21 58 22 59 23 60 24 61 50 62 51 63 59 64
REMARK SMILES IDX 52 65 58 66 60 67 57 68 53 69 54 70 55 71 56 72 35 73 36 74
REMARK SMILES IDX 44 75 37 76 43 77 45 78 42 79 38 80 39 81 40 82 41 83
REMARK H PARENT 65 36 33 47
REMARK Flexibility Score: inf
ROOT
ATOM      1  O   UNL A   1      40.387  20.852  27.042  1.00  0.00    -0.458 OA
ENDROOT
BRANCH   1   2
ATOM      2  C   UNL A   1      40.573  19.611  26.323  1.00  0.00     0.275 C 
BRANCH   2   3
ATOM      3  C   UNL A   1      42.051  19.176  26.373  1.00  0.00     0.275 C 
BRANCH   3   4
ATOM      4  O   UNL A   1      42.653  19.227  25.059  1.00  0.00    -0.459 OA
BRANCH   4   5
ATOM      5  C   UNL A   1      44.005  19.382  25.016  1.00  0.00     0.334 C 
ATOM      6  O   UNL A   1      44.793  18.467  25.209  1.00  0.00    -0.247 OA
BRANCH   5   7
ATOM      7  C   UNL A   1      44.419  20.790  24.918  1.00  0.00     0.041 C 
ATOM      8  C   UNL A   1      45.277  21.338  24.016  1.00  0.00    -0.007 C 
ATOM      9  C   UNL A   1      43.936  21.777  25.965  1.00  0.00     0.056 C 
ATOM     10  C   UNL A   1      45.507  22.868  24.202  1.00  0.00     0.042 C 
ATOM     11  C   UNL A   1      43.326  22.927  25.170  1.00  0.00    -0.022 C 
ATOM     12  C   UNL A   1      45.276  22.201  26.636  1.00  0.00     0.031 C 
ATOM     13  C   UNL A   1      44.129  23.493  24.254  1.00  0.00    -0.022 C 
ATOM     14  C   UNL A   1      46.156  23.003  25.617  1.00  0.00     0.030 C 
ATOM     15  C   UNL A   1      45.336  23.419  27.516  1.00  0.00    -0.026 C 
ATOM     16  C   UNL A   1      45.909  24.182  26.564  1.00  0.00    -0.026 C 
ENDBRANCH   5   7
ENDBRANCH   4   5
ENDBRANCH   3   4
ENDBRANCH   2   3
ENDBRANCH   1   2
BRANCH   1  17
ATOM     17  C   UNL A   1      39.537  21.772  26.500  1.00  0.00     0.338 C 
ATOM     18  O   UNL A   1      38.479  21.543  25.956  1.00  0.00    -0.246 OA
BRANCH  17  19
ATOM     19  C   UNL A   1      40.026  23.139  26.850  1.00  0.00     0.060 A 
ATOM     20  C   UNL A   1      39.508  24.227  26.141  1.00  0.00     0.016 A 
ATOM     21  C   UNL A   1      40.872  23.369  27.946  1.00  0.00     0.016 A 
ATOM     22  C   UNL A   1      39.774  25.537  26.568  1.00  0.00     0.010 A 
ATOM     23  C   UNL A   1      41.131  24.683  28.374  1.00  0.00     0.010 A 
ATOM     24  C   UNL A   1      40.571  25.779  27.699  1.00  0.00    -0.014 A 
BRANCH  24  25
ATOM     25  C   UNL A   1      40.945  27.179  28.059  1.00  0.00     0.031 A 
ATOM     26  C   UNL A   1      42.355  27.617  27.799  1.00  0.00     0.074 A 
ATOM     27  C   UNL A   1      40.073  28.064  28.581  1.00  0.00     0.049 A 
ATOM     28  N   UNL A   1      42.906  28.788  27.980  1.00  0.00    -0.248 NA
ATOM     29  C   UNL A   1      43.262  26.587  27.276  1.00  0.00     0.031 C 
ATOM     30  C   UNL A   1      38.680  27.773  28.885  1.00  0.00     0.029 A 
ATOM     31  N   UNL A   1      40.213  29.389  28.934  1.00  0.00    -0.354 N 
ATOM     32  C   UNL A   1      44.227  28.641  27.582  1.00  0.00     0.074 A 
ATOM     33  C   UNL A   1      44.395  27.261  27.172  1.00  0.00     0.031 C 
ATOM     34  C   UNL A   1      38.074  28.890  29.323  1.00  0.00     0.029 A 
ATOM     35  C   UNL A   1      39.055  29.970  29.411  1.00  0.00     0.049 A 
ATOM     36  H   UNL A   1      41.064  29.877  28.854  1.00  0.00     0.167 HD
ATOM     37  C   UNL A   1      45.217  29.565  27.570  1.00  0.00     0.034 A 
ATOM     38  C   UNL A   1      38.818  31.214  29.888  1.00  0.00     0.034 A 
ATOM     39  C   UNL A   1      45.075  30.914  28.049  1.00  0.00     0.049 A 
ATOM     40  C   UNL A   1      39.972  32.189  29.974  1.00  0.00     0.074 A 
ATOM     41  C   UNL A   1      46.030  31.913  28.100  1.00  0.00     0.029 A 
ATOM     42  N   UNL A   1      43.915  31.442  28.600  1.00  0.00    -0.354 N 
ATOM     43  N   UNL A   1      41.209  32.046  29.553  1.00  0.00    -0.248 NA
ATOM     44  C   UNL A   1      39.711  33.482  30.625  1.00  0.00     0.031 C 
ATOM     45  C   UNL A   1      45.470  33.019  28.750  1.00  0.00     0.029 A 
ATOM     46  C   UNL A   1      44.145  32.736  29.042  1.00  0.00     0.049 A 
ATOM     47  H   UNL A   1      43.055  30.968  28.666  1.00  0.00     0.167 HD
ATOM     48  C   UNL A   1      41.864  33.231  29.879  1.00  0.00     0.074 A 
ATOM     49  C   UNL A   1      40.882  34.090  30.509  1.00  0.00     0.031 C 
ATOM     50  C   UNL A   1      43.162  33.577  29.682  1.00  0.00     0.034 A 
BRANCH  37  51
ATOM     51  C   UNL A   1      46.561  29.083  27.099  1.00  0.00     0.023 A 
ATOM     52  C   UNL A   1      46.789  28.755  25.751  1.00  0.00     0.031 A 
ATOM     53  C   UNL A   1      47.589  28.849  28.026  1.00  0.00     0.131 A 
ATOM     54  C   UNL A   1      47.991  28.137  25.382  1.00  0.00     0.055 A 
ATOM     55  C   UNL A   1      48.811  28.300  27.639  1.00  0.00     0.041 A 
ATOM     56  F   UNL A   1      47.406  29.112  29.329  1.00  0.00    -0.206 F 
ATOM     57  C   UNL A   1      49.012  27.925  26.312  1.00  0.00     0.022 A 
BRANCH  54  58
ATOM     58  S   UNL A   1      48.143  27.473  23.701  1.00  0.00     0.124 S 
ATOM     59  O   UNL A   1      47.093  28.208  22.998  1.00  0.00    -0.237 OA
ATOM     60  O   UNL A   1      49.513  27.820  23.346  1.00  0.00    -0.237 OA
ATOM     61  O   UNL A   1      47.884  26.045  23.873  1.00  0.00    -0.744 OA
ENDBRANCH  54  58
ENDBRANCH  37  51
BRANCH  38  62
ATOM     62  C   UNL A   1      37.468  31.603  30.412  1.00  0.00     0.023 A 
ATOM     63  C   UNL A   1      36.535  32.293  29.615  1.00  0.00     0.031 A 
ATOM     64  C   UNL A   1      37.121  31.367  31.756  1.00  0.00     0.131 A 
ATOM     65  C   UNL A   1      35.328  32.750  30.176  1.00  0.00     0.055 A 
ATOM     66  C   UNL A   1      35.896  31.769  32.293  1.00  0.00     0.041 A 
ATOM     67  F   UNL A   1      37.976  30.737  32.578  1.00  0.00    -0.206 F 
ATOM     68  C   UNL A   1      34.996  32.478  31.504  1.00  0.00     0.022 A 
BRANCH  65  69
ATOM     69  S   UNL A   1      34.236  33.806  29.179  1.00  0.00     0.124 S 
ATOM     70  O   UNL A   1      33.654  32.844  28.251  1.00  0.00    -0.237 OA
ATOM     71  O   UNL A   1      33.337  34.350  30.191  1.00  0.00    -0.237 OA
ATOM     72  O   UNL A   1      35.153  34.774  28.579  1.00  0.00    -0.744 OA
ENDBRANCH  65  69
ENDBRANCH  38  62
BRANCH  50  73
ATOM     73  C   UNL A   1      43.585  34.955  30.131  1.00  0.00     0.023 A 
ATOM     74  C   UNL A   1      43.450  36.078  29.296  1.00  0.00     0.031 A 
ATOM     75  C   UNL A   1      44.123  35.146  31.416  1.00  0.00     0.131 A 
ATOM     76  C   UNL A   1      43.887  37.335  29.740  1.00  0.00     0.055 A 
ATOM     77  C   UNL A   1      44.507  36.408  31.872  1.00  0.00     0.041 A 
ATOM     78  F   UNL A   1      44.273  34.109  32.255  1.00  0.00    -0.206 F 
ATOM     79  C   UNL A   1      44.398  37.510  31.028  1.00  0.00     0.022 A 
BRANCH  76  80
ATOM     80  S   UNL A   1      43.828  38.739  28.592  1.00  0.00     0.124 S 
ATOM     81  O   UNL A   1      44.421  38.169  27.386  1.00  0.00    -0.237 OA
ATOM     82  O   UNL A   1      42.399  39.031  28.523  1.00  0.00    -0.237 OA
ATOM     83  O   UNL A   1      44.634  39.762  29.256  1.00  0.00    -0.744 OA
ENDBRANCH  76  80
ENDBRANCH  50  73
ENDBRANCH  24  25
ENDBRANCH  17  19
ENDBRANCH   1  17
TORSDOF 14
ENDMDL
MODEL 2
REMARK VINA RESULT:     -11.0      4.904     12.524
REMARK SMILES O=C(OCCOC(=O)c1ccc(-c2c3nc(c(-c4cc(S(=O)(=O)[O-])ccc4F)c4ccc([nH]4)c(-c4cc(S(=O)(=O)[O-])ccc4F)c4nc(c(-c5cc(S(=O)(=O)[O-])ccc5F)c5ccc2[nH]5)C=C4)C=C3)cc1)C1=C[C@H]2C=C[C@@H]1[C@@H]1C=C[C@H]21
REMARK SMILES IDX 6 1 5 2 4 3 3 4 2 5 1 6 72 7 73 8 77 9 74 10 76 11 78 12
REMARK SMILES IDX 75 13 81 14 79 15 80 16 7 17 8 18 9 19 10 20 71 21 11 22
REMARK SMILES IDX 70 23 12 24 13 25 14 26 64 27 15 28 69 29 63 30 65 31 16 32
REMARK SMILES IDX 68 33 62 34 61 35 17 37 49 38 29 39 48 40 30 41 33 42 47 43
REMARK SMILES IDX 66 44 31 45 32 46 46 48 67 49 34 50 18 51 19 52 27 53 20 54
REMARK SMILES IDX 26 55 28 56 25 57 21 58 22 59 23 60 24 61 50 62 51 63 59 64
REMARK SMILES IDX 52 65 58 66 60 67 57 68 53 69 54 70 55 71 56 72 35 73 36 74
REMARK SMILES IDX 44 75 37 76 43 77 45 78 42 79 38 80 39 81 40 82 41 83
REMARK H PARENT 65 36 33 47
REMARK Flexibility Score: inf
ROOT
ATOM      1  O   UNL A   1      34.403  33.170  27.791  1.00  0.00    -0.458 OA
ENDROOT
BRANCH   1   2
ATOM      2  C   UNL A   1      33.149  33.875  27.931  1.00  0.00     0.275 C 
BRANCH   2   3
ATOM      3  C   UNL A   1      33.317  35.097  28.855  1.00  0.00     0.275 C 
BRANCH   3   4
ATOM      4  O   UNL A   1      32.692  34.869  30.140  1.00  0.00    -0.459 OA
BRANCH   4   5
ATOM      5  C   UNL A   1      33.237  35.519  31.205  1.00  0.00     0.334 C 
ATOM      6  O   UNL A   1      33.126  36.724  31.385  1.00  0.00    -0.247 OA
BRANCH   5   7
ATOM      7  C   UNL A   1      34.136  34.669  31.999  1.00  0.00     0.041 C 
ATOM      8  C   UNL A   1      33.939  34.215  33.266  1.00  0.00    -0.007 C 
ATOM      9  C   UNL A   1      35.491  34.292  31.429  1.00  0.00     0.056 C 
ATOM     10  C   UNL A   1      35.104  33.341  33.819  1.00  0.00     0.042 C 
ATOM     11  C   UNL A   1      35.558  32.772  31.546  1.00  0.00    -0.022 C 
ATOM     12  C   UNL A   1      36.457  34.980  32.440  1.00  0.00     0.031 C 
ATOM     13  C   UNL A   1      35.354  32.273  32.776  1.00  0.00    -0.022 C 
ATOM     14  C   UNL A   1      36.340  34.296  33.844  1.00  0.00     0.030 C 
ATOM     15  C   UNL A   1      37.914  34.610  32.475  1.00  0.00    -0.026 C 
ATOM     16  C   UNL A   1      37.778  33.843  33.575  1.00  0.00    -0.026 C 
ENDBRANCH   5   7
ENDBRANCH   4   5
ENDBRANCH   3   4
ENDBRANCH   2   3
ENDBRANCH   1   2
BRANCH   1  17
ATOM     17  C   UNL A   1      34.357  31.808  27.720  1.00  0.00     0.338 C 
ATOM     18  O   UNL A   1      33.533  31.146  27.129  1.00  0.00    -0.246 OA
BRANCH  17  19
ATOM     19  C   UNL A   1      35.600  31.255  28.336  1.00  0.00     0.060 A 
ATOM     20  C   UNL A   1      35.569  29.945  28.822  1.00  0.00     0.016 A 
ATOM     21  C   UNL A   1      36.817  31.954  28.313  1.00  0.00     0.016 A 
ATOM     22  C   UNL A   1      36.757  29.311  29.214  1.00  0.00     0.010 A 
ATOM     23  C   UNL A   1      38.006  31.313  28.701  1.00  0.00     0.010 A 
ATOM     24  C   UNL A   1      37.990  29.979  29.141  1.00  0.00    -0.014 A 
BRANCH  24  25
ATOM     25  C   UNL A   1      39.222  29.332  29.683  1.00  0.00     0.031 A 
ATOM     26  C   UNL A   1      39.729  29.794  31.016  1.00  0.00     0.074 A 
ATOM     27  C   UNL A   1      39.877  28.343  29.042  1.00  0.00     0.049 A 
ATOM     28  N   UNL A   1      40.743  29.357  31.714  1.00  0.00    -0.248 NA
ATOM     29  C   UNL A   1      38.994  30.907  31.632  1.00  0.00     0.031 C 
ATOM     30  C   UNL A   1      39.498  27.802  27.747  1.00  0.00     0.029 A 
ATOM     31  N   UNL A   1      40.986  27.604  29.392  1.00  0.00    -0.354 N 
ATOM     32  C   UNL A   1      40.766  30.136  32.862  1.00  0.00     0.074 A 
ATOM     33  C   UNL A   1      39.675  31.084  32.751  1.00  0.00     0.031 C 
ATOM     34  C   UNL A   1      40.314  26.782  27.430  1.00  0.00     0.029 A 
ATOM     35  C   UNL A   1      41.336  26.642  28.466  1.00  0.00     0.049 A 
ATOM     36  H   UNL A   1      41.485  27.750  30.228  1.00  0.00     0.167 HD
ATOM     37  C   UNL A   1      41.621  30.079  33.909  1.00  0.00     0.034 A 
ATOM     38  C   UNL A   1      42.372  25.771  28.439  1.00  0.00     0.034 A 
ATOM     39  C   UNL A   1      42.752  29.192  33.986  1.00  0.00     0.049 A 
ATOM     40  C   UNL A   1      43.381  25.811  29.566  1.00  0.00     0.074 A 
ATOM     41  C   UNL A   1      43.690  29.081  34.997  1.00  0.00     0.029 A 
ATOM     42  N   UNL A   1      43.123  28.291  32.997  1.00  0.00    -0.354 N 
ATOM     43  N   UNL A   1      43.363  26.527  30.667  1.00  0.00    -0.248 NA
ATOM     44  C   UNL A   1      44.567  24.949  29.435  1.00  0.00     0.031 C 
ATOM     45  C   UNL A   1      44.669  28.169  34.585  1.00  0.00     0.029 A 
ATOM     46  C   UNL A   1      44.306  27.659  33.348  1.00  0.00     0.049 A 
ATOM     47  H   UNL A   1      42.620  28.125  32.167  1.00  0.00     0.167 HD
ATOM     48  C   UNL A   1      44.524  26.193  31.360  1.00  0.00     0.074 A 
ATOM     49  C   UNL A   1      45.210  25.193  30.567  1.00  0.00     0.031 C 
ATOM     50  C   UNL A   1      44.987  26.674  32.542  1.00  0.00     0.034 A 
BRANCH  37  51
ATOM     51  C   UNL A   1      41.393  31.086  35.002  1.00  0.00     0.023 A 
ATOM     52  C   UNL A   1      40.250  31.031  35.818  1.00  0.00     0.031 A 
ATOM     53  C   UNL A   1      42.273  32.168  35.156  1.00  0.00     0.131 A 
ATOM     54  C   UNL A   1      39.977  32.086  36.700  1.00  0.00     0.055 A 
ATOM     55  C   UNL A   1      42.033  33.179  36.087  1.00  0.00     0.041 A 
ATOM     56  F   UNL A   1      43.359  32.282  34.376  1.00  0.00    -0.206 F 
ATOM     57  C   UNL A   1      40.870  33.150  36.854  1.00  0.00     0.022 A 
BRANCH  54  58
ATOM     58  S   UNL A   1      38.364  32.127  37.528  1.00  0.00     0.124 S 
ATOM     59  O   UNL A   1      37.806  30.831  37.149  1.00  0.00    -0.237 OA
ATOM     60  O   UNL A   1      38.732  32.280  38.930  1.00  0.00    -0.237 OA
ATOM     61  O   UNL A   1      37.700  33.283  36.927  1.00  0.00    -0.744 OA
ENDBRANCH  54  58
ENDBRANCH  37  51
BRANCH  38  62
ATOM     62  C   UNL A   1      42.581  24.845  27.278  1.00  0.00     0.023 A 
ATOM     63  C   UNL A   1      42.063  23.536  27.273  1.00  0.00     0.031 A 
ATOM     64  C   UNL A   1      43.383  25.228  26.186  1.00  0.00     0.131 A 
ATOM     65  C   UNL A   1      42.382  22.654  26.224  1.00  0.00     0.055 A 
ATOM     66  C   UNL A   1      43.647  24.369  25.117  1.00  0.00     0.041 A 
ATOM     67  F   UNL A   1      43.929  26.453  26.141  1.00  0.00    -0.206 F 
ATOM     68  C   UNL A   1      43.156  23.068  25.139  1.00  0.00     0.022 A 
BRANCH  65  69
ATOM     69  S   UNL A   1      41.864  20.916  26.343  1.00  0.00     0.124 S 
ATOM     70  O   UNL A   1      42.724  20.279  25.353  1.00  0.00    -0.237 OA
ATOM     71  O   UNL A   1      42.153  20.611  27.740  1.00  0.00    -0.237 OA
ATOM     72  O   UNL A   1      40.444  20.960  25.998  1.00  0.00    -0.744 OA
ENDBRANCH  65  69
ENDBRANCH  38  62
BRANCH  50  73
ATOM     73  C   UNL A   1      46.285  26.103  33.061  1.00  0.00     0.023 A 
ATOM     74  C   UNL A   1      46.316  24.945  33.858  1.00  0.00     0.031 A 
ATOM     75  C   UNL A   1      47.507  26.722  32.743  1.00  0.00     0.131 A 
ATOM     76  C   UNL A   1      47.542  24.466  34.346  1.00  0.00     0.055 A 
ATOM     77  C   UNL A   1      48.727  26.210  33.188  1.00  0.00     0.041 A 
ATOM     78  F   UNL A   1      47.535  27.829  31.985  1.00  0.00    -0.206 F 
ATOM     79  C   UNL A   1      48.748  25.081  34.002  1.00  0.00     0.022 A 
BRANCH  76  80
ATOM     80  S   UNL A   1      47.539  23.052  35.483  1.00  0.00     0.124 S 
ATOM     81  O   UNL A   1      46.118  22.909  35.785  1.00  0.00    -0.237 OA
ATOM     82  O   UNL A   1      48.127  21.992  34.671  1.00  0.00    -0.237 OA
ATOM     83  O   UNL A   1      48.368  23.506  36.598  1.00  0.00    -0.744 OA
ENDBRANCH  76  80
ENDBRANCH  50  73
ENDBRANCH  24  25
ENDBRANCH  17  19
ENDBRANCH   1  17
TORSDOF 14
ENDMDL
MODEL 3
REMARK VINA RESULT:     -11.0      1.507      1.911
REMARK SMILES O=C(OCCOC(=O)c1ccc(-c2c3nc(c(-c4cc(S(=O)(=O)[O-])ccc4F)c4ccc([nH]4)c(-c4cc(S(=O)(=O)[O-])ccc4F)c4nc(c(-c5cc(S(=O)(=O)[O-])ccc5F)c5ccc2[nH]5)C=C4)C=C3)cc1)C1=C[C@H]2C=C[C@@H]1[C@@H]1C=C[C@H]21
REMARK SMILES IDX 6 1 5 2 4 3 3 4 2 5 1 6 72 7 73 8 77 9 74 10 76 11 78 12
REMARK SMILES IDX 75 13 81 14 79 15 80 16 7 17 8 18 9 19 10 20 71 21 11 22
REMARK SMILES IDX 70 23 12 24 13 25 14 26 64 27 15 28 69 29 63 30 65 31 16 32
REMARK SMILES IDX 68 33 62 34 61 35 17 37 49 38 29 39 48 40 30 41 33 42 47 43
REMARK SMILES IDX 66 44 31 45 32 46 46 48 67 49 34 50 18 51 19 52 27 53 20 54
REMARK SMILES IDX 26 55 28 56 25 57 21 58 22 59 23 60 24 61 50 62 51 63 59 64
REMARK SMILES IDX 52 65 58 66 60 67 57 68 53 69 54 70 55 71 56 72 35 73 36 74
REMARK SMILES IDX 44 75 37 76 43 77 45 78 42 79 38 80 39 81 40 82 41 83
REMARK H PARENT 65 36 33 47
REMARK Flexibility Score: inf
ROOT
ATOM      1  O   UNL A   1      40.485  20.893  26.879  1.00  0.00    -0.458 OA
ENDROOT
BRANCH   1   2
ATOM      2  C   UNL A   1      40.579  19.576  26.291  1.00  0.00     0.275 C 
BRANCH   2   3
ATOM      3  C   UNL A   1      42.033  19.067  26.339  1.00  0.00     0.275 C 
BRANCH   3   4
ATOM      4  O   UNL A   1      42.670  19.188  25.045  1.00  0.00    -0.459 OA
BRANCH   4   5
ATOM      5  C   UNL A   1      44.011  19.421  25.046  1.00  0.00     0.334 C 
ATOM      6  O   UNL A   1      44.840  18.573  25.344  1.00  0.00    -0.247 OA
BRANCH   5   7
ATOM      7  C   UNL A   1      44.347  20.840  24.855  1.00  0.00     0.041 C 
ATOM      8  C   UNL A   1      44.883  21.419  23.747  1.00  0.00    -0.007 C 
ATOM      9  C   UNL A   1      44.182  21.802  26.016  1.00  0.00     0.056 C 
ATOM     10  C   UNL A   1      45.127  22.952  23.884  1.00  0.00     0.042 C 
ATOM     11  C   UNL A   1      43.338  22.946  25.463  1.00  0.00    -0.022 C 
ATOM     12  C   UNL A   1      45.653  22.251  26.261  1.00  0.00     0.031 C 
ATOM     13  C   UNL A   1      43.817  23.542  24.359  1.00  0.00    -0.022 C 
ATOM     14  C   UNL A   1      46.169  23.086  25.041  1.00  0.00     0.030 C 
ATOM     15  C   UNL A   1      45.951  23.460  27.105  1.00  0.00    -0.026 C 
ATOM     16  C   UNL A   1      46.195  24.248  26.039  1.00  0.00    -0.026 C 
ENDBRANCH   5   7
ENDBRANCH   4   5
ENDBRANCH   3   4
ENDBRANCH   2   3
ENDBRANCH   1   2
BRANCH   1  17
ATOM     17  C   UNL A   1      39.480  21.708  26.443  1.00  0.00     0.338 C 
ATOM     18  O   UNL A   1      38.447  21.357  25.918  1.00  0.00    -0.246 OA
BRANCH  17  19
ATOM     19  C   UNL A   1      39.770  23.104  26.887  1.00  0.00     0.060 A 
ATOM     20  C   UNL A   1      40.668  23.286  27.944  1.00  0.00     0.016 A 
ATOM     21  C   UNL A   1      39.283  24.223  26.194  1.00  0.00     0.016 A 
ATOM     22  C   UNL A   1      41.132  24.572  28.259  1.00  0.00     0.010 A 
ATOM     23  C   UNL A   1      39.756  25.509  26.510  1.00  0.00     0.010 A 
ATOM     24  C   UNL A   1      40.698  25.694  27.535  1.00  0.00    -0.014 A 
BRANCH  24  25
ATOM     25  C   UNL A   1      41.105  27.064  27.969  1.00  0.00     0.031 A 
ATOM     26  C   UNL A   1      42.521  27.486  27.720  1.00  0.00     0.074 A 
ATOM     27  C   UNL A   1      40.256  27.935  28.549  1.00  0.00     0.049 A 
ATOM     28  N   UNL A   1      43.099  28.634  27.960  1.00  0.00    -0.248 NA
ATOM     29  C   UNL A   1      43.401  26.469  27.130  1.00  0.00     0.031 C 
ATOM     30  C   UNL A   1      38.860  27.656  28.850  1.00  0.00     0.029 A 
ATOM     31  N   UNL A   1      40.427  29.235  28.974  1.00  0.00    -0.354 N 
ATOM     32  C   UNL A   1      44.412  28.482  27.542  1.00  0.00     0.074 A 
ATOM     33  C   UNL A   1      44.547  27.124  27.054  1.00  0.00     0.031 C 
ATOM     34  C   UNL A   1      38.281  28.760  29.355  1.00  0.00     0.029 A 
ATOM     35  C   UNL A   1      39.286  29.812  29.494  1.00  0.00     0.049 A 
ATOM     36  H   UNL A   1      41.287  29.709  28.913  1.00  0.00     0.167 HD
ATOM     37  C   UNL A   1      45.422  29.384  27.571  1.00  0.00     0.034 A 
ATOM     38  C   UNL A   1      39.080  31.032  30.042  1.00  0.00     0.034 A 
ATOM     39  C   UNL A   1      45.312  30.707  28.127  1.00  0.00     0.049 A 
ATOM     40  C   UNL A   1      40.255  31.977  30.171  1.00  0.00     0.074 A 
ATOM     41  C   UNL A   1      46.288  31.682  28.224  1.00  0.00     0.029 A 
ATOM     42  N   UNL A   1      44.168  31.227  28.718  1.00  0.00    -0.354 N 
ATOM     43  N   UNL A   1      41.484  31.832  29.730  1.00  0.00    -0.248 NA
ATOM     44  C   UNL A   1      40.026  33.236  30.896  1.00  0.00     0.031 C 
ATOM     45  C   UNL A   1      45.757  32.761  28.941  1.00  0.00     0.029 A 
ATOM     46  C   UNL A   1      44.430  32.489  29.230  1.00  0.00     0.049 A 
ATOM     47  H   UNL A   1      43.299  30.768  28.766  1.00  0.00     0.167 HD
ATOM     48  C   UNL A   1      42.167  32.983  30.116  1.00  0.00     0.074 A 
ATOM     49  C   UNL A   1      41.209  33.825  30.803  1.00  0.00     0.031 C 
ATOM     50  C   UNL A   1      43.470  33.313  29.926  1.00  0.00     0.034 A 
BRANCH  37  51
ATOM     51  C   UNL A   1      46.751  28.902  27.061  1.00  0.00     0.023 A 
ATOM     52  C   UNL A   1      46.961  28.650  25.694  1.00  0.00     0.031 A 
ATOM     53  C   UNL A   1      47.780  28.591  27.964  1.00  0.00     0.131 A 
ATOM     54  C   UNL A   1      48.146  28.029  25.278  1.00  0.00     0.055 A 
ATOM     55  C   UNL A   1      48.987  28.040  27.534  1.00  0.00     0.041 A 
ATOM     56  F   UNL A   1      47.613  28.781  29.281  1.00  0.00    -0.206 F 
ATOM     57  C   UNL A   1      49.169  27.740  26.186  1.00  0.00     0.022 A 
BRANCH  54  58
ATOM     58  S   UNL A   1      48.270  27.462  23.559  1.00  0.00     0.124 S 
ATOM     59  O   UNL A   1      49.607  27.924  23.193  1.00  0.00    -0.237 OA
ATOM     60  O   UNL A   1      48.105  26.020  23.689  1.00  0.00    -0.237 OA
ATOM     61  O   UNL A   1      47.173  28.159  22.890  1.00  0.00    -0.744 OA
ENDBRANCH  54  58
ENDBRANCH  37  51
BRANCH  38  62
ATOM     62  C   UNL A   1      37.742  31.418  30.601  1.00  0.00     0.023 A 
ATOM     63  C   UNL A   1      36.785  32.100  29.825  1.00  0.00     0.031 A 
ATOM     64  C   UNL A   1      37.434  31.189  31.955  1.00  0.00     0.131 A 
ATOM     65  C   UNL A   1      35.592  32.556  30.416  1.00  0.00     0.055 A 
ATOM     66  C   UNL A   1      36.222  31.590  32.523  1.00  0.00     0.041 A 
ATOM     67  F   UNL A   1      38.313  30.567  32.757  1.00  0.00    -0.206 F 
ATOM     68  C   UNL A   1      35.298  32.290  31.755  1.00  0.00     0.022 A 
BRANCH  65  69
ATOM     69  S   UNL A   1      34.468  33.601  29.444  1.00  0.00     0.124 S 
ATOM     70  O   UNL A   1      33.653  34.215  30.484  1.00  0.00    -0.237 OA
ATOM     71  O   UNL A   1      35.401  34.483  28.751  1.00  0.00    -0.237 OA
ATOM     72  O   UNL A   1      33.769  32.643  28.588  1.00  0.00    -0.744 OA
ENDBRANCH  65  69
ENDBRANCH  38  62
BRANCH  50  73
ATOM     73  C   UNL A   1      43.927  34.654  30.447  1.00  0.00     0.023 A 
ATOM     74  C   UNL A   1      44.466  34.801  31.737  1.00  0.00     0.031 A 
ATOM     75  C   UNL A   1      43.828  35.799  29.635  1.00  0.00     0.131 A 
ATOM     76  C   UNL A   1      44.848  36.072  32.194  1.00  0.00     0.055 A 
ATOM     77  C   UNL A   1      44.259  37.051  30.076  1.00  0.00     0.041 A 
ATOM     78  F   UNL A   1      43.322  35.715  28.395  1.00  0.00    -0.206 F 
ATOM     79  C   UNL A   1      44.764  37.194  31.366  1.00  0.00     0.022 A 
BRANCH  76  80
ATOM     80  S   UNL A   1      45.412  36.253  33.909  1.00  0.00     0.124 S 
ATOM     81  O   UNL A   1      44.534  35.325  34.615  1.00  0.00    -0.237 OA
ATOM     82  O   UNL A   1      46.815  35.863  33.823  1.00  0.00    -0.237 OA
ATOM     83  O   UNL A   1      45.182  37.668  34.199  1.00  0.00    -0.744 OA
ENDBRANCH  76  80
ENDBRANCH  50  73
ENDBRANCH  24  25
ENDBRANCH  17  19
ENDBRANCH   1  17
TORSDOF 14
ENDMDL
