MODEL 1
REMARK VINA RESULT:     -11.5      0.000      0.000
REMARK SMILES O=C(OCCOC(=O)[C@@H]1CC[C@@]2(CCN(C(=O)OCc3ccccc3)C2)C1)c1ccc(-c2c3nc(c(-c4cc(S(=O)(=O)[O-])ccc4F)c4ccc([nH]4)c(-c4cc(S(=O)(=O)[O-])ccc4F)c4nc(c(-c5cc(S(=O)(=O)[O-])ccc5F)c5ccc2[nH]5)C=C4)C=C3)cc1
REMARK SMILES IDX 5 1 4 2 3 3 2 4 1 5 28 6 29 7 90 8 30 9 89 10 31 11 32 12
REMARK SMILES IDX 33 13 83 14 34 15 88 16 82 17 84 18 35 19 87 20 81 21 80 22
REMARK SMILES IDX 36 24 68 25 48 26 67 27 49 28 52 29 66 30 85 31 50 32 51 33
REMARK SMILES IDX 65 35 86 36 53 37 37 38 38 39 46 40 39 41 45 42 47 43 44 44
REMARK SMILES IDX 40 45 41 46 42 47 43 48 69 49 70 50 78 51 71 52 77 53 79 54
REMARK SMILES IDX 76 55 72 56 73 57 74 58 75 59 54 60 55 61 63 62 56 63 62 64
REMARK SMILES IDX 64 65 61 66 57 67 58 68 59 69 60 70 6 71 7 72 8 73 9 74
REMARK SMILES IDX 10 75 27 76 11 77 12 78 13 79 26 80 14 81 15 82 16 83 17 84
REMARK SMILES IDX 18 85 19 86 20 87 21 88 25 89 22 90 24 91 23 92
REMARK H PARENT 84 23 52 34
REMARK Flexibility Score: inf
ROOT
ATOM      1  C   UNL A   1      33.445  29.188  25.849  1.00  0.00     0.274 C 
ENDROOT
BRANCH   1   2
ATOM      2  C   UNL A   1      32.638  30.426  26.239  1.00  0.00     0.275 C 
BRANCH   2   3
ATOM      3  O   UNL A   1      33.072  31.015  27.478  1.00  0.00    -0.458 OA
BRANCH   3   4
ATOM      4  C   UNL A   1      34.221  31.661  27.790  1.00  0.00     0.338 C 
ATOM      5  O   UNL A   1      34.336  32.834  27.434  1.00  0.00    -0.246 OA
BRANCH   4   6
ATOM      6  C   UNL A   1      35.428  30.994  28.382  1.00  0.00     0.060 A 
ATOM      7  C   UNL A   1      35.453  29.842  29.170  1.00  0.00     0.016 A 
ATOM      8  C   UNL A   1      36.662  31.597  28.086  1.00  0.00     0.016 A 
ATOM      9  C   UNL A   1      36.667  29.255  29.561  1.00  0.00     0.010 A 
ATOM     10  C   UNL A   1      37.872  30.984  28.418  1.00  0.00     0.010 A 
ATOM     11  C   UNL A   1      37.891  29.802  29.168  1.00  0.00    -0.014 A 
BRANCH  11  12
ATOM     12  C   UNL A   1      39.176  29.239  29.664  1.00  0.00     0.031 A 
ATOM     13  C   UNL A   1      39.730  29.764  30.963  1.00  0.00     0.074 A 
ATOM     14  C   UNL A   1      39.838  28.279  28.985  1.00  0.00     0.049 A 
ATOM     15  N   UNL A   1      40.828  29.438  31.594  1.00  0.00    -0.248 NA
ATOM     16  C   UNL A   1      38.957  30.830  31.618  1.00  0.00     0.031 C 
ATOM     17  C   UNL A   1      39.433  27.712  27.697  1.00  0.00     0.029 A 
ATOM     18  N   UNL A   1      40.996  27.602  29.286  1.00  0.00    -0.354 N 
ATOM     19  C   UNL A   1      40.865  30.257  32.719  1.00  0.00     0.074 A 
ATOM     20  C   UNL A   1      39.761  31.182  32.604  1.00  0.00     0.031 C 
ATOM     21  C   UNL A   1      40.315  26.767  27.329  1.00  0.00     0.029 A 
ATOM     22  C   UNL A   1      41.355  26.659  28.347  1.00  0.00     0.049 A 
ATOM     23  H   UNL A   1      41.522  27.775  30.100  1.00  0.00     0.167 HD
ATOM     24  C   UNL A   1      41.689  30.201  33.793  1.00  0.00     0.034 A 
ATOM     25  C   UNL A   1      42.394  25.797  28.326  1.00  0.00     0.034 A 
ATOM     26  C   UNL A   1      42.776  29.268  33.907  1.00  0.00     0.049 A 
ATOM     27  C   UNL A   1      43.332  25.772  29.514  1.00  0.00     0.074 A 
ATOM     28  C   UNL A   1      43.691  29.119  34.932  1.00  0.00     0.029 A 
ATOM     29  N   UNL A   1      43.088  28.311  32.949  1.00  0.00    -0.354 N 
ATOM     30  N   UNL A   1      43.312  26.514  30.600  1.00  0.00    -0.248 NA
ATOM     31  C   UNL A   1      44.410  24.775  29.492  1.00  0.00     0.031 C 
ATOM     32  C   UNL A   1      44.577  28.094  34.579  1.00  0.00     0.029 A 
ATOM     33  C   UNL A   1      44.181  27.568  33.358  1.00  0.00     0.049 A 
ATOM     34  H   UNL A   1      42.602  28.180  32.104  1.00  0.00     0.167 HD
ATOM     35  C   UNL A   1      44.344  26.038  31.405  1.00  0.00     0.074 A 
ATOM     36  C   UNL A   1      44.957  24.940  30.687  1.00  0.00     0.031 C 
ATOM     37  C   UNL A   1      44.753  26.464  32.627  1.00  0.00     0.034 A 
BRANCH  24  38
ATOM     38  C   UNL A   1      41.405  31.181  34.904  1.00  0.00     0.023 A 
ATOM     39  C   UNL A   1      40.277  31.016  35.731  1.00  0.00     0.031 A 
ATOM     40  C   UNL A   1      42.168  32.348  35.057  1.00  0.00     0.131 A 
ATOM     41  C   UNL A   1      39.868  32.059  36.573  1.00  0.00     0.055 A 
ATOM     42  C   UNL A   1      41.813  33.339  35.976  1.00  0.00     0.041 A 
ATOM     43  F   UNL A   1      43.243  32.570  34.284  1.00  0.00    -0.206 F 
ATOM     44  C   UNL A   1      40.642  33.211  36.721  1.00  0.00     0.022 A 
BRANCH  41  45
ATOM     45  S   UNL A   1      38.210  31.970  37.303  1.00  0.00     0.124 S 
ATOM     46  O   UNL A   1      37.507  33.010  36.555  1.00  0.00    -0.237 OA
ATOM     47  O   UNL A   1      37.809  30.598  37.017  1.00  0.00    -0.237 OA
ATOM     48  O   UNL A   1      38.440  32.274  38.713  1.00  0.00    -0.744 OA
ENDBRANCH  41  45
ENDBRANCH  24  38
BRANCH  25  49
ATOM     49  C   UNL A   1      42.613  24.869  27.174  1.00  0.00     0.023 A 
ATOM     50  C   UNL A   1      42.058  23.577  27.164  1.00  0.00     0.031 A 
ATOM     51  C   UNL A   1      43.454  25.227  26.105  1.00  0.00     0.131 A 
ATOM     52  C   UNL A   1      42.408  22.668  26.152  1.00  0.00     0.055 A 
ATOM     53  C   UNL A   1      43.757  24.336  25.072  1.00  0.00     0.041 A 
ATOM     54  F   UNL A   1      44.004  26.451  26.054  1.00  0.00    -0.206 F 
ATOM     55  C   UNL A   1      43.250  23.041  25.102  1.00  0.00     0.022 A 
BRANCH  52  56
ATOM     56  S   UNL A   1      41.839  20.949  26.291  1.00  0.00     0.124 S 
ATOM     57  O   UNL A   1      42.755  20.259  25.389  1.00  0.00    -0.237 OA
ATOM     58  O   UNL A   1      42.021  20.687  27.715  1.00  0.00    -0.237 OA
ATOM     59  O   UNL A   1      40.450  21.013  25.841  1.00  0.00    -0.744 OA
ENDBRANCH  52  56
ENDBRANCH  25  49
BRANCH  37  60
ATOM     60  C   UNL A   1      45.869  25.694  33.284  1.00  0.00     0.023 A 
ATOM     61  C   UNL A   1      45.616  24.572  34.090  1.00  0.00     0.031 A 
ATOM     62  C   UNL A   1      47.205  26.086  33.088  1.00  0.00     0.131 A 
ATOM     63  C   UNL A   1      46.684  23.908  34.713  1.00  0.00     0.055 A 
ATOM     64  C   UNL A   1      48.267  25.388  33.664  1.00  0.00     0.041 A 
ATOM     65  F   UNL A   1      47.500  27.151  32.325  1.00  0.00    -0.206 F 
ATOM     66  C   UNL A   1      48.007  24.298  34.491  1.00  0.00     0.022 A 
BRANCH  63  67
ATOM     67  S   UNL A   1      46.311  22.570  35.878  1.00  0.00     0.124 S 
ATOM     68  O   UNL A   1      44.976  22.161  35.453  1.00  0.00    -0.237 OA
ATOM     69  O   UNL A   1      47.383  21.617  35.613  1.00  0.00    -0.237 OA
ATOM     70  O   UNL A   1      46.374  23.226  37.184  1.00  0.00    -0.744 OA
ENDBRANCH  63  67
ENDBRANCH  37  60
ENDBRANCH  11  12
ENDBRANCH   4   6
ENDBRANCH   3   4
ENDBRANCH   2   3
ENDBRANCH   1   2
BRANCH   1  71
ATOM     71  O   UNL A   1      33.175  28.098  26.739  1.00  0.00    -0.462 OA
BRANCH  71  72
ATOM     72  C   UNL A   1      32.046  27.360  26.516  1.00  0.00     0.309 C 
ATOM     73  O   UNL A   1      31.067  27.318  27.245  1.00  0.00    -0.252 OA
BRANCH  72  74
ATOM     74  C   UNL A   1      32.181  26.651  25.189  1.00  0.00     0.100 C 
ATOM     75  C   UNL A   1      30.849  26.478  24.483  1.00  0.00     0.016 C 
ATOM     76  C   UNL A   1      32.708  25.214  25.205  1.00  0.00     0.024 C 
ATOM     77  C   UNL A   1      31.288  25.691  23.260  1.00  0.00     0.010 C 
ATOM     78  C   UNL A   1      32.132  24.583  23.892  1.00  0.00    -0.009 C 
ATOM     79  C   UNL A   1      33.234  24.010  22.976  1.00  0.00     0.030 C 
ATOM     80  C   UNL A   1      31.240  23.372  24.175  1.00  0.00     0.130 C 
ATOM     81  C   UNL A   1      33.214  22.496  23.209  1.00  0.00     0.124 C 
ATOM     82  N   UNL A   1      32.179  22.291  24.207  1.00  0.00    -0.308 N 
BRANCH  82  83
ATOM     83  C   UNL A   1      32.239  21.439  25.271  1.00  0.00     0.410 C 
ATOM     84  O   UNL A   1      31.783  20.291  25.258  1.00  0.00    -0.224 OA
BRANCH  83  85
ATOM     85  O   UNL A   1      32.789  22.020  26.358  1.00  0.00    -0.445 OA
BRANCH  85  86
ATOM     86  C   UNL A   1      33.923  21.336  26.889  1.00  0.00     0.270 C 
BRANCH  86  87
ATOM     87  C   UNL A   1      35.141  21.900  26.202  1.00  0.00    -0.011 A 
ATOM     88  C   UNL A   1      35.884  21.094  25.327  1.00  0.00     0.007 A 
ATOM     89  C   UNL A   1      35.491  23.250  26.347  1.00  0.00     0.007 A 
ATOM     90  C   UNL A   1      36.971  21.620  24.632  1.00  0.00     0.000 A 
ATOM     91  C   UNL A   1      36.584  23.772  25.653  1.00  0.00     0.000 A 
ATOM     92  C   UNL A   1      37.325  22.957  24.799  1.00  0.00     0.000 A 
ENDBRANCH  86  87
ENDBRANCH  85  86
ENDBRANCH  83  85
ENDBRANCH  82  83
ENDBRANCH  72  74
ENDBRANCH  71  72
ENDBRANCH   1  71
TORSDOF 18
ENDMDL
MODEL 2
REMARK VINA RESULT:     -11.4      4.964     10.425
REMARK SMILES O=C(OCCOC(=O)[C@@H]1CC[C@@]2(CCN(C(=O)OCc3ccccc3)C2)C1)c1ccc(-c2c3nc(c(-c4cc(S(=O)(=O)[O-])ccc4F)c4ccc([nH]4)c(-c4cc(S(=O)(=O)[O-])ccc4F)c4nc(c(-c5cc(S(=O)(=O)[O-])ccc5F)c5ccc2[nH]5)C=C4)C=C3)cc1
REMARK SMILES IDX 5 1 4 2 3 3 2 4 1 5 28 6 29 7 90 8 30 9 89 10 31 11 32 12
REMARK SMILES IDX 33 13 83 14 34 15 88 16 82 17 84 18 35 19 87 20 81 21 80 22
REMARK SMILES IDX 36 24 68 25 48 26 67 27 49 28 52 29 66 30 85 31 50 32 51 33
REMARK SMILES IDX 65 35 86 36 53 37 37 38 38 39 46 40 39 41 45 42 47 43 44 44
REMARK SMILES IDX 40 45 41 46 42 47 43 48 69 49 70 50 78 51 71 52 77 53 79 54
REMARK SMILES IDX 76 55 72 56 73 57 74 58 75 59 54 60 55 61 63 62 56 63 62 64
REMARK SMILES IDX 64 65 61 66 57 67 58 68 59 69 60 70 6 71 7 72 8 73 9 74
REMARK SMILES IDX 10 75 27 76 11 77 12 78 13 79 26 80 14 81 15 82 16 83 17 84
REMARK SMILES IDX 18 85 19 86 20 87 21 88 25 89 22 90 24 91 23 92
REMARK H PARENT 84 23 52 34
REMARK Flexibility Score: inf
ROOT
ATOM      1  C   UNL A   1      35.886  21.787  24.605  1.00  0.00     0.274 C 
ENDROOT
BRANCH   1   2
ATOM      2  C   UNL A   1      36.818  21.858  25.813  1.00  0.00     0.275 C 
BRANCH   2   3
ATOM      3  O   UNL A   1      38.208  21.722  25.462  1.00  0.00    -0.458 OA
BRANCH   3   4
ATOM      4  C   UNL A   1      39.322  21.831  26.225  1.00  0.00     0.338 C 
ATOM      5  O   UNL A   1      39.897  20.792  26.553  1.00  0.00    -0.246 OA
BRANCH   4   6
ATOM      6  C   UNL A   1      39.801  23.113  26.839  1.00  0.00     0.060 A 
ATOM      7  C   UNL A   1      40.594  23.258  27.978  1.00  0.00     0.016 A 
ATOM      8  C   UNL A   1      39.415  24.287  26.170  1.00  0.00     0.016 A 
ATOM      9  C   UNL A   1      41.072  24.517  28.376  1.00  0.00     0.010 A 
ATOM     10  C   UNL A   1      39.938  25.534  26.524  1.00  0.00     0.010 A 
ATOM     11  C   UNL A   1      40.772  25.667  27.640  1.00  0.00    -0.014 A 
BRANCH  11  12
ATOM     12  C   UNL A   1      41.194  27.012  28.116  1.00  0.00     0.031 A 
ATOM     13  C   UNL A   1      42.633  27.417  27.925  1.00  0.00     0.074 A 
ATOM     14  C   UNL A   1      40.323  27.861  28.701  1.00  0.00     0.049 A 
ATOM     15  N   UNL A   1      43.238  28.527  28.260  1.00  0.00    -0.248 NA
ATOM     16  C   UNL A   1      43.515  26.416  27.306  1.00  0.00     0.031 C 
ATOM     17  C   UNL A   1      38.915  27.578  28.982  1.00  0.00     0.029 A 
ATOM     18  N   UNL A   1      40.494  29.144  29.163  1.00  0.00    -0.354 N 
ATOM     19  C   UNL A   1      44.566  28.351  27.884  1.00  0.00     0.074 A 
ATOM     20  C   UNL A   1      44.700  26.986  27.431  1.00  0.00     0.031 C 
ATOM     21  C   UNL A   1      38.348  28.657  29.550  1.00  0.00     0.029 A 
ATOM     22  C   UNL A   1      39.350  29.711  29.682  1.00  0.00     0.049 A 
ATOM     23  H   UNL A   1      41.356  29.618  29.126  1.00  0.00     0.167 HD
ATOM     24  C   UNL A   1      45.571  29.258  27.840  1.00  0.00     0.034 A 
ATOM     25  C   UNL A   1      39.136  30.945  30.188  1.00  0.00     0.034 A 
ATOM     26  C   UNL A   1      45.427  30.619  28.278  1.00  0.00     0.049 A 
ATOM     27  C   UNL A   1      40.279  31.937  30.171  1.00  0.00     0.074 A 
ATOM     28  C   UNL A   1      46.370  31.630  28.301  1.00  0.00     0.029 A 
ATOM     29  N   UNL A   1      44.246  31.161  28.770  1.00  0.00    -0.354 N 
ATOM     30  N   UNL A   1      41.514  31.769  29.750  1.00  0.00    -0.248 NA
ATOM     31  C   UNL A   1      39.993  33.291  30.663  1.00  0.00     0.031 C 
ATOM     32  C   UNL A   1      45.767  32.774  28.837  1.00  0.00     0.029 A 
ATOM     33  C   UNL A   1      44.434  32.491  29.099  1.00  0.00     0.049 A 
ATOM     34  H   UNL A   1      43.399  30.670  28.869  1.00  0.00     0.167 HD
ATOM     35  C   UNL A   1      42.133  33.010  29.885  1.00  0.00     0.074 A 
ATOM     36  C   UNL A   1      41.134  33.916  30.413  1.00  0.00     0.031 C 
ATOM     37  C   UNL A   1      43.410  33.373  29.602  1.00  0.00     0.034 A 
BRANCH  24  38
ATOM     38  C   UNL A   1      46.887  28.770  27.286  1.00  0.00     0.023 A 
ATOM     39  C   UNL A   1      47.039  28.537  25.905  1.00  0.00     0.031 A 
ATOM     40  C   UNL A   1      47.943  28.406  28.134  1.00  0.00     0.131 A 
ATOM     41  C   UNL A   1      48.155  27.835  25.432  1.00  0.00     0.055 A 
ATOM     42  C   UNL A   1      49.103  27.800  27.641  1.00  0.00     0.041 A 
ATOM     43  F   UNL A   1      47.850  28.586  29.461  1.00  0.00    -0.206 F 
ATOM     44  C   UNL A   1      49.202  27.486  26.287  1.00  0.00     0.022 A 
BRANCH  41  45
ATOM     45  S   UNL A   1      48.115  27.206  23.731  1.00  0.00     0.124 S 
ATOM     46  O   UNL A   1      49.536  27.189  23.393  1.00  0.00    -0.237 OA
ATOM     47  O   UNL A   1      47.483  25.901  23.890  1.00  0.00    -0.237 OA
ATOM     48  O   UNL A   1      47.322  28.203  23.016  1.00  0.00    -0.744 OA
ENDBRANCH  41  45
ENDBRANCH  24  38
BRANCH  25  49
ATOM     49  C   UNL A   1      37.802  31.341  30.734  1.00  0.00     0.023 A 
ATOM     50  C   UNL A   1      36.849  31.991  29.930  1.00  0.00     0.031 A 
ATOM     51  C   UNL A   1      37.492  31.157  32.094  1.00  0.00     0.131 A 
ATOM     52  C   UNL A   1      35.671  32.499  30.503  1.00  0.00     0.055 A 
ATOM     53  C   UNL A   1      36.295  31.617  32.649  1.00  0.00     0.041 A 
ATOM     54  F   UNL A   1      38.358  30.533  32.909  1.00  0.00    -0.206 F 
ATOM     55  C   UNL A   1      35.385  32.310  31.857  1.00  0.00     0.022 A 
BRANCH  52  56
ATOM     56  S   UNL A   1      34.570  33.513  29.476  1.00  0.00     0.124 S 
ATOM     57  O   UNL A   1      34.011  32.517  28.567  1.00  0.00    -0.237 OA
ATOM     58  O   UNL A   1      33.653  34.060  30.470  1.00  0.00    -0.237 OA
ATOM     59  O   UNL A   1      35.474  34.482  28.862  1.00  0.00    -0.744 OA
ENDBRANCH  52  56
ENDBRANCH  25  49
BRANCH  37  60
ATOM     60  C   UNL A   1      43.769  34.824  29.792  1.00  0.00     0.023 A 
ATOM     61  C   UNL A   1      43.631  35.761  28.754  1.00  0.00     0.031 A 
ATOM     62  C   UNL A   1      44.243  35.274  31.037  1.00  0.00     0.131 A 
ATOM     63  C   UNL A   1      44.013  37.094  28.965  1.00  0.00     0.055 A 
ATOM     64  C   UNL A   1      44.567  36.613  31.258  1.00  0.00     0.041 A 
ATOM     65  F   UNL A   1      44.390  34.419  32.062  1.00  0.00    -0.206 F 
ATOM     66  C   UNL A   1      44.463  37.529  30.214  1.00  0.00     0.022 A 
BRANCH  63  67
ATOM     67  S   UNL A   1      43.982  38.237  27.558  1.00  0.00     0.124 S 
ATOM     68  O   UNL A   1      42.714  37.896  26.919  1.00  0.00    -0.237 OA
ATOM     69  O   UNL A   1      44.035  39.539  28.213  1.00  0.00    -0.237 OA
ATOM     70  O   UNL A   1      45.178  37.877  26.798  1.00  0.00    -0.744 OA
ENDBRANCH  63  67
ENDBRANCH  37  60
ENDBRANCH  11  12
ENDBRANCH   4   6
ENDBRANCH   3   4
ENDBRANCH   2   3
ENDBRANCH   1   2
BRANCH   1  71
ATOM     71  O   UNL A   1      35.680  23.088  24.038  1.00  0.00    -0.462 OA
BRANCH  71  72
ATOM     72  C   UNL A   1      34.399  23.561  23.983  1.00  0.00     0.309 C 
ATOM     73  O   UNL A   1      33.416  22.918  23.650  1.00  0.00    -0.252 OA
BRANCH  72  74
ATOM     74  C   UNL A   1      34.388  24.995  24.460  1.00  0.00     0.100 C 
ATOM     75  C   UNL A   1      33.852  25.133  25.874  1.00  0.00     0.016 C 
ATOM     76  C   UNL A   1      33.504  25.986  23.700  1.00  0.00     0.024 C 
ATOM     77  C   UNL A   1      33.891  26.643  26.034  1.00  0.00     0.010 C 
ATOM     78  C   UNL A   1      33.199  27.108  24.751  1.00  0.00    -0.009 C 
ATOM     79  C   UNL A   1      33.622  28.509  24.262  1.00  0.00     0.030 C 
ATOM     80  C   UNL A   1      31.699  27.261  25.016  1.00  0.00     0.130 C 
ATOM     81  C   UNL A   1      32.329  29.186  23.794  1.00  0.00     0.124 C 
ATOM     82  N   UNL A   1      31.295  28.188  24.002  1.00  0.00    -0.308 N 
BRANCH  82  83
ATOM     83  C   UNL A   1      30.263  27.904  23.155  1.00  0.00     0.410 C 
ATOM     84  O   UNL A   1      30.416  27.487  22.003  1.00  0.00    -0.224 OA
BRANCH  83  85
ATOM     85  O   UNL A   1      29.064  28.202  23.697  1.00  0.00    -0.445 OA
BRANCH  85  86
ATOM     86  C   UNL A   1      28.048  28.531  22.751  1.00  0.00     0.270 C 
BRANCH  86  87
ATOM     87  C   UNL A   1      28.180  30.004  22.455  1.00  0.00    -0.011 A 
ATOM     88  C   UNL A   1      28.028  30.467  21.140  1.00  0.00     0.007 A 
ATOM     89  C   UNL A   1      28.357  30.934  23.489  1.00  0.00     0.007 A 
ATOM     90  C   UNL A   1      28.080  31.831  20.861  1.00  0.00     0.000 A 
ATOM     91  C   UNL A   1      28.412  32.300  23.205  1.00  0.00     0.000 A 
ATOM     92  C   UNL A   1      28.277  32.747  21.892  1.00  0.00     0.000 A 
ENDBRANCH  86  87
ENDBRANCH  85  86
ENDBRANCH  83  85
ENDBRANCH  82  83
ENDBRANCH  72  74
ENDBRANCH  71  72
ENDBRANCH   1  71
TORSDOF 18
ENDMDL
MODEL 3
REMARK VINA RESULT:     -11.2      4.785     10.150
REMARK SMILES O=C(OCCOC(=O)[C@@H]1CC[C@@]2(CCN(C(=O)OCc3ccccc3)C2)C1)c1ccc(-c2c3nc(c(-c4cc(S(=O)(=O)[O-])ccc4F)c4ccc([nH]4)c(-c4cc(S(=O)(=O)[O-])ccc4F)c4nc(c(-c5cc(S(=O)(=O)[O-])ccc5F)c5ccc2[nH]5)C=C4)C=C3)cc1
REMARK SMILES IDX 5 1 4 2 3 3 2 4 1 5 28 6 29 7 90 8 30 9 89 10 31 11 32 12
REMARK SMILES IDX 33 13 83 14 34 15 88 16 82 17 84 18 35 19 87 20 81 21 80 22
REMARK SMILES IDX 36 24 68 25 48 26 67 27 49 28 52 29 66 30 85 31 50 32 51 33
REMARK SMILES IDX 65 35 86 36 53 37 37 38 38 39 46 40 39 41 45 42 47 43 44 44
REMARK SMILES IDX 40 45 41 46 42 47 43 48 69 49 70 50 78 51 71 52 77 53 79 54
REMARK SMILES IDX 76 55 72 56 73 57 74 58 75 59 54 60 55 61 63 62 56 63 62 64
REMARK SMILES IDX 64 65 61 66 57 67 58 68 59 69 60 70 6 71 7 72 8 73 9 74
REMARK SMILES IDX 10 75 27 76 11 77 12 78 13 79 26 80 14 81 15 82 16 83 17 84
REMARK SMILES IDX 18 85 19 86 20 87 21 88 25 89 22 90 24 91 23 92
REMARK H PARENT 84 23 52 34
REMARK Flexibility Score: inf
ROOT
ATOM      1  C   UNL A   1      36.793  22.867  23.995  1.00  0.00     0.274 C 
ENDROOT
BRANCH   1   2
ATOM      2  C   UNL A   1      37.286  21.522  24.526  1.00  0.00     0.275 C 
BRANCH   2   3
ATOM      3  O   UNL A   1      37.906  21.620  25.821  1.00  0.00    -0.458 OA
BRANCH   3   4
ATOM      4  C   UNL A   1      39.205  21.791  26.163  1.00  0.00     0.338 C 
ATOM      5  O   UNL A   1      39.956  20.818  26.077  1.00  0.00    -0.246 OA
BRANCH   4   6
ATOM      6  C   UNL A   1      39.751  23.034  26.803  1.00  0.00     0.060 A 
ATOM      7  C   UNL A   1      40.623  23.109  27.890  1.00  0.00     0.016 A 
ATOM      8  C   UNL A   1      39.344  24.245  26.219  1.00  0.00     0.016 A 
ATOM      9  C   UNL A   1      41.153  24.339  28.313  1.00  0.00     0.010 A 
ATOM     10  C   UNL A   1      39.914  25.464  26.595  1.00  0.00     0.010 A 
ATOM     11  C   UNL A   1      40.826  25.528  27.655  1.00  0.00    -0.014 A 
BRANCH  11  12
ATOM     12  C   UNL A   1      41.307  26.841  28.165  1.00  0.00     0.031 A 
ATOM     13  C   UNL A   1      42.751  27.209  27.939  1.00  0.00     0.074 A 
ATOM     14  C   UNL A   1      40.484  27.695  28.809  1.00  0.00     0.049 A 
ATOM     15  N   UNL A   1      43.402  28.286  28.293  1.00  0.00    -0.248 NA
ATOM     16  C   UNL A   1      43.579  26.204  27.255  1.00  0.00     0.031 C 
ATOM     17  C   UNL A   1      39.077  27.446  29.128  1.00  0.00     0.029 A 
ATOM     18  N   UNL A   1      40.711  28.954  29.311  1.00  0.00    -0.354 N 
ATOM     19  C   UNL A   1      44.711  28.083  27.865  1.00  0.00     0.074 A 
ATOM     20  C   UNL A   1      44.785  26.732  27.359  1.00  0.00     0.031 C 
ATOM     21  C   UNL A   1      38.565  28.520  29.754  1.00  0.00     0.029 A 
ATOM     22  C   UNL A   1      39.604  29.536  29.889  1.00  0.00     0.049 A 
ATOM     23  H   UNL A   1      41.586  29.402  29.261  1.00  0.00     0.167 HD
ATOM     24  C   UNL A   1      45.743  28.960  27.819  1.00  0.00     0.034 A 
ATOM     25  C   UNL A   1      39.446  30.756  30.446  1.00  0.00     0.034 A 
ATOM     26  C   UNL A   1      45.657  30.307  28.310  1.00  0.00     0.049 A 
ATOM     27  C   UNL A   1      40.619  31.713  30.425  1.00  0.00     0.074 A 
ATOM     28  C   UNL A   1      46.631  31.288  28.336  1.00  0.00     0.029 A 
ATOM     29  N   UNL A   1      44.510  30.867  28.861  1.00  0.00    -0.354 N 
ATOM     30  N   UNL A   1      41.834  31.523  29.957  1.00  0.00    -0.248 NA
ATOM     31  C   UNL A   1      40.394  33.056  30.975  1.00  0.00     0.031 C 
ATOM     32  C   UNL A   1      46.084  32.429  28.935  1.00  0.00     0.029 A 
ATOM     33  C   UNL A   1      44.752  32.177  29.231  1.00  0.00     0.049 A 
ATOM     34  H   UNL A   1      43.652  30.399  28.972  1.00  0.00     0.167 HD
ATOM     35  C   UNL A   1      42.497  32.738  30.115  1.00  0.00     0.074 A 
ATOM     36  C   UNL A   1      41.546  33.654  30.709  1.00  0.00     0.031 C 
ATOM     37  C   UNL A   1      43.774  33.072  29.800  1.00  0.00     0.034 A 
BRANCH  24  38
ATOM     38  C   UNL A   1      47.023  28.452  27.203  1.00  0.00     0.023 A 
ATOM     39  C   UNL A   1      47.180  28.424  25.804  1.00  0.00     0.031 A 
ATOM     40  C   UNL A   1      48.029  27.871  27.990  1.00  0.00     0.131 A 
ATOM     41  C   UNL A   1      48.242  27.710  25.233  1.00  0.00     0.055 A 
ATOM     42  C   UNL A   1      49.142  27.252  27.415  1.00  0.00     0.041 A 
ATOM     43  F   UNL A   1      47.926  27.852  29.328  1.00  0.00    -0.206 F 
ATOM     44  C   UNL A   1      49.240  27.144  26.029  1.00  0.00     0.022 A 
BRANCH  41  45
ATOM     45  S   UNL A   1      48.180  27.356  23.455  1.00  0.00     0.124 S 
ATOM     46  O   UNL A   1      48.025  25.903  23.452  1.00  0.00    -0.237 OA
ATOM     47  O   UNL A   1      47.018  28.121  23.018  1.00  0.00    -0.237 OA
ATOM     48  O   UNL A   1      49.469  27.840  22.965  1.00  0.00    -0.744 OA
ENDBRANCH  41  45
ENDBRANCH  24  38
BRANCH  25  49
ATOM     49  C   UNL A   1      38.145  31.174  31.052  1.00  0.00     0.023 A 
ATOM     50  C   UNL A   1      37.198  31.905  30.314  1.00  0.00     0.031 A 
ATOM     51  C   UNL A   1      37.864  30.924  32.408  1.00  0.00     0.131 A 
ATOM     52  C   UNL A   1      36.058  32.426  30.947  1.00  0.00     0.055 A 
ATOM     53  C   UNL A   1      36.701  31.399  33.022  1.00  0.00     0.041 A 
ATOM     54  F   UNL A   1      38.724  30.221  33.161  1.00  0.00    -0.206 F 
ATOM     55  C   UNL A   1      35.800  32.171  32.296  1.00  0.00     0.022 A 
BRANCH  52  56
ATOM     56  S   UNL A   1      34.972  33.539  30.011  1.00  0.00     0.124 S 
ATOM     57  O   UNL A   1      34.472  34.420  31.062  1.00  0.00    -0.237 OA
ATOM     58  O   UNL A   1      35.904  34.138  29.061  1.00  0.00    -0.237 OA
ATOM     59  O   UNL A   1      33.981  32.638  29.428  1.00  0.00    -0.744 OA
ENDBRANCH  52  56
ENDBRANCH  25  49
BRANCH  37  60
ATOM     60  C   UNL A   1      44.186  34.503  30.031  1.00  0.00     0.023 A 
ATOM     61  C   UNL A   1      44.737  34.925  31.252  1.00  0.00     0.031 A 
ATOM     62  C   UNL A   1      44.034  35.452  29.005  1.00  0.00     0.131 A 
ATOM     63  C   UNL A   1      45.070  36.275  31.435  1.00  0.00     0.055 A 
ATOM     64  C   UNL A   1      44.421  36.782  29.173  1.00  0.00     0.041 A 
ATOM     65  F   UNL A   1      43.514  35.099  27.818  1.00  0.00    -0.206 F 
ATOM     66  C   UNL A   1      44.932  37.202  30.398  1.00  0.00     0.022 A 
BRANCH  63  67
ATOM     67  S   UNL A   1      45.620  36.817  33.075  1.00  0.00     0.124 S 
ATOM     68  O   UNL A   1      47.058  36.970  32.877  1.00  0.00    -0.237 OA
ATOM     69  O   UNL A   1      44.867  38.052  33.264  1.00  0.00    -0.237 OA
ATOM     70  O   UNL A   1      45.227  35.713  33.950  1.00  0.00    -0.744 OA
ENDBRANCH  63  67
ENDBRANCH  37  60
ENDBRANCH  11  12
ENDBRANCH   4   6
ENDBRANCH   3   4
ENDBRANCH   2   3
ENDBRANCH   1   2
BRANCH   1  71
ATOM     71  O   UNL A   1      35.391  22.821  23.701  1.00  0.00    -0.462 OA
BRANCH  71  72
ATOM     72  C   UNL A   1      34.519  23.069  24.724  1.00  0.00     0.309 C 
ATOM     73  O   UNL A   1      33.915  22.223  25.364  1.00  0.00    -0.252 OA
BRANCH  72  74
ATOM     74  C   UNL A   1      34.471  24.558  24.973  1.00  0.00     0.100 C 
ATOM     75  C   UNL A   1      33.566  24.924  26.135  1.00  0.00     0.016 C 
ATOM     76  C   UNL A   1      33.910  25.444  23.857  1.00  0.00     0.024 C 
ATOM     77  C   UNL A   1      33.661  26.440  26.087  1.00  0.00     0.010 C 
ATOM     78  C   UNL A   1      33.396  26.720  24.606  1.00  0.00    -0.009 C 
ATOM     79  C   UNL A   1      34.035  28.019  24.072  1.00  0.00     0.030 C 
ATOM     80  C   UNL A   1      31.897  26.949  24.399  1.00  0.00     0.130 C 
ATOM     81  C   UNL A   1      32.979  28.649  23.158  1.00  0.00     0.124 C 
ATOM     82  N   UNL A   1      31.863  27.721  23.192  1.00  0.00    -0.308 N 
BRANCH  82  83
ATOM     83  C   UNL A   1      31.098  27.336  22.129  1.00  0.00     0.410 C 
ATOM     84  O   UNL A   1      31.325  26.333  21.447  1.00  0.00    -0.224 OA
BRANCH  83  85
ATOM     85  O   UNL A   1      30.110  28.218  21.868  1.00  0.00    -0.445 OA
BRANCH  85  86
ATOM     86  C   UNL A   1      29.498  28.786  23.025  1.00  0.00     0.270 C 
BRANCH  86  87
ATOM     87  C   UNL A   1      28.964  30.138  22.623  1.00  0.00    -0.011 A 
ATOM     88  C   UNL A   1      28.865  31.160  23.579  1.00  0.00     0.007 A 
ATOM     89  C   UNL A   1      28.653  30.423  21.286  1.00  0.00     0.007 A 
ATOM     90  C   UNL A   1      28.438  32.434  23.210  1.00  0.00     0.000 A 
ATOM     91  C   UNL A   1      28.222  31.700  20.921  1.00  0.00     0.000 A 
ATOM     92  C   UNL A   1      28.112  32.703  21.883  1.00  0.00     0.000 A 
ENDBRANCH  86  87
ENDBRANCH  85  86
ENDBRANCH  83  85
ENDBRANCH  82  83
ENDBRANCH  72  74
ENDBRANCH  71  72
ENDBRANCH   1  71
TORSDOF 18
ENDMDL
