MODEL 1
REMARK VINA RESULT:     -12.3      0.000      0.000
REMARK SMILES CC1(C)S[C@H](c2ccc(-c3ccccc3)o2)[NH2+][C@H]1C(=O)OCCOC(=O)c1ccc(-c2c3nc(c(-c4cc(S(=O)(=O)[O-])ccc4F)c4ccc([nH]4)c(-c4cc(S(=O)(=O)[O-])ccc4F)c4nc(c(-c5cc(S(=O)(=O)[O-])ccc5F)c5ccc2[nH]5)C=C4)C=C3)cc1
REMARK SMILES IDX 23 1 22 2 21 3 19 4 20 5 18 6 1 7 2 8 3 9 4 10 5 11 17 12
REMARK SMILES IDX 6 15 7 16 16 17 8 18 9 19 10 20 11 21 15 22 12 23 14 24
REMARK SMILES IDX 13 25 24 26 25 27 26 28 27 29 28 30 89 31 29 32 88 33 30 34
REMARK SMILES IDX 31 35 32 36 82 37 33 38 87 39 81 40 83 41 34 42 86 43 80 44
REMARK SMILES IDX 79 45 35 47 67 48 47 49 66 50 48 51 51 52 65 53 84 54 49 55
REMARK SMILES IDX 50 56 64 58 85 59 52 60 36 61 37 62 45 63 38 64 44 65 46 66
REMARK SMILES IDX 43 67 39 68 40 69 41 70 42 71 68 72 69 73 77 74 70 75 76 76
REMARK SMILES IDX 78 77 75 78 71 79 72 80 73 81 74 82 53 83 54 84 62 85 55 86
REMARK SMILES IDX 61 87 63 88 60 89 56 90 57 91 58 92 59 93
REMARK H PARENT 17 13 17 14 83 46 51 57
REMARK Flexibility Score: inf
ROOT
ATOM      1  C   UNL A   1      31.684  29.826  26.437  1.00  0.00     0.275 C 
ENDROOT
BRANCH   1   2
ATOM      2  C   UNL A   1      31.469  28.606  25.539  1.00  0.00     0.274 C 
BRANCH   2   3
ATOM      3  O   UNL A   1      32.166  27.440  26.025  1.00  0.00    -0.458 OA
BRANCH   3   4
ATOM      4  C   UNL A   1      31.513  26.256  25.900  1.00  0.00     0.366 C 
ATOM      5  O   UNL A   1      30.475  25.996  26.499  1.00  0.00    -0.245 OA
BRANCH   4   6
ATOM      6  C   UNL A   1      32.236  25.227  25.005  1.00  0.00     0.310 C 
ATOM      7  C   UNL A   1      31.431  26.262  22.714  1.00  0.00     0.030 C 
ATOM      8  C   UNL A   1      31.776  25.018  23.537  1.00  0.00     0.079 C 
ATOM      9  C   UNL A   1      30.653  23.983  23.432  1.00  0.00     0.030 C 
ATOM     10  S   UNL A   1      33.273  24.298  22.736  1.00  0.00    -0.078 SA
ATOM     11  C   UNL A   1      34.333  24.494  24.198  1.00  0.00     0.311 C 
ATOM     12  N   UNL A   1      33.698  25.520  25.024  1.00  0.00    -0.316 N 
ATOM     13  H   UNL A   1      33.877  26.447  24.639  1.00  0.00     0.348 HD
ATOM     14  H   UNL A   1      34.065  25.510  25.977  1.00  0.00     0.348 HD
BRANCH  11  15
ATOM     15  C   UNL A   1      34.597  23.160  24.841  1.00  0.00     0.172 A 
ATOM     16  C   UNL A   1      35.170  22.850  26.062  1.00  0.00     0.054 A 
ATOM     17  O   UNL A   1      34.221  21.999  24.208  1.00  0.00    -0.454 OA
ATOM     18  C   UNL A   1      35.130  21.447  26.193  1.00  0.00     0.051 A 
ATOM     19  C   UNL A   1      34.538  20.964  25.046  1.00  0.00     0.134 A 
BRANCH  19  20
ATOM     20  C   UNL A   1      34.198  19.614  24.628  1.00  0.00     0.017 A 
ATOM     21  C   UNL A   1      35.154  18.593  24.625  1.00  0.00     0.012 A 
ATOM     22  C   UNL A   1      32.863  19.294  24.336  1.00  0.00     0.012 A 
ATOM     23  C   UNL A   1      34.778  17.273  24.352  1.00  0.00     0.001 A 
ATOM     24  C   UNL A   1      32.490  17.978  24.049  1.00  0.00     0.001 A 
ATOM     25  C   UNL A   1      33.448  16.967  24.063  1.00  0.00     0.000 A 
ENDBRANCH  19  20
ENDBRANCH  11  15
ENDBRANCH   4   6
ENDBRANCH   3   4
ENDBRANCH   2   3
ENDBRANCH   1   2
BRANCH   1  26
ATOM     26  O   UNL A   1      32.949  30.454  26.170  1.00  0.00    -0.458 OA
BRANCH  26  27
ATOM     27  C   UNL A   1      33.273  31.474  26.999  1.00  0.00     0.338 C 
ATOM     28  O   UNL A   1      32.602  32.458  27.252  1.00  0.00    -0.246 OA
BRANCH  27  29
ATOM     29  C   UNL A   1      34.555  31.177  27.656  1.00  0.00     0.060 A 
ATOM     30  C   UNL A   1      34.825  29.861  28.035  1.00  0.00     0.016 A 
ATOM     31  C   UNL A   1      35.443  32.201  27.976  1.00  0.00     0.016 A 
ATOM     32  C   UNL A   1      35.981  29.558  28.746  1.00  0.00     0.010 A 
ATOM     33  C   UNL A   1      36.618  31.893  28.671  1.00  0.00     0.010 A 
ATOM     34  C   UNL A   1      36.890  30.571  29.067  1.00  0.00    -0.014 A 
BRANCH  34  35
ATOM     35  C   UNL A   1      38.103  30.248  29.853  1.00  0.00     0.031 A 
ATOM     36  C   UNL A   1      39.118  29.294  29.294  1.00  0.00     0.074 A 
ATOM     37  C   UNL A   1      38.292  30.817  31.058  1.00  0.00     0.049 A 
ATOM     38  N   UNL A   1      40.168  28.769  29.871  1.00  0.00    -0.248 NA
ATOM     39  C   UNL A   1      38.918  28.873  27.901  1.00  0.00     0.031 C 
ATOM     40  C   UNL A   1      37.403  31.804  31.675  1.00  0.00     0.029 A 
ATOM     41  N   UNL A   1      39.289  30.641  31.984  1.00  0.00    -0.354 N 
ATOM     42  C   UNL A   1      40.743  27.933  28.920  1.00  0.00     0.074 A 
ATOM     43  C   UNL A   1      39.912  28.011  27.736  1.00  0.00     0.031 C 
ATOM     44  C   UNL A   1      37.892  32.138  32.881  1.00  0.00     0.029 A 
ATOM     45  C   UNL A   1      39.090  31.348  33.146  1.00  0.00     0.049 A 
ATOM     46  H   UNL A   1      40.072  30.064  31.830  1.00  0.00     0.167 HD
ATOM     47  C   UNL A   1      41.858  27.170  29.031  1.00  0.00     0.034 A 
ATOM     48  C   UNL A   1      39.771  31.326  34.308  1.00  0.00     0.034 A 
ATOM     49  C   UNL A   1      42.673  27.111  30.222  1.00  0.00     0.049 A 
ATOM     50  C   UNL A   1      40.962  30.412  34.437  1.00  0.00     0.074 A 
ATOM     51  C   UNL A   1      43.824  26.374  30.445  1.00  0.00     0.029 A 
ATOM     52  N   UNL A   1      42.420  27.813  31.393  1.00  0.00    -0.354 N 
ATOM     53  N   UNL A   1      41.473  29.593  33.547  1.00  0.00    -0.248 NA
ATOM     54  C   UNL A   1      41.662  30.416  35.727  1.00  0.00     0.031 C 
ATOM     55  C   UNL A   1      44.232  26.586  31.769  1.00  0.00     0.029 A 
ATOM     56  C   UNL A   1      43.376  27.506  32.351  1.00  0.00     0.049 A 
ATOM     57  H   UNL A   1      41.671  28.439  31.525  1.00  0.00     0.167 HD
ATOM     58  C   UNL A   1      42.568  28.997  34.167  1.00  0.00     0.074 A 
ATOM     59  C   UNL A   1      42.650  29.562  35.499  1.00  0.00     0.031 C 
ATOM     60  C   UNL A   1      43.430  28.068  33.679  1.00  0.00     0.034 A 
BRANCH  47  61
ATOM     61  C   UNL A   1      42.213  26.291  27.858  1.00  0.00     0.023 A 
ATOM     62  C   UNL A   1      41.753  24.965  27.755  1.00  0.00     0.031 A 
ATOM     63  C   UNL A   1      43.059  26.776  26.845  1.00  0.00     0.131 A 
ATOM     64  C   UNL A   1      42.197  24.152  26.700  1.00  0.00     0.055 A 
ATOM     65  C   UNL A   1      43.438  25.984  25.760  1.00  0.00     0.041 A 
ATOM     66  F   UNL A   1      43.547  28.025  26.903  1.00  0.00    -0.206 F 
ATOM     67  C   UNL A   1      43.018  24.659  25.689  1.00  0.00     0.022 A 
BRANCH  64  68
ATOM     68  S   UNL A   1      41.797  22.383  26.739  1.00  0.00     0.124 S 
ATOM     69  O   UNL A   1      40.378  22.408  27.089  1.00  0.00    -0.237 OA
ATOM     70  O   UNL A   1      42.113  21.958  25.381  1.00  0.00    -0.237 OA
ATOM     71  O   UNL A   1      42.678  21.855  27.778  1.00  0.00    -0.744 OA
ENDBRANCH  64  68
ENDBRANCH  47  61
BRANCH  48  72
ATOM     72  C   UNL A   1      39.308  32.142  35.465  1.00  0.00     0.023 A 
ATOM     73  C   UNL A   1      39.766  33.454  35.654  1.00  0.00     0.031 A 
ATOM     74  C   UNL A   1      38.422  31.605  36.418  1.00  0.00     0.131 A 
ATOM     75  C   UNL A   1      39.366  34.174  36.791  1.00  0.00     0.055 A 
ATOM     76  C   UNL A   1      37.991  32.342  37.520  1.00  0.00     0.041 A 
ATOM     77  F   UNL A   1      37.955  30.353  36.280  1.00  0.00    -0.206 F 
ATOM     78  C   UNL A   1      38.472  33.632  37.718  1.00  0.00     0.022 A 
BRANCH  75  79
ATOM     79  S   UNL A   1      40.086  35.814  37.075  1.00  0.00     0.124 S 
ATOM     80  O   UNL A   1      41.509  35.504  37.153  1.00  0.00    -0.237 OA
ATOM     81  O   UNL A   1      39.653  36.543  35.887  1.00  0.00    -0.237 OA
ATOM     82  O   UNL A   1      39.470  36.244  38.328  1.00  0.00    -0.744 OA
ENDBRANCH  75  79
ENDBRANCH  48  72
BRANCH  60  83
ATOM     83  C   UNL A   1      44.557  27.646  34.588  1.00  0.00     0.023 A 
ATOM     84  C   UNL A   1      44.458  26.505  35.404  1.00  0.00     0.031 A 
ATOM     85  C   UNL A   1      45.737  28.407  34.648  1.00  0.00     0.131 A 
ATOM     86  C   UNL A   1      45.503  26.186  36.284  1.00  0.00     0.055 A 
ATOM     87  C   UNL A   1      46.794  28.056  35.488  1.00  0.00     0.041 A 
ATOM     88  F   UNL A   1      45.880  29.505  33.891  1.00  0.00    -0.206 F 
ATOM     89  C   UNL A   1      46.676  26.946  36.321  1.00  0.00     0.022 A 
BRANCH  86  90
ATOM     90  S   UNL A   1      45.281  24.805  37.440  1.00  0.00     0.124 S 
ATOM     91  O   UNL A   1      46.658  24.498  37.814  1.00  0.00    -0.237 OA
ATOM     92  O   UNL A   1      44.455  25.402  38.485  1.00  0.00    -0.237 OA
ATOM     93  O   UNL A   1      44.616  23.784  36.633  1.00  0.00    -0.744 OA
ENDBRANCH  86  90
ENDBRANCH  60  83
ENDBRANCH  34  35
ENDBRANCH  27  29
ENDBRANCH  26  27
ENDBRANCH   1  26
TORSDOF 16
ENDMDL
MODEL 2
REMARK VINA RESULT:     -12.2      5.064     10.341
REMARK SMILES CC1(C)S[C@H](c2ccc(-c3ccccc3)o2)[NH2+][C@H]1C(=O)OCCOC(=O)c1ccc(-c2c3nc(c(-c4cc(S(=O)(=O)[O-])ccc4F)c4ccc([nH]4)c(-c4cc(S(=O)(=O)[O-])ccc4F)c4nc(c(-c5cc(S(=O)(=O)[O-])ccc5F)c5ccc2[nH]5)C=C4)C=C3)cc1
REMARK SMILES IDX 23 1 22 2 21 3 19 4 20 5 18 6 1 7 2 8 3 9 4 10 5 11 17 12
REMARK SMILES IDX 6 15 7 16 16 17 8 18 9 19 10 20 11 21 15 22 12 23 14 24
REMARK SMILES IDX 13 25 24 26 25 27 26 28 27 29 28 30 89 31 29 32 88 33 30 34
REMARK SMILES IDX 31 35 32 36 82 37 33 38 87 39 81 40 83 41 34 42 86 43 80 44
REMARK SMILES IDX 79 45 35 47 67 48 47 49 66 50 48 51 51 52 65 53 84 54 49 55
REMARK SMILES IDX 50 56 64 58 85 59 52 60 36 61 37 62 45 63 38 64 44 65 46 66
REMARK SMILES IDX 43 67 39 68 40 69 41 70 42 71 68 72 69 73 77 74 70 75 76 76
REMARK SMILES IDX 78 77 75 78 71 79 72 80 73 81 74 82 53 83 54 84 62 85 55 86
REMARK SMILES IDX 61 87 63 88 60 89 56 90 57 91 58 92 59 93
REMARK H PARENT 17 13 17 14 83 46 51 57
REMARK Flexibility Score: inf
ROOT
ATOM      1  C   UNL A   1      36.943  20.670  24.888  1.00  0.00     0.275 C 
ENDROOT
BRANCH   1   2
ATOM      2  C   UNL A   1      35.421  20.713  25.042  1.00  0.00     0.274 C 
BRANCH   2   3
ATOM      3  O   UNL A   1      34.830  21.807  24.308  1.00  0.00    -0.458 OA
BRANCH   3   4
ATOM      4  C   UNL A   1      33.474  21.817  24.240  1.00  0.00     0.366 C 
ATOM      5  O   UNL A   1      32.818  20.885  23.786  1.00  0.00    -0.245 OA
BRANCH   4   6
ATOM      6  C   UNL A   1      32.827  23.141  24.700  1.00  0.00     0.310 C 
ATOM      7  C   UNL A   1      32.983  22.623  27.283  1.00  0.00     0.030 C 
ATOM      8  C   UNL A   1      32.209  23.249  26.120  1.00  0.00     0.079 C 
ATOM      9  C   UNL A   1      30.749  22.790  26.144  1.00  0.00     0.030 C 
ATOM     10  S   UNL A   1      32.226  25.066  26.438  1.00  0.00    -0.078 SA
ATOM     11  C   UNL A   1      33.132  25.475  24.917  1.00  0.00     0.311 C 
ATOM     12  N   UNL A   1      33.810  24.245  24.506  1.00  0.00    -0.316 N 
ATOM     13  H   UNL A   1      34.636  24.087  25.082  1.00  0.00     0.348 HD
ATOM     14  H   UNL A   1      34.120  24.299  23.535  1.00  0.00     0.348 HD
BRANCH  11  15
ATOM     15  C   UNL A   1      32.215  26.121  23.915  1.00  0.00     0.172 A 
ATOM     16  C   UNL A   1      31.957  25.797  22.594  1.00  0.00     0.054 A 
ATOM     17  O   UNL A   1      31.443  27.200  24.276  1.00  0.00    -0.454 OA
ATOM     18  C   UNL A   1      30.978  26.698  22.132  1.00  0.00     0.051 A 
ATOM     19  C   UNL A   1      30.685  27.534  23.187  1.00  0.00     0.134 A 
BRANCH  19  20
ATOM     20  C   UNL A   1      29.737  28.628  23.320  1.00  0.00     0.017 A 
ATOM     21  C   UNL A   1      30.130  29.872  23.824  1.00  0.00     0.012 A 
ATOM     22  C   UNL A   1      28.432  28.479  22.826  1.00  0.00     0.012 A 
ATOM     23  C   UNL A   1      29.240  30.952  23.818  1.00  0.00     0.001 A 
ATOM     24  C   UNL A   1      27.538  29.553  22.833  1.00  0.00     0.001 A 
ATOM     25  C   UNL A   1      27.945  30.791  23.324  1.00  0.00     0.000 A 
ENDBRANCH  19  20
ENDBRANCH  11  15
ENDBRANCH   4   6
ENDBRANCH   3   4
ENDBRANCH   2   3
ENDBRANCH   1   2
BRANCH   1  26
ATOM     26  O   UNL A   1      37.580  21.648  25.727  1.00  0.00    -0.458 OA
BRANCH  26  27
ATOM     27  C   UNL A   1      38.863  21.372  26.063  1.00  0.00     0.338 C 
ATOM     28  O   UNL A   1      39.461  20.327  25.887  1.00  0.00    -0.246 OA
BRANCH  27  29
ATOM     29  C   UNL A   1      39.494  22.586  26.602  1.00  0.00     0.060 A 
ATOM     30  C   UNL A   1      39.073  23.830  26.126  1.00  0.00     0.016 A 
ATOM     31  C   UNL A   1      40.553  22.495  27.503  1.00  0.00     0.016 A 
ATOM     32  C   UNL A   1      39.714  24.993  26.539  1.00  0.00     0.010 A 
ATOM     33  C   UNL A   1      41.182  23.668  27.937  1.00  0.00     0.010 A 
ATOM     34  C   UNL A   1      40.772  24.922  27.451  1.00  0.00    -0.014 A 
BRANCH  34  35
ATOM     35  C   UNL A   1      41.472  26.162  27.862  1.00  0.00     0.031 A 
ATOM     36  C   UNL A   1      40.734  27.205  28.650  1.00  0.00     0.074 A 
ATOM     37  C   UNL A   1      42.765  26.341  27.534  1.00  0.00     0.049 A 
ATOM     38  N   UNL A   1      41.111  28.412  28.983  1.00  0.00    -0.248 NA
ATOM     39  C   UNL A   1      39.390  26.839  29.117  1.00  0.00     0.031 C 
ATOM     40  C   UNL A   1      43.599  25.369  26.825  1.00  0.00     0.029 A 
ATOM     41  N   UNL A   1      43.602  27.406  27.748  1.00  0.00    -0.354 N 
ATOM     42  C   UNL A   1      40.041  28.963  29.679  1.00  0.00     0.074 A 
ATOM     43  C   UNL A   1      38.996  27.961  29.703  1.00  0.00     0.031 C 
ATOM     44  C   UNL A   1      44.826  25.888  26.654  1.00  0.00     0.029 A 
ATOM     45  C   UNL A   1      44.847  27.246  27.188  1.00  0.00     0.049 A 
ATOM     46  H   UNL A   1      43.337  28.207  28.255  1.00  0.00     0.167 HD
ATOM     47  C   UNL A   1      39.944  30.194  30.241  1.00  0.00     0.034 A 
ATOM     48  C   UNL A   1      45.872  28.115  27.076  1.00  0.00     0.034 A 
ATOM     49  C   UNL A   1      41.001  31.176  30.207  1.00  0.00     0.049 A 
ATOM     50  C   UNL A   1      45.714  29.503  27.640  1.00  0.00     0.074 A 
ATOM     51  C   UNL A   1      41.012  32.452  30.743  1.00  0.00     0.029 A 
ATOM     52  N   UNL A   1      42.236  30.993  29.597  1.00  0.00    -0.354 N 
ATOM     53  N   UNL A   1      44.682  30.030  28.258  1.00  0.00    -0.248 NA
ATOM     54  C   UNL A   1      46.854  30.414  27.482  1.00  0.00     0.031 C 
ATOM     55  C   UNL A   1      42.230  33.060  30.408  1.00  0.00     0.029 A 
ATOM     56  C   UNL A   1      43.006  32.141  29.720  1.00  0.00     0.049 A 
ATOM     57  H   UNL A   1      42.525  30.168  29.144  1.00  0.00     0.167 HD
ATOM     58  C   UNL A   1      45.060  31.331  28.581  1.00  0.00     0.074 A 
ATOM     59  C   UNL A   1      46.416  31.501  28.100  1.00  0.00     0.031 C 
ATOM     60  C   UNL A   1      44.350  32.297  29.219  1.00  0.00     0.034 A 
BRANCH  47  61
ATOM     61  C   UNL A   1      38.625  30.561  30.874  1.00  0.00     0.023 A 
ATOM     62  C   UNL A   1      37.595  31.180  30.143  1.00  0.00     0.031 A 
ATOM     63  C   UNL A   1      38.411  30.323  32.243  1.00  0.00     0.131 A 
ATOM     64  C   UNL A   1      36.427  31.600  30.799  1.00  0.00     0.055 A 
ATOM     65  C   UNL A   1      37.217  30.678  32.874  1.00  0.00     0.041 A 
ATOM     66  F   UNL A   1      39.367  29.757  32.996  1.00  0.00    -0.206 F 
ATOM     67  C   UNL A   1      36.222  31.333  32.156  1.00  0.00     0.022 A 
BRANCH  64  68
ATOM     68  S   UNL A   1      35.238  32.622  29.888  1.00  0.00     0.124 S 
ATOM     69  O   UNL A   1      36.114  33.613  29.267  1.00  0.00    -0.237 OA
ATOM     70  O   UNL A   1      34.621  31.658  28.984  1.00  0.00    -0.237 OA
ATOM     71  O   UNL A   1      34.361  33.144  30.934  1.00  0.00    -0.744 OA
ENDBRANCH  64  68
ENDBRANCH  47  61
BRANCH  48  72
ATOM     72  C   UNL A   1      47.111  27.724  26.348  1.00  0.00     0.023 A 
ATOM     73  C   UNL A   1      47.231  27.922  24.965  1.00  0.00     0.031 A 
ATOM     74  C   UNL A   1      48.182  27.113  27.026  1.00  0.00     0.131 A 
ATOM     75  C   UNL A   1      48.382  27.479  24.296  1.00  0.00     0.055 A 
ATOM     76  C   UNL A   1      49.345  26.719  26.363  1.00  0.00     0.041 A 
ATOM     77  F   UNL A   1      48.116  26.902  28.350  1.00  0.00    -0.206 F 
ATOM     78  C   UNL A   1      49.445  26.891  24.987  1.00  0.00     0.022 A 
BRANCH  75  79
ATOM     79  S   UNL A   1      48.444  27.627  22.489  1.00  0.00     0.124 S 
ATOM     80  O   UNL A   1      49.640  28.440  22.299  1.00  0.00    -0.237 OA
ATOM     81  O   UNL A   1      48.546  26.231  22.076  1.00  0.00    -0.237 OA
ATOM     82  O   UNL A   1      47.183  28.284  22.157  1.00  0.00    -0.744 OA
ENDBRANCH  75  79
ENDBRANCH  48  72
BRANCH  60  83
ATOM     83  C   UNL A   1      45.056  33.607  29.464  1.00  0.00     0.023 A 
ATOM     84  C   UNL A   1      44.934  34.688  28.574  1.00  0.00     0.031 A 
ATOM     85  C   UNL A   1      45.875  33.765  30.595  1.00  0.00     0.131 A 
ATOM     86  C   UNL A   1      45.661  35.866  28.805  1.00  0.00     0.055 A 
ATOM     87  C   UNL A   1      46.556  34.956  30.847  1.00  0.00     0.041 A 
ATOM     88  F   UNL A   1      46.026  32.762  31.474  1.00  0.00    -0.206 F 
ATOM     89  C   UNL A   1      46.461  36.011  29.943  1.00  0.00     0.022 A 
BRANCH  86  90
ATOM     90  S   UNL A   1      45.612  37.182  27.558  1.00  0.00     0.124 S 
ATOM     91  O   UNL A   1      46.011  38.351  28.335  1.00  0.00    -0.237 OA
ATOM     92  O   UNL A   1      46.579  36.714  26.571  1.00  0.00    -0.237 OA
ATOM     93  O   UNL A   1      44.221  37.180  27.110  1.00  0.00    -0.744 OA
ENDBRANCH  86  90
ENDBRANCH  60  83
ENDBRANCH  34  35
ENDBRANCH  27  29
ENDBRANCH  26  27
ENDBRANCH   1  26
TORSDOF 16
ENDMDL
MODEL 3
REMARK VINA RESULT:     -12.0      5.025      8.047
REMARK SMILES CC1(C)S[C@H](c2ccc(-c3ccccc3)o2)[NH2+][C@H]1C(=O)OCCOC(=O)c1ccc(-c2c3nc(c(-c4cc(S(=O)(=O)[O-])ccc4F)c4ccc([nH]4)c(-c4cc(S(=O)(=O)[O-])ccc4F)c4nc(c(-c5cc(S(=O)(=O)[O-])ccc5F)c5ccc2[nH]5)C=C4)C=C3)cc1
REMARK SMILES IDX 23 1 22 2 21 3 19 4 20 5 18 6 1 7 2 8 3 9 4 10 5 11 17 12
REMARK SMILES IDX 6 15 7 16 16 17 8 18 9 19 10 20 11 21 15 22 12 23 14 24
REMARK SMILES IDX 13 25 24 26 25 27 26 28 27 29 28 30 89 31 29 32 88 33 30 34
REMARK SMILES IDX 31 35 32 36 82 37 33 38 87 39 81 40 83 41 34 42 86 43 80 44
REMARK SMILES IDX 79 45 35 47 67 48 47 49 66 50 48 51 51 52 65 53 84 54 49 55
REMARK SMILES IDX 50 56 64 58 85 59 52 60 36 61 37 62 45 63 38 64 44 65 46 66
REMARK SMILES IDX 43 67 39 68 40 69 41 70 42 71 68 72 69 73 77 74 70 75 76 76
REMARK SMILES IDX 78 77 75 78 71 79 72 80 73 81 74 82 53 83 54 84 62 85 55 86
REMARK SMILES IDX 61 87 63 88 60 89 56 90 57 91 58 92 59 93
REMARK H PARENT 17 13 17 14 83 46 51 57
REMARK Flexibility Score: inf
ROOT
ATOM      1  C   UNL A   1      36.863  20.206  24.958  1.00  0.00     0.275 C 
ENDROOT
BRANCH   1   2
ATOM      2  C   UNL A   1      35.336  20.273  25.028  1.00  0.00     0.274 C 
BRANCH   2   3
ATOM      3  O   UNL A   1      34.841  21.619  24.867  1.00  0.00    -0.458 OA
BRANCH   3   4
ATOM      4  C   UNL A   1      33.537  21.738  24.508  1.00  0.00     0.366 C 
ATOM      5  O   UNL A   1      32.937  20.883  23.863  1.00  0.00    -0.245 OA
BRANCH   4   6
ATOM      6  C   UNL A   1      32.891  23.083  24.905  1.00  0.00     0.310 C 
ATOM      7  C   UNL A   1      32.864  22.604  27.500  1.00  0.00     0.030 C 
ATOM      8  C   UNL A   1      32.184  23.227  26.279  1.00  0.00     0.079 C 
ATOM      9  C   UNL A   1      30.715  22.801  26.213  1.00  0.00     0.030 C 
ATOM     10  S   UNL A   1      32.222  25.048  26.571  1.00  0.00    -0.078 SA
ATOM     11  C   UNL A   1      33.235  25.412  25.108  1.00  0.00     0.311 C 
ATOM     12  N   UNL A   1      33.910  24.162  24.761  1.00  0.00    -0.316 N 
ATOM     13  H   UNL A   1      34.693  23.995  25.392  1.00  0.00     0.348 HD
ATOM     14  H   UNL A   1      34.285  24.193  23.812  1.00  0.00     0.348 HD
BRANCH  11  15
ATOM     15  C   UNL A   1      32.401  26.063  24.038  1.00  0.00     0.172 A 
ATOM     16  C   UNL A   1      32.372  25.851  22.670  1.00  0.00     0.054 A 
ATOM     17  O   UNL A   1      31.468  27.016  24.369  1.00  0.00    -0.454 OA
ATOM     18  C   UNL A   1      31.372  26.692  22.143  1.00  0.00     0.051 A 
ATOM     19  C   UNL A   1      30.839  27.382  23.210  1.00  0.00     0.134 A 
BRANCH  19  20
ATOM     20  C   UNL A   1      29.762  28.355  23.292  1.00  0.00     0.017 A 
ATOM     21  C   UNL A   1      30.028  29.721  23.431  1.00  0.00     0.012 A 
ATOM     22  C   UNL A   1      28.434  27.938  23.109  1.00  0.00     0.012 A 
ATOM     23  C   UNL A   1      28.987  30.654  23.371  1.00  0.00     0.001 A 
ATOM     24  C   UNL A   1      27.393  28.869  23.063  1.00  0.00     0.001 A 
ATOM     25  C   UNL A   1      27.671  30.228  23.189  1.00  0.00     0.000 A 
ENDBRANCH  19  20
ENDBRANCH  11  15
ENDBRANCH   4   6
ENDBRANCH   3   4
ENDBRANCH   2   3
ENDBRANCH   1   2
BRANCH   1  26
ATOM     26  O   UNL A   1      37.466  21.335  25.612  1.00  0.00    -0.458 OA
BRANCH  26  27
ATOM     27  C   UNL A   1      38.746  21.155  26.013  1.00  0.00     0.338 C 
ATOM     28  O   UNL A   1      39.395  20.126  25.962  1.00  0.00    -0.246 OA
BRANCH  27  29
ATOM     29  C   UNL A   1      39.305  22.445  26.445  1.00  0.00     0.060 A 
ATOM     30  C   UNL A   1      38.718  23.622  25.977  1.00  0.00     0.016 A 
ATOM     31  C   UNL A   1      40.453  22.492  27.234  1.00  0.00     0.016 A 
ATOM     32  C   UNL A   1      39.279  24.856  26.284  1.00  0.00     0.010 A 
ATOM     33  C   UNL A   1      41.003  23.736  27.563  1.00  0.00     0.010 A 
ATOM     34  C   UNL A   1      40.425  24.925  27.083  1.00  0.00    -0.014 A 
BRANCH  34  35
ATOM     35  C   UNL A   1      41.036  26.241  27.380  1.00  0.00     0.031 A 
ATOM     36  C   UNL A   1      42.428  26.538  26.905  1.00  0.00     0.074 A 
ATOM     37  C   UNL A   1      40.337  27.164  28.066  1.00  0.00     0.049 A 
ATOM     38  N   UNL A   1      43.196  27.562  27.177  1.00  0.00    -0.248 NA
ATOM     39  C   UNL A   1      43.037  25.545  26.010  1.00  0.00     0.031 C 
ATOM     40  C   UNL A   1      38.955  27.009  28.524  1.00  0.00     0.029 A 
ATOM     41  N   UNL A   1      40.695  28.414  28.504  1.00  0.00    -0.354 N 
ATOM     42  C   UNL A   1      44.391  27.326  26.507  1.00  0.00     0.074 A 
ATOM     43  C   UNL A   1      44.248  26.053  25.831  1.00  0.00     0.031 C 
ATOM     44  C   UNL A   1      38.587  28.118  29.187  1.00  0.00     0.029 A 
ATOM     45  C   UNL A   1      39.722  29.033  29.251  1.00  0.00     0.049 A 
ATOM     46  H   UNL A   1      41.566  28.827  28.302  1.00  0.00     0.167 HD
ATOM     47  C   UNL A   1      45.503  28.101  26.466  1.00  0.00     0.034 A 
ATOM     48  C   UNL A   1      39.758  30.187  29.947  1.00  0.00     0.034 A 
ATOM     49  C   UNL A   1      45.621  29.368  27.147  1.00  0.00     0.049 A 
ATOM     50  C   UNL A   1      41.030  30.995  29.952  1.00  0.00     0.074 A 
ATOM     51  C   UNL A   1      46.699  30.237  27.174  1.00  0.00     0.029 A 
ATOM     52  N   UNL A   1      44.627  29.947  27.926  1.00  0.00    -0.354 N 
ATOM     53  N   UNL A   1      42.170  30.743  29.350  1.00  0.00    -0.248 NA
ATOM     54  C   UNL A   1      41.022  32.237  30.734  1.00  0.00     0.031 C 
ATOM     55  C   UNL A   1      46.378  31.311  28.015  1.00  0.00     0.029 A 
ATOM     56  C   UNL A   1      45.076  31.147  28.460  1.00  0.00     0.049 A 
ATOM     57  H   UNL A   1      43.734  29.563  28.077  1.00  0.00     0.167 HD
ATOM     58  C   UNL A   1      43.009  31.807  29.669  1.00  0.00     0.074 A 
ATOM     59  C   UNL A   1      42.238  32.708  30.502  1.00  0.00     0.031 C 
ATOM     60  C   UNL A   1      44.298  32.023  29.303  1.00  0.00     0.034 A 
BRANCH  47  61
ATOM     61  C   UNL A   1      46.695  27.559  25.718  1.00  0.00     0.023 A 
ATOM     62  C   UNL A   1      47.004  27.971  24.409  1.00  0.00     0.031 A 
ATOM     63  C   UNL A   1      47.514  26.581  26.311  1.00  0.00     0.131 A 
ATOM     64  C   UNL A   1      48.059  27.360  23.714  1.00  0.00     0.055 A 
ATOM     65  C   UNL A   1      48.606  26.029  25.640  1.00  0.00     0.041 A 
ATOM     66  F   UNL A   1      47.254  26.131  27.549  1.00  0.00    -0.206 F 
ATOM     67  C   UNL A   1      48.876  26.407  24.328  1.00  0.00     0.022 A 
BRANCH  64  68
ATOM     68  S   UNL A   1      48.265  27.726  21.949  1.00  0.00     0.124 S 
ATOM     69  O   UNL A   1      48.476  26.392  21.393  1.00  0.00    -0.237 OA
ATOM     70  O   UNL A   1      47.000  28.367  21.610  1.00  0.00    -0.237 OA
ATOM     71  O   UNL A   1      49.435  28.601  21.915  1.00  0.00    -0.744 OA
ENDBRANCH  64  68
ENDBRANCH  47  61
BRANCH  48  72
ATOM     72  C   UNL A   1      38.580  30.616  30.751  1.00  0.00     0.023 A 
ATOM     73  C   UNL A   1      37.537  31.352  30.170  1.00  0.00     0.031 A 
ATOM     74  C   UNL A   1      38.499  30.322  32.125  1.00  0.00     0.131 A 
ATOM     75  C   UNL A   1      36.473  31.802  30.968  1.00  0.00     0.055 A 
ATOM     76  C   UNL A   1      37.416  30.730  32.903  1.00  0.00     0.041 A 
ATOM     77  F   UNL A   1      39.472  29.620  32.727  1.00  0.00    -0.206 F 
ATOM     78  C   UNL A   1      36.399  31.485  32.327  1.00  0.00     0.022 A 
BRANCH  75  79
ATOM     79  S   UNL A   1      35.214  32.866  30.213  1.00  0.00     0.124 S 
ATOM     80  O   UNL A   1      34.441  33.282  31.378  1.00  0.00    -0.237 OA
ATOM     81  O   UNL A   1      36.030  33.899  29.583  1.00  0.00    -0.237 OA
ATOM     82  O   UNL A   1      34.521  31.972  29.289  1.00  0.00    -0.744 OA
ENDBRANCH  75  79
ENDBRANCH  48  72
BRANCH  60  83
ATOM     83  C   UNL A   1      44.931  33.307  29.776  1.00  0.00     0.023 A 
ATOM     84  C   UNL A   1      44.881  34.482  29.005  1.00  0.00     0.031 A 
ATOM     85  C   UNL A   1      45.607  33.347  31.007  1.00  0.00     0.131 A 
ATOM     86  C   UNL A   1      45.541  35.637  29.452  1.00  0.00     0.055 A 
ATOM     87  C   UNL A   1      46.218  34.513  31.471  1.00  0.00     0.041 A 
ATOM     88  F   UNL A   1      45.685  32.253  31.779  1.00  0.00    -0.206 F 
ATOM     89  C   UNL A   1      46.197  35.663  30.687  1.00  0.00     0.022 A 
BRANCH  86  90
ATOM     90  S   UNL A   1      45.599  37.087  28.364  1.00  0.00     0.124 S 
ATOM     91  O   UNL A   1      45.060  38.134  29.226  1.00  0.00    -0.237 OA
ATOM     92  O   UNL A   1      47.020  37.187  28.051  1.00  0.00    -0.237 OA
ATOM     93  O   UNL A   1      44.743  36.708  27.241  1.00  0.00    -0.744 OA
ENDBRANCH  86  90
ENDBRANCH  60  83
ENDBRANCH  34  35
ENDBRANCH  27  29
ENDBRANCH  26  27
ENDBRANCH   1  26
TORSDOF 16
ENDMDL
