MODEL 1
REMARK VINA RESULT:     -12.7      0.000      0.000
REMARK SMILES Cc1ccc(Oc2cc(C(=O)OCCOC(=O)c3ccc(-c4c5nc(c(-c6cc(S(=O)(=O)[O-])ccc6F)c6ccc([nH]6)c(-c6cc(S(=O)(=O)[O-])ccc6F)c6nc(c(-c7cc(S(=O)(=O)[O-])ccc7F)c7ccc4[nH]7)C=C6)C=C5)cc3)nc3ccccc23)cc1
REMARK SMILES IDX 14 1 13 2 12 3 10 4 11 5 9 6 7 7 8 8 87 9 82 10 86 11 81 12
REMARK SMILES IDX 83 13 85 14 84 15 6 16 5 17 1 18 2 19 3 20 89 21 4 22 88 23
REMARK SMILES IDX 15 24 16 25 17 26 18 27 19 28 80 29 20 30 79 31 21 32 22 33
REMARK SMILES IDX 23 34 73 35 24 36 78 37 72 38 74 39 25 40 77 41 71 42 70 43
REMARK SMILES IDX 26 45 58 46 38 47 57 48 39 49 42 50 56 51 75 52 40 53 41 54
REMARK SMILES IDX 55 56 76 57 43 58 27 59 28 60 36 61 29 62 35 63 37 64 34 65
REMARK SMILES IDX 30 66 31 67 32 68 33 69 59 70 60 71 68 72 61 73 67 74 69 75
REMARK SMILES IDX 66 76 62 77 63 78 64 79 65 80 44 81 45 82 53 83 46 84 52 85
REMARK SMILES IDX 54 86 51 87 47 88 48 89 49 90 50 91
REMARK H PARENT 74 44 42 55
REMARK Flexibility Score: inf
ROOT
ATOM      1  C   UNL A   1      33.360  30.595  26.912  1.00  0.00     0.275 C 
ENDROOT
BRANCH   1   2
ATOM      2  C   UNL A   1      32.017  29.853  26.955  1.00  0.00     0.275 C 
BRANCH   2   3
ATOM      3  O   UNL A   1      31.916  28.790  25.987  1.00  0.00    -0.457 OA
BRANCH   3   4
ATOM      4  C   UNL A   1      31.575  27.604  26.560  1.00  0.00     0.357 C 
ATOM      5  O   UNL A   1      31.270  27.459  27.734  1.00  0.00    -0.244 OA
BRANCH   4   6
ATOM      6  C   UNL A   1      31.738  26.414  25.681  1.00  0.00     0.152 A 
ATOM      7  C   UNL A   1      32.617  24.245  25.186  1.00  0.00     0.139 A 
ATOM      8  C   UNL A   1      32.096  25.150  26.124  1.00  0.00     0.084 A 
ATOM      9  C   UNL A   1      32.608  24.579  23.805  1.00  0.00     0.043 A 
ATOM     10  C   UNL A   1      32.200  25.889  23.487  1.00  0.00     0.075 A 
ATOM     11  C   UNL A   1      32.976  23.733  22.730  1.00  0.00     0.014 A 
ATOM     12  N   UNL A   1      31.780  26.773  24.380  1.00  0.00    -0.240 NA
ATOM     13  C   UNL A   1      32.252  26.344  22.185  1.00  0.00     0.029 A 
ATOM     14  C   UNL A   1      33.029  24.209  21.418  1.00  0.00     0.001 A 
ATOM     15  C   UNL A   1      32.681  25.524  21.148  1.00  0.00     0.002 A 
BRANCH   7  16
ATOM     16  O   UNL A   1      33.084  23.047  25.707  1.00  0.00    -0.457 OA
BRANCH  16  17
ATOM     17  C   UNL A   1      34.415  22.684  25.576  1.00  0.00     0.127 A 
ATOM     18  C   UNL A   1      38.644  21.758  25.694  1.00  0.00     0.044 C 
ATOM     19  C   UNL A   1      37.182  22.090  25.610  1.00  0.00    -0.051 A 
ATOM     20  C   UNL A   1      36.722  23.357  25.988  1.00  0.00     0.007 A 
ATOM     21  C   UNL A   1      36.253  21.155  25.138  1.00  0.00     0.007 A 
ATOM     22  C   UNL A   1      35.351  23.649  25.970  1.00  0.00     0.047 A 
ATOM     23  C   UNL A   1      34.882  21.457  25.098  1.00  0.00     0.047 A 
ENDBRANCH  16  17
ENDBRANCH   7  16
ENDBRANCH   4   6
ENDBRANCH   3   4
ENDBRANCH   2   3
ENDBRANCH   1   2
BRANCH   1  24
ATOM     24  O   UNL A   1      34.480  30.016  27.636  1.00  0.00    -0.458 OA
BRANCH  24  25
ATOM     25  C   UNL A   1      35.330  30.695  28.455  1.00  0.00     0.338 C 
ATOM     26  O   UNL A   1      34.935  31.631  29.154  1.00  0.00    -0.246 OA
BRANCH  25  27
ATOM     27  C   UNL A   1      36.678  30.122  28.649  1.00  0.00     0.060 A 
ATOM     28  C   UNL A   1      36.908  29.274  29.744  1.00  0.00     0.016 A 
ATOM     29  C   UNL A   1      37.635  30.264  27.655  1.00  0.00     0.016 A 
ATOM     30  C   UNL A   1      38.021  28.449  29.770  1.00  0.00     0.010 A 
ATOM     31  C   UNL A   1      38.623  29.325  27.565  1.00  0.00     0.010 A 
ATOM     32  C   UNL A   1      38.849  28.473  28.655  1.00  0.00    -0.014 A 
BRANCH  32  33
ATOM     33  C   UNL A   1      40.196  27.941  28.670  1.00  0.00     0.031 A 
ATOM     34  C   UNL A   1      40.423  26.514  28.432  1.00  0.00     0.074 A 
ATOM     35  C   UNL A   1      41.096  28.940  28.826  1.00  0.00     0.049 A 
ATOM     36  N   UNL A   1      41.389  25.829  28.930  1.00  0.00    -0.248 NA
ATOM     37  C   UNL A   1      39.499  25.682  27.660  1.00  0.00     0.031 C 
ATOM     38  C   UNL A   1      42.531  29.020  28.676  1.00  0.00     0.029 A 
ATOM     39  N   UNL A   1      40.765  30.184  29.375  1.00  0.00    -0.354 N 
ATOM     40  C   UNL A   1      41.459  24.666  28.185  1.00  0.00     0.074 A 
ATOM     41  C   UNL A   1      40.154  24.517  27.604  1.00  0.00     0.031 C 
ATOM     42  C   UNL A   1      42.973  30.072  29.402  1.00  0.00     0.029 A 
ATOM     43  C   UNL A   1      41.834  30.623  30.135  1.00  0.00     0.049 A 
ATOM     44  H   UNL A   1      39.916  30.664  29.242  1.00  0.00     0.167 HD
ATOM     45  C   UNL A   1      42.691  24.140  27.923  1.00  0.00     0.034 A 
ATOM     46  C   UNL A   1      41.641  30.602  31.490  1.00  0.00     0.034 A 
ATOM     47  C   UNL A   1      43.706  24.973  28.572  1.00  0.00     0.049 A 
ATOM     48  C   UNL A   1      42.474  29.493  32.093  1.00  0.00     0.074 A 
ATOM     49  C   UNL A   1      44.501  26.000  28.091  1.00  0.00     0.029 A 
ATOM     50  N   UNL A   1      43.695  25.095  29.954  1.00  0.00    -0.354 N 
ATOM     51  N   UNL A   1      42.780  28.377  31.483  1.00  0.00    -0.248 NA
ATOM     52  C   UNL A   1      43.140  29.640  33.378  1.00  0.00     0.031 C 
ATOM     53  C   UNL A   1      44.877  26.808  29.201  1.00  0.00     0.029 A 
ATOM     54  C   UNL A   1      44.308  26.269  30.344  1.00  0.00     0.049 A 
ATOM     55  H   UNL A   1      43.302  24.436  30.572  1.00  0.00     0.167 HD
ATOM     56  C   UNL A   1      43.754  27.726  32.195  1.00  0.00     0.074 A 
ATOM     57  C   UNL A   1      43.926  28.552  33.384  1.00  0.00     0.031 C 
ATOM     58  C   UNL A   1      44.392  26.594  31.757  1.00  0.00     0.034 A 
BRANCH  45  59
ATOM     59  C   UNL A   1      43.041  23.149  26.830  1.00  0.00     0.023 A 
ATOM     60  C   UNL A   1      42.623  21.807  26.989  1.00  0.00     0.031 A 
ATOM     61  C   UNL A   1      43.769  23.409  25.653  1.00  0.00     0.131 A 
ATOM     62  C   UNL A   1      42.978  20.800  26.075  1.00  0.00     0.055 A 
ATOM     63  C   UNL A   1      44.143  22.401  24.749  1.00  0.00     0.041 A 
ATOM     64  F   UNL A   1      44.119  24.648  25.292  1.00  0.00    -0.206 F 
ATOM     65  C   UNL A   1      43.753  21.086  24.958  1.00  0.00     0.022 A 
BRANCH  62  66
ATOM     66  S   UNL A   1      42.401  19.106  26.372  1.00  0.00     0.124 S 
ATOM     67  O   UNL A   1      41.088  19.112  25.736  1.00  0.00    -0.237 OA
ATOM     68  O   UNL A   1      43.432  18.308  25.719  1.00  0.00    -0.237 OA
ATOM     69  O   UNL A   1      42.379  19.007  27.831  1.00  0.00    -0.744 OA
ENDBRANCH  62  66
ENDBRANCH  45  59
BRANCH  46  70
ATOM     70  C   UNL A   1      40.257  31.034  31.923  1.00  0.00     0.023 A 
ATOM     71  C   UNL A   1      39.774  32.271  31.421  1.00  0.00     0.031 A 
ATOM     72  C   UNL A   1      39.313  30.201  32.537  1.00  0.00     0.131 A 
ATOM     73  C   UNL A   1      38.401  32.562  31.376  1.00  0.00     0.055 A 
ATOM     74  C   UNL A   1      37.943  30.539  32.578  1.00  0.00     0.041 A 
ATOM     75  F   UNL A   1      39.669  29.007  33.030  1.00  0.00    -0.206 F 
ATOM     76  C   UNL A   1      37.475  31.704  31.963  1.00  0.00     0.022 A 
BRANCH  73  77
ATOM     77  S   UNL A   1      37.858  33.917  30.285  1.00  0.00     0.124 S 
ATOM     78  O   UNL A   1      36.479  34.126  30.715  1.00  0.00    -0.237 OA
ATOM     79  O   UNL A   1      38.800  34.984  30.621  1.00  0.00    -0.237 OA
ATOM     80  O   UNL A   1      38.020  33.372  28.942  1.00  0.00    -0.744 OA
ENDBRANCH  73  77
ENDBRANCH  46  70
BRANCH  58  81
ATOM     81  C   UNL A   1      45.230  25.686  32.623  1.00  0.00     0.023 A 
ATOM     82  C   UNL A   1      44.669  24.679  33.408  1.00  0.00     0.031 A 
ATOM     83  C   UNL A   1      46.648  25.730  32.597  1.00  0.00     0.131 A 
ATOM     84  C   UNL A   1      45.471  23.861  34.213  1.00  0.00     0.055 A 
ATOM     85  C   UNL A   1      47.448  24.820  33.289  1.00  0.00     0.041 A 
ATOM     86  F   UNL A   1      47.325  26.647  31.893  1.00  0.00    -0.206 F 
ATOM     87  C   UNL A   1      46.859  23.892  34.129  1.00  0.00     0.022 A 
BRANCH  84  88
ATOM     88  S   UNL A   1      44.635  22.857  35.459  1.00  0.00     0.124 S 
ATOM     89  O   UNL A   1      45.232  21.544  35.228  1.00  0.00    -0.237 OA
ATOM     90  O   UNL A   1      45.018  23.514  36.704  1.00  0.00    -0.237 OA
ATOM     91  O   UNL A   1      43.225  22.971  35.100  1.00  0.00    -0.744 OA
ENDBRANCH  84  88
ENDBRANCH  58  81
ENDBRANCH  32  33
ENDBRANCH  25  27
ENDBRANCH  24  25
ENDBRANCH   1  24
TORSDOF 16
ENDMDL
MODEL 2
REMARK VINA RESULT:     -12.6      1.726      2.190
REMARK SMILES Cc1ccc(Oc2cc(C(=O)OCCOC(=O)c3ccc(-c4c5nc(c(-c6cc(S(=O)(=O)[O-])ccc6F)c6ccc([nH]6)c(-c6cc(S(=O)(=O)[O-])ccc6F)c6nc(c(-c7cc(S(=O)(=O)[O-])ccc7F)c7ccc4[nH]7)C=C6)C=C5)cc3)nc3ccccc23)cc1
REMARK SMILES IDX 14 1 13 2 12 3 10 4 11 5 9 6 7 7 8 8 87 9 82 10 86 11 81 12
REMARK SMILES IDX 83 13 85 14 84 15 6 16 5 17 1 18 2 19 3 20 89 21 4 22 88 23
REMARK SMILES IDX 15 24 16 25 17 26 18 27 19 28 80 29 20 30 79 31 21 32 22 33
REMARK SMILES IDX 23 34 73 35 24 36 78 37 72 38 74 39 25 40 77 41 71 42 70 43
REMARK SMILES IDX 26 45 58 46 38 47 57 48 39 49 42 50 56 51 75 52 40 53 41 54
REMARK SMILES IDX 55 56 76 57 43 58 27 59 28 60 36 61 29 62 35 63 37 64 34 65
REMARK SMILES IDX 30 66 31 67 32 68 33 69 59 70 60 71 68 72 61 73 67 74 69 75
REMARK SMILES IDX 66 76 62 77 63 78 64 79 65 80 44 81 45 82 53 83 46 84 52 85
REMARK SMILES IDX 54 86 51 87 47 88 48 89 49 90 50 91
REMARK H PARENT 74 44 42 55
REMARK Flexibility Score: inf
ROOT
ATOM      1  C   UNL A   1      33.479  30.950  27.354  1.00  0.00     0.275 C 
ENDROOT
BRANCH   1   2
ATOM      2  C   UNL A   1      32.224  30.256  26.806  1.00  0.00     0.275 C 
BRANCH   2   3
ATOM      3  O   UNL A   1      32.488  28.964  26.225  1.00  0.00    -0.457 OA
BRANCH   3   4
ATOM      4  C   UNL A   1      31.898  27.957  26.923  1.00  0.00     0.357 C 
ATOM      5  O   UNL A   1      31.164  28.113  27.888  1.00  0.00    -0.244 OA
BRANCH   4   6
ATOM      6  C   UNL A   1      32.325  26.587  26.528  1.00  0.00     0.152 A 
ATOM      7  C   UNL A   1      33.420  25.043  25.066  1.00  0.00     0.139 A 
ATOM      8  C   UNL A   1      33.385  26.304  25.681  1.00  0.00     0.084 A 
ATOM      9  C   UNL A   1      32.483  24.046  25.448  1.00  0.00     0.043 A 
ATOM     10  C   UNL A   1      31.469  24.457  26.335  1.00  0.00     0.075 A 
ATOM     11  C   UNL A   1      32.465  22.696  25.020  1.00  0.00     0.014 A 
ATOM     12  N   UNL A   1      31.388  25.672  26.858  1.00  0.00    -0.240 NA
ATOM     13  C   UNL A   1      30.452  23.593  26.688  1.00  0.00     0.029 A 
ATOM     14  C   UNL A   1      31.427  21.835  25.383  1.00  0.00     0.001 A 
ATOM     15  C   UNL A   1      30.408  22.291  26.207  1.00  0.00     0.002 A 
BRANCH   7  16
ATOM     16  O   UNL A   1      34.425  24.865  24.125  1.00  0.00    -0.457 OA
BRANCH  16  17
ATOM     17  C   UNL A   1      35.516  24.053  24.393  1.00  0.00     0.127 A 
ATOM     18  C   UNL A   1      38.702  21.453  25.751  1.00  0.00     0.044 C 
ATOM     19  C   UNL A   1      37.628  22.379  25.257  1.00  0.00    -0.051 A 
ATOM     20  C   UNL A   1      37.218  23.467  26.036  1.00  0.00     0.007 A 
ATOM     21  C   UNL A   1      37.026  22.189  24.006  1.00  0.00     0.007 A 
ATOM     22  C   UNL A   1      36.171  24.295  25.607  1.00  0.00     0.047 A 
ATOM     23  C   UNL A   1      35.995  23.034  23.566  1.00  0.00     0.047 A 
ENDBRANCH  16  17
ENDBRANCH   7  16
ENDBRANCH   4   6
ENDBRANCH   3   4
ENDBRANCH   2   3
ENDBRANCH   1   2
BRANCH   1  24
ATOM     24  O   UNL A   1      34.556  30.110  27.852  1.00  0.00    -0.458 OA
BRANCH  24  25
ATOM     25  C   UNL A   1      35.574  30.523  28.656  1.00  0.00     0.338 C 
ATOM     26  O   UNL A   1      35.383  31.330  29.568  1.00  0.00    -0.246 OA
BRANCH  25  27
ATOM     27  C   UNL A   1      36.855  29.794  28.547  1.00  0.00     0.060 A 
ATOM     28  C   UNL A   1      37.556  29.823  27.330  1.00  0.00     0.016 A 
ATOM     29  C   UNL A   1      37.442  29.263  29.685  1.00  0.00     0.016 A 
ATOM     30  C   UNL A   1      38.894  29.469  27.284  1.00  0.00     0.010 A 
ATOM     31  C   UNL A   1      38.799  29.103  29.702  1.00  0.00     0.010 A 
ATOM     32  C   UNL A   1      39.501  29.139  28.489  1.00  0.00    -0.014 A 
BRANCH  32  33
ATOM     33  C   UNL A   1      40.765  28.436  28.561  1.00  0.00     0.031 A 
ATOM     34  C   UNL A   1      40.801  26.977  28.436  1.00  0.00     0.074 A 
ATOM     35  C   UNL A   1      41.790  29.315  28.650  1.00  0.00     0.049 A 
ATOM     36  N   UNL A   1      41.666  26.211  28.996  1.00  0.00    -0.248 NA
ATOM     37  C   UNL A   1      39.775  26.217  27.720  1.00  0.00     0.031 C 
ATOM     38  C   UNL A   1      43.223  29.193  28.510  1.00  0.00     0.029 A 
ATOM     39  N   UNL A   1      41.627  30.631  29.097  1.00  0.00    -0.354 N 
ATOM     40  C   UNL A   1      41.583  24.995  28.344  1.00  0.00     0.074 A 
ATOM     41  C   UNL A   1      40.270  24.975  27.761  1.00  0.00     0.031 C 
ATOM     42  C   UNL A   1      43.800  30.230  29.158  1.00  0.00     0.029 A 
ATOM     43  C   UNL A   1      42.744  30.983  29.834  1.00  0.00     0.049 A 
ATOM     44  H   UNL A   1      40.849  31.208  28.919  1.00  0.00     0.167 HD
ATOM     45  C   UNL A   1      42.734  24.292  28.137  1.00  0.00     0.034 A 
ATOM     46  C   UNL A   1      42.549  31.093  31.184  1.00  0.00     0.034 A 
ATOM     47  C   UNL A   1      43.849  25.030  28.731  1.00  0.00     0.049 A 
ATOM     48  C   UNL A   1      43.226  29.934  31.880  1.00  0.00     0.074 A 
ATOM     49  C   UNL A   1      44.774  25.903  28.182  1.00  0.00     0.029 A 
ATOM     50  N   UNL A   1      43.853  25.260  30.100  1.00  0.00    -0.354 N 
ATOM     51  N   UNL A   1      43.381  28.743  31.360  1.00  0.00    -0.248 NA
ATOM     52  C   UNL A   1      43.905  30.091  33.157  1.00  0.00     0.031 C 
ATOM     53  C   UNL A   1      45.254  26.738  29.231  1.00  0.00     0.029 A 
ATOM     54  C   UNL A   1      44.617  26.369  30.405  1.00  0.00     0.049 A 
ATOM     55  H   UNL A   1      43.376  24.708  30.762  1.00  0.00     0.167 HD
ATOM     56  C   UNL A   1      44.260  28.026  32.132  1.00  0.00     0.074 A 
ATOM     57  C   UNL A   1      44.539  28.912  33.256  1.00  0.00     0.031 C 
ATOM     58  C   UNL A   1      44.742  26.789  31.790  1.00  0.00     0.034 A 
BRANCH  45  59
ATOM     59  C   UNL A   1      42.950  23.181  27.127  1.00  0.00     0.023 A 
ATOM     60  C   UNL A   1      42.359  21.922  27.386  1.00  0.00     0.031 A 
ATOM     61  C   UNL A   1      43.705  23.250  25.941  1.00  0.00     0.131 A 
ATOM     62  C   UNL A   1      42.578  20.808  26.555  1.00  0.00     0.055 A 
ATOM     63  C   UNL A   1      43.943  22.134  25.121  1.00  0.00     0.041 A 
ATOM     64  F   UNL A   1      44.215  24.401  25.489  1.00  0.00    -0.206 F 
ATOM     65  C   UNL A   1      43.384  20.902  25.428  1.00  0.00     0.022 A 
BRANCH  62  66
ATOM     66  S   UNL A   1      41.783  19.233  26.977  1.00  0.00     0.124 S 
ATOM     67  O   UNL A   1      41.197  18.833  25.703  1.00  0.00    -0.237 OA
ATOM     68  O   UNL A   1      42.908  18.435  27.451  1.00  0.00    -0.237 OA
ATOM     69  O   UNL A   1      40.818  19.607  28.010  1.00  0.00    -0.744 OA
ENDBRANCH  62  66
ENDBRANCH  45  59
BRANCH  46  70
ATOM     70  C   UNL A   1      41.234  31.737  31.567  1.00  0.00     0.023 A 
ATOM     71  C   UNL A   1      40.317  30.952  32.314  1.00  0.00     0.031 A 
ATOM     72  C   UNL A   1      40.963  33.109  31.495  1.00  0.00     0.131 A 
ATOM     73  C   UNL A   1      39.305  31.541  33.089  1.00  0.00     0.055 A 
ATOM     74  C   UNL A   1      39.885  33.689  32.198  1.00  0.00     0.041 A 
ATOM     75  F   UNL A   1      41.777  33.935  30.824  1.00  0.00    -0.206 F 
ATOM     76  C   UNL A   1      39.073  32.911  33.030  1.00  0.00     0.022 A 
BRANCH  73  77
ATOM     77  S   UNL A   1      38.519  30.515  34.376  1.00  0.00     0.124 S 
ATOM     78  O   UNL A   1      37.704  31.490  35.093  1.00  0.00    -0.237 OA
ATOM     79  O   UNL A   1      37.785  29.529  33.583  1.00  0.00    -0.237 OA
ATOM     80  O   UNL A   1      39.645  29.967  35.123  1.00  0.00    -0.744 OA
ENDBRANCH  73  77
ENDBRANCH  46  70
BRANCH  58  81
ATOM     81  C   UNL A   1      45.451  25.848  32.732  1.00  0.00     0.023 A 
ATOM     82  C   UNL A   1      44.783  24.827  33.409  1.00  0.00     0.031 A 
ATOM     83  C   UNL A   1      46.860  25.875  32.894  1.00  0.00     0.131 A 
ATOM     84  C   UNL A   1      45.465  23.979  34.289  1.00  0.00     0.055 A 
ATOM     85  C   UNL A   1      47.555  24.937  33.659  1.00  0.00     0.041 A 
ATOM     86  F   UNL A   1      47.632  26.802  32.309  1.00  0.00    -0.206 F 
ATOM     87  C   UNL A   1      46.852  23.994  34.388  1.00  0.00     0.022 A 
BRANCH  84  88
ATOM     88  S   UNL A   1      44.464  22.953  35.386  1.00  0.00     0.124 S 
ATOM     89  O   UNL A   1      44.155  21.814  34.524  1.00  0.00    -0.237 OA
ATOM     90  O   UNL A   1      45.380  22.680  36.487  1.00  0.00    -0.237 OA
ATOM     91  O   UNL A   1      43.328  23.810  35.714  1.00  0.00    -0.744 OA
ENDBRANCH  84  88
ENDBRANCH  58  81
ENDBRANCH  32  33
ENDBRANCH  25  27
ENDBRANCH  24  25
ENDBRANCH   1  24
TORSDOF 16
ENDMDL
MODEL 3
REMARK VINA RESULT:     -12.5      3.597      9.983
REMARK SMILES Cc1ccc(Oc2cc(C(=O)OCCOC(=O)c3ccc(-c4c5nc(c(-c6cc(S(=O)(=O)[O-])ccc6F)c6ccc([nH]6)c(-c6cc(S(=O)(=O)[O-])ccc6F)c6nc(c(-c7cc(S(=O)(=O)[O-])ccc7F)c7ccc4[nH]7)C=C6)C=C5)cc3)nc3ccccc23)cc1
REMARK SMILES IDX 14 1 13 2 12 3 10 4 11 5 9 6 7 7 8 8 87 9 82 10 86 11 81 12
REMARK SMILES IDX 83 13 85 14 84 15 6 16 5 17 1 18 2 19 3 20 89 21 4 22 88 23
REMARK SMILES IDX 15 24 16 25 17 26 18 27 19 28 80 29 20 30 79 31 21 32 22 33
REMARK SMILES IDX 23 34 73 35 24 36 78 37 72 38 74 39 25 40 77 41 71 42 70 43
REMARK SMILES IDX 26 45 58 46 38 47 57 48 39 49 42 50 56 51 75 52 40 53 41 54
REMARK SMILES IDX 55 56 76 57 43 58 27 59 28 60 36 61 29 62 35 63 37 64 34 65
REMARK SMILES IDX 30 66 31 67 32 68 33 69 59 70 60 71 68 72 61 73 67 74 69 75
REMARK SMILES IDX 66 76 62 77 63 78 64 79 65 80 44 81 45 82 53 83 46 84 52 85
REMARK SMILES IDX 54 86 51 87 47 88 48 89 49 90 50 91
REMARK H PARENT 74 44 42 55
REMARK Flexibility Score: inf
ROOT
ATOM      1  C   UNL A   1      38.115  22.756  26.169  1.00  0.00     0.275 C 
ENDROOT
BRANCH   1   2
ATOM      2  C   UNL A   1      37.729  22.032  24.872  1.00  0.00     0.275 C 
BRANCH   2   3
ATOM      3  O   UNL A   1      36.875  22.811  24.010  1.00  0.00    -0.457 OA
BRANCH   3   4
ATOM      4  C   UNL A   1      35.557  22.615  24.280  1.00  0.00     0.357 C 
ATOM      5  O   UNL A   1      35.033  21.523  24.443  1.00  0.00    -0.244 OA
BRANCH   4   6
ATOM      6  C   UNL A   1      34.716  23.842  24.221  1.00  0.00     0.152 A 
ATOM      7  C   UNL A   1      33.081  25.340  25.117  1.00  0.00     0.139 A 
ATOM      8  C   UNL A   1      34.166  24.475  25.325  1.00  0.00     0.084 A 
ATOM      9  C   UNL A   1      32.688  25.671  23.792  1.00  0.00     0.043 A 
ATOM     10  C   UNL A   1      33.342  24.973  22.759  1.00  0.00     0.075 A 
ATOM     11  C   UNL A   1      31.705  26.619  23.416  1.00  0.00     0.014 A 
ATOM     12  N   UNL A   1      34.316  24.097  22.956  1.00  0.00    -0.240 NA
ATOM     13  C   UNL A   1      32.963  25.148  21.444  1.00  0.00     0.029 A 
ATOM     14  C   UNL A   1      31.328  26.781  22.081  1.00  0.00     0.001 A 
ATOM     15  C   UNL A   1      31.949  26.031  21.093  1.00  0.00     0.002 A 
BRANCH   7  16
ATOM     16  O   UNL A   1      32.484  25.837  26.267  1.00  0.00    -0.457 OA
BRANCH  16  17
ATOM     17  C   UNL A   1      32.665  27.158  26.649  1.00  0.00     0.127 A 
ATOM     18  C   UNL A   1      33.527  31.341  27.361  1.00  0.00     0.044 C 
ATOM     19  C   UNL A   1      33.234  29.883  27.159  1.00  0.00    -0.051 A 
ATOM     20  C   UNL A   1      34.255  29.000  26.790  1.00  0.00     0.007 A 
ATOM     21  C   UNL A   1      31.944  29.370  27.349  1.00  0.00     0.007 A 
ATOM     22  C   UNL A   1      33.971  27.650  26.538  1.00  0.00     0.047 A 
ATOM     23  C   UNL A   1      31.666  28.013  27.121  1.00  0.00     0.047 A 
ENDBRANCH  16  17
ENDBRANCH   7  16
ENDBRANCH   4   6
ENDBRANCH   3   4
ENDBRANCH   2   3
ENDBRANCH   1   2
BRANCH   1  24
ATOM     24  O   UNL A   1      38.654  24.102  26.060  1.00  0.00    -0.458 OA
BRANCH  24  25
ATOM     25  C   UNL A   1      39.768  24.563  26.693  1.00  0.00     0.338 C 
ATOM     26  O   UNL A   1      40.871  24.046  26.504  1.00  0.00    -0.246 OA
BRANCH  25  27
ATOM     27  C   UNL A   1      39.647  25.841  27.423  1.00  0.00     0.060 A 
ATOM     28  C   UNL A   1      39.188  25.830  28.751  1.00  0.00     0.016 A 
ATOM     29  C   UNL A   1      40.167  27.001  26.869  1.00  0.00     0.016 A 
ATOM     30  C   UNL A   1      39.392  26.926  29.572  1.00  0.00     0.010 A 
ATOM     31  C   UNL A   1      40.554  28.007  27.709  1.00  0.00     0.010 A 
ATOM     32  C   UNL A   1      40.102  27.992  29.036  1.00  0.00    -0.014 A 
BRANCH  32  33
ATOM     33  C   UNL A   1      40.102  29.311  29.634  1.00  0.00     0.031 A 
ATOM     34  C   UNL A   1      38.998  30.236  29.370  1.00  0.00     0.074 A 
ATOM     35  C   UNL A   1      41.157  29.449  30.471  1.00  0.00     0.049 A 
ATOM     36  N   UNL A   1      39.100  31.516  29.344  1.00  0.00    -0.248 NA
ATOM     37  C   UNL A   1      37.654  29.784  29.007  1.00  0.00     0.031 C 
ATOM     38  C   UNL A   1      41.507  30.423  31.480  1.00  0.00     0.029 A 
ATOM     39  N   UNL A   1      42.305  28.654  30.387  1.00  0.00    -0.354 N 
ATOM     40  C   UNL A   1      37.810  32.007  29.437  1.00  0.00     0.074 A 
ATOM     41  C   UNL A   1      36.971  30.933  28.982  1.00  0.00     0.031 C 
ATOM     42  C   UNL A   1      42.845  30.373  31.668  1.00  0.00     0.029 A 
ATOM     43  C   UNL A   1      43.402  29.440  30.690  1.00  0.00     0.049 A 
ATOM     44  H   UNL A   1      42.328  27.699  30.151  1.00  0.00     0.167 HD
ATOM     45  C   UNL A   1      37.603  33.146  30.158  1.00  0.00     0.034 A 
ATOM     46  C   UNL A   1      44.217  29.747  29.634  1.00  0.00     0.034 A 
ATOM     47  C   UNL A   1      38.892  33.626  30.661  1.00  0.00     0.049 A 
ATOM     48  C   UNL A   1      44.051  31.209  29.287  1.00  0.00     0.074 A 
ATOM     49  C   UNL A   1      39.523  33.463  31.883  1.00  0.00     0.029 A 
ATOM     50  N   UNL A   1      39.875  33.993  29.754  1.00  0.00    -0.354 N 
ATOM     51  N   UNL A   1      42.946  31.891  29.449  1.00  0.00    -0.248 NA
ATOM     52  C   UNL A   1      45.173  32.035  28.868  1.00  0.00     0.031 C 
ATOM     53  C   UNL A   1      40.921  33.631  31.671  1.00  0.00     0.029 A 
ATOM     54  C   UNL A   1      41.128  33.891  30.325  1.00  0.00     0.049 A 
ATOM     55  H   UNL A   1      39.703  34.286  28.829  1.00  0.00     0.167 HD
ATOM     56  C   UNL A   1      43.214  33.227  29.295  1.00  0.00     0.074 A 
ATOM     57  C   UNL A   1      44.620  33.258  28.911  1.00  0.00     0.031 C 
ATOM     58  C   UNL A   1      42.301  34.221  29.535  1.00  0.00     0.034 A 
BRANCH  45  59
ATOM     59  C   UNL A   1      36.284  33.632  30.729  1.00  0.00     0.023 A 
ATOM     60  C   UNL A   1      35.386  34.293  29.860  1.00  0.00     0.031 A 
ATOM     61  C   UNL A   1      35.845  33.517  32.062  1.00  0.00     0.131 A 
ATOM     62  C   UNL A   1      34.181  34.857  30.316  1.00  0.00     0.055 A 
ATOM     63  C   UNL A   1      34.653  34.098  32.526  1.00  0.00     0.041 A 
ATOM     64  F   UNL A   1      36.517  32.805  32.973  1.00  0.00    -0.206 F 
ATOM     65  C   UNL A   1      33.815  34.778  31.654  1.00  0.00     0.022 A 
BRANCH  62  66
ATOM     66  S   UNL A   1      33.100  35.693  29.124  1.00  0.00     0.124 S 
ATOM     67  O   UNL A   1      32.517  34.571  28.397  1.00  0.00    -0.237 OA
ATOM     68  O   UNL A   1      32.197  36.439  29.994  1.00  0.00    -0.237 OA
ATOM     69  O   UNL A   1      34.025  36.518  28.348  1.00  0.00    -0.744 OA
ENDBRANCH  62  66
ENDBRANCH  45  59
BRANCH  46  70
ATOM     70  C   UNL A   1      44.428  28.604  28.665  1.00  0.00     0.023 A 
ATOM     71  C   UNL A   1      44.691  27.323  29.216  1.00  0.00     0.031 A 
ATOM     72  C   UNL A   1      44.110  28.640  27.301  1.00  0.00     0.131 A 
ATOM     73  C   UNL A   1      44.464  26.145  28.485  1.00  0.00     0.055 A 
ATOM     74  C   UNL A   1      43.978  27.459  26.540  1.00  0.00     0.041 A 
ATOM     75  F   UNL A   1      43.833  29.801  26.692  1.00  0.00    -0.206 F 
ATOM     76  C   UNL A   1      44.116  26.202  27.139  1.00  0.00     0.022 A 
BRANCH  73  77
ATOM     77  S   UNL A   1      44.349  24.581  29.413  1.00  0.00     0.124 S 
ATOM     78  O   UNL A   1      44.571  25.019  30.787  1.00  0.00    -0.237 OA
ATOM     79  O   UNL A   1      42.993  24.131  29.098  1.00  0.00    -0.237 OA
ATOM     80  O   UNL A   1      45.405  23.754  28.840  1.00  0.00    -0.744 OA
ENDBRANCH  73  77
ENDBRANCH  46  70
BRANCH  58  81
ATOM     81  C   UNL A   1      42.449  35.655  29.090  1.00  0.00     0.023 A 
ATOM     82  C   UNL A   1      43.272  36.561  29.761  1.00  0.00     0.031 A 
ATOM     83  C   UNL A   1      41.851  36.133  27.896  1.00  0.00     0.131 A 
ATOM     84  C   UNL A   1      43.379  37.890  29.334  1.00  0.00     0.055 A 
ATOM     85  C   UNL A   1      42.075  37.416  27.396  1.00  0.00     0.041 A 
ATOM     86  F   UNL A   1      41.032  35.377  27.152  1.00  0.00    -0.206 F 
ATOM     87  C   UNL A   1      42.823  38.317  28.133  1.00  0.00     0.022 A 
BRANCH  84  88
ATOM     88  S   UNL A   1      44.155  39.060  30.469  1.00  0.00     0.124 S 
ATOM     89  O   UNL A   1      45.349  39.448  29.721  1.00  0.00    -0.237 OA
ATOM     90  O   UNL A   1      43.134  40.092  30.608  1.00  0.00    -0.237 OA
ATOM     91  O   UNL A   1      44.404  38.261  31.666  1.00  0.00    -0.744 OA
ENDBRANCH  84  88
ENDBRANCH  58  81
ENDBRANCH  32  33
ENDBRANCH  25  27
ENDBRANCH  24  25
ENDBRANCH   1  24
TORSDOF 16
ENDMDL
