MODEL 1
REMARK VINA RESULT:     -11.2      0.000      0.000
REMARK SMILES CC[NH2+][C@]1(C(=O)OCCOC(=O)c2ccc(-c3c4nc(c(-c5cc(S(=O)(=O)[O-])ccc5F)c5ccc([nH]5)c(-c5cc(S(=O)(=O)[O-])ccc5F)c5nc(c(-c6cc(S(=O)(=O)[O-])ccc6F)c6ccc3[nH]6)C=C5)C=C4)cc2)CC[C@@H]([N@H+]2C[C@@H](C)O[C@@H](C)C2)C1
REMARK SMILES IDX 9 1 8 2 7 3 5 4 6 5 4 6 76 7 87 8 77 9 78 10 3 11 2 14 1 15
REMARK SMILES IDX 79 16 80 17 86 18 81 20 84 21 82 22 83 23 85 24 10 25 11 26
REMARK SMILES IDX 12 27 13 28 14 29 75 30 15 31 74 32 16 33 17 34 18 35 68 36
REMARK SMILES IDX 19 37 73 38 67 39 69 40 20 41 72 42 66 43 65 44 21 46 53 47
REMARK SMILES IDX 33 48 52 49 34 50 37 51 51 52 70 53 35 54 36 55 50 57 71 58
REMARK SMILES IDX 38 59 22 60 23 61 31 62 24 63 30 64 32 65 29 66 25 67 26 68
REMARK SMILES IDX 27 69 28 70 54 71 55 72 63 73 56 74 62 75 64 76 61 77 57 78
REMARK SMILES IDX 58 79 59 80 60 81 39 82 40 83 48 84 41 85 47 86 49 87 46 88
REMARK SMILES IDX 42 89 43 90 44 91 45 92
REMARK H PARENT 3 12 3 13 79 19 69 45 37 56
REMARK Flexibility Score: inf
ROOT
ATOM      1  C   UNL A   1      37.566  20.065  24.962  1.00  0.00     0.275 C 
ENDROOT
BRANCH   1   2
ATOM      2  C   UNL A   1      36.067  20.375  24.886  1.00  0.00     0.274 C 
BRANCH   2   3
ATOM      3  O   UNL A   1      35.760  21.743  25.222  1.00  0.00    -0.457 OA
BRANCH   3   4
ATOM      4  C   UNL A   1      35.351  22.549  24.205  1.00  0.00     0.368 C 
ATOM      5  O   UNL A   1      35.995  22.729  23.173  1.00  0.00    -0.245 OA
BRANCH   4   6
ATOM      6  C   UNL A   1      34.014  23.316  24.483  1.00  0.00     0.200 C 
ATOM      7  C   UNL A   1      33.898  23.553  26.000  1.00  0.00     0.087 C 
ATOM      8  C   UNL A   1      33.998  24.752  23.935  1.00  0.00     0.146 C 
ATOM      9  C   UNL A   1      33.023  24.783  26.191  1.00  0.00     0.072 C 
ATOM     10  C   UNL A   1      33.210  25.629  24.922  1.00  0.00     0.191 C 
BRANCH   6  11
ATOM     11  N   UNL A   1      32.957  22.466  23.865  1.00  0.00    -0.332 N 
ATOM     12  H   UNL A   1      32.265  23.093  23.455  1.00  0.00     0.347 HD
ATOM     13  H   UNL A   1      33.463  21.870  23.209  1.00  0.00     0.347 HD
BRANCH  11  14
ATOM     14  C   UNL A   1      32.238  21.531  24.719  1.00  0.00     0.257 C 
ATOM     15  C   UNL A   1      32.445  20.120  24.184  1.00  0.00     0.071 C 
ENDBRANCH  11  14
ENDBRANCH   6  11
BRANCH  10  16
ATOM     16  N   UNL A   1      33.734  26.978  25.086  1.00  0.00    -0.328 N 
ATOM     17  C   UNL A   1      33.564  28.041  24.106  1.00  0.00     0.294 C 
ATOM     18  C   UNL A   1      33.973  27.473  26.432  1.00  0.00     0.294 C 
ATOM     19  H   UNL A   1      34.591  26.579  24.703  1.00  0.00     0.348 HD
ATOM     20  C   UNL A   1      32.736  29.269  24.558  1.00  0.00     0.170 C 
ATOM     21  C   UNL A   1      33.077  28.644  26.889  1.00  0.00     0.170 C 
ATOM     22  C   UNL A   1      31.257  29.130  24.244  1.00  0.00     0.045 C 
ATOM     23  O   UNL A   1      32.960  29.687  25.913  1.00  0.00    -0.364 OA
ATOM     24  C   UNL A   1      31.723  28.245  27.469  1.00  0.00     0.045 C 
ENDBRANCH  10  16
ENDBRANCH   4   6
ENDBRANCH   3   4
ENDBRANCH   2   3
ENDBRANCH   1   2
BRANCH   1  25
ATOM     25  O   UNL A   1      38.356  21.233  25.256  1.00  0.00    -0.458 OA
BRANCH  25  26
ATOM     26  C   UNL A   1      39.354  21.013  26.133  1.00  0.00     0.338 C 
ATOM     27  O   UNL A   1      39.862  19.932  26.404  1.00  0.00    -0.246 OA
BRANCH  26  28
ATOM     28  C   UNL A   1      39.862  22.247  26.723  1.00  0.00     0.060 A 
ATOM     29  C   UNL A   1      39.450  23.456  26.157  1.00  0.00     0.016 A 
ATOM     30  C   UNL A   1      40.871  22.209  27.685  1.00  0.00     0.016 A 
ATOM     31  C   UNL A   1      40.073  24.641  26.523  1.00  0.00     0.010 A 
ATOM     32  C   UNL A   1      41.477  23.404  28.073  1.00  0.00     0.010 A 
ATOM     33  C   UNL A   1      41.089  24.620  27.484  1.00  0.00    -0.014 A 
BRANCH  33  34
ATOM     34  C   UNL A   1      41.730  25.883  27.906  1.00  0.00     0.031 A 
ATOM     35  C   UNL A   1      40.945  26.913  28.659  1.00  0.00     0.074 A 
ATOM     36  C   UNL A   1      43.015  26.089  27.571  1.00  0.00     0.049 A 
ATOM     37  N   UNL A   1      41.273  28.141  28.961  1.00  0.00    -0.248 NA
ATOM     38  C   UNL A   1      39.613  26.509  29.129  1.00  0.00     0.031 C 
ATOM     39  C   UNL A   1      43.870  25.119  26.883  1.00  0.00     0.029 A 
ATOM     40  N   UNL A   1      43.819  27.185  27.740  1.00  0.00    -0.354 N 
ATOM     41  C   UNL A   1      40.181  28.670  29.640  1.00  0.00     0.074 A 
ATOM     42  C   UNL A   1      39.176  27.626  29.692  1.00  0.00     0.031 C 
ATOM     43  C   UNL A   1      45.074  25.670  26.671  1.00  0.00     0.029 A 
ATOM     44  C   UNL A   1      45.051  27.048  27.148  1.00  0.00     0.049 A 
ATOM     45  H   UNL A   1      43.542  27.988  28.238  1.00  0.00     0.167 HD
ATOM     46  C   UNL A   1      40.039  29.915  30.160  1.00  0.00     0.034 A 
ATOM     47  C   UNL A   1      46.030  27.952  26.962  1.00  0.00     0.034 A 
ATOM     48  C   UNL A   1      41.061  30.932  30.073  1.00  0.00     0.049 A 
ATOM     49  C   UNL A   1      45.824  29.347  27.484  1.00  0.00     0.074 A 
ATOM     50  C   UNL A   1      41.034  32.232  30.551  1.00  0.00     0.029 A 
ATOM     51  N   UNL A   1      42.297  30.765  29.458  1.00  0.00    -0.354 N 
ATOM     52  N   UNL A   1      44.775  29.850  28.095  1.00  0.00    -0.248 NA
ATOM     53  C   UNL A   1      46.929  30.292  27.297  1.00  0.00     0.031 C 
ATOM     54  C   UNL A   1      42.227  32.864  30.177  1.00  0.00     0.029 A 
ATOM     55  C   UNL A   1      43.030  31.940  29.523  1.00  0.00     0.049 A 
ATOM     56  H   UNL A   1      42.608  29.931  29.037  1.00  0.00     0.167 HD
ATOM     57  C   UNL A   1      45.105  31.169  28.386  1.00  0.00     0.074 A 
ATOM     58  C   UNL A   1      46.453  31.377  27.891  1.00  0.00     0.031 C 
ATOM     59  C   UNL A   1      44.368  32.122  29.010  1.00  0.00     0.034 A 
BRANCH  46  60
ATOM     60  C   UNL A   1      38.713  30.255  30.797  1.00  0.00     0.023 A 
ATOM     61  C   UNL A   1      37.692  30.915  30.088  1.00  0.00     0.031 A 
ATOM     62  C   UNL A   1      38.478  29.944  32.149  1.00  0.00     0.131 A 
ATOM     63  C   UNL A   1      36.514  31.297  30.750  1.00  0.00     0.055 A 
ATOM     64  C   UNL A   1      37.276  30.264  32.782  1.00  0.00     0.041 A 
ATOM     65  F   UNL A   1      39.423  29.336  32.883  1.00  0.00    -0.206 F 
ATOM     66  C   UNL A   1      36.290  30.957  32.086  1.00  0.00     0.022 A 
BRANCH  63  67
ATOM     67  S   UNL A   1      35.333  32.362  29.878  1.00  0.00     0.124 S 
ATOM     68  O   UNL A   1      34.319  32.585  30.906  1.00  0.00    -0.237 OA
ATOM     69  O   UNL A   1      36.150  33.517  29.526  1.00  0.00    -0.237 OA
ATOM     70  O   UNL A   1      34.896  31.540  28.751  1.00  0.00    -0.744 OA
ENDBRANCH  63  67
ENDBRANCH  46  60
BRANCH  47  71
ATOM     71  C   UNL A   1      47.253  27.577  26.204  1.00  0.00     0.023 A 
ATOM     72  C   UNL A   1      47.355  27.818  24.827  1.00  0.00     0.031 A 
ATOM     73  C   UNL A   1      48.345  26.972  26.855  1.00  0.00     0.131 A 
ATOM     74  C   UNL A   1      48.513  27.429  24.136  1.00  0.00     0.055 A 
ATOM     75  C   UNL A   1      49.512  26.629  26.171  1.00  0.00     0.041 A 
ATOM     76  F   UNL A   1      48.300  26.728  28.175  1.00  0.00    -0.206 F 
ATOM     77  C   UNL A   1      49.597  26.850  24.800  1.00  0.00     0.022 A 
BRANCH  74  78
ATOM     78  S   UNL A   1      48.560  27.641  22.336  1.00  0.00     0.124 S 
ATOM     79  O   UNL A   1      49.740  28.480  22.165  1.00  0.00    -0.237 OA
ATOM     80  O   UNL A   1      48.679  26.263  21.873  1.00  0.00    -0.237 OA
ATOM     81  O   UNL A   1      47.284  28.288  22.036  1.00  0.00    -0.744 OA
ENDBRANCH  74  78
ENDBRANCH  47  71
BRANCH  59  82
ATOM     82  C   UNL A   1      45.038  33.451  29.230  1.00  0.00     0.023 A 
ATOM     83  C   UNL A   1      45.085  34.429  28.222  1.00  0.00     0.031 A 
ATOM     84  C   UNL A   1      45.662  33.728  30.459  1.00  0.00     0.131 A 
ATOM     85  C   UNL A   1      45.790  35.621  28.443  1.00  0.00     0.055 A 
ATOM     86  C   UNL A   1      46.317  34.938  30.690  1.00  0.00     0.041 A 
ATOM     87  F   UNL A   1      45.646  32.825  31.451  1.00  0.00    -0.206 F 
ATOM     88  C   UNL A   1      46.394  35.888  29.675  1.00  0.00     0.022 A 
BRANCH  85  89
ATOM     89  S   UNL A   1      45.976  36.791  27.068  1.00  0.00     0.124 S 
ATOM     90  O   UNL A   1      47.178  37.523  27.455  1.00  0.00    -0.237 OA
ATOM     91  O   UNL A   1      46.113  35.902  25.918  1.00  0.00    -0.237 OA
ATOM     92  O   UNL A   1      44.737  37.565  27.107  1.00  0.00    -0.744 OA
ENDBRANCH  85  89
ENDBRANCH  59  82
ENDBRANCH  33  34
ENDBRANCH  26  28
ENDBRANCH  25  26
ENDBRANCH   1  25
TORSDOF 17
ENDMDL
MODEL 2
REMARK VINA RESULT:     -11.2      1.679      2.169
REMARK SMILES CC[NH2+][C@]1(C(=O)OCCOC(=O)c2ccc(-c3c4nc(c(-c5cc(S(=O)(=O)[O-])ccc5F)c5ccc([nH]5)c(-c5cc(S(=O)(=O)[O-])ccc5F)c5nc(c(-c6cc(S(=O)(=O)[O-])ccc6F)c6ccc3[nH]6)C=C5)C=C4)cc2)CC[C@@H]([N@H+]2C[C@@H](C)O[C@@H](C)C2)C1
REMARK SMILES IDX 9 1 8 2 7 3 5 4 6 5 4 6 76 7 87 8 77 9 78 10 3 11 2 14 1 15
REMARK SMILES IDX 79 16 80 17 86 18 81 20 84 21 82 22 83 23 85 24 10 25 11 26
REMARK SMILES IDX 12 27 13 28 14 29 75 30 15 31 74 32 16 33 17 34 18 35 68 36
REMARK SMILES IDX 19 37 73 38 67 39 69 40 20 41 72 42 66 43 65 44 21 46 53 47
REMARK SMILES IDX 33 48 52 49 34 50 37 51 51 52 70 53 35 54 36 55 50 57 71 58
REMARK SMILES IDX 38 59 22 60 23 61 31 62 24 63 30 64 32 65 29 66 25 67 26 68
REMARK SMILES IDX 27 69 28 70 54 71 55 72 63 73 56 74 62 75 64 76 61 77 57 78
REMARK SMILES IDX 58 79 59 80 60 81 39 82 40 83 48 84 41 85 47 86 49 87 46 88
REMARK SMILES IDX 42 89 43 90 44 91 45 92
REMARK H PARENT 3 12 3 13 79 19 69 45 37 56
REMARK Flexibility Score: inf
ROOT
ATOM      1  C   UNL A   1      37.390  20.442  24.810  1.00  0.00     0.275 C 
ENDROOT
BRANCH   1   2
ATOM      2  C   UNL A   1      35.927  20.047  25.041  1.00  0.00     0.274 C 
BRANCH   2   3
ATOM      3  O   UNL A   1      35.167  21.076  25.706  1.00  0.00    -0.457 OA
BRANCH   3   4
ATOM      4  C   UNL A   1      34.326  21.815  24.933  1.00  0.00     0.368 C 
ATOM      5  O   UNL A   1      34.686  22.453  23.946  1.00  0.00    -0.245 OA
BRANCH   4   6
ATOM      6  C   UNL A   1      32.848  21.867  25.451  1.00  0.00     0.200 C 
ATOM      7  C   UNL A   1      32.804  22.765  26.700  1.00  0.00     0.087 C 
ATOM      8  C   UNL A   1      31.885  22.597  24.501  1.00  0.00     0.146 C 
ATOM      9  C   UNL A   1      31.391  23.321  26.797  1.00  0.00     0.072 C 
ATOM     10  C   UNL A   1      30.857  23.356  25.356  1.00  0.00     0.191 C 
BRANCH   6  11
ATOM     11  N   UNL A   1      32.469  20.439  25.649  1.00  0.00    -0.332 N 
ATOM     12  H   UNL A   1      33.195  20.009  26.222  1.00  0.00     0.347 HD
ATOM     13  H   UNL A   1      31.538  20.480  26.064  1.00  0.00     0.347 HD
BRANCH  11  14
ATOM     14  C   UNL A   1      32.300  19.602  24.469  1.00  0.00     0.257 C 
ATOM     15  C   UNL A   1      32.584  18.155  24.851  1.00  0.00     0.071 C 
ENDBRANCH  11  14
ENDBRANCH   6  11
BRANCH  10  16
ATOM     16  N   UNL A   1      30.458  24.650  24.820  1.00  0.00    -0.328 N 
ATOM     17  C   UNL A   1      30.052  25.780  25.642  1.00  0.00     0.294 C 
ATOM     18  C   UNL A   1      30.952  25.042  23.510  1.00  0.00     0.294 C 
ATOM     19  H   UNL A   1      29.541  24.212  24.731  1.00  0.00     0.348 HD
ATOM     20  C   UNL A   1      30.956  27.036  25.581  1.00  0.00     0.170 C 
ATOM     21  C   UNL A   1      31.918  26.246  23.486  1.00  0.00     0.170 C 
ATOM     22  C   UNL A   1      32.049  27.026  26.635  1.00  0.00     0.045 C 
ATOM     23  O   UNL A   1      31.469  27.352  24.278  1.00  0.00    -0.364 OA
ATOM     24  C   UNL A   1      33.385  25.914  23.741  1.00  0.00     0.045 C 
ENDBRANCH  10  16
ENDBRANCH   4   6
ENDBRANCH   3   4
ENDBRANCH   2   3
ENDBRANCH   1   2
BRANCH   1  25
ATOM     25  O   UNL A   1      37.834  21.469  25.716  1.00  0.00    -0.458 OA
BRANCH  25  26
ATOM     26  C   UNL A   1      39.107  21.321  26.130  1.00  0.00     0.338 C 
ATOM     27  O   UNL A   1      39.808  20.326  25.993  1.00  0.00    -0.246 OA
BRANCH  26  28
ATOM     28  C   UNL A   1      39.643  22.536  26.734  1.00  0.00     0.060 A 
ATOM     29  C   UNL A   1      39.256  23.761  26.183  1.00  0.00     0.016 A 
ATOM     30  C   UNL A   1      40.654  22.465  27.692  1.00  0.00     0.016 A 
ATOM     31  C   UNL A   1      39.906  24.928  26.560  1.00  0.00     0.010 A 
ATOM     32  C   UNL A   1      41.287  23.642  28.092  1.00  0.00     0.010 A 
ATOM     33  C   UNL A   1      40.924  24.874  27.519  1.00  0.00    -0.014 A 
BRANCH  33  34
ATOM     34  C   UNL A   1      41.594  26.117  27.953  1.00  0.00     0.031 A 
ATOM     35  C   UNL A   1      40.830  27.163  28.706  1.00  0.00     0.074 A 
ATOM     36  C   UNL A   1      42.887  26.292  27.630  1.00  0.00     0.049 A 
ATOM     37  N   UNL A   1      41.186  28.380  29.017  1.00  0.00    -0.248 NA
ATOM     38  C   UNL A   1      39.483  26.790  29.162  1.00  0.00     0.031 C 
ATOM     39  C   UNL A   1      43.723  25.303  26.944  1.00  0.00     0.029 A 
ATOM     40  N   UNL A   1      43.717  27.365  27.813  1.00  0.00    -0.354 N 
ATOM     41  C   UNL A   1      40.103  28.933  29.691  1.00  0.00     0.074 A 
ATOM     42  C   UNL A   1      39.071  27.915  29.728  1.00  0.00     0.031 C 
ATOM     43  C   UNL A   1      44.941  25.824  26.745  1.00  0.00     0.029 A 
ATOM     44  C   UNL A   1      44.950  27.200  27.230  1.00  0.00     0.049 A 
ATOM     45  H   UNL A   1      43.457  28.172  28.313  1.00  0.00     0.167 HD
ATOM     46  C   UNL A   1      39.988  30.179  30.216  1.00  0.00     0.034 A 
ATOM     47  C   UNL A   1      45.954  28.079  27.058  1.00  0.00     0.034 A 
ATOM     48  C   UNL A   1      41.036  31.169  30.145  1.00  0.00     0.049 A 
ATOM     49  C   UNL A   1      45.780  29.476  27.587  1.00  0.00     0.074 A 
ATOM     50  C   UNL A   1      41.039  32.466  30.629  1.00  0.00     0.029 A 
ATOM     51  N   UNL A   1      42.274  30.973  29.539  1.00  0.00    -0.354 N 
ATOM     52  N   UNL A   1      44.739  30.003  28.191  1.00  0.00    -0.248 NA
ATOM     53  C   UNL A   1      46.910  30.393  27.414  1.00  0.00     0.031 C 
ATOM     54  C   UNL A   1      42.251  33.069  30.270  1.00  0.00     0.029 A 
ATOM     55  C   UNL A   1      43.036  32.129  29.617  1.00  0.00     0.049 A 
ATOM     56  H   UNL A   1      42.566  30.134  29.116  1.00  0.00     0.167 HD
ATOM     57  C   UNL A   1      45.100  31.311  28.493  1.00  0.00     0.074 A 
ATOM     58  C   UNL A   1      46.457  31.487  28.010  1.00  0.00     0.031 C 
ATOM     59  C   UNL A   1      44.382  32.279  29.116  1.00  0.00     0.034 A 
BRANCH  46  60
ATOM     60  C   UNL A   1      38.666  30.549  30.844  1.00  0.00     0.023 A 
ATOM     61  C   UNL A   1      37.640  31.171  30.110  1.00  0.00     0.031 A 
ATOM     62  C   UNL A   1      38.441  30.306  32.211  1.00  0.00     0.131 A 
ATOM     63  C   UNL A   1      36.466  31.585  30.759  1.00  0.00     0.055 A 
ATOM     64  C   UNL A   1      37.242  30.656  32.836  1.00  0.00     0.041 A 
ATOM     65  F   UNL A   1      39.391  29.736  32.969  1.00  0.00    -0.206 F 
ATOM     66  C   UNL A   1      36.251  31.312  32.112  1.00  0.00     0.022 A 
BRANCH  63  67
ATOM     67  S   UNL A   1      35.278  32.605  29.843  1.00  0.00     0.124 S 
ATOM     68  O   UNL A   1      36.128  33.693  29.364  1.00  0.00    -0.237 OA
ATOM     69  O   UNL A   1      34.789  31.682  28.825  1.00  0.00    -0.237 OA
ATOM     70  O   UNL A   1      34.300  32.989  30.858  1.00  0.00    -0.744 OA
ENDBRANCH  63  67
ENDBRANCH  46  60
BRANCH  47  71
ATOM     71  C   UNL A   1      47.174  27.677  26.308  1.00  0.00     0.023 A 
ATOM     72  C   UNL A   1      47.278  27.889  24.927  1.00  0.00     0.031 A 
ATOM     73  C   UNL A   1      48.259  27.074  26.971  1.00  0.00     0.131 A 
ATOM     74  C   UNL A   1      48.432  27.476  24.244  1.00  0.00     0.055 A 
ATOM     75  C   UNL A   1      49.423  26.706  26.295  1.00  0.00     0.041 A 
ATOM     76  F   UNL A   1      48.211  26.857  28.296  1.00  0.00    -0.206 F 
ATOM     77  C   UNL A   1      49.510  26.898  24.920  1.00  0.00     0.022 A 
BRANCH  74  78
ATOM     78  S   UNL A   1      48.482  27.652  22.440  1.00  0.00     0.124 S 
ATOM     79  O   UNL A   1      49.695  28.438  22.250  1.00  0.00    -0.237 OA
ATOM     80  O   UNL A   1      48.542  26.261  22.003  1.00  0.00    -0.237 OA
ATOM     81  O   UNL A   1      47.233  28.345  22.131  1.00  0.00    -0.744 OA
ENDBRANCH  74  78
ENDBRANCH  47  71
BRANCH  59  82
ATOM     82  C   UNL A   1      45.084  33.589  29.349  1.00  0.00     0.023 A 
ATOM     83  C   UNL A   1      45.866  33.814  30.496  1.00  0.00     0.031 A 
ATOM     84  C   UNL A   1      44.944  34.636  28.421  1.00  0.00     0.131 A 
ATOM     85  C   UNL A   1      46.435  35.077  30.711  1.00  0.00     0.055 A 
ATOM     86  C   UNL A   1      45.557  35.873  28.616  1.00  0.00     0.041 A 
ATOM     87  F   UNL A   1      44.207  34.470  27.313  1.00  0.00    -0.206 F 
ATOM     88  C   UNL A   1      46.297  36.104  29.773  1.00  0.00     0.022 A 
BRANCH  85  89
ATOM     89  S   UNL A   1      47.295  35.389  32.278  1.00  0.00     0.124 S 
ATOM     90  O   UNL A   1      48.680  35.530  31.840  1.00  0.00    -0.237 OA
ATOM     91  O   UNL A   1      46.649  36.609  32.753  1.00  0.00    -0.237 OA
ATOM     92  O   UNL A   1      47.012  34.192  33.068  1.00  0.00    -0.744 OA
ENDBRANCH  85  89
ENDBRANCH  59  82
ENDBRANCH  33  34
ENDBRANCH  26  28
ENDBRANCH  25  26
ENDBRANCH   1  25
TORSDOF 17
ENDMDL
MODEL 3
REMARK VINA RESULT:     -11.1      5.198     10.358
REMARK SMILES CC[NH2+][C@]1(C(=O)OCCOC(=O)c2ccc(-c3c4nc(c(-c5cc(S(=O)(=O)[O-])ccc5F)c5ccc([nH]5)c(-c5cc(S(=O)(=O)[O-])ccc5F)c5nc(c(-c6cc(S(=O)(=O)[O-])ccc6F)c6ccc3[nH]6)C=C5)C=C4)cc2)CC[C@@H]([N@H+]2C[C@@H](C)O[C@@H](C)C2)C1
REMARK SMILES IDX 9 1 8 2 7 3 5 4 6 5 4 6 76 7 87 8 77 9 78 10 3 11 2 14 1 15
REMARK SMILES IDX 79 16 80 17 86 18 81 20 84 21 82 22 83 23 85 24 10 25 11 26
REMARK SMILES IDX 12 27 13 28 14 29 75 30 15 31 74 32 16 33 17 34 18 35 68 36
REMARK SMILES IDX 19 37 73 38 67 39 69 40 20 41 72 42 66 43 65 44 21 46 53 47
REMARK SMILES IDX 33 48 52 49 34 50 37 51 51 52 70 53 35 54 36 55 50 57 71 58
REMARK SMILES IDX 38 59 22 60 23 61 31 62 24 63 30 64 32 65 29 66 25 67 26 68
REMARK SMILES IDX 27 69 28 70 54 71 55 72 63 73 56 74 62 75 64 76 61 77 57 78
REMARK SMILES IDX 58 79 59 80 60 81 39 82 40 83 48 84 41 85 47 86 49 87 46 88
REMARK SMILES IDX 42 89 43 90 44 91 45 92
REMARK H PARENT 3 12 3 13 79 19 69 45 37 56
REMARK Flexibility Score: inf
ROOT
ATOM      1  C   UNL A   1      31.541  31.165  26.335  1.00  0.00     0.275 C 
ENDROOT
BRANCH   1   2
ATOM      2  C   UNL A   1      31.077  30.347  25.125  1.00  0.00     0.274 C 
BRANCH   2   3
ATOM      3  O   UNL A   1      31.734  29.067  25.030  1.00  0.00    -0.457 OA
BRANCH   3   4
ATOM      4  C   UNL A   1      32.324  28.765  23.842  1.00  0.00     0.368 C 
ATOM      5  O   UNL A   1      33.330  29.330  23.414  1.00  0.00    -0.245 OA
BRANCH   4   6
ATOM      6  C   UNL A   1      31.567  27.686  22.997  1.00  0.00     0.200 C 
ATOM      7  C   UNL A   1      32.604  26.704  22.423  1.00  0.00     0.087 C 
ATOM      8  C   UNL A   1      30.678  26.753  23.837  1.00  0.00     0.146 C 
ATOM      9  C   UNL A   1      31.885  25.383  22.191  1.00  0.00     0.072 C 
ATOM     10  C   UNL A   1      30.736  25.350  23.211  1.00  0.00     0.191 C 
BRANCH   6  11
ATOM     11  N   UNL A   1      30.778  28.470  22.004  1.00  0.00    -0.332 N 
ATOM     12  H   UNL A   1      31.315  29.309  21.786  1.00  0.00     0.347 HD
ATOM     13  H   UNL A   1      30.629  27.822  21.231  1.00  0.00     0.347 HD
BRANCH  11  14
ATOM     14  C   UNL A   1      29.438  28.902  22.377  1.00  0.00     0.257 C 
ATOM     15  C   UNL A   1      29.194  30.291  21.801  1.00  0.00     0.071 C 
ENDBRANCH  11  14
ENDBRANCH   6  11
BRANCH  10  16
ATOM     16  N   UNL A   1      30.723  24.256  24.172  1.00  0.00    -0.328 N 
ATOM     17  C   UNL A   1      31.082  22.884  23.845  1.00  0.00     0.294 C 
ATOM     18  C   UNL A   1      30.875  24.567  25.583  1.00  0.00     0.294 C 
ATOM     19  H   UNL A   1      29.733  24.196  23.932  1.00  0.00     0.348 HD
ATOM     20  C   UNL A   1      32.331  22.311  24.558  1.00  0.00     0.170 C 
ATOM     21  C   UNL A   1      32.170  24.056  26.252  1.00  0.00     0.170 C 
ATOM     22  C   UNL A   1      33.612  22.533  23.773  1.00  0.00     0.045 C 
ATOM     23  O   UNL A   1      32.473  22.692  25.936  1.00  0.00    -0.364 OA
ATOM     24  C   UNL A   1      33.386  24.965  26.104  1.00  0.00     0.045 C 
ENDBRANCH  10  16
ENDBRANCH   4   6
ENDBRANCH   3   4
ENDBRANCH   2   3
ENDBRANCH   1   2
BRANCH   1  25
ATOM     25  O   UNL A   1      32.894  30.859  26.722  1.00  0.00    -0.458 OA
BRANCH  25  26
ATOM     26  C   UNL A   1      33.517  31.860  27.374  1.00  0.00     0.338 C 
ATOM     27  O   UNL A   1      33.059  32.971  27.615  1.00  0.00    -0.246 OA
BRANCH  26  28
ATOM     28  C   UNL A   1      34.835  31.472  27.864  1.00  0.00     0.060 A 
ATOM     29  C   UNL A   1      34.989  30.175  28.360  1.00  0.00     0.016 A 
ATOM     30  C   UNL A   1      35.844  32.424  28.011  1.00  0.00     0.016 A 
ATOM     31  C   UNL A   1      36.145  29.827  29.045  1.00  0.00     0.010 A 
ATOM     32  C   UNL A   1      37.018  32.065  28.673  1.00  0.00     0.010 A 
ATOM     33  C   UNL A   1      37.166  30.771  29.203  1.00  0.00    -0.014 A 
BRANCH  33  34
ATOM     34  C   UNL A   1      38.415  30.395  29.898  1.00  0.00     0.031 A 
ATOM     35  C   UNL A   1      39.347  29.394  29.287  1.00  0.00     0.074 A 
ATOM     36  C   UNL A   1      38.672  30.951  31.095  1.00  0.00     0.049 A 
ATOM     37  N   UNL A   1      40.391  28.811  29.813  1.00  0.00    -0.248 NA
ATOM     38  C   UNL A   1      39.062  28.992  27.902  1.00  0.00     0.031 C 
ATOM     39  C   UNL A   1      37.845  31.974  31.741  1.00  0.00     0.029 A 
ATOM     40  N   UNL A   1      39.682  30.721  31.989  1.00  0.00    -0.354 N 
ATOM     41  C   UNL A   1      40.882  27.954  28.834  1.00  0.00     0.074 A 
ATOM     42  C   UNL A   1      40.007  28.089  27.685  1.00  0.00     0.031 C 
ATOM     43  C   UNL A   1      38.371  32.268  32.938  1.00  0.00     0.029 A 
ATOM     44  C   UNL A   1      39.529  31.411  33.167  1.00  0.00     0.049 A 
ATOM     45  H   UNL A   1      40.443  30.123  31.806  1.00  0.00     0.167 HD
ATOM     46  C   UNL A   1      41.957  27.130  28.902  1.00  0.00     0.034 A 
ATOM     47  C   UNL A   1      40.213  31.320  34.322  1.00  0.00     0.034 A 
ATOM     48  C   UNL A   1      42.795  27.015  30.072  1.00  0.00     0.049 A 
ATOM     49  C   UNL A   1      41.359  30.349  34.400  1.00  0.00     0.074 A 
ATOM     50  C   UNL A   1      43.906  26.212  30.268  1.00  0.00     0.029 A 
ATOM     51  N   UNL A   1      42.608  27.723  31.255  1.00  0.00    -0.354 N 
ATOM     52  N   UNL A   1      41.796  29.517  33.482  1.00  0.00    -0.248 NA
ATOM     53  C   UNL A   1      42.104  30.307  35.662  1.00  0.00     0.031 C 
ATOM     54  C   UNL A   1      44.354  26.393  31.583  1.00  0.00     0.029 A 
ATOM     55  C   UNL A   1      43.565  27.359  32.190  1.00  0.00     0.049 A 
ATOM     56  H   UNL A   1      41.898  28.387  31.407  1.00  0.00     0.167 HD
ATOM     57  C   UNL A   1      42.885  28.867  34.051  1.00  0.00     0.074 A 
ATOM     58  C   UNL A   1      43.041  29.412  35.386  1.00  0.00     0.031 C 
ATOM     59  C   UNL A   1      43.689  27.911  33.519  1.00  0.00     0.034 A 
BRANCH  46  60
ATOM     60  C   UNL A   1      42.235  26.250  27.707  1.00  0.00     0.023 A 
ATOM     61  C   UNL A   1      41.723  24.943  27.609  1.00  0.00     0.031 A 
ATOM     62  C   UNL A   1      43.055  26.714  26.663  1.00  0.00     0.131 A 
ATOM     63  C   UNL A   1      42.088  24.127  26.526  1.00  0.00     0.055 A 
ATOM     64  C   UNL A   1      43.356  25.922  25.553  1.00  0.00     0.041 A 
ATOM     65  F   UNL A   1      43.591  27.944  26.711  1.00  0.00    -0.206 F 
ATOM     66  C   UNL A   1      42.883  24.615  25.487  1.00  0.00     0.022 A 
BRANCH  63  67
ATOM     67  S   UNL A   1      41.619  22.375  26.560  1.00  0.00     0.124 S 
ATOM     68  O   UNL A   1      42.200  21.936  27.826  1.00  0.00    -0.237 OA
ATOM     69  O   UNL A   1      40.163  22.438  26.513  1.00  0.00    -0.237 OA
ATOM     70  O   UNL A   1      42.259  21.825  25.366  1.00  0.00    -0.744 OA
ENDBRANCH  63  67
ENDBRANCH  46  60
BRANCH  47  71
ATOM     71  C   UNL A   1      39.793  32.124  35.501  1.00  0.00     0.023 A 
ATOM     72  C   UNL A   1      38.898  31.610  36.448  1.00  0.00     0.031 A 
ATOM     73  C   UNL A   1      40.289  33.427  35.695  1.00  0.00     0.131 A 
ATOM     74  C   UNL A   1      38.501  32.403  37.535  1.00  0.00     0.055 A 
ATOM     75  C   UNL A   1      39.928  34.195  36.802  1.00  0.00     0.041 A 
ATOM     76  F   UNL A   1      41.157  33.962  34.820  1.00  0.00    -0.206 F 
ATOM     77  C   UNL A   1      39.020  33.687  37.726  1.00  0.00     0.022 A 
BRANCH  74  78
ATOM     78  S   UNL A   1      37.247  31.753  38.671  1.00  0.00     0.124 S 
ATOM     79  O   UNL A   1      36.155  32.701  38.484  1.00  0.00    -0.237 OA
ATOM     80  O   UNL A   1      37.030  30.410  38.143  1.00  0.00    -0.237 OA
ATOM     81  O   UNL A   1      37.907  31.808  39.974  1.00  0.00    -0.744 OA
ENDBRANCH  74  78
ENDBRANCH  47  71
BRANCH  59  82
ATOM     82  C   UNL A   1      44.833  27.445  34.377  1.00  0.00     0.023 A 
ATOM     83  C   UNL A   1      44.711  26.336  35.232  1.00  0.00     0.031 A 
ATOM     84  C   UNL A   1      46.055  28.140  34.357  1.00  0.00     0.131 A 
ATOM     85  C   UNL A   1      45.777  25.986  36.073  1.00  0.00     0.055 A 
ATOM     86  C   UNL A   1      47.129  27.755  35.159  1.00  0.00     0.041 A 
ATOM     87  F   UNL A   1      46.220  29.207  33.560  1.00  0.00    -0.206 F 
ATOM     88  C   UNL A   1      46.990  26.680  36.033  1.00  0.00     0.022 A 
BRANCH  85  89
ATOM     89  S   UNL A   1      45.531  24.657  37.284  1.00  0.00     0.124 S 
ATOM     90  O   UNL A   1      45.185  23.527  36.428  1.00  0.00    -0.237 OA
ATOM     91  O   UNL A   1      46.834  24.586  37.940  1.00  0.00    -0.237 OA
ATOM     92  O   UNL A   1      44.444  25.157  38.124  1.00  0.00    -0.744 OA
ENDBRANCH  85  89
ENDBRANCH  59  82
ENDBRANCH  33  34
ENDBRANCH  26  28
ENDBRANCH  25  26
ENDBRANCH   1  25
TORSDOF 17
ENDMDL
