MODEL 1
REMARK VINA RESULT:     -11.3      0.000      0.000
REMARK SMILES O=C1CC[C@H](CNC(=O)N[C@@H]2C=C[C@@H](C(=O)OCCOC(=O)c3ccc(-c4c5nc(c(-c6cc(S(=O)(=O)[O-])ccc6F)c6ccc([nH]6)c(-c6cc(S(=O)(=O)[O-])ccc6F)c6nc(c(-c7cc(S(=O)(=O)[O-])ccc7F)c7ccc4[nH]7)C=C6)C=C5)cc3)C2)N1
REMARK SMILES IDX 18 1 17 2 15 3 16 4 14 5 11 6 12 7 86 8 13 9 10 10 7 11 8 12
REMARK SMILES IDX 9 14 6 16 5 17 1 18 2 19 3 20 87 21 4 22 19 24 20 25 21 26
REMARK SMILES IDX 22 27 23 28 24 29 85 30 25 31 84 32 26 33 27 34 28 35 78 36
REMARK SMILES IDX 29 37 83 38 77 39 79 40 30 41 82 42 76 43 75 44 31 46 63 47
REMARK SMILES IDX 43 48 62 49 44 50 47 51 61 52 80 53 45 54 46 55 60 57 81 58
REMARK SMILES IDX 48 59 32 60 33 61 41 62 34 63 40 64 42 65 39 66 35 67 36 68
REMARK SMILES IDX 37 69 38 70 64 71 65 72 73 73 66 74 72 75 74 76 71 77 67 78
REMARK SMILES IDX 68 79 69 80 70 81 49 82 50 83 58 84 51 85 57 86 59 87 56 88
REMARK SMILES IDX 52 89 53 90 54 91 55 92
REMARK H PARENT 7 13 10 15 87 23 79 45 47 56
REMARK Flexibility Score: inf
ROOT
ATOM      1  C   UNL A   1      31.464  29.039  24.612  1.00  0.00     0.274 C 
ENDROOT
BRANCH   1   2
ATOM      2  O   UNL A   1      31.420  27.735  25.217  1.00  0.00    -0.462 OA
BRANCH   2   3
ATOM      3  C   UNL A   1      32.300  26.792  24.794  1.00  0.00     0.312 C 
ATOM      4  O   UNL A   1      33.461  27.022  24.478  1.00  0.00    -0.252 OA
BRANCH   3   5
ATOM      5  C   UNL A   1      31.693  25.383  24.820  1.00  0.00     0.124 C 
ATOM      6  C   UNL A   1      32.491  23.248  25.814  1.00  0.00     0.107 C 
ATOM      7  C   UNL A   1      31.380  23.869  26.596  1.00  0.00    -0.006 C 
ATOM      8  C   UNL A   1      32.691  24.229  24.662  1.00  0.00     0.048 C 
ATOM      9  C   UNL A   1      30.981  25.043  26.089  1.00  0.00    -0.014 C 
BRANCH   6  10
ATOM     10  N   UNL A   1      32.124  21.928  25.359  1.00  0.00    -0.332 N 
ATOM     11  N   UNL A   1      33.917  20.516  26.032  1.00  0.00    -0.336 N 
ATOM     12  C   UNL A   1      32.703  20.719  25.488  1.00  0.00     0.315 C 
ATOM     13  H   UNL A   1      34.128  19.569  26.197  1.00  0.00     0.165 HD
ATOM     14  O   UNL A   1      32.080  19.736  25.084  1.00  0.00    -0.249 OA
ATOM     15  H   UNL A   1      31.281  21.907  24.851  1.00  0.00     0.165 HD
BRANCH  11  16
ATOM     16  C   UNL A   1      34.972  21.432  26.422  1.00  0.00     0.142 C 
BRANCH  16  17
ATOM     17  C   UNL A   1      36.206  21.460  25.507  1.00  0.00     0.101 C 
ATOM     18  O   UNL A   1      38.107  24.329  26.234  1.00  0.00    -0.275 OA
ATOM     19  C   UNL A   1      37.377  23.494  25.736  1.00  0.00     0.220 C 
ATOM     20  C   UNL A   1      36.418  23.691  24.588  1.00  0.00     0.102 C 
ATOM     21  N   UNL A   1      37.281  22.181  26.152  1.00  0.00    -0.352 N 
ATOM     22  C   UNL A   1      36.011  22.260  24.223  1.00  0.00     0.036 C 
ATOM     23  H   UNL A   1      37.883  21.778  26.818  1.00  0.00     0.163 HD
ENDBRANCH  16  17
ENDBRANCH  11  16
ENDBRANCH   6  10
ENDBRANCH   3   5
ENDBRANCH   2   3
ENDBRANCH   1   2
BRANCH   1  24
ATOM     24  C   UNL A   1      31.667  30.086  25.713  1.00  0.00     0.275 C 
BRANCH  24  25
ATOM     25  O   UNL A   1      33.064  30.196  26.065  1.00  0.00    -0.458 OA
BRANCH  25  26
ATOM     26  C   UNL A   1      33.353  31.171  26.957  1.00  0.00     0.338 C 
ATOM     27  O   UNL A   1      32.632  32.098  27.295  1.00  0.00    -0.246 OA
BRANCH  26  28
ATOM     28  C   UNL A   1      34.646  30.915  27.607  1.00  0.00     0.060 A 
ATOM     29  C   UNL A   1      34.869  29.645  28.144  1.00  0.00     0.016 A 
ATOM     30  C   UNL A   1      35.586  31.929  27.784  1.00  0.00     0.016 A 
ATOM     31  C   UNL A   1      36.024  29.378  28.869  1.00  0.00     0.010 A 
ATOM     32  C   UNL A   1      36.761  31.654  28.496  1.00  0.00     0.010 A 
ATOM     33  C   UNL A   1      36.986  30.378  29.045  1.00  0.00    -0.014 A 
BRANCH  33  34
ATOM     34  C   UNL A   1      38.227  30.067  29.792  1.00  0.00     0.031 A 
ATOM     35  C   UNL A   1      39.220  29.086  29.240  1.00  0.00     0.074 A 
ATOM     36  C   UNL A   1      38.461  30.693  30.962  1.00  0.00     0.049 A 
ATOM     37  N   UNL A   1      40.317  28.629  29.783  1.00  0.00    -0.248 NA
ATOM     38  C   UNL A   1      38.939  28.546  27.902  1.00  0.00     0.031 C 
ATOM     39  C   UNL A   1      37.584  31.699  31.567  1.00  0.00     0.029 A 
ATOM     40  N   UNL A   1      39.495  30.575  31.855  1.00  0.00    -0.354 N 
ATOM     41  C   UNL A   1      40.851  27.730  28.866  1.00  0.00     0.074 A 
ATOM     42  C   UNL A   1      39.947  27.701  27.735  1.00  0.00     0.031 C 
ATOM     43  C   UNL A   1      38.114  32.099  32.734  1.00  0.00     0.029 A 
ATOM     44  C   UNL A   1      39.333  31.339  32.987  1.00  0.00     0.049 A 
ATOM     45  H   UNL A   1      40.278  30.000  31.699  1.00  0.00     0.167 HD
ATOM     46  C   UNL A   1      41.988  26.999  28.969  1.00  0.00     0.034 A 
ATOM     47  C   UNL A   1      40.063  31.391  34.120  1.00  0.00     0.034 A 
ATOM     48  C   UNL A   1      42.881  27.055  30.101  1.00  0.00     0.049 A 
ATOM     49  C   UNL A   1      41.291  30.523  34.228  1.00  0.00     0.074 A 
ATOM     50  C   UNL A   1      44.075  26.381  30.291  1.00  0.00     0.029 A 
ATOM     51  N   UNL A   1      42.673  27.818  31.243  1.00  0.00    -0.354 N 
ATOM     52  N   UNL A   1      41.787  29.682  33.349  1.00  0.00    -0.248 NA
ATOM     53  C   UNL A   1      42.061  30.614  35.475  1.00  0.00     0.031 C 
ATOM     54  C   UNL A   1      44.554  26.684  31.570  1.00  0.00     0.029 A 
ATOM     55  C   UNL A   1      43.697  27.604  32.153  1.00  0.00     0.049 A 
ATOM     56  H   UNL A   1      41.910  28.424  31.385  1.00  0.00     0.167 HD
ATOM     57  C   UNL A   1      42.940  29.163  33.932  1.00  0.00     0.074 A 
ATOM     58  C   UNL A   1      43.074  29.800  35.225  1.00  0.00     0.031 C 
ATOM     59  C   UNL A   1      43.809  28.242  33.444  1.00  0.00     0.034 A 
BRANCH  46  60
ATOM     60  C   UNL A   1      42.302  26.032  27.855  1.00  0.00     0.023 A 
ATOM     61  C   UNL A   1      41.799  24.719  27.839  1.00  0.00     0.031 A 
ATOM     62  C   UNL A   1      43.118  26.441  26.784  1.00  0.00     0.131 A 
ATOM     63  C   UNL A   1      42.155  23.849  26.795  1.00  0.00     0.055 A 
ATOM     64  C   UNL A   1      43.414  25.591  25.717  1.00  0.00     0.041 A 
ATOM     65  F   UNL A   1      43.644  27.675  26.759  1.00  0.00    -0.206 F 
ATOM     66  C   UNL A   1      42.939  24.283  25.723  1.00  0.00     0.022 A 
BRANCH  63  67
ATOM     67  S   UNL A   1      41.662  22.107  26.906  1.00  0.00     0.124 S 
ATOM     68  O   UNL A   1      41.920  21.640  25.545  1.00  0.00    -0.237 OA
ATOM     69  O   UNL A   1      42.553  21.592  27.938  1.00  0.00    -0.237 OA
ATOM     70  O   UNL A   1      40.250  22.171  27.277  1.00  0.00    -0.744 OA
ENDBRANCH  63  67
ENDBRANCH  46  60
BRANCH  47  71
ATOM     71  C   UNL A   1      39.622  32.235  35.267  1.00  0.00     0.023 A 
ATOM     72  C   UNL A   1      38.899  31.690  36.339  1.00  0.00     0.031 A 
ATOM     73  C   UNL A   1      39.867  33.621  35.276  1.00  0.00     0.131 A 
ATOM     74  C   UNL A   1      38.399  32.532  37.345  1.00  0.00     0.055 A 
ATOM     75  C   UNL A   1      39.421  34.445  36.308  1.00  0.00     0.041 A 
ATOM     76  F   UNL A   1      40.554  34.195  34.274  1.00  0.00    -0.206 F 
ATOM     77  C   UNL A   1      38.666  33.903  37.343  1.00  0.00     0.022 A 
BRANCH  74  78
ATOM     78  S   UNL A   1      37.297  31.824  38.601  1.00  0.00     0.124 S 
ATOM     79  O   UNL A   1      36.141  32.708  38.514  1.00  0.00    -0.237 OA
ATOM     80  O   UNL A   1      37.106  30.467  38.102  1.00  0.00    -0.237 OA
ATOM     81  O   UNL A   1      38.076  31.931  39.833  1.00  0.00    -0.744 OA
ENDBRANCH  74  78
ENDBRANCH  47  71
BRANCH  59  82
ATOM     82  C   UNL A   1      45.003  27.912  34.303  1.00  0.00     0.023 A 
ATOM     83  C   UNL A   1      44.970  26.865  35.241  1.00  0.00     0.031 A 
ATOM     84  C   UNL A   1      46.182  28.669  34.194  1.00  0.00     0.131 A 
ATOM     85  C   UNL A   1      46.077  26.638  36.072  1.00  0.00     0.055 A 
ATOM     86  C   UNL A   1      47.301  28.402  34.985  1.00  0.00     0.041 A 
ATOM     87  F   UNL A   1      46.266  29.681  33.317  1.00  0.00    -0.206 F 
ATOM     88  C   UNL A   1      47.248  27.389  35.938  1.00  0.00     0.022 A 
BRANCH  85  89
ATOM     89  S   UNL A   1      45.939  25.399  37.389  1.00  0.00     0.124 S 
ATOM     90  O   UNL A   1      44.622  24.826  37.129  1.00  0.00    -0.237 OA
ATOM     91  O   UNL A   1      47.078  24.527  37.119  1.00  0.00    -0.237 OA
ATOM     92  O   UNL A   1      46.041  26.188  38.615  1.00  0.00    -0.744 OA
ENDBRANCH  85  89
ENDBRANCH  59  82
ENDBRANCH  33  34
ENDBRANCH  26  28
ENDBRANCH  25  26
ENDBRANCH  24  25
ENDBRANCH   1  24
TORSDOF 17
ENDMDL
MODEL 2
REMARK VINA RESULT:     -11.2      5.212      7.739
REMARK SMILES O=C1CC[C@H](CNC(=O)N[C@@H]2C=C[C@@H](C(=O)OCCOC(=O)c3ccc(-c4c5nc(c(-c6cc(S(=O)(=O)[O-])ccc6F)c6ccc([nH]6)c(-c6cc(S(=O)(=O)[O-])ccc6F)c6nc(c(-c7cc(S(=O)(=O)[O-])ccc7F)c7ccc4[nH]7)C=C6)C=C5)cc3)C2)N1
REMARK SMILES IDX 18 1 17 2 15 3 16 4 14 5 11 6 12 7 86 8 13 9 10 10 7 11 8 12
REMARK SMILES IDX 9 14 6 16 5 17 1 18 2 19 3 20 87 21 4 22 19 24 20 25 21 26
REMARK SMILES IDX 22 27 23 28 24 29 85 30 25 31 84 32 26 33 27 34 28 35 78 36
REMARK SMILES IDX 29 37 83 38 77 39 79 40 30 41 82 42 76 43 75 44 31 46 63 47
REMARK SMILES IDX 43 48 62 49 44 50 47 51 61 52 80 53 45 54 46 55 60 57 81 58
REMARK SMILES IDX 48 59 32 60 33 61 41 62 34 63 40 64 42 65 39 66 35 67 36 68
REMARK SMILES IDX 37 69 38 70 64 71 65 72 73 73 66 74 72 75 74 76 71 77 67 78
REMARK SMILES IDX 68 79 69 80 70 81 49 82 50 83 58 84 51 85 57 86 59 87 56 88
REMARK SMILES IDX 52 89 53 90 54 91 55 92
REMARK H PARENT 7 13 10 15 87 23 79 45 47 56
REMARK Flexibility Score: inf
ROOT
ATOM      1  C   UNL A   1      35.753  19.894  24.995  1.00  0.00     0.274 C 
ENDROOT
BRANCH   1   2
ATOM      2  O   UNL A   1      35.060  20.943  25.691  1.00  0.00    -0.462 OA
BRANCH   2   3
ATOM      3  C   UNL A   1      33.924  21.447  25.143  1.00  0.00     0.312 C 
ATOM      4  O   UNL A   1      32.806  21.310  25.622  1.00  0.00    -0.252 OA
BRANCH   3   5
ATOM      5  C   UNL A   1      34.210  22.271  23.880  1.00  0.00     0.124 C 
ATOM      6  C   UNL A   1      32.933  24.087  22.758  1.00  0.00     0.107 C 
ATOM      7  C   UNL A   1      34.126  24.593  23.501  1.00  0.00    -0.006 C 
ATOM      8  C   UNL A   1      32.990  22.581  23.003  1.00  0.00     0.048 C 
ATOM      9  C   UNL A   1      34.787  23.624  24.146  1.00  0.00    -0.014 C 
BRANCH   6  10
ATOM     10  N   UNL A   1      33.019  24.423  21.357  1.00  0.00    -0.332 N 
ATOM     11  N   UNL A   1      31.858  26.488  21.139  1.00  0.00    -0.336 N 
ATOM     12  C   UNL A   1      32.605  25.485  20.641  1.00  0.00     0.315 C 
ATOM     13  H   UNL A   1      31.773  27.262  20.536  1.00  0.00     0.165 HD
ATOM     14  O   UNL A   1      32.932  25.543  19.455  1.00  0.00    -0.249 OA
ATOM     15  H   UNL A   1      33.471  23.736  20.815  1.00  0.00     0.165 HD
BRANCH  11  16
ATOM     16  C   UNL A   1      31.156  26.643  22.398  1.00  0.00     0.142 C 
BRANCH  16  17
ATOM     17  C   UNL A   1      31.378  27.977  23.129  1.00  0.00     0.101 C 
ATOM     18  O   UNL A   1      34.017  27.600  25.424  1.00  0.00    -0.275 OA
ATOM     19  C   UNL A   1      32.937  27.726  24.881  1.00  0.00     0.220 C 
ATOM     20  C   UNL A   1      31.576  27.518  25.499  1.00  0.00     0.102 C 
ATOM     21  N   UNL A   1      32.756  28.079  23.559  1.00  0.00    -0.352 N 
ATOM     22  C   UNL A   1      30.623  28.096  24.449  1.00  0.00     0.036 C 
ATOM     23  H   UNL A   1      33.487  28.371  22.969  1.00  0.00     0.163 HD
ENDBRANCH  16  17
ENDBRANCH  11  16
ENDBRANCH   6  10
ENDBRANCH   3   5
ENDBRANCH   2   3
ENDBRANCH   1   2
BRANCH   1  24
ATOM     24  C   UNL A   1      37.198  20.342  24.742  1.00  0.00     0.275 C 
BRANCH  24  25
ATOM     25  O   UNL A   1      37.650  21.228  25.790  1.00  0.00    -0.458 OA
BRANCH  25  26
ATOM     26  C   UNL A   1      38.946  21.073  26.147  1.00  0.00     0.338 C 
ATOM     27  O   UNL A   1      39.617  20.055  26.064  1.00  0.00    -0.246 OA
BRANCH  26  28
ATOM     28  C   UNL A   1      39.532  22.359  26.552  1.00  0.00     0.060 A 
ATOM     29  C   UNL A   1      39.032  23.521  25.961  1.00  0.00     0.016 A 
ATOM     30  C   UNL A   1      40.624  22.422  27.416  1.00  0.00     0.016 A 
ATOM     31  C   UNL A   1      39.620  24.753  26.218  1.00  0.00     0.010 A 
ATOM     32  C   UNL A   1      41.204  23.667  27.693  1.00  0.00     0.010 A 
ATOM     33  C   UNL A   1      40.707  24.839  27.093  1.00  0.00    -0.014 A 
BRANCH  33  34
ATOM     34  C   UNL A   1      41.303  26.166  27.382  1.00  0.00     0.031 A 
ATOM     35  C   UNL A   1      42.666  26.515  26.859  1.00  0.00     0.074 A 
ATOM     36  C   UNL A   1      40.595  27.059  28.100  1.00  0.00     0.049 A 
ATOM     37  N   UNL A   1      43.381  27.587  27.072  1.00  0.00    -0.248 NA
ATOM     38  C   UNL A   1      43.310  25.525  25.983  1.00  0.00     0.031 C 
ATOM     39  C   UNL A   1      39.243  26.839  28.617  1.00  0.00     0.029 A 
ATOM     40  N   UNL A   1      40.912  28.323  28.527  1.00  0.00    -0.354 N 
ATOM     41  C   UNL A   1      44.570  27.398  26.377  1.00  0.00     0.074 A 
ATOM     42  C   UNL A   1      44.482  26.098  25.744  1.00  0.00     0.031 C 
ATOM     43  C   UNL A   1      38.851  27.927  29.298  1.00  0.00     0.029 A 
ATOM     44  C   UNL A   1      39.941  28.896  29.315  1.00  0.00     0.049 A 
ATOM     45  H   UNL A   1      41.753  28.777  28.292  1.00  0.00     0.167 HD
ATOM     46  C   UNL A   1      45.634  28.234  26.284  1.00  0.00     0.034 A 
ATOM     47  C   UNL A   1      39.946  30.053  30.007  1.00  0.00     0.034 A 
ATOM     48  C   UNL A   1      45.695  29.530  26.914  1.00  0.00     0.049 A 
ATOM     49  C   UNL A   1      41.166  30.935  29.931  1.00  0.00     0.074 A 
ATOM     50  C   UNL A   1      46.711  30.469  26.858  1.00  0.00     0.029 A 
ATOM     51  N   UNL A   1      44.705  30.069  27.728  1.00  0.00    -0.354 N 
ATOM     52  N   UNL A   1      42.282  30.744  29.265  1.00  0.00    -0.248 NA
ATOM     53  C   UNL A   1      41.127  32.189  30.695  1.00  0.00     0.031 C 
ATOM     54  C   UNL A   1      46.366  31.542  27.687  1.00  0.00     0.029 A 
ATOM     55  C   UNL A   1      45.102  31.308  28.206  1.00  0.00     0.049 A 
ATOM     56  H   UNL A   1      43.846  29.633  27.935  1.00  0.00     0.167 HD
ATOM     57  C   UNL A   1      43.066  31.868  29.512  1.00  0.00     0.074 A 
ATOM     58  C   UNL A   1      42.288  32.736  30.371  1.00  0.00     0.031 C 
ATOM     59  C   UNL A   1      44.317  32.156  29.071  1.00  0.00     0.034 A 
BRANCH  46  60
ATOM     60  C   UNL A   1      46.843  27.748  25.524  1.00  0.00     0.023 A 
ATOM     61  C   UNL A   1      47.043  28.047  24.165  1.00  0.00     0.031 A 
ATOM     62  C   UNL A   1      47.817  26.974  26.182  1.00  0.00     0.131 A 
ATOM     63  C   UNL A   1      48.169  27.536  23.498  1.00  0.00     0.055 A 
ATOM     64  C   UNL A   1      48.965  26.525  25.529  1.00  0.00     0.041 A 
ATOM     65  F   UNL A   1      47.665  26.640  27.473  1.00  0.00    -0.206 F 
ATOM     66  C   UNL A   1      49.142  26.797  24.176  1.00  0.00     0.022 A 
BRANCH  63  67
ATOM     67  S   UNL A   1      48.296  27.763  21.703  1.00  0.00     0.124 S 
ATOM     68  O   UNL A   1      49.389  28.729  21.604  1.00  0.00    -0.237 OA
ATOM     69  O   UNL A   1      48.591  26.415  21.234  1.00  0.00    -0.237 OA
ATOM     70  O   UNL A   1      46.982  28.281  21.327  1.00  0.00    -0.744 OA
ENDBRANCH  63  67
ENDBRANCH  46  60
BRANCH  47  71
ATOM     71  C   UNL A   1      38.797  30.415  30.886  1.00  0.00     0.023 A 
ATOM     72  C   UNL A   1      37.675  31.089  30.380  1.00  0.00     0.031 A 
ATOM     73  C   UNL A   1      38.834  30.142  32.266  1.00  0.00     0.131 A 
ATOM     74  C   UNL A   1      36.663  31.517  31.255  1.00  0.00     0.055 A 
ATOM     75  C   UNL A   1      37.798  30.516  33.122  1.00  0.00     0.041 A 
ATOM     76  F   UNL A   1      39.884  29.500  32.804  1.00  0.00    -0.206 F 
ATOM     77  C   UNL A   1      36.712  31.224  32.620  1.00  0.00     0.022 A 
BRANCH  74  78
ATOM     78  S   UNL A   1      35.334  32.562  30.598  1.00  0.00     0.124 S 
ATOM     79  O   UNL A   1      36.029  33.825  30.379  1.00  0.00    -0.237 OA
ATOM     80  O   UNL A   1      34.940  31.830  29.400  1.00  0.00    -0.237 OA
ATOM     81  O   UNL A   1      34.346  32.570  31.676  1.00  0.00    -0.744 OA
ENDBRANCH  74  78
ENDBRANCH  47  71
BRANCH  59  82
ATOM     82  C   UNL A   1      44.891  33.489  29.480  1.00  0.00     0.023 A 
ATOM     83  C   UNL A   1      44.695  34.646  28.706  1.00  0.00     0.031 A 
ATOM     84  C   UNL A   1      45.662  33.596  30.651  1.00  0.00     0.131 A 
ATOM     85  C   UNL A   1      45.307  35.850  29.084  1.00  0.00     0.055 A 
ATOM     86  C   UNL A   1      46.222  34.809  31.052  1.00  0.00     0.041 A 
ATOM     87  F   UNL A   1      45.882  32.521  31.425  1.00  0.00    -0.206 F 
ATOM     88  C   UNL A   1      46.056  35.942  30.261  1.00  0.00     0.022 A 
BRANCH  85  89
ATOM     89  S   UNL A   1      45.181  37.278  27.974  1.00  0.00     0.124 S 
ATOM     90  O   UNL A   1      46.364  37.114  27.134  1.00  0.00    -0.237 OA
ATOM     91  O   UNL A   1      43.897  37.051  27.317  1.00  0.00    -0.237 OA
ATOM     92  O   UNL A   1      45.218  38.423  28.881  1.00  0.00    -0.744 OA
ENDBRANCH  85  89
ENDBRANCH  59  82
ENDBRANCH  33  34
ENDBRANCH  26  28
ENDBRANCH  25  26
ENDBRANCH  24  25
ENDBRANCH   1  24
TORSDOF 17
ENDMDL
MODEL 3
REMARK VINA RESULT:     -11.0      2.576      3.777
REMARK SMILES O=C1CC[C@H](CNC(=O)N[C@@H]2C=C[C@@H](C(=O)OCCOC(=O)c3ccc(-c4c5nc(c(-c6cc(S(=O)(=O)[O-])ccc6F)c6ccc([nH]6)c(-c6cc(S(=O)(=O)[O-])ccc6F)c6nc(c(-c7cc(S(=O)(=O)[O-])ccc7F)c7ccc4[nH]7)C=C6)C=C5)cc3)C2)N1
REMARK SMILES IDX 18 1 17 2 15 3 16 4 14 5 11 6 12 7 86 8 13 9 10 10 7 11 8 12
REMARK SMILES IDX 9 14 6 16 5 17 1 18 2 19 3 20 87 21 4 22 19 24 20 25 21 26
REMARK SMILES IDX 22 27 23 28 24 29 85 30 25 31 84 32 26 33 27 34 28 35 78 36
REMARK SMILES IDX 29 37 83 38 77 39 79 40 30 41 82 42 76 43 75 44 31 46 63 47
REMARK SMILES IDX 43 48 62 49 44 50 47 51 61 52 80 53 45 54 46 55 60 57 81 58
REMARK SMILES IDX 48 59 32 60 33 61 41 62 34 63 40 64 42 65 39 66 35 67 36 68
REMARK SMILES IDX 37 69 38 70 64 71 65 72 73 73 66 74 72 75 74 76 71 77 67 78
REMARK SMILES IDX 68 79 69 80 70 81 49 82 50 83 58 84 51 85 57 86 59 87 56 88
REMARK SMILES IDX 52 89 53 90 54 91 55 92
REMARK H PARENT 7 13 10 15 87 23 79 45 47 56
REMARK Flexibility Score: inf
ROOT
ATOM      1  C   UNL A   1      32.891  31.732  27.309  1.00  0.00     0.274 C 
ENDROOT
BRANCH   1   2
ATOM      2  O   UNL A   1      31.799  30.902  26.876  1.00  0.00    -0.462 OA
BRANCH   2   3
ATOM      3  C   UNL A   1      32.010  29.568  26.744  1.00  0.00     0.312 C 
ATOM      4  O   UNL A   1      31.917  28.759  27.660  1.00  0.00    -0.252 OA
BRANCH   3   5
ATOM      5  C   UNL A   1      32.317  29.172  25.294  1.00  0.00     0.124 C 
ATOM      6  C   UNL A   1      31.836  27.104  23.999  1.00  0.00     0.107 C 
ATOM      7  C   UNL A   1      30.942  28.241  23.624  1.00  0.00    -0.006 C 
ATOM      8  C   UNL A   1      32.728  27.711  25.079  1.00  0.00     0.048 C 
ATOM      9  C   UNL A   1      31.167  29.341  24.354  1.00  0.00    -0.014 C 
BRANCH   6  10
ATOM     10  N   UNL A   1      32.588  26.643  22.855  1.00  0.00    -0.332 N 
ATOM     11  N   UNL A   1      31.670  24.513  22.324  1.00  0.00    -0.336 N 
ATOM     12  C   UNL A   1      32.498  25.546  22.081  1.00  0.00     0.315 C 
ATOM     13  H   UNL A   1      31.609  23.865  21.585  1.00  0.00     0.165 HD
ATOM     14  O   UNL A   1      33.220  25.483  21.084  1.00  0.00    -0.249 OA
ATOM     15  H   UNL A   1      33.313  27.253  22.589  1.00  0.00     0.165 HD
BRANCH  11  16
ATOM     16  C   UNL A   1      30.849  24.176  23.472  1.00  0.00     0.142 C 
BRANCH  16  17
ATOM     17  C   UNL A   1      31.469  23.186  24.471  1.00  0.00     0.101 C 
ATOM     18  O   UNL A   1      29.695  23.359  27.503  1.00  0.00    -0.275 OA
ATOM     19  C   UNL A   1      30.517  23.447  26.613  1.00  0.00     0.220 C 
ATOM     20  C   UNL A   1      31.745  24.324  26.591  1.00  0.00     0.102 C 
ATOM     21  N   UNL A   1      30.467  22.754  25.421  1.00  0.00    -0.352 N 
ATOM     22  C   UNL A   1      32.526  23.802  25.382  1.00  0.00     0.036 C 
ATOM     23  H   UNL A   1      29.818  22.038  25.236  1.00  0.00     0.163 HD
ENDBRANCH  16  17
ENDBRANCH  11  16
ENDBRANCH   6  10
ENDBRANCH   3   5
ENDBRANCH   2   3
ENDBRANCH   1   2
BRANCH   1  24
ATOM     24  C   UNL A   1      32.454  33.200  27.234  1.00  0.00     0.275 C 
BRANCH  24  25
ATOM     25  O   UNL A   1      32.376  33.779  28.555  1.00  0.00    -0.458 OA
BRANCH  25  26
ATOM     26  C   UNL A   1      33.314  34.717  28.822  1.00  0.00     0.338 C 
ATOM     27  O   UNL A   1      33.193  35.929  28.723  1.00  0.00    -0.246 OA
BRANCH  26  28
ATOM     28  C   UNL A   1      34.519  34.101  29.394  1.00  0.00     0.060 A 
ATOM     29  C   UNL A   1      34.358  33.212  30.459  1.00  0.00     0.016 A 
ATOM     30  C   UNL A   1      35.796  34.464  28.968  1.00  0.00     0.016 A 
ATOM     31  C   UNL A   1      35.465  32.687  31.114  1.00  0.00     0.010 A 
ATOM     32  C   UNL A   1      36.913  33.917  29.613  1.00  0.00     0.010 A 
ATOM     33  C   UNL A   1      36.753  33.027  30.692  1.00  0.00    -0.014 A 
BRANCH  33  34
ATOM     34  C   UNL A   1      37.923  32.432  31.380  1.00  0.00     0.031 A 
ATOM     35  C   UNL A   1      38.714  31.338  30.724  1.00  0.00     0.074 A 
ATOM     36  C   UNL A   1      38.279  32.902  32.592  1.00  0.00     0.049 A 
ATOM     37  N   UNL A   1      39.713  30.643  31.199  1.00  0.00    -0.248 NA
ATOM     38  C   UNL A   1      38.326  30.975  29.352  1.00  0.00     0.031 C 
ATOM     39  C   UNL A   1      37.607  33.994  33.300  1.00  0.00     0.029 A 
ATOM     40  N   UNL A   1      39.282  32.521  33.445  1.00  0.00    -0.354 N 
ATOM     41  C   UNL A   1      40.064  29.745  30.198  1.00  0.00     0.074 A 
ATOM     42  C   UNL A   1      39.160  29.978  29.091  1.00  0.00     0.031 C 
ATOM     43  C   UNL A   1      38.213  34.189  34.482  1.00  0.00     0.029 A 
ATOM     44  C   UNL A   1      39.274  33.201  34.641  1.00  0.00     0.049 A 
ATOM     45  H   UNL A   1      39.945  31.827  33.223  1.00  0.00     0.167 HD
ATOM     46  C   UNL A   1      41.049  28.812  30.211  1.00  0.00     0.034 A 
ATOM     47  C   UNL A   1      40.011  33.020  35.755  1.00  0.00     0.034 A 
ATOM     48  C   UNL A   1      41.947  28.606  31.322  1.00  0.00     0.049 A 
ATOM     49  C   UNL A   1      41.060  31.937  35.761  1.00  0.00     0.074 A 
ATOM     50  C   UNL A   1      42.998  27.712  31.425  1.00  0.00     0.029 A 
ATOM     51  N   UNL A   1      41.894  29.294  32.528  1.00  0.00    -0.354 N 
ATOM     52  N   UNL A   1      41.384  31.098  34.803  1.00  0.00    -0.248 NA
ATOM     53  C   UNL A   1      41.844  31.779  36.991  1.00  0.00     0.031 C 
ATOM     54  C   UNL A   1      43.537  27.811  32.713  1.00  0.00     0.029 A 
ATOM     55  C   UNL A   1      42.869  28.819  33.391  1.00  0.00     0.049 A 
ATOM     56  H   UNL A   1      41.256  30.014  32.739  1.00  0.00     0.167 HD
ATOM     57  C   UNL A   1      42.427  30.330  35.311  1.00  0.00     0.074 A 
ATOM     58  C   UNL A   1      42.689  30.818  36.650  1.00  0.00     0.031 C 
ATOM     59  C   UNL A   1      43.108  29.311  34.727  1.00  0.00     0.034 A 
BRANCH  46  60
ATOM     60  C   UNL A   1      41.169  27.903  29.013  1.00  0.00     0.023 A 
ATOM     61  C   UNL A   1      42.167  28.075  28.039  1.00  0.00     0.031 A 
ATOM     62  C   UNL A   1      40.264  26.838  28.853  1.00  0.00     0.131 A 
ATOM     63  C   UNL A   1      42.207  27.221  26.925  1.00  0.00     0.055 A 
ATOM     64  C   UNL A   1      40.350  25.953  27.777  1.00  0.00     0.041 A 
ATOM     65  F   UNL A   1      39.277  26.640  29.741  1.00  0.00    -0.206 F 
ATOM     66  C   UNL A   1      41.321  26.148  26.799  1.00  0.00     0.022 A 
BRANCH  63  67
ATOM     67  S   UNL A   1      43.372  27.591  25.584  1.00  0.00     0.124 S 
ATOM     68  O   UNL A   1      42.466  27.804  24.456  1.00  0.00    -0.237 OA
ATOM     69  O   UNL A   1      44.062  28.775  26.082  1.00  0.00    -0.237 OA
ATOM     70  O   UNL A   1      44.190  26.383  25.496  1.00  0.00    -0.744 OA
ENDBRANCH  63  67
ENDBRANCH  46  60
BRANCH  47  71
ATOM     71  C   UNL A   1      39.743  33.828  36.980  1.00  0.00     0.023 A 
ATOM     72  C   UNL A   1      39.060  33.285  38.078  1.00  0.00     0.031 A 
ATOM     73  C   UNL A   1      40.116  35.184  37.042  1.00  0.00     0.131 A 
ATOM     74  C   UNL A   1      38.722  34.105  39.167  1.00  0.00     0.055 A 
ATOM     75  C   UNL A   1      39.832  35.980  38.151  1.00  0.00     0.041 A 
ATOM     76  F   UNL A   1      40.771  35.756  36.018  1.00  0.00    -0.206 F 
ATOM     77  C   UNL A   1      39.115  35.445  39.216  1.00  0.00     0.022 A 
BRANCH  74  78
ATOM     78  S   UNL A   1      37.663  33.422  40.472  1.00  0.00     0.124 S 
ATOM     79  O   UNL A   1      38.459  32.294  40.941  1.00  0.00    -0.237 OA
ATOM     80  O   UNL A   1      37.549  34.551  41.388  1.00  0.00    -0.237 OA
ATOM     81  O   UNL A   1      36.436  33.069  39.761  1.00  0.00    -0.744 OA
ENDBRANCH  74  78
ENDBRANCH  47  71
BRANCH  59  82
ATOM     82  C   UNL A   1      44.229  28.696  35.527  1.00  0.00     0.023 A 
ATOM     83  C   UNL A   1      44.008  27.612  36.394  1.00  0.00     0.031 A 
ATOM     84  C   UNL A   1      45.531  29.216  35.432  1.00  0.00     0.131 A 
ATOM     85  C   UNL A   1      45.063  27.117  37.174  1.00  0.00     0.055 A 
ATOM     86  C   UNL A   1      46.590  28.682  36.169  1.00  0.00     0.041 A 
ATOM     87  F   UNL A   1      45.797  30.252  34.621  1.00  0.00    -0.206 F 
ATOM     88  C   UNL A   1      46.356  27.634  37.055  1.00  0.00     0.022 A 
BRANCH  85  89
ATOM     89  S   UNL A   1      44.708  25.839  38.410  1.00  0.00     0.124 S 
ATOM     90  O   UNL A   1      46.000  25.171  38.537  1.00  0.00    -0.237 OA
ATOM     91  O   UNL A   1      44.282  26.627  39.562  1.00  0.00    -0.237 OA
ATOM     92  O   UNL A   1      43.656  25.039  37.785  1.00  0.00    -0.744 OA
ENDBRANCH  85  89
ENDBRANCH  59  82
ENDBRANCH  33  34
ENDBRANCH  26  28
ENDBRANCH  25  26
ENDBRANCH  24  25
ENDBRANCH   1  24
TORSDOF 17
ENDMDL
