MODEL 1
REMARK VINA RESULT:     -10.8      0.000      0.000
REMARK SMILES CCC[C@H](C)C(=O)N1CC[C@H](C(=O)OCCOC(=O)c2ccc(-c3c4nc(c(-c5cc(S(=O)(=O)[O-])ccc5F)c5ccc([nH]5)c(-c5cc(S(=O)(=O)[O-])ccc5F)c5nc(c(-c6cc(S(=O)(=O)[O-])ccc6F)c6ccc3[nH]6)C=C5)C=C4)cc2)[C@@H]1C
REMARK SMILES IDX 15 1 14 2 12 3 13 4 11 5 8 6 9 7 83 8 10 9 84 10 6 11 7 12
REMARK SMILES IDX 4 13 5 14 3 15 2 16 1 17 16 18 17 19 18 20 19 21 20 22 21 23
REMARK SMILES IDX 82 24 22 25 81 26 23 27 24 28 25 29 75 30 26 31 80 32 74 33
REMARK SMILES IDX 76 34 27 35 79 36 73 37 72 38 28 40 60 41 40 42 59 43 41 44
REMARK SMILES IDX 44 45 58 46 77 47 42 48 43 49 57 51 78 52 45 53 29 54 30 55
REMARK SMILES IDX 38 56 31 57 37 58 39 59 36 60 32 61 33 62 34 63 35 64 61 65
REMARK SMILES IDX 62 66 70 67 63 68 69 69 71 70 68 71 64 72 65 73 66 74 67 75
REMARK SMILES IDX 46 76 47 77 55 78 48 79 54 80 56 81 53 82 49 83 50 84 51 85
REMARK SMILES IDX 52 86
REMARK H PARENT 76 39 44 50
REMARK Flexibility Score: inf
ROOT
ATOM      1  C   UNL A   1      34.679  21.029  25.668  1.00  0.00     0.274 C 
ENDROOT
BRANCH   1   2
ATOM      2  O   UNL A   1      33.970  21.904  24.758  1.00  0.00    -0.462 OA
BRANCH   2   3
ATOM      3  C   UNL A   1      32.987  22.661  25.327  1.00  0.00     0.311 C 
ATOM      4  O   UNL A   1      32.480  22.420  26.415  1.00  0.00    -0.252 OA
BRANCH   3   5
ATOM      5  C   UNL A   1      32.547  23.788  24.395  1.00  0.00     0.123 C 
ATOM      6  N   UNL A   1      31.858  25.755  25.602  1.00  0.00    -0.339 N 
ATOM      7  C   UNL A   1      30.778  24.771  25.646  1.00  0.00     0.121 C 
ATOM      8  C   UNL A   1      32.961  25.236  24.770  1.00  0.00     0.096 C 
ATOM      9  C   UNL A   1      31.022  23.871  24.444  1.00  0.00     0.039 C 
ATOM     10  C   UNL A   1      34.381  25.329  25.309  1.00  0.00     0.032 C 
BRANCH   6  11
ATOM     11  C   UNL A   1      31.556  26.977  26.170  1.00  0.00     0.225 C 
ATOM     12  O   UNL A   1      31.034  26.968  27.299  1.00  0.00    -0.275 OA
BRANCH  11  13
ATOM     13  C   UNL A   1      31.676  28.357  25.501  1.00  0.00     0.075 C 
ATOM     14  C   UNL A   1      33.015  29.052  25.394  1.00  0.00     0.018 C 
BRANCH  13  15
ATOM     15  C   UNL A   1      30.751  28.493  24.272  1.00  0.00     0.013 C 
BRANCH  15  16
ATOM     16  C   UNL A   1      31.351  28.422  22.866  1.00  0.00    -0.003 C 
ATOM     17  C   UNL A   1      31.207  27.079  22.182  1.00  0.00     0.004 C 
ENDBRANCH  15  16
ENDBRANCH  13  15
ENDBRANCH  11  13
ENDBRANCH   6  11
ENDBRANCH   3   5
ENDBRANCH   2   3
ENDBRANCH   1   2
BRANCH   1  18
ATOM     18  C   UNL A   1      35.955  20.491  25.024  1.00  0.00     0.275 C 
BRANCH  18  19
ATOM     19  O   UNL A   1      36.962  21.513  25.055  1.00  0.00    -0.458 OA
BRANCH  19  20
ATOM     20  C   UNL A   1      38.172  21.135  25.537  1.00  0.00     0.338 C 
ATOM     21  O   UNL A   1      38.683  20.036  25.400  1.00  0.00    -0.246 OA
BRANCH  20  22
ATOM     22  C   UNL A   1      38.845  22.289  26.198  1.00  0.00     0.060 A 
ATOM     23  C   UNL A   1      38.381  23.594  26.032  1.00  0.00     0.016 A 
ATOM     24  C   UNL A   1      40.035  22.080  26.897  1.00  0.00     0.016 A 
ATOM     25  C   UNL A   1      39.157  24.677  26.453  1.00  0.00     0.010 A 
ATOM     26  C   UNL A   1      40.744  23.170  27.429  1.00  0.00     0.010 A 
ATOM     27  C   UNL A   1      40.337  24.494  27.186  1.00  0.00    -0.014 A 
BRANCH  27  28
ATOM     28  C   UNL A   1      41.145  25.660  27.679  1.00  0.00     0.031 A 
ATOM     29  C   UNL A   1      40.514  26.727  28.548  1.00  0.00     0.074 A 
ATOM     30  C   UNL A   1      42.455  25.791  27.369  1.00  0.00     0.049 A 
ATOM     31  N   UNL A   1      40.946  27.928  28.845  1.00  0.00    -0.248 NA
ATOM     32  C   UNL A   1      39.216  26.399  29.155  1.00  0.00     0.031 C 
ATOM     33  C   UNL A   1      43.260  24.819  26.628  1.00  0.00     0.029 A 
ATOM     34  N   UNL A   1      43.346  26.804  27.645  1.00  0.00    -0.354 N 
ATOM     35  C   UNL A   1      39.955  28.518  29.625  1.00  0.00     0.074 A 
ATOM     36  C   UNL A   1      38.892  27.540  29.745  1.00  0.00     0.031 C 
ATOM     37  C   UNL A   1      44.528  25.247  26.567  1.00  0.00     0.029 A 
ATOM     38  C   UNL A   1      44.600  26.592  27.118  1.00  0.00     0.049 A 
ATOM     39  H   UNL A   1      43.108  27.603  28.169  1.00  0.00     0.167 HD
ATOM     40  C   UNL A   1      39.927  29.757  30.181  1.00  0.00     0.034 A 
ATOM     41  C   UNL A   1      45.672  27.400  27.005  1.00  0.00     0.034 A 
ATOM     42  C   UNL A   1      41.005  30.715  30.076  1.00  0.00     0.049 A 
ATOM     43  C   UNL A   1      45.572  28.819  27.492  1.00  0.00     0.074 A 
ATOM     44  C   UNL A   1      41.071  32.003  30.586  1.00  0.00     0.029 A 
ATOM     45  N   UNL A   1      42.211  30.495  29.421  1.00  0.00    -0.354 N 
ATOM     46  N   UNL A   1      44.578  29.415  28.108  1.00  0.00    -0.248 NA
ATOM     47  C   UNL A   1      46.730  29.684  27.236  1.00  0.00     0.031 C 
ATOM     48  C   UNL A   1      42.278  32.582  30.177  1.00  0.00     0.029 A 
ATOM     49  C   UNL A   1      43.007  31.632  29.483  1.00  0.00     0.049 A 
ATOM     50  H   UNL A   1      42.465  29.654  28.976  1.00  0.00     0.167 HD
ATOM     51  C   UNL A   1      45.000  30.723  28.327  1.00  0.00     0.074 A 
ATOM     52  C   UNL A   1      46.342  30.823  27.791  1.00  0.00     0.031 C 
ATOM     53  C   UNL A   1      44.333  31.744  28.921  1.00  0.00     0.034 A 
BRANCH  40  54
ATOM     54  C   UNL A   1      38.653  30.177  30.884  1.00  0.00     0.023 A 
ATOM     55  C   UNL A   1      37.609  30.839  30.216  1.00  0.00     0.031 A 
ATOM     56  C   UNL A   1      38.502  29.943  32.264  1.00  0.00     0.131 A 
ATOM     57  C   UNL A   1      36.503  31.315  30.941  1.00  0.00     0.055 A 
ATOM     58  C   UNL A   1      37.360  30.340  32.962  1.00  0.00     0.041 A 
ATOM     59  F   UNL A   1      39.473  29.336  32.965  1.00  0.00    -0.206 F 
ATOM     60  C   UNL A   1      36.359  31.047  32.303  1.00  0.00     0.022 A 
BRANCH  57  61
ATOM     61  S   UNL A   1      35.341  32.438  30.113  1.00  0.00     0.124 S 
ATOM     62  O   UNL A   1      34.878  31.617  28.997  1.00  0.00    -0.237 OA
ATOM     63  O   UNL A   1      34.362  32.705  31.160  1.00  0.00    -0.237 OA
ATOM     64  O   UNL A   1      36.176  33.576  29.733  1.00  0.00    -0.744 OA
ENDBRANCH  57  61
ENDBRANCH  40  54
BRANCH  41  65
ATOM     65  C   UNL A   1      46.897  26.922  26.300  1.00  0.00     0.023 A 
ATOM     66  C   UNL A   1      47.958  26.335  27.005  1.00  0.00     0.031 A 
ATOM     67  C   UNL A   1      47.029  27.064  24.905  1.00  0.00     0.131 A 
ATOM     68  C   UNL A   1      49.111  25.925  26.315  1.00  0.00     0.055 A 
ATOM     69  C   UNL A   1      48.148  26.596  24.217  1.00  0.00     0.041 A 
ATOM     70  F   UNL A   1      46.052  27.635  24.183  1.00  0.00    -0.206 F 
ATOM     71  C   UNL A   1      49.202  26.029  24.925  1.00  0.00     0.022 A 
BRANCH  68  72
ATOM     72  S   UNL A   1      50.528  25.316  27.269  1.00  0.00     0.124 S 
ATOM     73  O   UNL A   1      49.940  24.195  27.993  1.00  0.00    -0.237 OA
ATOM     74  O   UNL A   1      51.482  24.974  26.220  1.00  0.00    -0.237 OA
ATOM     75  O   UNL A   1      50.900  26.464  28.095  1.00  0.00    -0.744 OA
ENDBRANCH  68  72
ENDBRANCH  41  65
BRANCH  53  76
ATOM     76  C   UNL A   1      45.076  33.052  29.058  1.00  0.00     0.023 A 
ATOM     77  C   UNL A   1      45.112  33.996  28.015  1.00  0.00     0.031 A 
ATOM     78  C   UNL A   1      45.795  33.338  30.232  1.00  0.00     0.131 A 
ATOM     79  C   UNL A   1      45.901  35.151  28.143  1.00  0.00     0.055 A 
ATOM     80  C   UNL A   1      46.527  34.517  30.378  1.00  0.00     0.041 A 
ATOM     81  F   UNL A   1      45.802  32.472  31.258  1.00  0.00    -0.206 F 
ATOM     82  C   UNL A   1      46.596  35.424  29.324  1.00  0.00     0.022 A 
BRANCH  79  83
ATOM     83  S   UNL A   1      46.092  36.243  26.707  1.00  0.00     0.124 S 
ATOM     84  O   UNL A   1      47.460  36.724  26.871  1.00  0.00    -0.237 OA
ATOM     85  O   UNL A   1      45.867  35.332  25.590  1.00  0.00    -0.237 OA
ATOM     86  O   UNL A   1      45.053  37.252  26.902  1.00  0.00    -0.744 OA
ENDBRANCH  79  83
ENDBRANCH  53  76
ENDBRANCH  27  28
ENDBRANCH  20  22
ENDBRANCH  19  20
ENDBRANCH  18  19
ENDBRANCH   1  18
TORSDOF 18
ENDMDL
MODEL 2
REMARK VINA RESULT:     -10.7      5.001     10.046
REMARK SMILES CCC[C@H](C)C(=O)N1CC[C@H](C(=O)OCCOC(=O)c2ccc(-c3c4nc(c(-c5cc(S(=O)(=O)[O-])ccc5F)c5ccc([nH]5)c(-c5cc(S(=O)(=O)[O-])ccc5F)c5nc(c(-c6cc(S(=O)(=O)[O-])ccc6F)c6ccc3[nH]6)C=C5)C=C4)cc2)[C@@H]1C
REMARK SMILES IDX 15 1 14 2 12 3 13 4 11 5 8 6 9 7 83 8 10 9 84 10 6 11 7 12
REMARK SMILES IDX 4 13 5 14 3 15 2 16 1 17 16 18 17 19 18 20 19 21 20 22 21 23
REMARK SMILES IDX 82 24 22 25 81 26 23 27 24 28 25 29 75 30 26 31 80 32 74 33
REMARK SMILES IDX 76 34 27 35 79 36 73 37 72 38 28 40 60 41 40 42 59 43 41 44
REMARK SMILES IDX 44 45 58 46 77 47 42 48 43 49 57 51 78 52 45 53 29 54 30 55
REMARK SMILES IDX 38 56 31 57 37 58 39 59 36 60 32 61 33 62 34 63 35 64 61 65
REMARK SMILES IDX 62 66 70 67 63 68 69 69 71 70 68 71 64 72 65 73 66 74 67 75
REMARK SMILES IDX 46 76 47 77 55 78 48 79 54 80 56 81 53 82 49 83 50 84 51 85
REMARK SMILES IDX 52 86
REMARK H PARENT 76 39 44 50
REMARK Flexibility Score: inf
ROOT
ATOM      1  C   UNL A   1      31.384  29.647  24.847  1.00  0.00     0.274 C 
ENDROOT
BRANCH   1   2
ATOM      2  O   UNL A   1      32.570  29.092  24.232  1.00  0.00    -0.462 OA
BRANCH   2   3
ATOM      3  C   UNL A   1      32.516  27.753  23.968  1.00  0.00     0.311 C 
ATOM      4  O   UNL A   1      31.570  27.201  23.421  1.00  0.00    -0.252 OA
BRANCH   3   5
ATOM      5  C   UNL A   1      33.742  27.030  24.520  1.00  0.00     0.123 C 
ATOM      6  N   UNL A   1      33.258  24.753  25.139  1.00  0.00    -0.339 N 
ATOM      7  C   UNL A   1      32.763  25.644  26.187  1.00  0.00     0.121 C 
ATOM      8  C   UNL A   1      33.951  25.547  24.106  1.00  0.00     0.096 C 
ATOM      9  C   UNL A   1      33.581  26.918  26.035  1.00  0.00     0.039 C 
ATOM     10  C   UNL A   1      33.619  25.284  22.646  1.00  0.00     0.032 C 
BRANCH   6  11
ATOM     11  C   UNL A   1      33.138  23.406  25.416  1.00  0.00     0.225 C 
ATOM     12  O   UNL A   1      31.998  22.912  25.367  1.00  0.00    -0.275 OA
BRANCH  11  13
ATOM     13  C   UNL A   1      34.252  22.465  25.909  1.00  0.00     0.075 C 
ATOM     14  C   UNL A   1      34.139  21.762  27.243  1.00  0.00     0.018 C 
BRANCH  13  15
ATOM     15  C   UNL A   1      34.860  21.629  24.761  1.00  0.00     0.013 C 
BRANCH  15  16
ATOM     16  C   UNL A   1      36.202  22.045  24.155  1.00  0.00    -0.003 C 
ATOM     17  C   UNL A   1      37.419  21.586  24.931  1.00  0.00     0.004 C 
ENDBRANCH  15  16
ENDBRANCH  13  15
ENDBRANCH  11  13
ENDBRANCH   6  11
ENDBRANCH   3   5
ENDBRANCH   2   3
ENDBRANCH   1   2
BRANCH   1  18
ATOM     18  C   UNL A   1      31.723  30.320  26.176  1.00  0.00     0.275 C 
BRANCH  18  19
ATOM     19  O   UNL A   1      33.149  30.422  26.298  1.00  0.00    -0.458 OA
BRANCH  19  20
ATOM     20  C   UNL A   1      33.601  31.361  27.167  1.00  0.00     0.338 C 
ATOM     21  O   UNL A   1      32.978  32.336  27.551  1.00  0.00    -0.246 OA
BRANCH  20  22
ATOM     22  C   UNL A   1      34.956  30.990  27.664  1.00  0.00     0.060 A 
ATOM     23  C   UNL A   1      35.277  29.672  27.987  1.00  0.00     0.016 A 
ATOM     24  C   UNL A   1      35.887  31.996  27.931  1.00  0.00     0.016 A 
ATOM     25  C   UNL A   1      36.457  29.381  28.675  1.00  0.00     0.010 A 
ATOM     26  C   UNL A   1      37.127  31.676  28.508  1.00  0.00     0.010 A 
ATOM     27  C   UNL A   1      37.423  30.365  28.925  1.00  0.00    -0.014 A 
BRANCH  27  28
ATOM     28  C   UNL A   1      38.713  30.042  29.623  1.00  0.00     0.031 A 
ATOM     29  C   UNL A   1      39.711  29.089  29.001  1.00  0.00     0.074 A 
ATOM     30  C   UNL A   1      39.024  30.592  30.818  1.00  0.00     0.049 A 
ATOM     31  N   UNL A   1      40.732  28.474  29.547  1.00  0.00    -0.248 NA
ATOM     32  C   UNL A   1      39.527  28.779  27.576  1.00  0.00     0.031 C 
ATOM     33  C   UNL A   1      38.239  31.604  31.525  1.00  0.00     0.029 A 
ATOM     34  N   UNL A   1      40.098  30.377  31.653  1.00  0.00    -0.354 N 
ATOM     35  C   UNL A   1      41.278  27.666  28.552  1.00  0.00     0.074 A 
ATOM     36  C   UNL A   1      40.463  27.865  27.370  1.00  0.00     0.031 C 
ATOM     37  C   UNL A   1      38.882  31.967  32.643  1.00  0.00     0.029 A 
ATOM     38  C   UNL A   1      40.042  31.106  32.820  1.00  0.00     0.049 A 
ATOM     39  H   UNL A   1      40.835  29.761  31.436  1.00  0.00     0.167 HD
ATOM     40  C   UNL A   1      42.349  26.833  28.618  1.00  0.00     0.034 A 
ATOM     41  C   UNL A   1      40.775  31.046  33.948  1.00  0.00     0.034 A 
ATOM     42  C   UNL A   1      43.170  26.662  29.796  1.00  0.00     0.049 A 
ATOM     43  C   UNL A   1      41.863  30.013  34.061  1.00  0.00     0.074 A 
ATOM     44  C   UNL A   1      44.266  25.831  29.974  1.00  0.00     0.029 A 
ATOM     45  N   UNL A   1      42.994  27.335  30.999  1.00  0.00    -0.354 N 
ATOM     46  N   UNL A   1      42.285  29.156  33.162  1.00  0.00    -0.248 NA
ATOM     47  C   UNL A   1      42.547  29.920  35.355  1.00  0.00     0.031 C 
ATOM     48  C   UNL A   1      44.701  25.947  31.300  1.00  0.00     0.029 A 
ATOM     49  C   UNL A   1      43.934  26.912  31.929  1.00  0.00     0.049 A 
ATOM     50  H   UNL A   1      42.302  28.015  31.168  1.00  0.00     0.167 HD
ATOM     51  C   UNL A   1      43.298  28.429  33.780  1.00  0.00     0.074 A 
ATOM     52  C   UNL A   1      43.433  28.962  35.121  1.00  0.00     0.031 C 
ATOM     53  C   UNL A   1      44.049  27.417  33.278  1.00  0.00     0.034 A 
BRANCH  40  54
ATOM     54  C   UNL A   1      42.642  25.978  27.402  1.00  0.00     0.023 A 
ATOM     55  C   UNL A   1      42.156  24.666  27.270  1.00  0.00     0.031 A 
ATOM     56  C   UNL A   1      43.462  26.479  26.373  1.00  0.00     0.131 A 
ATOM     57  C   UNL A   1      42.559  23.875  26.181  1.00  0.00     0.055 A 
ATOM     58  C   UNL A   1      43.786  25.718  25.248  1.00  0.00     0.041 A 
ATOM     59  F   UNL A   1      43.977  27.716  26.449  1.00  0.00    -0.206 F 
ATOM     60  C   UNL A   1      43.349  24.401  25.156  1.00  0.00     0.022 A 
BRANCH  57  61
ATOM     61  S   UNL A   1      42.180  22.101  26.210  1.00  0.00     0.124 S 
ATOM     62  O   UNL A   1      40.739  22.100  25.970  1.00  0.00    -0.237 OA
ATOM     63  O   UNL A   1      43.009  21.583  25.128  1.00  0.00    -0.237 OA
ATOM     64  O   UNL A   1      42.577  21.687  27.554  1.00  0.00    -0.744 OA
ENDBRANCH  57  61
ENDBRANCH  40  54
BRANCH  41  65
ATOM     65  C   UNL A   1      40.431  31.918  35.110  1.00  0.00     0.023 A 
ATOM     66  C   UNL A   1      39.413  31.564  36.008  1.00  0.00     0.031 A 
ATOM     67  C   UNL A   1      41.110  33.134  35.325  1.00  0.00     0.131 A 
ATOM     68  C   UNL A   1      39.092  32.423  37.072  1.00  0.00     0.055 A 
ATOM     69  C   UNL A   1      40.830  33.951  36.420  1.00  0.00     0.041 A 
ATOM     70  F   UNL A   1      42.080  33.530  34.487  1.00  0.00    -0.206 F 
ATOM     71  C   UNL A   1      39.810  33.601  37.297  1.00  0.00     0.022 A 
BRANCH  68  72
ATOM     72  S   UNL A   1      37.670  32.018  38.121  1.00  0.00     0.124 S 
ATOM     73  O   UNL A   1      37.378  30.650  37.711  1.00  0.00    -0.237 OA
ATOM     74  O   UNL A   1      38.220  32.183  39.462  1.00  0.00    -0.237 OA
ATOM     75  O   UNL A   1      36.669  33.011  37.735  1.00  0.00    -0.744 OA
ENDBRANCH  68  72
ENDBRANCH  41  65
BRANCH  53  76
ATOM     76  C   UNL A   1      45.118  26.850  34.183  1.00  0.00     0.023 A 
ATOM     77  C   UNL A   1      44.859  25.774  35.050  1.00  0.00     0.031 A 
ATOM     78  C   UNL A   1      46.401  27.424  34.207  1.00  0.00     0.131 A 
ATOM     79  C   UNL A   1      45.849  25.347  35.950  1.00  0.00     0.055 A 
ATOM     80  C   UNL A   1      47.401  26.954  35.060  1.00  0.00     0.041 A 
ATOM     81  F   UNL A   1      46.704  28.458  33.406  1.00  0.00    -0.206 F 
ATOM     82  C   UNL A   1      47.123  25.920  35.949  1.00  0.00     0.022 A 
BRANCH  79  83
ATOM     83  S   UNL A   1      45.418  24.099  37.196  1.00  0.00     0.124 S 
ATOM     84  O   UNL A   1      45.012  22.970  36.366  1.00  0.00    -0.237 OA
ATOM     85  O   UNL A   1      46.672  23.938  37.923  1.00  0.00    -0.237 OA
ATOM     86  O   UNL A   1      44.340  24.730  37.954  1.00  0.00    -0.744 OA
ENDBRANCH  79  83
ENDBRANCH  53  76
ENDBRANCH  27  28
ENDBRANCH  20  22
ENDBRANCH  19  20
ENDBRANCH  18  19
ENDBRANCH   1  18
TORSDOF 18
ENDMDL
MODEL 3
REMARK VINA RESULT:     -10.6      4.758     10.060
REMARK SMILES CCC[C@H](C)C(=O)N1CC[C@H](C(=O)OCCOC(=O)c2ccc(-c3c4nc(c(-c5cc(S(=O)(=O)[O-])ccc5F)c5ccc([nH]5)c(-c5cc(S(=O)(=O)[O-])ccc5F)c5nc(c(-c6cc(S(=O)(=O)[O-])ccc6F)c6ccc3[nH]6)C=C5)C=C4)cc2)[C@@H]1C
REMARK SMILES IDX 15 1 14 2 12 3 13 4 11 5 8 6 9 7 83 8 10 9 84 10 6 11 7 12
REMARK SMILES IDX 4 13 5 14 3 15 2 16 1 17 16 18 17 19 18 20 19 21 20 22 21 23
REMARK SMILES IDX 82 24 22 25 81 26 23 27 24 28 25 29 75 30 26 31 80 32 74 33
REMARK SMILES IDX 76 34 27 35 79 36 73 37 72 38 28 40 60 41 40 42 59 43 41 44
REMARK SMILES IDX 44 45 58 46 77 47 42 48 43 49 57 51 78 52 45 53 29 54 30 55
REMARK SMILES IDX 38 56 31 57 37 58 39 59 36 60 32 61 33 62 34 63 35 64 61 65
REMARK SMILES IDX 62 66 70 67 63 68 69 69 71 70 68 71 64 72 65 73 66 74 67 75
REMARK SMILES IDX 46 76 47 77 55 78 48 79 54 80 56 81 53 82 49 83 50 84 51 85
REMARK SMILES IDX 52 86
REMARK H PARENT 76 39 44 50
REMARK Flexibility Score: inf
ROOT
ATOM      1  C   UNL A   1      31.263  29.695  24.039  1.00  0.00     0.274 C 
ENDROOT
BRANCH   1   2
ATOM      2  O   UNL A   1      30.276  28.682  23.735  1.00  0.00    -0.462 OA
BRANCH   2   3
ATOM      3  C   UNL A   1      30.775  27.522  23.214  1.00  0.00     0.311 C 
ATOM      4  O   UNL A   1      30.911  27.312  22.016  1.00  0.00    -0.252 OA
BRANCH   3   5
ATOM      5  C   UNL A   1      31.057  26.499  24.312  1.00  0.00     0.123 C 
ATOM      6  N   UNL A   1      32.524  24.739  23.567  1.00  0.00    -0.339 N 
ATOM      7  C   UNL A   1      31.177  24.481  23.057  1.00  0.00     0.121 C 
ATOM      8  C   UNL A   1      32.502  25.941  24.424  1.00  0.00     0.096 C 
ATOM      9  C   UNL A   1      30.253  25.238  23.999  1.00  0.00     0.039 C 
ATOM     10  C   UNL A   1      33.568  27.003  24.209  1.00  0.00     0.032 C 
BRANCH   6  11
ATOM     11  C   UNL A   1      33.447  23.749  23.299  1.00  0.00     0.225 C 
ATOM     12  O   UNL A   1      33.734  23.543  22.107  1.00  0.00    -0.275 OA
BRANCH  11  13
ATOM     13  C   UNL A   1      34.072  22.775  24.314  1.00  0.00     0.075 C 
ATOM     14  C   UNL A   1      33.720  21.305  24.295  1.00  0.00     0.018 C 
BRANCH  13  15
ATOM     15  C   UNL A   1      35.553  23.105  24.605  1.00  0.00     0.013 C 
BRANCH  15  16
ATOM     16  C   UNL A   1      36.653  22.378  23.829  1.00  0.00    -0.003 C 
ATOM     17  C   UNL A   1      37.415  21.343  24.629  1.00  0.00     0.004 C 
ENDBRANCH  15  16
ENDBRANCH  13  15
ENDBRANCH  11  13
ENDBRANCH   6  11
ENDBRANCH   3   5
ENDBRANCH   2   3
ENDBRANCH   1   2
BRANCH   1  18
ATOM     18  C   UNL A   1      31.266  30.024  25.531  1.00  0.00     0.275 C 
BRANCH  18  19
ATOM     19  O   UNL A   1      32.619  30.023  26.007  1.00  0.00    -0.458 OA
BRANCH  19  20
ATOM     20  C   UNL A   1      32.949  31.030  26.854  1.00  0.00     0.338 C 
ATOM     21  O   UNL A   1      32.226  31.960  27.171  1.00  0.00    -0.246 OA
BRANCH  20  22
ATOM     22  C   UNL A   1      34.308  30.802  27.420  1.00  0.00     0.060 A 
ATOM     23  C   UNL A   1      34.772  29.517  27.701  1.00  0.00     0.016 A 
ATOM     24  C   UNL A   1      35.088  31.898  27.793  1.00  0.00     0.016 A 
ATOM     25  C   UNL A   1      35.938  29.337  28.450  1.00  0.00     0.010 A 
ATOM     26  C   UNL A   1      36.322  31.702  28.433  1.00  0.00     0.010 A 
ATOM     27  C   UNL A   1      36.756  30.417  28.807  1.00  0.00    -0.014 A 
BRANCH  27  28
ATOM     28  C   UNL A   1      38.033  30.218  29.571  1.00  0.00     0.031 A 
ATOM     29  C   UNL A   1      39.146  29.360  29.007  1.00  0.00     0.074 A 
ATOM     30  C   UNL A   1      38.231  30.797  30.777  1.00  0.00     0.049 A 
ATOM     31  N   UNL A   1      40.191  28.844  29.608  1.00  0.00    -0.248 NA
ATOM     32  C   UNL A   1      39.064  29.030  27.577  1.00  0.00     0.031 C 
ATOM     33  C   UNL A   1      37.319  31.733  31.436  1.00  0.00     0.029 A 
ATOM     34  N   UNL A   1      39.276  30.685  31.666  1.00  0.00    -0.354 N 
ATOM     35  C   UNL A   1      40.859  28.089  28.648  1.00  0.00     0.074 A 
ATOM     36  C   UNL A   1      40.090  28.208  27.425  1.00  0.00     0.031 C 
ATOM     37  C   UNL A   1      37.869  32.157  32.582  1.00  0.00     0.029 A 
ATOM     38  C   UNL A   1      39.094  31.408  32.823  1.00  0.00     0.049 A 
ATOM     39  H   UNL A   1      40.077  30.140  31.491  1.00  0.00     0.167 HD
ATOM     40  C   UNL A   1      41.998  27.359  28.773  1.00  0.00     0.034 A 
ATOM     41  C   UNL A   1      39.771  31.419  33.988  1.00  0.00     0.034 A 
ATOM     42  C   UNL A   1      42.771  27.268  29.992  1.00  0.00     0.049 A 
ATOM     43  C   UNL A   1      40.942  30.493  34.162  1.00  0.00     0.074 A 
ATOM     44  C   UNL A   1      43.929  26.543  30.231  1.00  0.00     0.029 A 
ATOM     45  N   UNL A   1      42.472  27.924  31.180  1.00  0.00    -0.354 N 
ATOM     46  N   UNL A   1      41.487  29.676  33.291  1.00  0.00    -0.248 NA
ATOM     47  C   UNL A   1      41.566  30.467  35.490  1.00  0.00     0.031 C 
ATOM     48  C   UNL A   1      44.283  26.702  31.577  1.00  0.00     0.029 A 
ATOM     49  C   UNL A   1      43.399  27.593  32.160  1.00  0.00     0.049 A 
ATOM     50  H   UNL A   1      41.712  28.537  31.309  1.00  0.00     0.167 HD
ATOM     51  C   UNL A   1      42.532  29.049  33.965  1.00  0.00     0.074 A 
ATOM     52  C   UNL A   1      42.548  29.595  35.308  1.00  0.00     0.031 C 
ATOM     53  C   UNL A   1      43.398  28.110  33.509  1.00  0.00     0.034 A 
BRANCH  40  54
ATOM     54  C   UNL A   1      42.431  26.533  27.580  1.00  0.00     0.023 A 
ATOM     55  C   UNL A   1      41.992  25.212  27.381  1.00  0.00     0.031 A 
ATOM     56  C   UNL A   1      43.336  27.069  26.645  1.00  0.00     0.131 A 
ATOM     57  C   UNL A   1      42.520  24.450  26.325  1.00  0.00     0.055 A 
ATOM     58  C   UNL A   1      43.789  26.335  25.547  1.00  0.00     0.041 A 
ATOM     59  F   UNL A   1      43.812  28.316  26.791  1.00  0.00    -0.206 F 
ATOM     60  C   UNL A   1      43.395  25.011  25.392  1.00  0.00     0.022 A 
BRANCH  57  61
ATOM     61  S   UNL A   1      42.182  22.667  26.289  1.00  0.00     0.124 S 
ATOM     62  O   UNL A   1      42.971  22.191  27.423  1.00  0.00    -0.237 OA
ATOM     63  O   UNL A   1      40.734  22.617  26.451  1.00  0.00    -0.237 OA
ATOM     64  O   UNL A   1      42.679  22.250  24.979  1.00  0.00    -0.744 OA
ENDBRANCH  57  61
ENDBRANCH  40  54
BRANCH  41  65
ATOM     65  C   UNL A   1      39.289  32.259  35.124  1.00  0.00     0.023 A 
ATOM     66  C   UNL A   1      39.747  33.573  35.302  1.00  0.00     0.031 A 
ATOM     67  C   UNL A   1      38.371  31.746  36.062  1.00  0.00     0.131 A 
ATOM     68  C   UNL A   1      39.298  34.325  36.401  1.00  0.00     0.055 A 
ATOM     69  C   UNL A   1      37.880  32.519  37.113  1.00  0.00     0.041 A 
ATOM     70  F   UNL A   1      37.914  30.489  35.949  1.00  0.00    -0.206 F 
ATOM     71  C   UNL A   1      38.350  33.815  37.292  1.00  0.00     0.022 A 
BRANCH  68  72
ATOM     72  S   UNL A   1      40.026  35.959  36.695  1.00  0.00     0.124 S 
ATOM     73  O   UNL A   1      39.293  36.403  37.875  1.00  0.00    -0.237 OA
ATOM     74  O   UNL A   1      41.435  35.638  36.897  1.00  0.00    -0.237 OA
ATOM     75  O   UNL A   1      39.728  36.691  35.465  1.00  0.00    -0.744 OA
ENDBRANCH  68  72
ENDBRANCH  41  65
BRANCH  53  76
ATOM     76  C   UNL A   1      44.467  27.648  34.470  1.00  0.00     0.023 A 
ATOM     77  C   UNL A   1      44.216  26.656  35.436  1.00  0.00     0.031 A 
ATOM     78  C   UNL A   1      45.743  28.238  34.447  1.00  0.00     0.131 A 
ATOM     79  C   UNL A   1      45.205  26.331  36.379  1.00  0.00     0.055 A 
ATOM     80  C   UNL A   1      46.743  27.866  35.347  1.00  0.00     0.041 A 
ATOM     81  F   UNL A   1      46.038  29.194  33.551  1.00  0.00    -0.206 F 
ATOM     82  C   UNL A   1      46.471  26.919  36.330  1.00  0.00     0.022 A 
BRANCH  79  83
ATOM     83  S   UNL A   1      44.781  25.205  37.737  1.00  0.00     0.124 S 
ATOM     84  O   UNL A   1      43.944  24.218  37.062  1.00  0.00    -0.237 OA
ATOM     85  O   UNL A   1      46.091  24.737  38.175  1.00  0.00    -0.237 OA
ATOM     86  O   UNL A   1      44.081  26.063  38.690  1.00  0.00    -0.744 OA
ENDBRANCH  79  83
ENDBRANCH  53  76
ENDBRANCH  27  28
ENDBRANCH  20  22
ENDBRANCH  19  20
ENDBRANCH  18  19
ENDBRANCH   1  18
TORSDOF 18
ENDMDL
