MODEL 1
REMARK VINA RESULT:     -11.5      0.000      0.000
REMARK SMILES CCCN(C(=O)Cc1c(C(=O)OCCOC(=O)c2ccc(-c3c4nc(c(-c5cc(S(=O)(=O)[O-])ccc5F)c5ccc([nH]5)c(-c5cc(S(=O)(=O)[O-])ccc5F)c5nc(c(-c6cc(S(=O)(=O)[O-])ccc6F)c6ccc3[nH]6)C=C5)C=C4)cc2)c(C)cn1CC)c1cccc(Cl)c1
REMARK SMILES IDX 13 1 12 2 10 3 11 4 9 5 8 6 84 7 81 8 83 9 82 10 7 11 5 12
REMARK SMILES IDX 6 13 4 14 3 15 2 16 1 17 87 18 88 19 93 20 89 21 91 22 90 23
REMARK SMILES IDX 92 24 85 25 86 26 14 27 15 28 16 29 17 30 18 31 19 32 80 33
REMARK SMILES IDX 20 34 79 35 21 36 22 37 23 38 73 39 24 40 78 41 72 42 74 43
REMARK SMILES IDX 25 44 77 45 71 46 70 47 26 49 58 50 38 51 57 52 39 53 42 54
REMARK SMILES IDX 56 55 75 56 40 57 41 58 55 60 76 61 43 62 27 63 28 64 36 65
REMARK SMILES IDX 29 66 35 67 37 68 34 69 30 70 31 71 32 72 33 73 59 74 60 75
REMARK SMILES IDX 68 76 61 77 67 78 69 79 66 80 62 81 63 82 64 83 65 84 44 85
REMARK SMILES IDX 45 86 53 87 46 88 52 89 54 90 51 91 47 92 48 93 49 94 50 95
REMARK H PARENT 74 48 42 59
REMARK Flexibility Score: inf
ROOT
ATOM      1  C   UNL A   1      32.724  31.140  27.238  1.00  0.00     0.275 C 
ENDROOT
BRANCH   1   2
ATOM      2  O   UNL A   1      32.530  30.385  26.030  1.00  0.00    -0.458 OA
BRANCH   2   3
ATOM      3  C   UNL A   1      31.836  29.219  26.216  1.00  0.00     0.340 C 
ATOM      4  O   UNL A   1      31.530  28.828  27.328  1.00  0.00    -0.246 OA
BRANCH   3   5
ATOM      5  C   UNL A   1      31.522  28.482  24.976  1.00  0.00     0.084 A 
ATOM      6  C   UNL A   1      32.099  27.268  24.556  1.00  0.00     0.042 A 
ATOM      7  N   UNL A   1      31.502  26.929  23.353  1.00  0.00    -0.350 N 
ATOM      8  C   UNL A   1      30.660  28.921  23.910  1.00  0.00    -0.019 A 
ATOM      9  C   UNL A   1      30.686  27.946  22.938  1.00  0.00     0.090 A 
ATOM     10  C   UNL A   1      29.898  30.197  23.836  1.00  0.00     0.047 C 
BRANCH   6  11
ATOM     11  C   UNL A   1      33.099  26.331  25.183  1.00  0.00     0.155 C 
BRANCH  11  12
ATOM     12  C   UNL A   1      32.615  25.146  26.000  1.00  0.00     0.232 C 
ATOM     13  O   UNL A   1      31.731  25.425  26.822  1.00  0.00    -0.274 OA
BRANCH  12  14
ATOM     14  N   UNL A   1      33.096  23.828  25.751  1.00  0.00    -0.312 N 
BRANCH  14  15
ATOM     15  C   UNL A   1      32.347  22.608  26.159  1.00  0.00     0.125 C 
BRANCH  15  16
ATOM     16  C   UNL A   1      31.948  21.504  25.147  1.00  0.00     0.019 C 
ATOM     17  C   UNL A   1      32.597  20.132  25.185  1.00  0.00     0.006 C 
ENDBRANCH  15  16
ENDBRANCH  14  15
BRANCH  14  18
ATOM     18  C   UNL A   1      34.391  23.663  25.089  1.00  0.00     0.045 A 
ATOM     19  C   UNL A   1      34.528  23.251  23.752  1.00  0.00     0.026 A 
ATOM     20  C   UNL A   1      35.589  23.825  25.789  1.00  0.00     0.046 A 
ATOM     21  C   UNL A   1      35.759  22.862  23.204  1.00  0.00     0.004 A 
ATOM     22  C   UNL A   1      36.812  23.377  25.276  1.00  0.00     0.043 A 
ATOM     23  C   UNL A   1      36.900  22.876  23.989  1.00  0.00     0.020 A 
ATOM     24  Cl  UNL A   1      38.210  23.402  26.283  1.00  0.00    -0.084 Cl
ENDBRANCH  14  18
ENDBRANCH  12  14
ENDBRANCH  11  12
ENDBRANCH   6  11
BRANCH   7  25
ATOM     25  C   UNL A   1      31.599  25.660  22.638  1.00  0.00     0.118 C 
ATOM     26  C   UNL A   1      30.602  24.595  23.076  1.00  0.00     0.027 C 
ENDBRANCH   7  25
ENDBRANCH   3   5
ENDBRANCH   2   3
ENDBRANCH   1   2
BRANCH   1  27
ATOM     27  C   UNL A   1      34.190  31.188  27.656  1.00  0.00     0.275 C 
BRANCH  27  28
ATOM     28  O   UNL A   1      34.474  32.237  28.581  1.00  0.00    -0.458 OA
BRANCH  28  29
ATOM     29  C   UNL A   1      35.143  31.865  29.699  1.00  0.00     0.338 C 
ATOM     30  O   UNL A   1      34.923  32.247  30.839  1.00  0.00    -0.246 OA
BRANCH  29  31
ATOM     31  C   UNL A   1      36.337  31.097  29.323  1.00  0.00     0.060 A 
ATOM     32  C   UNL A   1      36.274  29.705  29.433  1.00  0.00     0.016 A 
ATOM     33  C   UNL A   1      37.557  31.765  29.155  1.00  0.00     0.016 A 
ATOM     34  C   UNL A   1      37.456  28.999  29.557  1.00  0.00     0.010 A 
ATOM     35  C   UNL A   1      38.732  31.064  29.304  1.00  0.00     0.010 A 
ATOM     36  C   UNL A   1      38.668  29.701  29.577  1.00  0.00    -0.014 A 
BRANCH  36  37
ATOM     37  C   UNL A   1      39.904  28.961  29.734  1.00  0.00     0.031 A 
ATOM     38  C   UNL A   1      40.274  28.783  31.156  1.00  0.00     0.074 A 
ATOM     39  C   UNL A   1      40.580  28.404  28.707  1.00  0.00     0.049 A 
ATOM     40  N   UNL A   1      41.237  29.370  31.783  1.00  0.00    -0.248 NA
ATOM     41  C   UNL A   1      39.359  28.036  32.035  1.00  0.00     0.031 C 
ATOM     42  C   UNL A   1      40.194  28.315  27.298  1.00  0.00     0.029 A 
ATOM     43  N   UNL A   1      41.755  27.716  28.738  1.00  0.00    -0.354 N 
ATOM     44  C   UNL A   1      41.200  28.876  33.080  1.00  0.00     0.074 A 
ATOM     45  C   UNL A   1      39.919  28.240  33.228  1.00  0.00     0.031 C 
ATOM     46  C   UNL A   1      41.004  27.430  26.664  1.00  0.00     0.029 A 
ATOM     47  C   UNL A   1      42.043  26.990  27.583  1.00  0.00     0.049 A 
ATOM     48  H   UNL A   1      42.356  27.732  29.516  1.00  0.00     0.167 HD
ATOM     49  C   UNL A   1      42.332  28.819  33.832  1.00  0.00     0.034 A 
ATOM     50  C   UNL A   1      43.039  26.070  27.417  1.00  0.00     0.034 A 
ATOM     51  C   UNL A   1      43.366  29.659  33.270  1.00  0.00     0.049 A 
ATOM     52  C   UNL A   1      44.065  26.370  28.450  1.00  0.00     0.074 A 
ATOM     53  C   UNL A   1      43.471  31.011  33.003  1.00  0.00     0.029 A 
ATOM     54  N   UNL A   1      44.342  29.052  32.510  1.00  0.00    -0.354 N 
ATOM     55  N   UNL A   1      44.773  27.467  28.444  1.00  0.00    -0.248 NA
ATOM     56  C   UNL A   1      43.930  25.732  29.753  1.00  0.00     0.031 C 
ATOM     57  C   UNL A   1      44.135  31.083  31.743  1.00  0.00     0.029 A 
ATOM     58  C   UNL A   1      44.486  29.787  31.357  1.00  0.00     0.049 A 
ATOM     59  H   UNL A   1      44.844  28.240  32.748  1.00  0.00     0.167 HD
ATOM     60  C   UNL A   1      44.781  27.896  29.762  1.00  0.00     0.074 A 
ATOM     61  C   UNL A   1      44.321  26.742  30.538  1.00  0.00     0.031 C 
ATOM     62  C   UNL A   1      44.874  29.223  30.076  1.00  0.00     0.034 A 
BRANCH  49  63
ATOM     63  C   UNL A   1      42.637  27.735  34.837  1.00  0.00     0.023 A 
ATOM     64  C   UNL A   1      43.446  26.670  34.405  1.00  0.00     0.031 A 
ATOM     65  C   UNL A   1      41.952  27.537  36.058  1.00  0.00     0.131 A 
ATOM     66  C   UNL A   1      43.470  25.453  35.107  1.00  0.00     0.055 A 
ATOM     67  C   UNL A   1      42.035  26.349  36.789  1.00  0.00     0.041 A 
ATOM     68  F   UNL A   1      41.093  28.428  36.565  1.00  0.00    -0.206 F 
ATOM     69  C   UNL A   1      42.769  25.285  36.298  1.00  0.00     0.022 A 
BRANCH  66  70
ATOM     70  S   UNL A   1      44.292  24.036  34.337  1.00  0.00     0.124 S 
ATOM     71  O   UNL A   1      45.024  24.675  33.248  1.00  0.00    -0.237 OA
ATOM     72  O   UNL A   1      45.096  23.519  35.438  1.00  0.00    -0.237 OA
ATOM     73  O   UNL A   1      43.178  23.183  33.924  1.00  0.00    -0.744 OA
ENDBRANCH  66  70
ENDBRANCH  49  63
BRANCH  50  74
ATOM     74  C   UNL A   1      42.973  24.766  26.685  1.00  0.00     0.023 A 
ATOM     75  C   UNL A   1      44.003  24.285  25.838  1.00  0.00     0.031 A 
ATOM     76  C   UNL A   1      41.966  23.837  27.032  1.00  0.00     0.131 A 
ATOM     77  C   UNL A   1      43.988  22.939  25.381  1.00  0.00     0.055 A 
ATOM     78  C   UNL A   1      41.960  22.514  26.585  1.00  0.00     0.041 A 
ATOM     79  F   UNL A   1      40.990  24.162  27.895  1.00  0.00    -0.206 F 
ATOM     80  C   UNL A   1      42.977  22.055  25.764  1.00  0.00     0.022 A 
BRANCH  77  81
ATOM     81  S   UNL A   1      45.333  22.277  24.334  1.00  0.00     0.124 S 
ATOM     82  O   UNL A   1      45.921  23.489  23.775  1.00  0.00    -0.237 OA
ATOM     83  O   UNL A   1      46.148  21.541  25.294  1.00  0.00    -0.237 OA
ATOM     84  O   UNL A   1      44.630  21.436  23.363  1.00  0.00    -0.744 OA
ENDBRANCH  77  81
ENDBRANCH  50  74
BRANCH  62  85
ATOM     85  C   UNL A   1      45.228  30.203  28.971  1.00  0.00     0.023 A 
ATOM     86  C   UNL A   1      46.539  30.600  28.618  1.00  0.00     0.031 A 
ATOM     87  C   UNL A   1      44.171  30.664  28.166  1.00  0.00     0.131 A 
ATOM     88  C   UNL A   1      46.746  31.437  27.501  1.00  0.00     0.055 A 
ATOM     89  C   UNL A   1      44.383  31.468  27.048  1.00  0.00     0.041 A 
ATOM     90  F   UNL A   1      42.905  30.305  28.434  1.00  0.00    -0.206 F 
ATOM     91  C   UNL A   1      45.671  31.864  26.715  1.00  0.00     0.022 A 
BRANCH  88  92
ATOM     92  S   UNL A   1      48.419  32.016  27.057  1.00  0.00     0.124 S 
ATOM     93  O   UNL A   1      49.123  30.788  26.707  1.00  0.00    -0.237 OA
ATOM     94  O   UNL A   1      48.155  32.938  25.957  1.00  0.00    -0.237 OA
ATOM     95  O   UNL A   1      48.893  32.659  28.285  1.00  0.00    -0.744 OA
ENDBRANCH  88  92
ENDBRANCH  62  85
ENDBRANCH  36  37
ENDBRANCH  29  31
ENDBRANCH  28  29
ENDBRANCH  27  28
ENDBRANCH   1  27
TORSDOF 21
ENDMDL
MODEL 2
REMARK VINA RESULT:     -11.2      3.053      9.233
REMARK SMILES CCCN(C(=O)Cc1c(C(=O)OCCOC(=O)c2ccc(-c3c4nc(c(-c5cc(S(=O)(=O)[O-])ccc5F)c5ccc([nH]5)c(-c5cc(S(=O)(=O)[O-])ccc5F)c5nc(c(-c6cc(S(=O)(=O)[O-])ccc6F)c6ccc3[nH]6)C=C5)C=C4)cc2)c(C)cn1CC)c1cccc(Cl)c1
REMARK SMILES IDX 13 1 12 2 10 3 11 4 9 5 8 6 84 7 81 8 83 9 82 10 7 11 5 12
REMARK SMILES IDX 6 13 4 14 3 15 2 16 1 17 87 18 88 19 93 20 89 21 91 22 90 23
REMARK SMILES IDX 92 24 85 25 86 26 14 27 15 28 16 29 17 30 18 31 19 32 80 33
REMARK SMILES IDX 20 34 79 35 21 36 22 37 23 38 73 39 24 40 78 41 72 42 74 43
REMARK SMILES IDX 25 44 77 45 71 46 70 47 26 49 58 50 38 51 57 52 39 53 42 54
REMARK SMILES IDX 56 55 75 56 40 57 41 58 55 60 76 61 43 62 27 63 28 64 36 65
REMARK SMILES IDX 29 66 35 67 37 68 34 69 30 70 31 71 32 72 33 73 59 74 60 75
REMARK SMILES IDX 68 76 61 77 67 78 69 79 66 80 62 81 63 82 64 83 65 84 44 85
REMARK SMILES IDX 45 86 53 87 46 88 52 89 54 90 51 91 47 92 48 93 49 94 50 95
REMARK H PARENT 74 48 42 59
REMARK Flexibility Score: inf
ROOT
ATOM      1  C   UNL A   1      37.505  22.075  25.754  1.00  0.00     0.275 C 
ENDROOT
BRANCH   1   2
ATOM      2  O   UNL A   1      37.214  23.147  24.841  1.00  0.00    -0.458 OA
BRANCH   2   3
ATOM      3  C   UNL A   1      36.085  22.940  24.092  1.00  0.00     0.340 C 
ATOM      4  O   UNL A   1      36.119  22.931  22.875  1.00  0.00    -0.246 OA
BRANCH   3   5
ATOM      5  C   UNL A   1      34.849  22.758  24.876  1.00  0.00     0.084 A 
ATOM      6  C   UNL A   1      34.153  23.758  25.583  1.00  0.00     0.042 A 
ATOM      7  N   UNL A   1      33.045  23.155  26.156  1.00  0.00    -0.350 N 
ATOM      8  C   UNL A   1      34.188  21.512  25.163  1.00  0.00    -0.019 A 
ATOM      9  C   UNL A   1      33.098  21.802  25.954  1.00  0.00     0.090 A 
ATOM     10  C   UNL A   1      34.602  20.152  24.725  1.00  0.00     0.047 C 
BRANCH   6  11
ATOM     11  C   UNL A   1      34.353  25.244  25.732  1.00  0.00     0.155 C 
BRANCH  11  12
ATOM     12  C   UNL A   1      33.723  26.196  24.732  1.00  0.00     0.232 C 
ATOM     13  O   UNL A   1      33.847  25.844  23.549  1.00  0.00    -0.274 OA
BRANCH  12  14
ATOM     14  N   UNL A   1      32.984  27.338  25.157  1.00  0.00    -0.312 N 
BRANCH  14  15
ATOM     15  C   UNL A   1      33.514  28.318  26.142  1.00  0.00     0.125 C 
BRANCH  15  16
ATOM     16  C   UNL A   1      32.607  29.013  27.188  1.00  0.00     0.019 C 
ATOM     17  C   UNL A   1      32.062  30.411  26.951  1.00  0.00     0.006 C 
ENDBRANCH  15  16
ENDBRANCH  14  15
BRANCH  14  18
ATOM     18  C   UNL A   1      31.636  27.543  24.622  1.00  0.00     0.045 A 
ATOM     19  C   UNL A   1      30.580  26.637  24.822  1.00  0.00     0.026 A 
ATOM     20  C   UNL A   1      31.343  28.629  23.794  1.00  0.00     0.046 A 
ATOM     21  C   UNL A   1      29.374  26.715  24.110  1.00  0.00     0.004 A 
ATOM     22  C   UNL A   1      30.172  28.680  23.028  1.00  0.00     0.043 A 
ATOM     23  C   UNL A   1      29.190  27.714  23.168  1.00  0.00     0.020 A 
ATOM     24  Cl  UNL A   1      29.980  29.933  21.861  1.00  0.00    -0.084 Cl
ENDBRANCH  14  18
ENDBRANCH  12  14
ENDBRANCH  11  12
ENDBRANCH   6  11
BRANCH   7  25
ATOM     25  C   UNL A   1      31.906  23.808  26.795  1.00  0.00     0.118 C 
ATOM     26  C   UNL A   1      30.563  23.122  26.576  1.00  0.00     0.027 C 
ENDBRANCH   7  25
ENDBRANCH   3   5
ENDBRANCH   2   3
ENDBRANCH   1   2
BRANCH   1  27
ATOM     27  C   UNL A   1      38.973  21.667  25.711  1.00  0.00     0.275 C 
BRANCH  27  28
ATOM     28  O   UNL A   1      39.670  21.955  26.923  1.00  0.00    -0.458 OA
BRANCH  28  29
ATOM     29  C   UNL A   1      40.815  22.666  26.786  1.00  0.00     0.338 C 
ATOM     30  O   UNL A   1      41.809  22.329  26.163  1.00  0.00    -0.246 OA
BRANCH  29  31
ATOM     31  C   UNL A   1      40.783  23.824  27.688  1.00  0.00     0.060 A 
ATOM     32  C   UNL A   1      39.684  24.685  27.601  1.00  0.00     0.016 A 
ATOM     33  C   UNL A   1      41.947  24.189  28.377  1.00  0.00     0.016 A 
ATOM     34  C   UNL A   1      39.827  25.984  28.051  1.00  0.00     0.010 A 
ATOM     35  C   UNL A   1      42.096  25.490  28.802  1.00  0.00     0.010 A 
ATOM     36  C   UNL A   1      41.063  26.392  28.568  1.00  0.00    -0.014 A 
BRANCH  36  37
ATOM     37  C   UNL A   1      41.217  27.762  29.016  1.00  0.00     0.031 A 
ATOM     38  C   UNL A   1      42.360  28.440  28.361  1.00  0.00     0.074 A 
ATOM     39  C   UNL A   1      40.355  28.381  29.848  1.00  0.00     0.049 A 
ATOM     40  N   UNL A   1      43.485  28.758  28.906  1.00  0.00    -0.248 NA
ATOM     41  C   UNL A   1      42.341  28.598  26.897  1.00  0.00     0.031 C 
ATOM     42  C   UNL A   1      39.078  27.894  30.371  1.00  0.00     0.029 A 
ATOM     43  N   UNL A   1      40.418  29.646  30.350  1.00  0.00    -0.354 N 
ATOM     44  C   UNL A   1      44.225  29.381  27.910  1.00  0.00     0.074 A 
ATOM     45  C   UNL A   1      43.569  29.066  26.670  1.00  0.00     0.031 C 
ATOM     46  C   UNL A   1      38.395  28.925  30.927  1.00  0.00     0.029 A 
ATOM     47  C   UNL A   1      39.235  30.114  30.918  1.00  0.00     0.049 A 
ATOM     48  H   UNL A   1      41.238  30.188  30.314  1.00  0.00     0.167 HD
ATOM     49  C   UNL A   1      45.167  30.310  28.226  1.00  0.00     0.034 A 
ATOM     50  C   UNL A   1      38.961  31.393  31.313  1.00  0.00     0.034 A 
ATOM     51  C   UNL A   1      45.522  30.228  29.625  1.00  0.00     0.049 A 
ATOM     52  C   UNL A   1      40.274  32.051  31.542  1.00  0.00     0.074 A 
ATOM     53  C   UNL A   1      46.059  29.240  30.427  1.00  0.00     0.029 A 
ATOM     54  N   UNL A   1      44.942  31.133  30.488  1.00  0.00    -0.354 N 
ATOM     55  N   UNL A   1      41.086  31.693  32.499  1.00  0.00    -0.248 NA
ATOM     56  C   UNL A   1      40.909  32.720  30.414  1.00  0.00     0.031 C 
ATOM     57  C   UNL A   1      45.340  29.336  31.655  1.00  0.00     0.029 A 
ATOM     58  C   UNL A   1      44.479  30.432  31.575  1.00  0.00     0.049 A 
ATOM     59  H   UNL A   1      44.873  32.106  30.350  1.00  0.00     0.167 HD
ATOM     60  C   UNL A   1      42.343  31.668  31.913  1.00  0.00     0.074 A 
ATOM     61  C   UNL A   1      42.185  32.395  30.652  1.00  0.00     0.031 C 
ATOM     62  C   UNL A   1      43.316  30.816  32.355  1.00  0.00     0.034 A 
BRANCH  49  63
ATOM     63  C   UNL A   1      45.485  31.524  27.387  1.00  0.00     0.023 A 
ATOM     64  C   UNL A   1      46.840  31.764  27.096  1.00  0.00     0.031 A 
ATOM     65  C   UNL A   1      44.597  32.592  27.124  1.00  0.00     0.131 A 
ATOM     66  C   UNL A   1      47.271  33.032  26.673  1.00  0.00     0.055 A 
ATOM     67  C   UNL A   1      45.023  33.829  26.637  1.00  0.00     0.041 A 
ATOM     68  F   UNL A   1      43.292  32.541  27.412  1.00  0.00    -0.206 F 
ATOM     69  C   UNL A   1      46.371  34.068  26.441  1.00  0.00     0.022 A 
BRANCH  66  70
ATOM     70  S   UNL A   1      49.052  33.353  26.606  1.00  0.00     0.124 S 
ATOM     71  O   UNL A   1      49.190  34.449  27.560  1.00  0.00    -0.237 OA
ATOM     72  O   UNL A   1      49.605  32.067  27.016  1.00  0.00    -0.237 OA
ATOM     73  O   UNL A   1      49.278  33.712  25.207  1.00  0.00    -0.744 OA
ENDBRANCH  66  70
ENDBRANCH  49  63
BRANCH  50  74
ATOM     74  C   UNL A   1      37.683  32.154  31.145  1.00  0.00     0.023 A 
ATOM     75  C   UNL A   1      36.893  32.618  32.226  1.00  0.00     0.031 A 
ATOM     76  C   UNL A   1      37.355  32.665  29.869  1.00  0.00     0.131 A 
ATOM     77  C   UNL A   1      35.839  33.544  32.002  1.00  0.00     0.055 A 
ATOM     78  C   UNL A   1      36.321  33.580  29.655  1.00  0.00     0.041 A 
ATOM     79  F   UNL A   1      38.091  32.358  28.788  1.00  0.00    -0.206 F 
ATOM     80  C   UNL A   1      35.564  34.031  30.723  1.00  0.00     0.022 A 
BRANCH  77  81
ATOM     81  S   UNL A   1      34.842  34.202  33.387  1.00  0.00     0.124 S 
ATOM     82  O   UNL A   1      35.252  35.600  33.431  1.00  0.00    -0.237 OA
ATOM     83  O   UNL A   1      33.477  33.937  32.948  1.00  0.00    -0.237 OA
ATOM     84  O   UNL A   1      35.277  33.401  34.534  1.00  0.00    -0.744 OA
ENDBRANCH  77  81
ENDBRANCH  50  74
BRANCH  62  85
ATOM     85  C   UNL A   1      43.089  30.078  33.663  1.00  0.00     0.023 A 
ATOM     86  C   UNL A   1      42.505  28.795  33.788  1.00  0.00     0.031 A 
ATOM     87  C   UNL A   1      43.602  30.674  34.829  1.00  0.00     0.131 A 
ATOM     88  C   UNL A   1      42.444  28.168  35.051  1.00  0.00     0.055 A 
ATOM     89  C   UNL A   1      43.564  30.040  36.068  1.00  0.00     0.041 A 
ATOM     90  F   UNL A   1      44.188  31.882  34.774  1.00  0.00    -0.206 F 
ATOM     91  C   UNL A   1      42.977  28.786  36.185  1.00  0.00     0.022 A 
BRANCH  88  92
ATOM     92  S   UNL A   1      41.643  26.541  35.253  1.00  0.00     0.124 S 
ATOM     93  O   UNL A   1      42.694  25.596  34.900  1.00  0.00    -0.237 OA
ATOM     94  O   UNL A   1      41.242  26.557  36.658  1.00  0.00    -0.237 OA
ATOM     95  O   UNL A   1      40.527  26.591  34.305  1.00  0.00    -0.744 OA
ENDBRANCH  88  92
ENDBRANCH  62  85
ENDBRANCH  36  37
ENDBRANCH  29  31
ENDBRANCH  28  29
ENDBRANCH  27  28
ENDBRANCH   1  27
TORSDOF 21
ENDMDL
MODEL 3
REMARK VINA RESULT:     -11.0      2.892      8.991
REMARK SMILES CCCN(C(=O)Cc1c(C(=O)OCCOC(=O)c2ccc(-c3c4nc(c(-c5cc(S(=O)(=O)[O-])ccc5F)c5ccc([nH]5)c(-c5cc(S(=O)(=O)[O-])ccc5F)c5nc(c(-c6cc(S(=O)(=O)[O-])ccc6F)c6ccc3[nH]6)C=C5)C=C4)cc2)c(C)cn1CC)c1cccc(Cl)c1
REMARK SMILES IDX 13 1 12 2 10 3 11 4 9 5 8 6 84 7 81 8 83 9 82 10 7 11 5 12
REMARK SMILES IDX 6 13 4 14 3 15 2 16 1 17 87 18 88 19 93 20 89 21 91 22 90 23
REMARK SMILES IDX 92 24 85 25 86 26 14 27 15 28 16 29 17 30 18 31 19 32 80 33
REMARK SMILES IDX 20 34 79 35 21 36 22 37 23 38 73 39 24 40 78 41 72 42 74 43
REMARK SMILES IDX 25 44 77 45 71 46 70 47 26 49 58 50 38 51 57 52 39 53 42 54
REMARK SMILES IDX 56 55 75 56 40 57 41 58 55 60 76 61 43 62 27 63 28 64 36 65
REMARK SMILES IDX 29 66 35 67 37 68 34 69 30 70 31 71 32 72 33 73 59 74 60 75
REMARK SMILES IDX 68 76 61 77 67 78 69 79 66 80 62 81 63 82 64 83 65 84 44 85
REMARK SMILES IDX 45 86 53 87 46 88 52 89 54 90 51 91 47 92 48 93 49 94 50 95
REMARK H PARENT 74 48 42 59
REMARK Flexibility Score: inf
ROOT
ATOM      1  C   UNL A   1      37.236  21.735  25.770  1.00  0.00     0.275 C 
ENDROOT
BRANCH   1   2
ATOM      2  O   UNL A   1      36.395  22.892  25.919  1.00  0.00    -0.458 OA
BRANCH   2   3
ATOM      3  C   UNL A   1      35.101  22.590  26.253  1.00  0.00     0.340 C 
ATOM      4  O   UNL A   1      34.784  22.313  27.396  1.00  0.00    -0.246 OA
BRANCH   3   5
ATOM      5  C   UNL A   1      34.152  22.607  25.123  1.00  0.00     0.084 A 
ATOM      6  C   UNL A   1      33.544  23.745  24.558  1.00  0.00     0.042 A 
ATOM      7  N   UNL A   1      32.746  23.303  23.514  1.00  0.00    -0.350 N 
ATOM      8  C   UNL A   1      33.579  21.461  24.465  1.00  0.00    -0.019 A 
ATOM      9  C   UNL A   1      32.721  21.935  23.497  1.00  0.00     0.090 A 
ATOM     10  C   UNL A   1      33.828  20.028  24.775  1.00  0.00     0.047 C 
BRANCH   6  11
ATOM     11  C   UNL A   1      33.674  25.222  24.824  1.00  0.00     0.155 C 
BRANCH  11  12
ATOM     12  C   UNL A   1      32.509  25.988  25.424  1.00  0.00     0.232 C 
ATOM     13  O   UNL A   1      31.860  25.347  26.263  1.00  0.00    -0.274 OA
BRANCH  12  14
ATOM     14  N   UNL A   1      32.268  27.352  25.092  1.00  0.00    -0.312 N 
BRANCH  14  15
ATOM     15  C   UNL A   1      31.621  27.769  23.818  1.00  0.00     0.125 C 
BRANCH  15  16
ATOM     16  C   UNL A   1      30.183  27.335  23.439  1.00  0.00     0.019 C 
ATOM     17  C   UNL A   1      29.116  28.361  23.099  1.00  0.00     0.006 C 
ENDBRANCH  15  16
ENDBRANCH  14  15
BRANCH  14  18
ATOM     18  C   UNL A   1      32.696  28.391  26.031  1.00  0.00     0.045 A 
ATOM     19  C   UNL A   1      31.930  29.535  26.318  1.00  0.00     0.026 A 
ATOM     20  C   UNL A   1      33.952  28.347  26.638  1.00  0.00     0.046 A 
ATOM     21  C   UNL A   1      32.448  30.634  27.020  1.00  0.00     0.004 A 
ATOM     22  C   UNL A   1      34.504  29.461  27.280  1.00  0.00     0.043 A 
ATOM     23  C   UNL A   1      33.761  30.617  27.458  1.00  0.00     0.020 A 
ATOM     24  Cl  UNL A   1      36.144  29.408  27.807  1.00  0.00    -0.084 Cl
ENDBRANCH  14  18
ENDBRANCH  12  14
ENDBRANCH  11  12
ENDBRANCH   6  11
BRANCH   7  25
ATOM     25  C   UNL A   1      32.092  24.112  22.490  1.00  0.00     0.118 C 
ATOM     26  C   UNL A   1      33.035  24.916  21.604  1.00  0.00     0.027 C 
ENDBRANCH   7  25
ENDBRANCH   3   5
ENDBRANCH   2   3
ENDBRANCH   1   2
BRANCH   1  27
ATOM     27  C   UNL A   1      38.708  22.110  25.639  1.00  0.00     0.275 C 
BRANCH  27  28
ATOM     28  O   UNL A   1      39.292  22.525  26.874  1.00  0.00    -0.458 OA
BRANCH  28  29
ATOM     29  C   UNL A   1      40.432  23.250  26.767  1.00  0.00     0.338 C 
ATOM     30  O   UNL A   1      41.441  22.933  26.155  1.00  0.00    -0.246 OA
BRANCH  29  31
ATOM     31  C   UNL A   1      40.374  24.392  27.688  1.00  0.00     0.060 A 
ATOM     32  C   UNL A   1      39.270  25.245  27.596  1.00  0.00     0.016 A 
ATOM     33  C   UNL A   1      41.523  24.755  28.404  1.00  0.00     0.016 A 
ATOM     34  C   UNL A   1      39.393  26.537  28.071  1.00  0.00     0.010 A 
ATOM     35  C   UNL A   1      41.653  26.049  28.854  1.00  0.00     0.010 A 
ATOM     36  C   UNL A   1      40.616  26.947  28.617  1.00  0.00    -0.014 A 
BRANCH  36  37
ATOM     37  C   UNL A   1      40.751  28.311  29.090  1.00  0.00     0.031 A 
ATOM     38  C   UNL A   1      41.875  29.021  28.439  1.00  0.00     0.074 A 
ATOM     39  C   UNL A   1      39.885  28.897  29.943  1.00  0.00     0.049 A 
ATOM     40  N   UNL A   1      42.999  29.348  28.980  1.00  0.00    -0.248 NA
ATOM     41  C   UNL A   1      41.839  29.208  26.979  1.00  0.00     0.031 C 
ATOM     42  C   UNL A   1      38.622  28.377  30.467  1.00  0.00     0.029 A 
ATOM     43  N   UNL A   1      39.931  30.152  30.469  1.00  0.00    -0.354 N 
ATOM     44  C   UNL A   1      43.718  30.004  27.990  1.00  0.00     0.074 A 
ATOM     45  C   UNL A   1      43.057  29.702  26.750  1.00  0.00     0.031 C 
ATOM     46  C   UNL A   1      37.926  29.385  31.050  1.00  0.00     0.029 A 
ATOM     47  C   UNL A   1      38.745  30.589  31.057  1.00  0.00     0.049 A 
ATOM     48  H   UNL A   1      40.741  30.710  30.437  1.00  0.00     0.167 HD
ATOM     49  C   UNL A   1      44.647  30.943  28.315  1.00  0.00     0.034 A 
ATOM     50  C   UNL A   1      38.453  31.854  31.480  1.00  0.00     0.034 A 
ATOM     51  C   UNL A   1      45.016  30.840  29.710  1.00  0.00     0.049 A 
ATOM     52  C   UNL A   1      39.756  32.531  31.710  1.00  0.00     0.074 A 
ATOM     53  C   UNL A   1      45.579  29.845  30.487  1.00  0.00     0.029 A 
ATOM     54  N   UNL A   1      44.430  31.718  30.595  1.00  0.00    -0.354 N 
ATOM     55  N   UNL A   1      40.583  32.168  32.653  1.00  0.00    -0.248 NA
ATOM     56  C   UNL A   1      40.369  33.233  30.590  1.00  0.00     0.031 C 
ATOM     57  C   UNL A   1      44.870  29.904  31.723  1.00  0.00     0.029 A 
ATOM     58  C   UNL A   1      43.989  30.987  31.673  1.00  0.00     0.049 A 
ATOM     59  H   UNL A   1      44.342  32.691  30.478  1.00  0.00     0.167 HD
ATOM     60  C   UNL A   1      41.834  32.177  32.055  1.00  0.00     0.074 A 
ATOM     61  C   UNL A   1      41.652  32.927  30.810  1.00  0.00     0.031 C 
ATOM     62  C   UNL A   1      42.827  31.335  32.471  1.00  0.00     0.034 A 
BRANCH  49  63
ATOM     63  C   UNL A   1      44.936  32.179  27.499  1.00  0.00     0.023 A 
ATOM     64  C   UNL A   1      46.253  32.347  27.034  1.00  0.00     0.031 A 
ATOM     65  C   UNL A   1      44.100  33.316  27.411  1.00  0.00     0.131 A 
ATOM     66  C   UNL A   1      46.713  33.606  26.615  1.00  0.00     0.055 A 
ATOM     67  C   UNL A   1      44.545  34.548  26.928  1.00  0.00     0.041 A 
ATOM     68  F   UNL A   1      42.846  33.334  27.875  1.00  0.00    -0.206 F 
ATOM     69  C   UNL A   1      45.867  34.709  26.559  1.00  0.00     0.022 A 
BRANCH  66  70
ATOM     70  S   UNL A   1      48.487  33.813  26.317  1.00  0.00     0.124 S 
ATOM     71  O   UNL A   1      48.953  32.430  26.335  1.00  0.00    -0.237 OA
ATOM     72  O   UNL A   1      48.498  34.480  25.020  1.00  0.00    -0.237 OA
ATOM     73  O   UNL A   1      48.926  34.634  27.444  1.00  0.00    -0.744 OA
ENDBRANCH  66  70
ENDBRANCH  49  63
BRANCH  50  74
ATOM     74  C   UNL A   1      37.160  32.595  31.339  1.00  0.00     0.023 A 
ATOM     75  C   UNL A   1      36.687  33.129  30.114  1.00  0.00     0.031 A 
ATOM     76  C   UNL A   1      36.231  32.558  32.403  1.00  0.00     0.131 A 
ATOM     77  C   UNL A   1      35.348  33.592  30.001  1.00  0.00     0.055 A 
ATOM     78  C   UNL A   1      34.914  33.009  32.284  1.00  0.00     0.041 A 
ATOM     79  F   UNL A   1      36.548  31.996  33.581  1.00  0.00    -0.206 F 
ATOM     80  C   UNL A   1      34.464  33.520  31.079  1.00  0.00     0.022 A 
BRANCH  77  81
ATOM     81  S   UNL A   1      34.696  34.233  28.417  1.00  0.00     0.124 S 
ATOM     82  O   UNL A   1      34.877  35.672  28.563  1.00  0.00    -0.237 OA
ATOM     83  O   UNL A   1      35.541  33.566  27.434  1.00  0.00    -0.237 OA
ATOM     84  O   UNL A   1      33.299  33.791  28.417  1.00  0.00    -0.744 OA
ENDBRANCH  77  81
ENDBRANCH  50  74
BRANCH  62  85
ATOM     85  C   UNL A   1      42.625  30.567  33.766  1.00  0.00     0.023 A 
ATOM     86  C   UNL A   1      42.227  29.212  33.860  1.00  0.00     0.031 A 
ATOM     87  C   UNL A   1      42.969  31.227  34.958  1.00  0.00     0.131 A 
ATOM     88  C   UNL A   1      42.176  28.578  35.120  1.00  0.00     0.055 A 
ATOM     89  C   UNL A   1      42.944  30.589  36.196  1.00  0.00     0.041 A 
ATOM     90  F   UNL A   1      43.377  32.507  34.935  1.00  0.00    -0.206 F 
ATOM     91  C   UNL A   1      42.539  29.263  36.283  1.00  0.00     0.022 A 
BRANCH  88  92
ATOM     92  S   UNL A   1      41.608  26.851  35.280  1.00  0.00     0.124 S 
ATOM     93  O   UNL A   1      41.165  26.764  36.666  1.00  0.00    -0.237 OA
ATOM     94  O   UNL A   1      40.560  26.766  34.266  1.00  0.00    -0.237 OA
ATOM     95  O   UNL A   1      42.809  26.069  34.976  1.00  0.00    -0.744 OA
ENDBRANCH  88  92
ENDBRANCH  62  85
ENDBRANCH  36  37
ENDBRANCH  29  31
ENDBRANCH  28  29
ENDBRANCH  27  28
ENDBRANCH   1  27
TORSDOF 21
ENDMDL
