MODEL 1
REMARK VINA RESULT:     -13.0      0.000      0.000
REMARK SMILES O=C1O[C@@H](c2ccc(O)c(O)c2)[C@H](C(=O)OCCOC(=O)c2ccc(-c3c4nc(c(-c5cc(S(=O)(=O)[O-])ccc5F)c5ccc([nH]5)c(-c5cc(S(=O)(=O)[O-])ccc5F)c5nc(c(-c6cc(S(=O)(=O)[O-])ccc6F)c6ccc3[nH]6)C=C5)C=C4)cc2)/C1=C\c1ccc(O)c(O)c1
REMARK SMILES IDX 18 1 17 2 16 3 14 4 15 5 13 6 1 7 2 8 3 9 85 10 4 11 86 12
REMARK SMILES IDX 5 13 6 14 12 15 7 16 10 17 8 18 11 19 9 21 87 23 88 24 94 25
REMARK SMILES IDX 89 26 92 27 90 28 93 29 91 31 19 33 20 34 21 35 22 36 23 37
REMARK SMILES IDX 84 38 24 39 83 40 25 41 26 42 27 43 77 44 28 45 82 46 76 47
REMARK SMILES IDX 78 48 29 49 81 50 75 51 74 52 30 54 62 55 42 56 61 57 43 58
REMARK SMILES IDX 46 59 60 60 79 61 44 62 45 63 59 65 80 66 47 67 31 68 32 69
REMARK SMILES IDX 40 70 33 71 39 72 41 73 38 74 34 75 35 76 36 77 37 78 63 79
REMARK SMILES IDX 64 80 72 81 65 82 71 83 73 84 70 85 66 86 67 87 68 88 69 89
REMARK SMILES IDX 48 90 49 91 57 92 50 93 56 94 58 95 55 96 51 97 52 98 53 99
REMARK SMILES IDX 54 100
REMARK H PARENT 11 20 9 22 93 30 91 32 78 53 46 64
REMARK Flexibility Score: inf
ROOT
ATOM      1  C   UNL A   1      37.631  20.001  24.995  1.00  0.00     0.275 C 
ENDROOT
BRANCH   1   2
ATOM      2  C   UNL A   1      36.309  20.764  25.154  1.00  0.00     0.274 C 
BRANCH   2   3
ATOM      3  O   UNL A   1      36.099  21.734  24.102  1.00  0.00    -0.461 OA
BRANCH   3   4
ATOM      4  C   UNL A   1      35.562  22.929  24.485  1.00  0.00     0.318 C 
ATOM      5  O   UNL A   1      36.230  23.891  24.841  1.00  0.00    -0.251 OA
BRANCH   4   6
ATOM      6  C   UNL A   1      34.038  22.859  24.524  1.00  0.00     0.182 C 
ATOM      7  O   UNL A   1      33.286  23.922  21.239  1.00  0.00    -0.247 OA
ATOM      8  C   UNL A   1      33.408  23.804  22.432  1.00  0.00     0.335 C 
ATOM      9  O   UNL A   1      33.572  24.823  23.329  1.00  0.00    -0.453 OA
ATOM     10  C   UNL A   1      33.415  22.536  23.210  1.00  0.00     0.056 C 
ATOM     11  C   UNL A   1      33.560  24.302  24.673  1.00  0.00     0.226 C 
ATOM     12  C   UNL A   1      32.791  21.448  22.729  1.00  0.00     0.020 C 
BRANCH  11  13
ATOM     13  C   UNL A   1      32.176  24.456  25.292  1.00  0.00    -0.002 A 
ATOM     14  C   UNL A   1      31.394  25.591  25.009  1.00  0.00     0.012 A 
ATOM     15  C   UNL A   1      31.644  23.469  26.142  1.00  0.00     0.057 A 
ATOM     16  C   UNL A   1      30.147  25.777  25.612  1.00  0.00     0.050 A 
ATOM     17  C   UNL A   1      30.400  23.657  26.728  1.00  0.00     0.157 A 
ATOM     18  C   UNL A   1      29.663  24.808  26.480  1.00  0.00     0.157 A 
BRANCH  17  19
ATOM     19  O   UNL A   1      29.911  22.701  27.572  1.00  0.00    -0.504 OA
ATOM     20  H   UNL A   1      29.159  22.882  28.101  1.00  0.00     0.293 HD
ENDBRANCH  17  19
BRANCH  18  21
ATOM     21  O   UNL A   1      28.460  24.947  27.115  1.00  0.00    -0.504 OA
ATOM     22  H   UNL A   1      27.687  24.576  26.739  1.00  0.00     0.293 HD
ENDBRANCH  18  21
ENDBRANCH  11  13
BRANCH  12  23
ATOM     23  C   UNL A   1      32.652  20.147  23.397  1.00  0.00    -0.021 A 
ATOM     24  C   UNL A   1      32.378  18.960  22.714  1.00  0.00     0.012 A 
ATOM     25  C   UNL A   1      32.875  20.077  24.770  1.00  0.00     0.058 A 
ATOM     26  C   UNL A   1      32.332  17.736  23.411  1.00  0.00     0.051 A 
ATOM     27  C   UNL A   1      32.761  18.889  25.470  1.00  0.00     0.157 A 
ATOM     28  C   UNL A   1      32.521  17.715  24.788  1.00  0.00     0.157 A 
BRANCH  27  29
ATOM     29  O   UNL A   1      32.918  18.892  26.827  1.00  0.00    -0.504 OA
ATOM     30  H   UNL A   1      33.213  19.667  27.263  1.00  0.00     0.293 HD
ENDBRANCH  27  29
BRANCH  28  31
ATOM     31  O   UNL A   1      32.512  16.553  25.504  1.00  0.00    -0.504 OA
ATOM     32  H   UNL A   1      32.047  16.507  26.316  1.00  0.00     0.293 HD
ENDBRANCH  28  31
ENDBRANCH  12  23
ENDBRANCH   4   6
ENDBRANCH   3   4
ENDBRANCH   2   3
ENDBRANCH   1   2
BRANCH   1  33
ATOM     33  O   UNL A   1      38.773  20.884  24.966  1.00  0.00    -0.458 OA
BRANCH  33  34
ATOM     34  C   UNL A   1      39.574  20.733  26.044  1.00  0.00     0.338 C 
ATOM     35  O   UNL A   1      40.180  19.709  26.325  1.00  0.00    -0.246 OA
BRANCH  34  36
ATOM     36  C   UNL A   1      39.747  21.966  26.837  1.00  0.00     0.060 A 
ATOM     37  C   UNL A   1      39.066  23.100  26.400  1.00  0.00     0.016 A 
ATOM     38  C   UNL A   1      40.884  22.107  27.640  1.00  0.00     0.016 A 
ATOM     39  C   UNL A   1      39.627  24.362  26.611  1.00  0.00     0.010 A 
ATOM     40  C   UNL A   1      41.377  23.390  27.944  1.00  0.00     0.010 A 
ATOM     41  C   UNL A   1      40.797  24.537  27.377  1.00  0.00    -0.014 A 
BRANCH  41  42
ATOM     42  C   UNL A   1      41.389  25.907  27.543  1.00  0.00     0.031 A 
ATOM     43  C   UNL A   1      42.741  26.296  26.974  1.00  0.00     0.074 A 
ATOM     44  C   UNL A   1      40.663  26.854  28.171  1.00  0.00     0.049 A 
ATOM     45  N   UNL A   1      43.431  27.402  27.135  1.00  0.00    -0.248 NA
ATOM     46  C   UNL A   1      43.403  25.324  26.099  1.00  0.00     0.031 C 
ATOM     47  C   UNL A   1      39.313  26.662  28.708  1.00  0.00     0.029 A 
ATOM     48  N   UNL A   1      40.945  28.167  28.454  1.00  0.00    -0.354 N 
ATOM     49  C   UNL A   1      44.609  27.247  26.401  1.00  0.00     0.074 A 
ATOM     50  C   UNL A   1      44.542  25.936  25.794  1.00  0.00     0.031 C 
ATOM     51  C   UNL A   1      38.866  27.820  29.203  1.00  0.00     0.029 A 
ATOM     52  C   UNL A   1      39.950  28.790  29.168  1.00  0.00     0.049 A 
ATOM     53  H   UNL A   1      41.776  28.616  28.175  1.00  0.00     0.167 HD
ATOM     54  C   UNL A   1      45.652  28.111  26.260  1.00  0.00     0.034 A 
ATOM     55  C   UNL A   1      39.923  29.971  29.814  1.00  0.00     0.034 A 
ATOM     56  C   UNL A   1      45.702  29.421  26.878  1.00  0.00     0.049 A 
ATOM     57  C   UNL A   1      41.133  30.852  29.765  1.00  0.00     0.074 A 
ATOM     58  C   UNL A   1      46.706  30.375  26.803  1.00  0.00     0.029 A 
ATOM     59  N   UNL A   1      44.715  29.960  27.694  1.00  0.00    -0.354 N 
ATOM     60  N   UNL A   1      42.271  30.658  29.140  1.00  0.00    -0.248 NA
ATOM     61  C   UNL A   1      41.056  32.107  30.517  1.00  0.00     0.031 C 
ATOM     62  C   UNL A   1      46.367  31.445  27.640  1.00  0.00     0.029 A 
ATOM     63  C   UNL A   1      45.108  31.207  28.165  1.00  0.00     0.049 A 
ATOM     64  H   UNL A   1      43.861  29.521  27.909  1.00  0.00     0.167 HD
ATOM     65  C   UNL A   1      43.046  31.777  29.418  1.00  0.00     0.074 A 
ATOM     66  C   UNL A   1      42.232  32.649  30.243  1.00  0.00     0.031 C 
ATOM     67  C   UNL A   1      44.315  32.055  29.024  1.00  0.00     0.034 A 
BRANCH  54  68
ATOM     68  C   UNL A   1      46.869  27.654  25.476  1.00  0.00     0.023 A 
ATOM     69  C   UNL A   1      47.067  27.963  24.117  1.00  0.00     0.031 A 
ATOM     70  C   UNL A   1      47.883  26.923  26.130  1.00  0.00     0.131 A 
ATOM     71  C   UNL A   1      48.225  27.518  23.453  1.00  0.00     0.055 A 
ATOM     72  C   UNL A   1      49.063  26.546  25.486  1.00  0.00     0.041 A 
ATOM     73  F   UNL A   1      47.746  26.572  27.419  1.00  0.00    -0.206 F 
ATOM     74  C   UNL A   1      49.237  26.837  24.137  1.00  0.00     0.022 A 
BRANCH  71  75
ATOM     75  S   UNL A   1      48.356  27.743  21.655  1.00  0.00     0.124 S 
ATOM     76  O   UNL A   1      47.038  28.279  21.315  1.00  0.00    -0.237 OA
ATOM     77  O   UNL A   1      49.474  28.670  21.531  1.00  0.00    -0.237 OA
ATOM     78  O   UNL A   1      48.610  26.392  21.157  1.00  0.00    -0.744 OA
ENDBRANCH  71  75
ENDBRANCH  54  68
BRANCH  55  79
ATOM     79  C   UNL A   1      38.741  30.306  30.652  1.00  0.00     0.023 A 
ATOM     80  C   UNL A   1      37.682  31.077  30.154  1.00  0.00     0.031 A 
ATOM     81  C   UNL A   1      38.645  29.821  31.973  1.00  0.00     0.131 A 
ATOM     82  C   UNL A   1      36.575  31.343  30.973  1.00  0.00     0.055 A 
ATOM     83  C   UNL A   1      37.512  30.031  32.756  1.00  0.00     0.041 A 
ATOM     84  F   UNL A   1      39.637  29.085  32.501  1.00  0.00    -0.206 F 
ATOM     85  C   UNL A   1      36.470  30.803  32.259  1.00  0.00     0.022 A 
BRANCH  82  86
ATOM     86  S   UNL A   1      35.294  32.469  30.360  1.00  0.00     0.124 S 
ATOM     87  O   UNL A   1      34.445  32.623  31.536  1.00  0.00    -0.237 OA
ATOM     88  O   UNL A   1      36.075  33.640  29.976  1.00  0.00    -0.237 OA
ATOM     89  O   UNL A   1      34.695  31.730  29.251  1.00  0.00    -0.744 OA
ENDBRANCH  82  86
ENDBRANCH  55  79
BRANCH  67  90
ATOM     90  C   UNL A   1      44.876  33.383  29.470  1.00  0.00     0.023 A 
ATOM     91  C   UNL A   1      44.762  34.534  28.670  1.00  0.00     0.031 A 
ATOM     92  C   UNL A   1      45.605  33.481  30.668  1.00  0.00     0.131 A 
ATOM     93  C   UNL A   1      45.441  35.707  29.031  1.00  0.00     0.055 A 
ATOM     94  C   UNL A   1      46.218  34.673  31.058  1.00  0.00     0.041 A 
ATOM     95  F   UNL A   1      45.752  32.414  31.469  1.00  0.00    -0.206 F 
ATOM     96  C   UNL A   1      46.157  35.788  30.228  1.00  0.00     0.022 A 
BRANCH  93  97
ATOM     97  S   UNL A   1      45.498  37.077  27.844  1.00  0.00     0.124 S 
ATOM     98  O   UNL A   1      46.556  36.646  26.935  1.00  0.00    -0.237 OA
ATOM     99  O   UNL A   1      44.145  37.072  27.296  1.00  0.00    -0.237 OA
ATOM    100  O   UNL A   1      45.826  38.236  28.672  1.00  0.00    -0.744 OA
ENDBRANCH  93  97
ENDBRANCH  67  90
ENDBRANCH  41  42
ENDBRANCH  34  36
ENDBRANCH  33  34
ENDBRANCH   1  33
TORSDOF 20
ENDMDL
MODEL 2
REMARK VINA RESULT:     -13.0      5.045      8.168
REMARK SMILES O=C1O[C@@H](c2ccc(O)c(O)c2)[C@H](C(=O)OCCOC(=O)c2ccc(-c3c4nc(c(-c5cc(S(=O)(=O)[O-])ccc5F)c5ccc([nH]5)c(-c5cc(S(=O)(=O)[O-])ccc5F)c5nc(c(-c6cc(S(=O)(=O)[O-])ccc6F)c6ccc3[nH]6)C=C5)C=C4)cc2)/C1=C\c1ccc(O)c(O)c1
REMARK SMILES IDX 18 1 17 2 16 3 14 4 15 5 13 6 1 7 2 8 3 9 85 10 4 11 86 12
REMARK SMILES IDX 5 13 6 14 12 15 7 16 10 17 8 18 11 19 9 21 87 23 88 24 94 25
REMARK SMILES IDX 89 26 92 27 90 28 93 29 91 31 19 33 20 34 21 35 22 36 23 37
REMARK SMILES IDX 84 38 24 39 83 40 25 41 26 42 27 43 77 44 28 45 82 46 76 47
REMARK SMILES IDX 78 48 29 49 81 50 75 51 74 52 30 54 62 55 42 56 61 57 43 58
REMARK SMILES IDX 46 59 60 60 79 61 44 62 45 63 59 65 80 66 47 67 31 68 32 69
REMARK SMILES IDX 40 70 33 71 39 72 41 73 38 74 34 75 35 76 36 77 37 78 63 79
REMARK SMILES IDX 64 80 72 81 65 82 71 83 73 84 70 85 66 86 67 87 68 88 69 89
REMARK SMILES IDX 48 90 49 91 57 92 50 93 56 94 58 95 55 96 51 97 52 98 53 99
REMARK SMILES IDX 54 100
REMARK H PARENT 11 20 9 22 93 30 91 32 78 53 46 64
REMARK Flexibility Score: inf
ROOT
ATOM      1  C   UNL A   1      31.650  31.427  26.359  1.00  0.00     0.275 C 
ENDROOT
BRANCH   1   2
ATOM      2  C   UNL A   1      31.656  30.144  25.518  1.00  0.00     0.274 C 
BRANCH   2   3
ATOM      3  O   UNL A   1      31.415  28.960  26.313  1.00  0.00    -0.461 OA
BRANCH   3   4
ATOM      4  C   UNL A   1      32.263  27.911  26.100  1.00  0.00     0.318 C 
ATOM      5  O   UNL A   1      33.300  27.738  26.725  1.00  0.00    -0.251 OA
BRANCH   4   6
ATOM      6  C   UNL A   1      31.806  27.069  24.912  1.00  0.00     0.182 C 
ATOM      7  O   UNL A   1      29.778  24.701  26.575  1.00  0.00    -0.247 OA
ATOM      8  C   UNL A   1      30.631  25.277  25.948  1.00  0.00     0.335 C 
ATOM      9  O   UNL A   1      31.958  24.952  25.910  1.00  0.00    -0.453 OA
ATOM     10  C   UNL A   1      30.452  26.472  25.080  1.00  0.00     0.056 C 
ATOM     11  C   UNL A   1      32.644  25.793  24.960  1.00  0.00     0.226 C 
ATOM     12  C   UNL A   1      29.258  26.719  24.515  1.00  0.00     0.020 C 
BRANCH  11  13
ATOM     13  C   UNL A   1      32.794  25.076  23.624  1.00  0.00    -0.002 A 
ATOM     14  C   UNL A   1      32.923  23.675  23.581  1.00  0.00     0.012 A 
ATOM     15  C   UNL A   1      32.793  25.788  22.411  1.00  0.00     0.057 A 
ATOM     16  C   UNL A   1      33.119  23.006  22.370  1.00  0.00     0.050 A 
ATOM     17  C   UNL A   1      32.978  25.114  21.212  1.00  0.00     0.157 A 
ATOM     18  C   UNL A   1      33.156  23.736  21.190  1.00  0.00     0.157 A 
BRANCH  17  19
ATOM     19  O   UNL A   1      33.002  25.825  20.046  1.00  0.00    -0.504 OA
ATOM     20  H   UNL A   1      33.632  25.618  19.384  1.00  0.00     0.293 HD
ENDBRANCH  17  19
BRANCH  18  21
ATOM     21  O   UNL A   1      33.367  23.137  19.980  1.00  0.00    -0.504 OA
ATOM     22  H   UNL A   1      33.017  22.285  19.811  1.00  0.00     0.293 HD
ENDBRANCH  18  21
ENDBRANCH  11  13
BRANCH  12  23
ATOM     23  C   UNL A   1      28.935  27.812  23.588  1.00  0.00    -0.021 A 
ATOM     24  C   UNL A   1      27.642  28.312  23.412  1.00  0.00     0.012 A 
ATOM     25  C   UNL A   1      29.976  28.433  22.901  1.00  0.00     0.058 A 
ATOM     26  C   UNL A   1      27.417  29.411  22.561  1.00  0.00     0.051 A 
ATOM     27  C   UNL A   1      29.751  29.467  22.010  1.00  0.00     0.157 A 
ATOM     28  C   UNL A   1      28.478  29.977  21.864  1.00  0.00     0.157 A 
BRANCH  27  29
ATOM     29  O   UNL A   1      30.800  29.989  21.308  1.00  0.00    -0.504 OA
ATOM     30  H   UNL A   1      31.644  29.586  21.360  1.00  0.00     0.293 HD
ENDBRANCH  27  29
BRANCH  28  31
ATOM     31  O   UNL A   1      28.315  31.059  21.048  1.00  0.00    -0.504 OA
ATOM     32  H   UNL A   1      28.309  31.922  21.411  1.00  0.00     0.293 HD
ENDBRANCH  28  31
ENDBRANCH  12  23
ENDBRANCH   4   6
ENDBRANCH   3   4
ENDBRANCH   2   3
ENDBRANCH   1   2
BRANCH   1  33
ATOM     33  O   UNL A   1      32.476  31.314  27.538  1.00  0.00    -0.458 OA
BRANCH  33  34
ATOM     34  C   UNL A   1      33.370  32.322  27.644  1.00  0.00     0.338 C 
ATOM     35  O   UNL A   1      33.080  33.501  27.786  1.00  0.00    -0.246 OA
BRANCH  34  36
ATOM     36  C   UNL A   1      34.777  31.873  27.673  1.00  0.00     0.060 A 
ATOM     37  C   UNL A   1      35.002  30.515  27.889  1.00  0.00     0.016 A 
ATOM     38  C   UNL A   1      35.782  32.798  27.969  1.00  0.00     0.016 A 
ATOM     39  C   UNL A   1      36.154  30.110  28.569  1.00  0.00     0.010 A 
ATOM     40  C   UNL A   1      36.990  32.366  28.549  1.00  0.00     0.010 A 
ATOM     41  C   UNL A   1      37.168  31.023  28.923  1.00  0.00    -0.014 A 
BRANCH  41  42
ATOM     42  C   UNL A   1      38.369  30.552  29.690  1.00  0.00     0.031 A 
ATOM     43  C   UNL A   1      39.390  29.585  29.116  1.00  0.00     0.074 A 
ATOM     44  C   UNL A   1      38.588  31.055  30.922  1.00  0.00     0.049 A 
ATOM     45  N   UNL A   1      40.411  29.001  29.699  1.00  0.00    -0.248 NA
ATOM     46  C   UNL A   1      39.255  29.237  27.698  1.00  0.00     0.031 C 
ATOM     47  C   UNL A   1      37.745  32.052  31.587  1.00  0.00     0.029 A 
ATOM     48  N   UNL A   1      39.589  30.814  31.831  1.00  0.00    -0.354 N 
ATOM     49  C   UNL A   1      41.023  28.206  28.727  1.00  0.00     0.074 A 
ATOM     50  C   UNL A   1      40.254  28.381  27.515  1.00  0.00     0.031 C 
ATOM     51  C   UNL A   1      38.287  32.375  32.764  1.00  0.00     0.029 A 
ATOM     52  C   UNL A   1      39.421  31.496  33.011  1.00  0.00     0.049 A 
ATOM     53  H   UNL A   1      40.349  30.213  31.654  1.00  0.00     0.167 HD
ATOM     54  C   UNL A   1      42.111  27.397  28.842  1.00  0.00     0.034 A 
ATOM     55  C   UNL A   1      40.035  31.379  34.203  1.00  0.00     0.034 A 
ATOM     56  C   UNL A   1      42.868  27.233  30.067  1.00  0.00     0.049 A 
ATOM     57  C   UNL A   1      41.143  30.383  34.353  1.00  0.00     0.074 A 
ATOM     58  C   UNL A   1      43.983  26.442  30.296  1.00  0.00     0.029 A 
ATOM     59  N   UNL A   1      42.583  27.859  31.275  1.00  0.00    -0.354 N 
ATOM     60  N   UNL A   1      41.655  29.577  33.452  1.00  0.00    -0.248 NA
ATOM     61  C   UNL A   1      41.748  30.276  35.683  1.00  0.00     0.031 C 
ATOM     62  C   UNL A   1      44.316  26.521  31.653  1.00  0.00     0.029 A 
ATOM     63  C   UNL A   1      43.469  27.435  32.258  1.00  0.00     0.049 A 
ATOM     64  H   UNL A   1      41.856  28.508  31.414  1.00  0.00     0.167 HD
ATOM     65  C   UNL A   1      42.655  28.869  34.109  1.00  0.00     0.074 A 
ATOM     66  C   UNL A   1      42.687  29.366  35.471  1.00  0.00     0.031 C 
ATOM     67  C   UNL A   1      43.471  27.898  33.626  1.00  0.00     0.034 A 
BRANCH  54  68
ATOM     68  C   UNL A   1      42.518  26.556  27.645  1.00  0.00     0.023 A 
ATOM     69  C   UNL A   1      42.124  25.215  27.482  1.00  0.00     0.031 A 
ATOM     70  C   UNL A   1      43.288  27.137  26.616  1.00  0.00     0.131 A 
ATOM     71  C   UNL A   1      42.527  24.495  26.341  1.00  0.00     0.055 A 
ATOM     72  C   UNL A   1      43.624  26.441  25.453  1.00  0.00     0.041 A 
ATOM     73  F   UNL A   1      43.719  28.405  26.721  1.00  0.00    -0.206 F 
ATOM     74  C   UNL A   1      43.249  25.109  25.313  1.00  0.00     0.022 A 
BRANCH  71  75
ATOM     75  S   UNL A   1      42.190  22.712  26.256  1.00  0.00     0.124 S 
ATOM     76  O   UNL A   1      40.741  22.662  26.447  1.00  0.00    -0.237 OA
ATOM     77  O   UNL A   1      42.671  22.361  24.925  1.00  0.00    -0.237 OA
ATOM     78  O   UNL A   1      42.970  22.161  27.363  1.00  0.00    -0.744 OA
ENDBRANCH  71  75
ENDBRANCH  54  68
BRANCH  55  79
ATOM     79  C   UNL A   1      39.514  32.154  35.361  1.00  0.00     0.023 A 
ATOM     80  C   UNL A   1      39.923  33.472  35.606  1.00  0.00     0.031 A 
ATOM     81  C   UNL A   1      38.560  31.582  36.229  1.00  0.00     0.131 A 
ATOM     82  C   UNL A   1      39.382  34.172  36.695  1.00  0.00     0.055 A 
ATOM     83  C   UNL A   1      37.977  32.307  37.265  1.00  0.00     0.041 A 
ATOM     84  F   UNL A   1      38.143  30.319  36.042  1.00  0.00    -0.206 F 
ATOM     85  C   UNL A   1      38.393  33.609  37.508  1.00  0.00     0.022 A 
BRANCH  82  86
ATOM     86  S   UNL A   1      40.041  35.815  37.081  1.00  0.00     0.124 S 
ATOM     87  O   UNL A   1      39.691  36.567  35.881  1.00  0.00    -0.237 OA
ATOM     88  O   UNL A   1      39.304  36.163  38.293  1.00  0.00    -0.237 OA
ATOM     89  O   UNL A   1      41.469  35.574  37.271  1.00  0.00    -0.744 OA
ENDBRANCH  82  86
ENDBRANCH  55  79
BRANCH  67  90
ATOM     90  C   UNL A   1      44.487  27.339  34.592  1.00  0.00     0.023 A 
ATOM     91  C   UNL A   1      45.758  27.923  34.740  1.00  0.00     0.031 A 
ATOM     92  C   UNL A   1      44.213  26.161  35.309  1.00  0.00     0.131 A 
ATOM     93  C   UNL A   1      46.736  27.281  35.513  1.00  0.00     0.055 A 
ATOM     94  C   UNL A   1      45.168  25.567  36.136  1.00  0.00     0.041 A 
ATOM     95  F   UNL A   1      43.019  25.557  35.203  1.00  0.00    -0.206 F 
ATOM     96  C   UNL A   1      46.445  26.114  36.224  1.00  0.00     0.022 A 
BRANCH  93  97
ATOM     97  S   UNL A   1      48.436  27.912  35.459  1.00  0.00     0.124 S 
ATOM     98  O   UNL A   1      49.213  26.713  35.761  1.00  0.00    -0.237 OA
ATOM     99  O   UNL A   1      48.540  28.411  34.092  1.00  0.00    -0.237 OA
ATOM    100  O   UNL A   1      48.453  28.940  36.497  1.00  0.00    -0.744 OA
ENDBRANCH  93  97
ENDBRANCH  67  90
ENDBRANCH  41  42
ENDBRANCH  34  36
ENDBRANCH  33  34
ENDBRANCH   1  33
TORSDOF 20
ENDMDL
MODEL 3
REMARK VINA RESULT:     -12.9      5.149      8.389
REMARK SMILES O=C1O[C@@H](c2ccc(O)c(O)c2)[C@H](C(=O)OCCOC(=O)c2ccc(-c3c4nc(c(-c5cc(S(=O)(=O)[O-])ccc5F)c5ccc([nH]5)c(-c5cc(S(=O)(=O)[O-])ccc5F)c5nc(c(-c6cc(S(=O)(=O)[O-])ccc6F)c6ccc3[nH]6)C=C5)C=C4)cc2)/C1=C\c1ccc(O)c(O)c1
REMARK SMILES IDX 18 1 17 2 16 3 14 4 15 5 13 6 1 7 2 8 3 9 85 10 4 11 86 12
REMARK SMILES IDX 5 13 6 14 12 15 7 16 10 17 8 18 11 19 9 21 87 23 88 24 94 25
REMARK SMILES IDX 89 26 92 27 90 28 93 29 91 31 19 33 20 34 21 35 22 36 23 37
REMARK SMILES IDX 84 38 24 39 83 40 25 41 26 42 27 43 77 44 28 45 82 46 76 47
REMARK SMILES IDX 78 48 29 49 81 50 75 51 74 52 30 54 62 55 42 56 61 57 43 58
REMARK SMILES IDX 46 59 60 60 79 61 44 62 45 63 59 65 80 66 47 67 31 68 32 69
REMARK SMILES IDX 40 70 33 71 39 72 41 73 38 74 34 75 35 76 36 77 37 78 63 79
REMARK SMILES IDX 64 80 72 81 65 82 71 83 73 84 70 85 66 86 67 87 68 88 69 89
REMARK SMILES IDX 48 90 49 91 57 92 50 93 56 94 58 95 55 96 51 97 52 98 53 99
REMARK SMILES IDX 54 100
REMARK H PARENT 11 20 9 22 93 30 91 32 78 53 46 64
REMARK Flexibility Score: inf
ROOT
ATOM      1  C   UNL A   1      31.898  31.375  26.532  1.00  0.00     0.275 C 
ENDROOT
BRANCH   1   2
ATOM      2  C   UNL A   1      31.665  30.136  25.657  1.00  0.00     0.274 C 
BRANCH   2   3
ATOM      3  O   UNL A   1      32.494  29.017  26.049  1.00  0.00    -0.461 OA
BRANCH   3   4
ATOM      4  C   UNL A   1      31.837  27.861  26.357  1.00  0.00     0.318 C 
ATOM      5  O   UNL A   1      31.645  27.474  27.502  1.00  0.00    -0.251 OA
BRANCH   4   6
ATOM      6  C   UNL A   1      31.489  27.074  25.097  1.00  0.00     0.182 C 
ATOM      7  O   UNL A   1      29.126  24.803  26.416  1.00  0.00    -0.247 OA
ATOM      8  C   UNL A   1      30.087  25.337  25.921  1.00  0.00     0.335 C 
ATOM      9  O   UNL A   1      31.386  24.931  26.044  1.00  0.00    -0.453 OA
ATOM     10  C   UNL A   1      30.092  26.559  25.072  1.00  0.00     0.056 C 
ATOM     11  C   UNL A   1      32.238  25.748  25.215  1.00  0.00     0.226 C 
ATOM     12  C   UNL A   1      28.999  26.892  24.365  1.00  0.00     0.020 C 
BRANCH  11  13
ATOM     13  C   UNL A   1      32.518  25.052  23.889  1.00  0.00    -0.002 A 
ATOM     14  C   UNL A   1      32.666  23.653  23.841  1.00  0.00     0.012 A 
ATOM     15  C   UNL A   1      32.620  25.780  22.690  1.00  0.00     0.057 A 
ATOM     16  C   UNL A   1      32.981  23.003  22.643  1.00  0.00     0.050 A 
ATOM     17  C   UNL A   1      32.922  25.125  21.505  1.00  0.00     0.157 A 
ATOM     18  C   UNL A   1      33.117  23.750  21.482  1.00  0.00     0.157 A 
BRANCH  17  19
ATOM     19  O   UNL A   1      33.044  25.852  20.355  1.00  0.00    -0.504 OA
ATOM     20  H   UNL A   1      33.640  25.576  19.687  1.00  0.00     0.293 HD
ENDBRANCH  17  19
BRANCH  18  21
ATOM     21  O   UNL A   1      33.445  23.170  20.288  1.00  0.00    -0.504 OA
ATOM     22  H   UNL A   1      32.883  23.273  19.547  1.00  0.00     0.293 HD
ENDBRANCH  18  21
ENDBRANCH  11  13
BRANCH  12  23
ATOM     23  C   UNL A   1      28.864  28.022  23.437  1.00  0.00    -0.021 A 
ATOM     24  C   UNL A   1      27.643  28.635  23.146  1.00  0.00     0.012 A 
ATOM     25  C   UNL A   1      30.017  28.561  22.870  1.00  0.00     0.058 A 
ATOM     26  C   UNL A   1      27.597  29.762  22.303  1.00  0.00     0.051 A 
ATOM     27  C   UNL A   1      29.971  29.623  21.985  1.00  0.00     0.157 A 
ATOM     28  C   UNL A   1      28.767  30.244  21.726  1.00  0.00     0.157 A 
BRANCH  27  29
ATOM     29  O   UNL A   1      31.126  30.063  21.403  1.00  0.00    -0.504 OA
ATOM     30  H   UNL A   1      31.735  29.446  21.048  1.00  0.00     0.293 HD
ENDBRANCH  27  29
BRANCH  28  31
ATOM     31  O   UNL A   1      28.780  31.348  20.923  1.00  0.00    -0.504 OA
ATOM     32  H   UNL A   1      29.575  31.824  20.796  1.00  0.00     0.293 HD
ENDBRANCH  28  31
ENDBRANCH  12  23
ENDBRANCH   4   6
ENDBRANCH   3   4
ENDBRANCH   2   3
ENDBRANCH   1   2
BRANCH   1  33
ATOM     33  O   UNL A   1      32.807  31.113  27.623  1.00  0.00    -0.458 OA
BRANCH  33  34
ATOM     34  C   UNL A   1      33.712  32.103  27.795  1.00  0.00     0.338 C 
ATOM     35  O   UNL A   1      33.433  33.268  28.035  1.00  0.00    -0.246 OA
BRANCH  34  36
ATOM     36  C   UNL A   1      35.114  31.643  27.763  1.00  0.00     0.060 A 
ATOM     37  C   UNL A   1      35.338  30.281  27.961  1.00  0.00     0.016 A 
ATOM     38  C   UNL A   1      36.139  32.558  28.025  1.00  0.00     0.016 A 
ATOM     39  C   UNL A   1      36.513  29.863  28.591  1.00  0.00     0.010 A 
ATOM     40  C   UNL A   1      37.365  32.112  28.553  1.00  0.00     0.010 A 
ATOM     41  C   UNL A   1      37.548  30.766  28.910  1.00  0.00    -0.014 A 
BRANCH  41  42
ATOM     42  C   UNL A   1      38.775  30.280  29.625  1.00  0.00     0.031 A 
ATOM     43  C   UNL A   1      39.724  29.254  29.033  1.00  0.00     0.074 A 
ATOM     44  C   UNL A   1      39.085  30.823  30.820  1.00  0.00     0.049 A 
ATOM     45  N   UNL A   1      40.758  28.655  29.579  1.00  0.00    -0.248 NA
ATOM     46  C   UNL A   1      39.494  28.855  27.641  1.00  0.00     0.031 C 
ATOM     47  C   UNL A   1      38.318  31.876  31.491  1.00  0.00     0.029 A 
ATOM     48  N   UNL A   1      40.129  30.580  31.678  1.00  0.00    -0.354 N 
ATOM     49  C   UNL A   1      41.282  27.800  28.607  1.00  0.00     0.074 A 
ATOM     50  C   UNL A   1      40.449  27.956  27.435  1.00  0.00     0.031 C 
ATOM     51  C   UNL A   1      38.941  32.224  32.620  1.00  0.00     0.029 A 
ATOM     52  C   UNL A   1      40.055  31.314  32.837  1.00  0.00     0.049 A 
ATOM     53  H   UNL A   1      40.855  29.944  31.483  1.00  0.00     0.167 HD
ATOM     54  C   UNL A   1      42.346  26.956  28.691  1.00  0.00     0.034 A 
ATOM     55  C   UNL A   1      40.735  31.220  33.995  1.00  0.00     0.034 A 
ATOM     56  C   UNL A   1      43.168  26.811  29.876  1.00  0.00     0.049 A 
ATOM     57  C   UNL A   1      41.814  30.189  34.122  1.00  0.00     0.074 A 
ATOM     58  C   UNL A   1      44.267  25.988  30.072  1.00  0.00     0.029 A 
ATOM     59  N   UNL A   1      42.978  27.494  31.072  1.00  0.00    -0.354 N 
ATOM     60  N   UNL A   1      42.243  29.330  33.227  1.00  0.00    -0.248 NA
ATOM     61  C   UNL A   1      42.493  30.112  35.417  1.00  0.00     0.031 C 
ATOM     62  C   UNL A   1      44.682  26.108  31.404  1.00  0.00     0.029 A 
ATOM     63  C   UNL A   1      43.906  27.076  32.018  1.00  0.00     0.049 A 
ATOM     64  H   UNL A   1      42.284  28.176  31.226  1.00  0.00     0.167 HD
ATOM     65  C   UNL A   1      43.254  28.611  33.853  1.00  0.00     0.074 A 
ATOM     66  C   UNL A   1      43.385  29.160  35.189  1.00  0.00     0.031 C 
ATOM     67  C   UNL A   1      44.005  27.592  33.364  1.00  0.00     0.034 A 
BRANCH  54  68
ATOM     68  C   UNL A   1      42.650  26.054  27.508  1.00  0.00     0.023 A 
ATOM     69  C   UNL A   1      42.197  24.724  27.422  1.00  0.00     0.031 A 
ATOM     70  C   UNL A   1      43.382  26.563  26.416  1.00  0.00     0.131 A 
ATOM     71  C   UNL A   1      42.506  23.945  26.291  1.00  0.00     0.055 A 
ATOM     72  C   UNL A   1      43.623  25.810  25.265  1.00  0.00     0.041 A 
ATOM     73  F   UNL A   1      43.867  27.815  26.444  1.00  0.00    -0.206 F 
ATOM     74  C   UNL A   1      43.190  24.490  25.200  1.00  0.00     0.022 A 
BRANCH  71  75
ATOM     75  S   UNL A   1      42.097  22.175  26.297  1.00  0.00     0.124 S 
ATOM     76  O   UNL A   1      42.595  21.748  27.604  1.00  0.00    -0.237 OA
ATOM     77  O   UNL A   1      40.647  22.184  26.138  1.00  0.00    -0.237 OA
ATOM     78  O   UNL A   1      42.844  21.645  25.157  1.00  0.00    -0.744 OA
ENDBRANCH  71  75
ENDBRANCH  54  68
BRANCH  55  79
ATOM     79  C   UNL A   1      40.312  32.059  35.149  1.00  0.00     0.023 A 
ATOM     80  C   UNL A   1      39.331  31.626  36.051  1.00  0.00     0.031 A 
ATOM     81  C   UNL A   1      40.922  33.310  35.380  1.00  0.00     0.131 A 
ATOM     82  C   UNL A   1      38.985  32.440  37.140  1.00  0.00     0.055 A 
ATOM     83  C   UNL A   1      40.623  34.080  36.501  1.00  0.00     0.041 A 
ATOM     84  F   UNL A   1      41.861  33.774  34.539  1.00  0.00    -0.206 F 
ATOM     85  C   UNL A   1      39.644  33.649  37.386  1.00  0.00     0.022 A 
BRANCH  82  86
ATOM     86  S   UNL A   1      37.608  31.930  38.201  1.00  0.00     0.124 S 
ATOM     87  O   UNL A   1      37.335  30.584  37.709  1.00  0.00    -0.237 OA
ATOM     88  O   UNL A   1      38.199  32.018  39.532  1.00  0.00    -0.237 OA
ATOM     89  O   UNL A   1      36.573  32.920  37.914  1.00  0.00    -0.744 OA
ENDBRANCH  82  86
ENDBRANCH  55  79
BRANCH  67  90
ATOM     90  C   UNL A   1      45.057  27.033  34.291  1.00  0.00     0.023 A 
ATOM     91  C   UNL A   1      44.754  26.017  35.216  1.00  0.00     0.031 A 
ATOM     92  C   UNL A   1      46.352  27.580  34.311  1.00  0.00     0.131 A 
ATOM     93  C   UNL A   1      45.703  25.642  36.177  1.00  0.00     0.055 A 
ATOM     94  C   UNL A   1      47.316  27.150  35.224  1.00  0.00     0.041 A 
ATOM     95  F   UNL A   1      46.695  28.556  33.456  1.00  0.00    -0.206 F 
ATOM     96  C   UNL A   1      46.987  26.192  36.178  1.00  0.00     0.022 A 
BRANCH  93  97
ATOM     97  S   UNL A   1      45.189  24.533  37.518  1.00  0.00     0.124 S 
ATOM     98  O   UNL A   1      43.854  25.035  37.829  1.00  0.00    -0.237 OA
ATOM     99  O   UNL A   1      45.245  23.223  36.878  1.00  0.00    -0.237 OA
ATOM    100  O   UNL A   1      46.193  24.760  38.555  1.00  0.00    -0.744 OA
ENDBRANCH  93  97
ENDBRANCH  67  90
ENDBRANCH  41  42
ENDBRANCH  34  36
ENDBRANCH  33  34
ENDBRANCH   1  33
TORSDOF 20
ENDMDL
