MODEL 1
REMARK VINA RESULT:     -10.8      0.000      0.000
REMARK SMILES CCCC1(CCC)CN(c2cncc(C(=O)OCCOC(=O)c3ccc(-c4c5nc(c(-c6cc(S(=O)(=O)[O-])ccc6F)c6ccc([nH]6)c(-c6cc(S(=O)(=O)[O-])ccc6F)c6nc(c(-c7cc(S(=O)(=O)[O-])ccc7F)c7ccc4[nH]7)C=C6)C=C5)cc3)c2)C1
REMARK SMILES IDX 18 1 17 2 15 3 16 4 14 5 10 6 11 7 86 8 12 9 13 10 9 11 4 12
REMARK SMILES IDX 8 13 87 14 3 15 2 16 1 17 5 18 6 19 7 20 19 21 20 22 21 23
REMARK SMILES IDX 22 24 23 25 24 26 85 27 25 28 84 29 26 30 27 31 28 32 78 33
REMARK SMILES IDX 29 34 83 35 77 36 79 37 30 38 82 39 76 40 75 41 31 43 63 44
REMARK SMILES IDX 43 45 62 46 44 47 47 48 61 49 80 50 45 51 46 52 60 54 81 55
REMARK SMILES IDX 48 56 32 57 33 58 41 59 34 60 40 61 42 62 39 63 35 64 36 65
REMARK SMILES IDX 37 66 38 67 64 68 65 69 73 70 66 71 72 72 74 73 71 74 67 75
REMARK SMILES IDX 68 76 69 77 70 78 49 79 50 80 58 81 51 82 57 83 59 84 56 85
REMARK SMILES IDX 52 86 53 87 54 88 55 89
REMARK H PARENT 79 42 47 53
REMARK Flexibility Score: inf
ROOT
ATOM      1  C   UNL A   1      31.361  29.311  24.607  1.00  0.00     0.275 C 
ENDROOT
BRANCH   1   2
ATOM      2  O   UNL A   1      30.992  27.932  24.808  1.00  0.00    -0.458 OA
BRANCH   2   3
ATOM      3  C   UNL A   1      30.259  27.344  23.826  1.00  0.00     0.339 C 
ATOM      4  O   UNL A   1      29.103  27.585  23.530  1.00  0.00    -0.246 OA
BRANCH   3   5
ATOM      5  C   UNL A   1      31.116  26.409  23.079  1.00  0.00     0.080 A 
ATOM      6  C   UNL A   1      32.480  24.421  22.967  1.00  0.00     0.056 A 
ATOM      7  C   UNL A   1      32.873  24.834  21.699  1.00  0.00     0.136 A 
ATOM      8  C   UNL A   1      31.595  25.245  23.662  1.00  0.00     0.044 A 
ATOM      9  N   UNL A   1      32.376  25.929  21.073  1.00  0.00    -0.262 NA
ATOM     10  C   UNL A   1      31.487  26.678  21.771  1.00  0.00     0.126 A 
BRANCH   6  11
ATOM     11  N   UNL A   1      32.897  23.246  23.577  1.00  0.00    -0.369 N 
ATOM     12  C   UNL A   1      33.640  21.503  24.400  1.00  0.00     0.005 C 
ATOM     13  C   UNL A   1      32.774  22.724  24.886  1.00  0.00     0.125 C 
ATOM     14  C   UNL A   1      33.994  22.422  23.201  1.00  0.00     0.125 C 
BRANCH  12  15
ATOM     15  C   UNL A   1      34.726  21.274  25.465  1.00  0.00     0.010 C 
BRANCH  15  16
ATOM     16  C   UNL A   1      35.990  20.564  25.005  1.00  0.00    -0.003 C 
ATOM     17  C   UNL A   1      37.175  21.478  24.748  1.00  0.00     0.004 C 
ENDBRANCH  15  16
ENDBRANCH  12  15
BRANCH  12  18
ATOM     18  C   UNL A   1      32.742  20.283  24.070  1.00  0.00     0.010 C 
BRANCH  18  19
ATOM     19  C   UNL A   1      32.626  19.211  25.168  1.00  0.00    -0.003 C 
ATOM     20  C   UNL A   1      33.223  17.856  24.821  1.00  0.00     0.004 C 
ENDBRANCH  18  19
ENDBRANCH  12  18
ENDBRANCH   6  11
ENDBRANCH   3   5
ENDBRANCH   2   3
ENDBRANCH   1   2
BRANCH   1  21
ATOM     21  C   UNL A   1      31.547  30.015  25.951  1.00  0.00     0.275 C 
BRANCH  21  22
ATOM     22  O   UNL A   1      32.884  30.537  26.020  1.00  0.00    -0.458 OA
BRANCH  22  23
ATOM     23  C   UNL A   1      33.102  31.512  26.934  1.00  0.00     0.338 C 
ATOM     24  O   UNL A   1      32.380  32.455  27.199  1.00  0.00    -0.246 OA
BRANCH  23  25
ATOM     25  C   UNL A   1      34.386  31.239  27.606  1.00  0.00     0.060 A 
ATOM     26  C   UNL A   1      34.696  29.930  27.962  1.00  0.00     0.016 A 
ATOM     27  C   UNL A   1      35.250  32.275  27.949  1.00  0.00     0.016 A 
ATOM     28  C   UNL A   1      35.834  29.647  28.710  1.00  0.00     0.010 A 
ATOM     29  C   UNL A   1      36.445  31.979  28.620  1.00  0.00     0.010 A 
ATOM     30  C   UNL A   1      36.743  30.663  29.026  1.00  0.00    -0.014 A 
BRANCH  30  31
ATOM     31  C   UNL A   1      37.979  30.351  29.802  1.00  0.00     0.031 A 
ATOM     32  C   UNL A   1      39.038  29.461  29.205  1.00  0.00     0.074 A 
ATOM     33  C   UNL A   1      38.168  30.877  31.030  1.00  0.00     0.049 A 
ATOM     34  N   UNL A   1      40.087  28.923  29.774  1.00  0.00    -0.248 NA
ATOM     35  C   UNL A   1      38.885  29.119  27.784  1.00  0.00     0.031 C 
ATOM     36  C   UNL A   1      37.254  31.800  31.707  1.00  0.00     0.029 A 
ATOM     37  N   UNL A   1      39.195  30.718  31.930  1.00  0.00    -0.354 N 
ATOM     38  C   UNL A   1      40.690  28.136  28.796  1.00  0.00     0.074 A 
ATOM     39  C   UNL A   1      39.879  28.261  27.603  1.00  0.00     0.031 C 
ATOM     40  C   UNL A   1      37.779  32.155  32.890  1.00  0.00     0.029 A 
ATOM     41  C   UNL A   1      39.014  31.410  33.106  1.00  0.00     0.049 A 
ATOM     42  H   UNL A   1      39.987  30.162  31.750  1.00  0.00     0.167 HD
ATOM     43  C   UNL A   1      41.813  27.380  28.890  1.00  0.00     0.034 A 
ATOM     44  C   UNL A   1      39.726  31.410  34.250  1.00  0.00     0.034 A 
ATOM     45  C   UNL A   1      42.633  27.303  30.076  1.00  0.00     0.049 A 
ATOM     46  C   UNL A   1      40.938  30.521  34.350  1.00  0.00     0.074 A 
ATOM     47  C   UNL A   1      43.797  26.580  30.274  1.00  0.00     0.029 A 
ATOM     48  N   UNL A   1      42.383  27.978  31.264  1.00  0.00    -0.354 N 
ATOM     49  N   UNL A   1      41.453  29.724  33.443  1.00  0.00    -0.248 NA
ATOM     50  C   UNL A   1      41.652  30.517  35.633  1.00  0.00     0.031 C 
ATOM     51  C   UNL A   1      44.216  26.770  31.596  1.00  0.00     0.029 A 
ATOM     52  C   UNL A   1      43.354  27.667  32.206  1.00  0.00     0.049 A 
ATOM     53  H   UNL A   1      41.626  28.590  31.416  1.00  0.00     0.167 HD
ATOM     54  C   UNL A   1      42.557  29.129  34.046  1.00  0.00     0.074 A 
ATOM     55  C   UNL A   1      42.648  29.681  35.383  1.00  0.00     0.031 C 
ATOM     56  C   UNL A   1      43.415  28.206  33.543  1.00  0.00     0.034 A 
BRANCH  43  57
ATOM     57  C   UNL A   1      42.179  26.525  27.699  1.00  0.00     0.023 A 
ATOM     58  C   UNL A   1      41.734  25.199  27.561  1.00  0.00     0.031 A 
ATOM     59  C   UNL A   1      43.015  27.047  26.695  1.00  0.00     0.131 A 
ATOM     60  C   UNL A   1      42.178  24.421  26.479  1.00  0.00     0.055 A 
ATOM     61  C   UNL A   1      43.392  26.292  25.582  1.00  0.00     0.041 A 
ATOM     62  F   UNL A   1      43.489  28.299  26.783  1.00  0.00    -0.206 F 
ATOM     63  C   UNL A   1      42.985  24.967  25.477  1.00  0.00     0.022 A 
BRANCH  60  64
ATOM     64  S   UNL A   1      41.797  22.648  26.465  1.00  0.00     0.124 S 
ATOM     65  O   UNL A   1      42.442  22.197  27.696  1.00  0.00    -0.237 OA
ATOM     66  O   UNL A   1      40.339  22.638  26.467  1.00  0.00    -0.237 OA
ATOM     67  O   UNL A   1      42.422  22.171  25.233  1.00  0.00    -0.744 OA
ENDBRANCH  60  64
ENDBRANCH  43  57
BRANCH  44  68
ATOM     68  C   UNL A   1      39.269  32.210  35.426  1.00  0.00     0.023 A 
ATOM     69  C   UNL A   1      39.727  33.520  35.639  1.00  0.00     0.031 A 
ATOM     70  C   UNL A   1      38.393  31.655  36.378  1.00  0.00     0.131 A 
ATOM     71  C   UNL A   1      39.332  34.219  36.791  1.00  0.00     0.055 A 
ATOM     72  C   UNL A   1      37.959  32.375  37.490  1.00  0.00     0.041 A 
ATOM     73  F   UNL A   1      37.932  30.403  36.228  1.00  0.00    -0.206 F 
ATOM     74  C   UNL A   1      38.437  33.662  37.709  1.00  0.00     0.022 A 
BRANCH  71  75
ATOM     75  S   UNL A   1      40.070  35.844  37.121  1.00  0.00     0.124 S 
ATOM     76  O   UNL A   1      39.392  36.235  38.352  1.00  0.00    -0.237 OA
ATOM     77  O   UNL A   1      41.486  35.516  37.243  1.00  0.00    -0.237 OA
ATOM     78  O   UNL A   1      39.714  36.626  35.938  1.00  0.00    -0.744 OA
ENDBRANCH  71  75
ENDBRANCH  44  68
BRANCH  56  79
ATOM     79  C   UNL A   1      44.540  27.765  34.447  1.00  0.00     0.023 A 
ATOM     80  C   UNL A   1      44.411  26.645  35.287  1.00  0.00     0.031 A 
ATOM     81  C   UNL A   1      45.741  28.493  34.490  1.00  0.00     0.131 A 
ATOM     82  C   UNL A   1      45.445  26.319  36.179  1.00  0.00     0.055 A 
ATOM     83  C   UNL A   1      46.788  28.130  35.338  1.00  0.00     0.041 A 
ATOM     84  F   UNL A   1      45.914  29.573  33.711  1.00  0.00    -0.206 F 
ATOM     85  C   UNL A   1      46.638  27.046  36.199  1.00  0.00     0.022 A 
BRANCH  82  86
ATOM     86  S   UNL A   1      45.175  24.984  37.377  1.00  0.00     0.124 S 
ATOM     87  O   UNL A   1      46.294  25.168  38.294  1.00  0.00    -0.237 OA
ATOM     88  O   UNL A   1      43.854  25.306  37.911  1.00  0.00    -0.237 OA
ATOM     89  O   UNL A   1      45.233  23.773  36.561  1.00  0.00    -0.744 OA
ENDBRANCH  82  86
ENDBRANCH  56  79
ENDBRANCH  30  31
ENDBRANCH  23  25
ENDBRANCH  22  23
ENDBRANCH  21  22
ENDBRANCH   1  21
TORSDOF 19
ENDMDL
MODEL 2
REMARK VINA RESULT:     -10.7      5.197     10.343
REMARK SMILES CCCC1(CCC)CN(c2cncc(C(=O)OCCOC(=O)c3ccc(-c4c5nc(c(-c6cc(S(=O)(=O)[O-])ccc6F)c6ccc([nH]6)c(-c6cc(S(=O)(=O)[O-])ccc6F)c6nc(c(-c7cc(S(=O)(=O)[O-])ccc7F)c7ccc4[nH]7)C=C6)C=C5)cc3)c2)C1
REMARK SMILES IDX 18 1 17 2 15 3 16 4 14 5 10 6 11 7 86 8 12 9 13 10 9 11 4 12
REMARK SMILES IDX 8 13 87 14 3 15 2 16 1 17 5 18 6 19 7 20 19 21 20 22 21 23
REMARK SMILES IDX 22 24 23 25 24 26 85 27 25 28 84 29 26 30 27 31 28 32 78 33
REMARK SMILES IDX 29 34 83 35 77 36 79 37 30 38 82 39 76 40 75 41 31 43 63 44
REMARK SMILES IDX 43 45 62 46 44 47 47 48 61 49 80 50 45 51 46 52 60 54 81 55
REMARK SMILES IDX 48 56 32 57 33 58 41 59 34 60 40 61 42 62 39 63 35 64 36 65
REMARK SMILES IDX 37 66 38 67 64 68 65 69 73 70 66 71 72 72 74 73 71 74 67 75
REMARK SMILES IDX 68 76 69 77 70 78 49 79 50 80 58 81 51 82 57 83 59 84 56 85
REMARK SMILES IDX 52 86 53 87 54 88 55 89
REMARK H PARENT 79 42 47 53
REMARK Flexibility Score: inf
ROOT
ATOM      1  C   UNL A   1      34.456  21.328  26.008  1.00  0.00     0.275 C 
ENDROOT
BRANCH   1   2
ATOM      2  O   UNL A   1      33.508  21.774  25.017  1.00  0.00    -0.458 OA
BRANCH   2   3
ATOM      3  C   UNL A   1      32.221  21.366  25.171  1.00  0.00     0.339 C 
ATOM      4  O   UNL A   1      31.795  20.231  25.066  1.00  0.00    -0.246 OA
BRANCH   3   5
ATOM      5  C   UNL A   1      31.399  22.512  25.593  1.00  0.00     0.080 A 
ATOM      6  C   UNL A   1      30.725  24.820  25.383  1.00  0.00     0.056 A 
ATOM      7  C   UNL A   1      30.008  24.656  26.563  1.00  0.00     0.136 A 
ATOM      8  C   UNL A   1      31.441  23.720  24.911  1.00  0.00     0.044 A 
ATOM      9  N   UNL A   1      29.892  23.475  27.218  1.00  0.00    -0.262 NA
ATOM     10  C   UNL A   1      30.572  22.423  26.701  1.00  0.00     0.126 A 
BRANCH   6  11
ATOM     11  N   UNL A   1      30.766  25.994  24.642  1.00  0.00    -0.369 N 
ATOM     12  C   UNL A   1      30.697  27.697  23.476  1.00  0.00     0.005 C 
ATOM     13  C   UNL A   1      31.207  27.310  24.914  1.00  0.00     0.125 C 
ATOM     14  C   UNL A   1      29.932  26.349  23.547  1.00  0.00     0.125 C 
BRANCH  12  15
ATOM     15  C   UNL A   1      29.876  28.989  23.627  1.00  0.00     0.010 C 
BRANCH  15  16
ATOM     16  C   UNL A   1      29.366  29.624  22.342  1.00  0.00    -0.003 C 
ATOM     17  C   UNL A   1      28.443  30.813  22.544  1.00  0.00     0.004 C 
ENDBRANCH  15  16
ENDBRANCH  12  15
BRANCH  12  18
ATOM     18  C   UNL A   1      31.873  27.752  22.467  1.00  0.00     0.010 C 
BRANCH  18  19
ATOM     19  C   UNL A   1      32.832  28.947  22.608  1.00  0.00    -0.003 C 
ATOM     20  C   UNL A   1      34.290  28.586  22.842  1.00  0.00     0.004 C 
ENDBRANCH  18  19
ENDBRANCH  12  18
ENDBRANCH   6  11
ENDBRANCH   3   5
ENDBRANCH   2   3
ENDBRANCH   1   2
BRANCH   1  21
ATOM     21  C   UNL A   1      35.780  20.948  25.348  1.00  0.00     0.275 C 
BRANCH  21  22
ATOM     22  O   UNL A   1      36.746  21.976  25.619  1.00  0.00    -0.458 OA
BRANCH  22  23
ATOM     23  C   UNL A   1      38.032  21.573  25.752  1.00  0.00     0.338 C 
ATOM     24  O   UNL A   1      38.498  20.481  25.485  1.00  0.00    -0.246 OA
BRANCH  23  25
ATOM     25  C   UNL A   1      38.823  22.706  26.267  1.00  0.00     0.060 A 
ATOM     26  C   UNL A   1      38.386  24.003  26.011  1.00  0.00     0.016 A 
ATOM     27  C   UNL A   1      40.025  22.497  26.934  1.00  0.00     0.016 A 
ATOM     28  C   UNL A   1      39.168  25.099  26.365  1.00  0.00     0.010 A 
ATOM     29  C   UNL A   1      40.767  23.602  27.377  1.00  0.00     0.010 A 
ATOM     30  C   UNL A   1      40.358  24.916  27.080  1.00  0.00    -0.014 A 
BRANCH  30  31
ATOM     31  C   UNL A   1      41.177  26.095  27.486  1.00  0.00     0.031 A 
ATOM     32  C   UNL A   1      40.591  27.143  28.397  1.00  0.00     0.074 A 
ATOM     33  C   UNL A   1      42.452  26.223  27.061  1.00  0.00     0.049 A 
ATOM     34  N   UNL A   1      41.062  28.322  28.718  1.00  0.00    -0.248 NA
ATOM     35  C   UNL A   1      39.295  26.827  29.013  1.00  0.00     0.031 C 
ATOM     36  C   UNL A   1      43.167  25.257  26.224  1.00  0.00     0.029 A 
ATOM     37  N   UNL A   1      43.379  27.215  27.278  1.00  0.00    -0.354 N 
ATOM     38  C   UNL A   1      40.096  28.910  29.530  1.00  0.00     0.074 A 
ATOM     39  C   UNL A   1      39.010  27.959  29.640  1.00  0.00     0.031 C 
ATOM     40  C   UNL A   1      44.425  25.681  26.034  1.00  0.00     0.029 A 
ATOM     41  C   UNL A   1      44.582  26.996  26.646  1.00  0.00     0.049 A 
ATOM     42  H   UNL A   1      43.199  28.007  27.834  1.00  0.00     0.167 HD
ATOM     43  C   UNL A   1      40.118  30.130  30.124  1.00  0.00     0.034 A 
ATOM     44  C   UNL A   1      45.672  27.780  26.524  1.00  0.00     0.034 A 
ATOM     45  C   UNL A   1      41.231  31.046  30.039  1.00  0.00     0.049 A 
ATOM     46  C   UNL A   1      45.650  29.152  27.145  1.00  0.00     0.074 A 
ATOM     47  C   UNL A   1      41.363  32.300  30.612  1.00  0.00     0.029 A 
ATOM     48  N   UNL A   1      42.409  30.808  29.343  1.00  0.00    -0.354 N 
ATOM     49  N   UNL A   1      44.701  29.725  27.847  1.00  0.00    -0.248 NA
ATOM     50  C   UNL A   1      46.841  29.988  26.942  1.00  0.00     0.031 C 
ATOM     51  C   UNL A   1      42.591  32.842  30.215  1.00  0.00     0.029 A 
ATOM     52  C   UNL A   1      43.259  31.899  29.450  1.00  0.00     0.049 A 
ATOM     53  H   UNL A   1      42.612  29.982  28.845  1.00  0.00     0.167 HD
ATOM     54  C   UNL A   1      45.183  30.989  28.174  1.00  0.00     0.074 A 
ATOM     55  C   UNL A   1      46.518  31.081  27.617  1.00  0.00     0.031 C 
ATOM     56  C   UNL A   1      44.577  31.986  28.867  1.00  0.00     0.034 A 
BRANCH  43  57
ATOM     57  C   UNL A   1      38.874  30.568  30.861  1.00  0.00     0.023 A 
ATOM     58  C   UNL A   1      37.779  31.156  30.204  1.00  0.00     0.031 A 
ATOM     59  C   UNL A   1      38.798  30.416  32.258  1.00  0.00     0.131 A 
ATOM     60  C   UNL A   1      36.686  31.627  30.949  1.00  0.00     0.055 A 
ATOM     61  C   UNL A   1      37.676  30.817  32.985  1.00  0.00     0.041 A 
ATOM     62  F   UNL A   1      39.821  29.881  32.943  1.00  0.00    -0.206 F 
ATOM     63  C   UNL A   1      36.617  31.439  32.332  1.00  0.00     0.022 A 
BRANCH  60  64
ATOM     64  S   UNL A   1      35.413  32.606  30.106  1.00  0.00     0.124 S 
ATOM     65  O   UNL A   1      36.171  33.786  29.696  1.00  0.00    -0.237 OA
ATOM     66  O   UNL A   1      34.987  31.716  29.033  1.00  0.00    -0.237 OA
ATOM     67  O   UNL A   1      34.417  32.847  31.150  1.00  0.00    -0.744 OA
ENDBRANCH  60  64
ENDBRANCH  43  57
BRANCH  44  68
ATOM     68  C   UNL A   1      46.841  27.329  25.711  1.00  0.00     0.023 A 
ATOM     69  C   UNL A   1      47.052  27.809  24.409  1.00  0.00     0.031 A 
ATOM     70  C   UNL A   1      47.743  26.373  26.216  1.00  0.00     0.131 A 
ATOM     71  C   UNL A   1      48.121  27.311  23.646  1.00  0.00     0.055 A 
ATOM     72  C   UNL A   1      48.836  25.926  25.475  1.00  0.00     0.041 A 
ATOM     73  F   UNL A   1      47.583  25.874  27.451  1.00  0.00    -0.206 F 
ATOM     74  C   UNL A   1      49.025  26.386  24.177  1.00  0.00     0.022 A 
BRANCH  71  75
ATOM     75  S   UNL A   1      48.270  27.828  21.913  1.00  0.00     0.124 S 
ATOM     76  O   UNL A   1      49.531  28.562  21.929  1.00  0.00    -0.237 OA
ATOM     77  O   UNL A   1      48.280  26.548  21.214  1.00  0.00    -0.237 OA
ATOM     78  O   UNL A   1      47.077  28.644  21.697  1.00  0.00    -0.744 OA
ENDBRANCH  71  75
ENDBRANCH  44  68
BRANCH  56  79
ATOM     79  C   UNL A   1      45.377  33.247  29.078  1.00  0.00     0.023 A 
ATOM     80  C   UNL A   1      45.373  34.286  28.131  1.00  0.00     0.031 A 
ATOM     81  C   UNL A   1      46.177  33.395  30.224  1.00  0.00     0.131 A 
ATOM     82  C   UNL A   1      46.199  35.405  28.319  1.00  0.00     0.055 A 
ATOM     83  C   UNL A   1      46.953  34.536  30.433  1.00  0.00     0.041 A 
ATOM     84  F   UNL A   1      46.220  32.431  31.157  1.00  0.00    -0.206 F 
ATOM     85  C   UNL A   1      46.978  35.542  29.471  1.00  0.00     0.022 A 
BRANCH  82  86
ATOM     86  S   UNL A   1      46.312  36.639  26.995  1.00  0.00     0.124 S 
ATOM     87  O   UNL A   1      46.843  35.850  25.888  1.00  0.00    -0.237 OA
ATOM     88  O   UNL A   1      44.926  37.078  26.857  1.00  0.00    -0.237 OA
ATOM     89  O   UNL A   1      47.227  37.642  27.537  1.00  0.00    -0.744 OA
ENDBRANCH  82  86
ENDBRANCH  56  79
ENDBRANCH  30  31
ENDBRANCH  23  25
ENDBRANCH  22  23
ENDBRANCH  21  22
ENDBRANCH   1  21
TORSDOF 19
ENDMDL
MODEL 3
REMARK VINA RESULT:     -10.4      1.417      2.017
REMARK SMILES CCCC1(CCC)CN(c2cncc(C(=O)OCCOC(=O)c3ccc(-c4c5nc(c(-c6cc(S(=O)(=O)[O-])ccc6F)c6ccc([nH]6)c(-c6cc(S(=O)(=O)[O-])ccc6F)c6nc(c(-c7cc(S(=O)(=O)[O-])ccc7F)c7ccc4[nH]7)C=C6)C=C5)cc3)c2)C1
REMARK SMILES IDX 18 1 17 2 15 3 16 4 14 5 10 6 11 7 86 8 12 9 13 10 9 11 4 12
REMARK SMILES IDX 8 13 87 14 3 15 2 16 1 17 5 18 6 19 7 20 19 21 20 22 21 23
REMARK SMILES IDX 22 24 23 25 24 26 85 27 25 28 84 29 26 30 27 31 28 32 78 33
REMARK SMILES IDX 29 34 83 35 77 36 79 37 30 38 82 39 76 40 75 41 31 43 63 44
REMARK SMILES IDX 43 45 62 46 44 47 47 48 61 49 80 50 45 51 46 52 60 54 81 55
REMARK SMILES IDX 48 56 32 57 33 58 41 59 34 60 40 61 42 62 39 63 35 64 36 65
REMARK SMILES IDX 37 66 38 67 64 68 65 69 73 70 66 71 72 72 74 73 71 74 67 75
REMARK SMILES IDX 68 76 69 77 70 78 49 79 50 80 58 81 51 82 57 83 59 84 56 85
REMARK SMILES IDX 52 86 53 87 54 88 55 89
REMARK H PARENT 79 42 47 53
REMARK Flexibility Score: inf
ROOT
ATOM      1  C   UNL A   1      31.270  29.501  24.841  1.00  0.00     0.275 C 
ENDROOT
BRANCH   1   2
ATOM      2  O   UNL A   1      31.283  28.722  23.628  1.00  0.00    -0.458 OA
BRANCH   2   3
ATOM      3  C   UNL A   1      30.720  27.486  23.688  1.00  0.00     0.339 C 
ATOM      4  O   UNL A   1      29.604  27.207  24.083  1.00  0.00    -0.246 OA
BRANCH   3   5
ATOM      5  C   UNL A   1      31.645  26.506  23.093  1.00  0.00     0.080 A 
ATOM      6  C   UNL A   1      32.843  24.413  23.173  1.00  0.00     0.056 A 
ATOM      7  C   UNL A   1      33.532  24.832  22.040  1.00  0.00     0.136 A 
ATOM      8  C   UNL A   1      31.894  25.286  23.705  1.00  0.00     0.044 A 
ATOM      9  N   UNL A   1      33.268  25.987  21.380  1.00  0.00    -0.262 NA
ATOM     10  C   UNL A   1      32.310  26.786  21.909  1.00  0.00     0.126 A 
BRANCH   6  11
ATOM     11  N   UNL A   1      33.026  23.186  23.797  1.00  0.00    -0.369 N 
ATOM     12  C   UNL A   1      33.163  21.380  24.788  1.00  0.00     0.005 C 
ATOM     13  C   UNL A   1      33.656  21.978  23.418  1.00  0.00     0.125 C 
ATOM     14  C   UNL A   1      32.219  22.610  24.816  1.00  0.00     0.125 C 
BRANCH  12  15
ATOM     15  C   UNL A   1      32.537  20.009  24.477  1.00  0.00     0.010 C 
BRANCH  15  16
ATOM     16  C   UNL A   1      33.166  18.805  25.160  1.00  0.00    -0.003 C 
ATOM     17  C   UNL A   1      32.512  17.474  24.830  1.00  0.00     0.004 C 
ENDBRANCH  15  16
ENDBRANCH  12  15
BRANCH  12  18
ATOM     18  C   UNL A   1      34.306  21.383  25.837  1.00  0.00     0.010 C 
BRANCH  18  19
ATOM     19  C   UNL A   1      33.874  21.271  27.310  1.00  0.00    -0.003 C 
ATOM     20  C   UNL A   1      33.568  22.592  28.000  1.00  0.00     0.004 C 
ENDBRANCH  18  19
ENDBRANCH  12  18
ENDBRANCH   6  11
ENDBRANCH   3   5
ENDBRANCH   2   3
ENDBRANCH   1   2
BRANCH   1  21
ATOM     21  C   UNL A   1      32.692  29.703  25.362  1.00  0.00     0.275 C 
BRANCH  21  22
ATOM     22  O   UNL A   1      32.633  30.024  26.761  1.00  0.00    -0.458 OA
BRANCH  22  23
ATOM     23  C   UNL A   1      33.174  31.208  27.130  1.00  0.00     0.338 C 
ATOM     24  O   UNL A   1      32.687  32.317  27.007  1.00  0.00    -0.246 OA
BRANCH  23  25
ATOM     25  C   UNL A   1      34.486  30.946  27.752  1.00  0.00     0.060 A 
ATOM     26  C   UNL A   1      34.770  29.663  28.210  1.00  0.00     0.016 A 
ATOM     27  C   UNL A   1      35.404  31.973  27.949  1.00  0.00     0.016 A 
ATOM     28  C   UNL A   1      35.940  29.404  28.917  1.00  0.00     0.010 A 
ATOM     29  C   UNL A   1      36.625  31.691  28.576  1.00  0.00     0.010 A 
ATOM     30  C   UNL A   1      36.901  30.407  29.086  1.00  0.00    -0.014 A 
BRANCH  30  31
ATOM     31  C   UNL A   1      38.169  30.117  29.817  1.00  0.00     0.031 A 
ATOM     32  C   UNL A   1      39.202  29.209  29.202  1.00  0.00     0.074 A 
ATOM     33  C   UNL A   1      38.410  30.679  31.020  1.00  0.00     0.049 A 
ATOM     34  N   UNL A   1      40.275  28.687  29.741  1.00  0.00    -0.248 NA
ATOM     35  C   UNL A   1      38.989  28.826  27.799  1.00  0.00     0.031 C 
ATOM     36  C   UNL A   1      37.525  31.622  31.708  1.00  0.00     0.029 A 
ATOM     37  N   UNL A   1      39.475  30.545  31.880  1.00  0.00    -0.354 N 
ATOM     38  C   UNL A   1      40.835  27.871  28.762  1.00  0.00     0.074 A 
ATOM     39  C   UNL A   1      39.974  27.962  27.601  1.00  0.00     0.031 C 
ATOM     40  C   UNL A   1      38.100  32.011  32.856  1.00  0.00     0.029 A 
ATOM     41  C   UNL A   1      39.343  31.272  33.041  1.00  0.00     0.049 A 
ATOM     42  H   UNL A   1      40.259  29.983  31.682  1.00  0.00     0.167 HD
ATOM     43  C   UNL A   1      41.962  27.118  28.831  1.00  0.00     0.034 A 
ATOM     44  C   UNL A   1      40.104  31.305  34.154  1.00  0.00     0.034 A 
ATOM     45  C   UNL A   1      42.832  27.075  29.982  1.00  0.00     0.049 A 
ATOM     46  C   UNL A   1      41.319  30.418  34.228  1.00  0.00     0.074 A 
ATOM     47  C   UNL A   1      44.004  26.357  30.152  1.00  0.00     0.029 A 
ATOM     48  N   UNL A   1      42.633  27.785  31.159  1.00  0.00    -0.354 N 
ATOM     49  N   UNL A   1      41.796  29.595  33.323  1.00  0.00    -0.248 NA
ATOM     50  C   UNL A   1      42.087  30.452  35.479  1.00  0.00     0.031 C 
ATOM     51  C   UNL A   1      44.479  26.585  31.449  1.00  0.00     0.029 A 
ATOM     52  C   UNL A   1      43.643  27.501  32.067  1.00  0.00     0.049 A 
ATOM     53  H   UNL A   1      41.882  28.401  31.326  1.00  0.00     0.167 HD
ATOM     54  C   UNL A   1      42.924  29.017  33.897  1.00  0.00     0.074 A 
ATOM     55  C   UNL A   1      43.072  29.608  35.212  1.00  0.00     0.031 C 
ATOM     56  C   UNL A   1      43.761  28.078  33.385  1.00  0.00     0.034 A 
BRANCH  43  57
ATOM     57  C   UNL A   1      42.277  26.228  27.651  1.00  0.00     0.023 A 
ATOM     58  C   UNL A   1      41.843  24.893  27.579  1.00  0.00     0.031 A 
ATOM     59  C   UNL A   1      43.054  26.725  26.588  1.00  0.00     0.131 A 
ATOM     60  C   UNL A   1      42.241  24.085  26.501  1.00  0.00     0.055 A 
ATOM     61  C   UNL A   1      43.383  25.938  25.483  1.00  0.00     0.041 A 
ATOM     62  F   UNL A   1      43.516  27.984  26.611  1.00  0.00    -0.206 F 
ATOM     63  C   UNL A   1      42.988  24.605  25.442  1.00  0.00     0.022 A 
BRANCH  60  64
ATOM     64  S   UNL A   1      41.882  22.308  26.565  1.00  0.00     0.124 S 
ATOM     65  O   UNL A   1      42.503  21.836  25.330  1.00  0.00    -0.237 OA
ATOM     66  O   UNL A   1      42.532  21.898  27.805  1.00  0.00    -0.237 OA
ATOM     67  O   UNL A   1      40.421  22.252  26.579  1.00  0.00    -0.744 OA
ENDBRANCH  60  64
ENDBRANCH  43  57
BRANCH  44  68
ATOM     68  C   UNL A   1      39.697  32.140  35.323  1.00  0.00     0.023 A 
ATOM     69  C   UNL A   1      38.889  31.617  36.346  1.00  0.00     0.031 A 
ATOM     70  C   UNL A   1      40.078  33.492  35.412  1.00  0.00     0.131 A 
ATOM     71  C   UNL A   1      38.466  32.448  37.396  1.00  0.00     0.055 A 
ATOM     72  C   UNL A   1      39.703  34.297  36.486  1.00  0.00     0.041 A 
ATOM     73  F   UNL A   1      40.841  34.046  34.456  1.00  0.00    -0.206 F 
ATOM     74  C   UNL A   1      38.882  33.780  37.482  1.00  0.00     0.022 A 
BRANCH  71  75
ATOM     75  S   UNL A   1      37.292  31.788  38.612  1.00  0.00     0.124 S 
ATOM     76  O   UNL A   1      38.064  31.871  39.847  1.00  0.00    -0.237 OA
ATOM     77  O   UNL A   1      36.173  32.716  38.489  1.00  0.00    -0.237 OA
ATOM     78  O   UNL A   1      37.029  30.433  38.131  1.00  0.00    -0.744 OA
ENDBRANCH  71  75
ENDBRANCH  44  68
BRANCH  56  79
ATOM     79  C   UNL A   1      44.923  27.664  34.252  1.00  0.00     0.023 A 
ATOM     80  C   UNL A   1      44.815  26.602  35.167  1.00  0.00     0.031 A 
ATOM     81  C   UNL A   1      46.142  28.361  34.185  1.00  0.00     0.131 A 
ATOM     82  C   UNL A   1      45.889  26.302  36.020  1.00  0.00     0.055 A 
ATOM     83  C   UNL A   1      47.226  28.022  34.997  1.00  0.00     0.041 A 
ATOM     84  F   UNL A   1      46.297  29.385  33.331  1.00  0.00    -0.206 F 
ATOM     85  C   UNL A   1      47.098  26.997  35.930  1.00  0.00     0.022 A 
BRANCH  82  86
ATOM     86  S   UNL A   1      45.654  25.052  37.312  1.00  0.00     0.124 S 
ATOM     87  O   UNL A   1      45.948  23.816  36.596  1.00  0.00    -0.237 OA
ATOM     88  O   UNL A   1      46.633  25.454  38.318  1.00  0.00    -0.237 OA
ATOM     89  O   UNL A   1      44.257  25.223  37.706  1.00  0.00    -0.744 OA
ENDBRANCH  82  86
ENDBRANCH  56  79
ENDBRANCH  30  31
ENDBRANCH  23  25
ENDBRANCH  22  23
ENDBRANCH  21  22
ENDBRANCH   1  21
TORSDOF 19
ENDMDL
