MODEL 1
REMARK VINA RESULT:     -11.4      0.000      0.000
REMARK SMILES O=C(OCCOC(=O)c1ccc(-c2c3nc(c(-c4cc(S(=O)(=O)[O-])ccc4F)c4ccc([nH]4)c(-c4cc(S(=O)(=O)[O-])ccc4F)c4nc(c(-c5cc(S(=O)(=O)[O-])ccc5F)c5ccc2[nH]5)C=C4)C=C3)cc1)c1ccc(NC(=S)NC(=O)C(Cl)(Cl)Cl)cc1
REMARK SMILES IDX 4 1 3 2 2 3 1 4 72 5 73 6 87 7 74 8 86 9 75 10 76 11 77 13
REMARK SMILES IDX 78 14 79 15 80 16 81 18 82 19 83 20 84 21 85 22 5 23 6 24
REMARK SMILES IDX 7 25 8 26 9 27 10 28 71 29 11 30 70 31 12 32 13 33 14 34
REMARK SMILES IDX 64 35 15 36 69 37 63 38 65 39 16 40 68 41 62 42 61 43 17 45
REMARK SMILES IDX 49 46 29 47 48 48 30 49 33 50 47 51 66 52 31 53 32 54 46 56
REMARK SMILES IDX 67 57 34 58 18 59 19 60 27 61 20 62 26 63 28 64 25 65 21 66
REMARK SMILES IDX 22 67 23 68 24 69 50 70 51 71 59 72 52 73 58 74 60 75 57 76
REMARK SMILES IDX 53 77 54 78 55 79 56 80 35 81 36 82 44 83 37 84 43 85 45 86
REMARK SMILES IDX 42 87 38 88 39 89 40 90 41 91
REMARK H PARENT 76 12 79 17 65 44 33 55
REMARK Flexibility Score: inf
ROOT
ATOM      1  C   UNL A   1      42.845  20.263  25.978  1.00  0.00     0.275 C 
ENDROOT
BRANCH   1   2
ATOM      2  O   UNL A   1      41.524  20.793  25.715  1.00  0.00    -0.458 OA
BRANCH   2   3
ATOM      3  C   UNL A   1      40.603  21.157  26.644  1.00  0.00     0.338 C 
ATOM      4  O   UNL A   1      40.680  20.713  27.786  1.00  0.00    -0.246 OA
BRANCH   3   5
ATOM      5  C   UNL A   1      39.424  22.006  26.281  1.00  0.00     0.060 A 
ATOM      6  C   UNL A   1      38.358  21.543  25.521  1.00  0.00     0.018 A 
ATOM      7  C   UNL A   1      39.307  23.295  26.810  1.00  0.00     0.018 A 
ATOM      8  C   UNL A   1      37.225  22.303  25.258  1.00  0.00     0.027 A 
ATOM      9  C   UNL A   1      38.193  24.097  26.497  1.00  0.00     0.027 A 
ATOM     10  C   UNL A   1      37.172  23.612  25.669  1.00  0.00     0.040 A 
BRANCH  10  11
ATOM     11  N   UNL A   1      36.099  24.440  25.337  1.00  0.00    -0.332 N 
ATOM     12  H   UNL A   1      36.305  25.399  25.417  1.00  0.00     0.169 HD
BRANCH  11  13
ATOM     13  C   UNL A   1      34.846  24.194  24.933  1.00  0.00     0.177 C 
ATOM     14  S   UNL A   1      33.625  24.382  26.068  1.00  0.00    -0.040 S 
BRANCH  13  15
ATOM     15  N   UNL A   1      34.419  23.820  23.677  1.00  0.00    -0.299 N 
ATOM     16  C   UNL A   1      33.570  23.110  22.813  1.00  0.00     0.278 C 
ATOM     17  H   UNL A   1      35.026  24.301  23.068  1.00  0.00     0.172 HD
ATOM     18  O   UNL A   1      33.706  23.460  21.623  1.00  0.00    -0.270 OA
BRANCH  16  19
ATOM     19  C   UNL A   1      32.566  22.003  23.172  1.00  0.00     0.269 C 
ATOM     20  Cl  UNL A   1      31.899  21.090  21.826  1.00  0.00    -0.073 Cl
ATOM     21  Cl  UNL A   1      33.294  20.959  24.436  1.00  0.00    -0.073 Cl
ATOM     22  Cl  UNL A   1      31.146  22.806  23.980  1.00  0.00    -0.073 Cl
ENDBRANCH  16  19
ENDBRANCH  13  15
ENDBRANCH  11  13
ENDBRANCH  10  11
ENDBRANCH   3   5
ENDBRANCH   2   3
ENDBRANCH   1   2
BRANCH   1  23
ATOM     23  C   UNL A   1      43.927  21.130  25.299  1.00  0.00     0.275 C 
BRANCH  23  24
ATOM     24  O   UNL A   1      43.377  22.342  24.734  1.00  0.00    -0.458 OA
BRANCH  24  25
ATOM     25  C   UNL A   1      44.205  23.430  24.747  1.00  0.00     0.338 C 
ATOM     26  O   UNL A   1      45.063  23.673  23.932  1.00  0.00    -0.246 OA
BRANCH  25  27
ATOM     27  C   UNL A   1      43.727  24.408  25.777  1.00  0.00     0.060 A 
ATOM     28  C   UNL A   1      42.877  23.922  26.780  1.00  0.00     0.016 A 
ATOM     29  C   UNL A   1      44.169  25.735  25.847  1.00  0.00     0.016 A 
ATOM     30  C   UNL A   1      42.464  24.749  27.836  1.00  0.00     0.010 A 
ATOM     31  C   UNL A   1      43.770  26.556  26.921  1.00  0.00     0.010 A 
ATOM     32  C   UNL A   1      42.902  26.078  27.924  1.00  0.00    -0.014 A 
BRANCH  32  33
ATOM     33  C   UNL A   1      42.383  26.984  28.999  1.00  0.00     0.031 A 
ATOM     34  C   UNL A   1      43.078  27.021  30.338  1.00  0.00     0.074 A 
ATOM     35  C   UNL A   1      41.320  27.795  28.808  1.00  0.00     0.049 A 
ATOM     36  N   UNL A   1      42.798  27.737  31.400  1.00  0.00    -0.248 NA
ATOM     37  C   UNL A   1      44.245  26.142  30.499  1.00  0.00     0.031 C 
ATOM     38  C   UNL A   1      40.566  27.922  27.563  1.00  0.00     0.029 A 
ATOM     39  N   UNL A   1      40.680  28.665  29.665  1.00  0.00    -0.354 N 
ATOM     40  C   UNL A   1      43.758  27.406  32.348  1.00  0.00     0.074 A 
ATOM     41  C   UNL A   1      44.593  26.380  31.754  1.00  0.00     0.031 C 
ATOM     42  C   UNL A   1      39.550  28.785  27.745  1.00  0.00     0.029 A 
ATOM     43  C   UNL A   1      39.565  29.269  29.125  1.00  0.00     0.049 A 
ATOM     44  H   UNL A   1      40.993  28.839  30.582  1.00  0.00     0.167 HD
ATOM     45  C   UNL A   1      43.955  27.923  33.586  1.00  0.00     0.034 A 
ATOM     46  C   UNL A   1      38.653  30.103  29.672  1.00  0.00     0.034 A 
ATOM     47  C   UNL A   1      43.145  28.953  34.185  1.00  0.00     0.049 A 
ATOM     48  C   UNL A   1      38.822  30.571  31.103  1.00  0.00     0.074 A 
ATOM     49  C   UNL A   1      43.330  29.591  35.401  1.00  0.00     0.029 A 
ATOM     50  N   UNL A   1      41.989  29.483  33.634  1.00  0.00    -0.354 N 
ATOM     51  N   UNL A   1      39.792  30.309  31.949  1.00  0.00    -0.248 NA
ATOM     52  C   UNL A   1      37.785  31.464  31.646  1.00  0.00     0.031 C 
ATOM     53  C   UNL A   1      42.245  30.444  35.622  1.00  0.00     0.029 A 
ATOM     54  C   UNL A   1      41.419  30.396  34.512  1.00  0.00     0.049 A 
ATOM     55  H   UNL A   1      41.624  29.247  32.751  1.00  0.00     0.167 HD
ATOM     56  C   UNL A   1      39.499  31.041  33.101  1.00  0.00     0.074 A 
ATOM     57  C   UNL A   1      38.273  31.760  32.841  1.00  0.00     0.031 C 
ATOM     58  C   UNL A   1      40.194  31.115  34.264  1.00  0.00     0.034 A 
BRANCH  45  59
ATOM     59  C   UNL A   1      45.092  27.361  34.398  1.00  0.00     0.023 A 
ATOM     60  C   UNL A   1      44.930  26.215  35.194  1.00  0.00     0.031 A 
ATOM     61  C   UNL A   1      46.356  27.975  34.363  1.00  0.00     0.131 A 
ATOM     62  C   UNL A   1      46.003  25.749  35.969  1.00  0.00     0.055 A 
ATOM     63  C   UNL A   1      47.438  27.466  35.082  1.00  0.00     0.041 A 
ATOM     64  F   UNL A   1      46.557  29.082  33.631  1.00  0.00    -0.206 F 
ATOM     65  C   UNL A   1      47.262  26.352  35.898  1.00  0.00     0.022 A 
BRANCH  62  66
ATOM     66  S   UNL A   1      45.700  24.408  37.149  1.00  0.00     0.124 S 
ATOM     67  O   UNL A   1      46.988  23.719  37.149  1.00  0.00    -0.237 OA
ATOM     68  O   UNL A   1      45.360  25.131  38.369  1.00  0.00    -0.237 OA
ATOM     69  O   UNL A   1      44.601  23.660  36.540  1.00  0.00    -0.744 OA
ENDBRANCH  62  66
ENDBRANCH  45  59
BRANCH  46  70
ATOM     70  C   UNL A   1      37.444  30.532  28.902  1.00  0.00     0.023 A 
ATOM     71  C   UNL A   1      37.031  31.874  28.874  1.00  0.00     0.031 A 
ATOM     72  C   UNL A   1      36.611  29.577  28.289  1.00  0.00     0.131 A 
ATOM     73  C   UNL A   1      35.786  32.213  28.318  1.00  0.00     0.055 A 
ATOM     74  C   UNL A   1      35.399  29.927  27.691  1.00  0.00     0.041 A 
ATOM     75  F   UNL A   1      36.961  28.281  28.273  1.00  0.00    -0.206 F 
ATOM     76  C   UNL A   1      34.970  31.249  27.722  1.00  0.00     0.022 A 
BRANCH  73  77
ATOM     77  S   UNL A   1      35.185  33.917  28.502  1.00  0.00     0.124 S 
ATOM     78  O   UNL A   1      36.327  34.567  29.136  1.00  0.00    -0.237 OA
ATOM     79  O   UNL A   1      34.918  34.290  27.118  1.00  0.00    -0.237 OA
ATOM     80  O   UNL A   1      34.001  33.769  29.346  1.00  0.00    -0.744 OA
ENDBRANCH  73  77
ENDBRANCH  46  70
BRANCH  58  81
ATOM     81  C   UNL A   1      39.672  32.045  35.335  1.00  0.00     0.023 A 
ATOM     82  C   UNL A   1      38.885  31.579  36.403  1.00  0.00     0.031 A 
ATOM     83  C   UNL A   1      39.976  33.419  35.291  1.00  0.00     0.131 A 
ATOM     84  C   UNL A   1      38.392  32.483  37.358  1.00  0.00     0.055 A 
ATOM     85  C   UNL A   1      39.529  34.304  36.274  1.00  0.00     0.041 A 
ATOM     86  F   UNL A   1      40.722  33.922  34.295  1.00  0.00    -0.206 F 
ATOM     87  C   UNL A   1      38.725  33.840  37.310  1.00  0.00     0.022 A 
BRANCH  84  88
ATOM     88  S   UNL A   1      37.257  31.875  38.636  1.00  0.00     0.124 S 
ATOM     89  O   UNL A   1      37.044  30.493  38.221  1.00  0.00    -0.237 OA
ATOM     90  O   UNL A   1      38.032  32.062  39.859  1.00  0.00    -0.237 OA
ATOM     91  O   UNL A   1      36.092  32.749  38.505  1.00  0.00    -0.744 OA
ENDBRANCH  84  88
ENDBRANCH  58  81
ENDBRANCH  32  33
ENDBRANCH  25  27
ENDBRANCH  24  25
ENDBRANCH  23  24
ENDBRANCH   1  23
TORSDOF 18
ENDMDL
MODEL 2
REMARK VINA RESULT:     -11.2      5.010      7.195
REMARK SMILES O=C(OCCOC(=O)c1ccc(-c2c3nc(c(-c4cc(S(=O)(=O)[O-])ccc4F)c4ccc([nH]4)c(-c4cc(S(=O)(=O)[O-])ccc4F)c4nc(c(-c5cc(S(=O)(=O)[O-])ccc5F)c5ccc2[nH]5)C=C4)C=C3)cc1)c1ccc(NC(=S)NC(=O)C(Cl)(Cl)Cl)cc1
REMARK SMILES IDX 4 1 3 2 2 3 1 4 72 5 73 6 87 7 74 8 86 9 75 10 76 11 77 13
REMARK SMILES IDX 78 14 79 15 80 16 81 18 82 19 83 20 84 21 85 22 5 23 6 24
REMARK SMILES IDX 7 25 8 26 9 27 10 28 71 29 11 30 70 31 12 32 13 33 14 34
REMARK SMILES IDX 64 35 15 36 69 37 63 38 65 39 16 40 68 41 62 42 61 43 17 45
REMARK SMILES IDX 49 46 29 47 48 48 30 49 33 50 47 51 66 52 31 53 32 54 46 56
REMARK SMILES IDX 67 57 34 58 18 59 19 60 27 61 20 62 26 63 28 64 25 65 21 66
REMARK SMILES IDX 22 67 23 68 24 69 50 70 51 71 59 72 52 73 58 74 60 75 57 76
REMARK SMILES IDX 53 77 54 78 55 79 56 80 35 81 36 82 44 83 37 84 43 85 45 86
REMARK SMILES IDX 42 87 38 88 39 89 40 90 41 91
REMARK H PARENT 76 12 79 17 65 44 33 55
REMARK Flexibility Score: inf
ROOT
ATOM      1  C   UNL A   1      38.233  20.156  24.914  1.00  0.00     0.275 C 
ENDROOT
BRANCH   1   2
ATOM      2  O   UNL A   1      37.463  21.020  25.785  1.00  0.00    -0.458 OA
BRANCH   2   3
ATOM      3  C   UNL A   1      37.339  22.368  25.675  1.00  0.00     0.338 C 
ATOM      4  O   UNL A   1      38.194  23.101  26.164  1.00  0.00    -0.246 OA
BRANCH   3   5
ATOM      5  C   UNL A   1      36.120  22.990  25.066  1.00  0.00     0.060 A 
ATOM      6  C   UNL A   1      35.718  24.293  25.329  1.00  0.00     0.018 A 
ATOM      7  C   UNL A   1      35.397  22.292  24.094  1.00  0.00     0.018 A 
ATOM      8  C   UNL A   1      34.639  24.899  24.697  1.00  0.00     0.027 A 
ATOM      9  C   UNL A   1      34.263  22.873  23.494  1.00  0.00     0.027 A 
ATOM     10  C   UNL A   1      33.853  24.167  23.842  1.00  0.00     0.040 A 
BRANCH  10  11
ATOM     11  N   UNL A   1      32.701  24.705  23.266  1.00  0.00    -0.332 N 
ATOM     12  H   UNL A   1      32.531  24.380  22.353  1.00  0.00     0.169 HD
BRANCH  11  13
ATOM     13  C   UNL A   1      31.781  25.574  23.704  1.00  0.00     0.177 C 
ATOM     14  S   UNL A   1      31.623  27.013  22.857  1.00  0.00    -0.040 S 
BRANCH  13  15
ATOM     15  N   UNL A   1      30.916  25.427  24.767  1.00  0.00    -0.299 N 
ATOM     16  C   UNL A   1      30.454  24.757  25.911  1.00  0.00     0.278 C 
ATOM     17  H   UNL A   1      30.301  26.191  24.677  1.00  0.00     0.172 HD
ATOM     18  O   UNL A   1      29.601  25.419  26.535  1.00  0.00    -0.270 OA
BRANCH  16  19
ATOM     19  C   UNL A   1      30.866  23.367  26.424  1.00  0.00     0.269 C 
ATOM     20  Cl  UNL A   1      32.423  23.266  27.234  1.00  0.00    -0.073 Cl
ATOM     21  Cl  UNL A   1      29.520  22.698  27.402  1.00  0.00    -0.073 Cl
ATOM     22  Cl  UNL A   1      30.988  22.273  24.974  1.00  0.00    -0.073 Cl
ENDBRANCH  16  19
ENDBRANCH  13  15
ENDBRANCH  11  13
ENDBRANCH  10  11
ENDBRANCH   3   5
ENDBRANCH   2   3
ENDBRANCH   1   2
BRANCH   1  23
ATOM     23  C   UNL A   1      39.227  19.303  25.731  1.00  0.00     0.275 C 
BRANCH  23  24
ATOM     24  O   UNL A   1      40.594  19.503  25.306  1.00  0.00    -0.458 OA
BRANCH  24  25
ATOM     25  C   UNL A   1      41.528  19.518  26.304  1.00  0.00     0.338 C 
ATOM     26  O   UNL A   1      42.162  18.566  26.691  1.00  0.00    -0.246 OA
BRANCH  25  27
ATOM     27  C   UNL A   1      41.836  20.937  26.678  1.00  0.00     0.060 A 
ATOM     28  C   UNL A   1      41.904  21.875  25.639  1.00  0.00     0.016 A 
ATOM     29  C   UNL A   1      41.948  21.380  28.001  1.00  0.00     0.016 A 
ATOM     30  C   UNL A   1      42.091  23.239  25.913  1.00  0.00     0.010 A 
ATOM     31  C   UNL A   1      42.112  22.754  28.274  1.00  0.00     0.010 A 
ATOM     32  C   UNL A   1      42.199  23.700  27.233  1.00  0.00    -0.014 A 
BRANCH  32  33
ATOM     33  C   UNL A   1      42.493  25.142  27.516  1.00  0.00     0.031 A 
ATOM     34  C   UNL A   1      43.837  25.714  27.138  1.00  0.00     0.074 A 
ATOM     35  C   UNL A   1      41.584  25.966  28.083  1.00  0.00     0.049 A 
ATOM     36  N   UNL A   1      44.292  26.934  27.287  1.00  0.00    -0.248 NA
ATOM     37  C   UNL A   1      44.790  24.793  26.502  1.00  0.00     0.031 C 
ATOM     38  C   UNL A   1      40.224  25.591  28.462  1.00  0.00     0.029 A 
ATOM     39  N   UNL A   1      41.669  27.293  28.447  1.00  0.00    -0.354 N 
ATOM     40  C   UNL A   1      45.576  26.931  26.753  1.00  0.00     0.074 A 
ATOM     41  C   UNL A   1      45.847  25.571  26.331  1.00  0.00     0.031 C 
ATOM     42  C   UNL A   1      39.616  26.646  29.035  1.00  0.00     0.029 A 
ATOM     43  C   UNL A   1      40.544  27.776  29.080  1.00  0.00     0.049 A 
ATOM     44  H   UNL A   1      42.464  27.846  28.270  1.00  0.00     0.167 HD
ATOM     45  C   UNL A   1      46.441  27.963  26.596  1.00  0.00     0.034 A 
ATOM     46  C   UNL A   1      40.287  28.978  29.642  1.00  0.00     0.034 A 
ATOM     47  C   UNL A   1      46.180  29.323  26.995  1.00  0.00     0.049 A 
ATOM     48  C   UNL A   1      41.322  30.081  29.566  1.00  0.00     0.074 A 
ATOM     49  C   UNL A   1      46.972  30.441  26.793  1.00  0.00     0.029 A 
ATOM     50  N   UNL A   1      45.063  29.752  27.693  1.00  0.00    -0.354 N 
ATOM     51  N   UNL A   1      42.495  30.076  28.977  1.00  0.00    -0.248 NA
ATOM     52  C   UNL A   1      40.989  31.361  30.214  1.00  0.00     0.031 C 
ATOM     53  C   UNL A   1      46.375  31.528  27.439  1.00  0.00     0.029 A 
ATOM     54  C   UNL A   1      45.173  31.105  27.982  1.00  0.00     0.049 A 
ATOM     55  H   UNL A   1      44.303  29.181  27.949  1.00  0.00     0.167 HD
ATOM     56  C   UNL A   1      43.012  31.361  29.146  1.00  0.00     0.074 A 
ATOM     57  C   UNL A   1      42.025  32.117  29.884  1.00  0.00     0.031 C 
ATOM     58  C   UNL A   1      44.196  31.868  28.719  1.00  0.00     0.034 A 
BRANCH  45  59
ATOM     59  C   UNL A   1      47.779  27.655  25.977  1.00  0.00     0.023 A 
ATOM     60  C   UNL A   1      47.968  27.683  24.585  1.00  0.00     0.031 A 
ATOM     61  C   UNL A   1      48.880  27.344  26.793  1.00  0.00     0.131 A 
ATOM     62  C   UNL A   1      49.220  27.349  24.047  1.00  0.00     0.055 A 
ATOM     63  C   UNL A   1      50.140  27.081  26.254  1.00  0.00     0.041 A 
ATOM     64  F   UNL A   1      48.746  27.289  28.127  1.00  0.00    -0.206 F 
ATOM     65  C   UNL A   1      50.313  27.072  24.873  1.00  0.00     0.022 A 
BRANCH  62  66
ATOM     66  S   UNL A   1      49.371  27.178  22.249  1.00  0.00     0.124 S 
ATOM     67  O   UNL A   1      50.811  26.986  22.091  1.00  0.00    -0.237 OA
ATOM     68  O   UNL A   1      48.536  26.015  21.970  1.00  0.00    -0.237 OA
ATOM     69  O   UNL A   1      48.860  28.450  21.741  1.00  0.00    -0.744 OA
ENDBRANCH  62  66
ENDBRANCH  45  59
BRANCH  46  70
ATOM     70  C   UNL A   1      39.013  29.221  30.388  1.00  0.00     0.023 A 
ATOM     71  C   UNL A   1      38.016  30.068  29.879  1.00  0.00     0.031 A 
ATOM     72  C   UNL A   1      38.837  28.708  31.687  1.00  0.00     0.131 A 
ATOM     73  C   UNL A   1      36.929  30.438  30.689  1.00  0.00     0.055 A 
ATOM     74  C   UNL A   1      37.728  29.037  32.469  1.00  0.00     0.041 A 
ATOM     75  F   UNL A   1      39.751  27.882  32.222  1.00  0.00    -0.206 F 
ATOM     76  C   UNL A   1      36.777  29.924  31.979  1.00  0.00     0.022 A 
BRANCH  73  77
ATOM     77  S   UNL A   1      35.782  31.709  30.081  1.00  0.00     0.124 S 
ATOM     78  O   UNL A   1      35.003  32.002  31.278  1.00  0.00    -0.237 OA
ATOM     79  O   UNL A   1      36.701  32.752  29.640  1.00  0.00    -0.237 OA
ATOM     80  O   UNL A   1      35.056  31.026  29.013  1.00  0.00    -0.744 OA
ENDBRANCH  73  77
ENDBRANCH  46  70
BRANCH  58  81
ATOM     81  C   UNL A   1      44.475  33.327  28.994  1.00  0.00     0.023 A 
ATOM     82  C   UNL A   1      43.901  34.351  28.218  1.00  0.00     0.031 A 
ATOM     83  C   UNL A   1      45.321  33.700  30.054  1.00  0.00     0.131 A 
ATOM     84  C   UNL A   1      44.214  35.693  28.486  1.00  0.00     0.055 A 
ATOM     85  C   UNL A   1      45.585  35.039  30.351  1.00  0.00     0.041 A 
ATOM     86  F   UNL A   1      45.898  32.768  30.828  1.00  0.00    -0.206 F 
ATOM     87  C   UNL A   1      45.038  36.045  29.559  1.00  0.00     0.022 A 
BRANCH  84  88
ATOM     88  S   UNL A   1      43.580  36.979  27.375  1.00  0.00     0.124 S 
ATOM     89  O   UNL A   1      42.935  36.189  26.332  1.00  0.00    -0.237 OA
ATOM     90  O   UNL A   1      42.686  37.735  28.247  1.00  0.00    -0.237 OA
ATOM     91  O   UNL A   1      44.783  37.697  26.956  1.00  0.00    -0.744 OA
ENDBRANCH  84  88
ENDBRANCH  58  81
ENDBRANCH  32  33
ENDBRANCH  25  27
ENDBRANCH  24  25
ENDBRANCH  23  24
ENDBRANCH   1  23
TORSDOF 18
ENDMDL
MODEL 3
REMARK VINA RESULT:     -11.0      5.170      9.193
REMARK SMILES O=C(OCCOC(=O)c1ccc(-c2c3nc(c(-c4cc(S(=O)(=O)[O-])ccc4F)c4ccc([nH]4)c(-c4cc(S(=O)(=O)[O-])ccc4F)c4nc(c(-c5cc(S(=O)(=O)[O-])ccc5F)c5ccc2[nH]5)C=C4)C=C3)cc1)c1ccc(NC(=S)NC(=O)C(Cl)(Cl)Cl)cc1
REMARK SMILES IDX 4 1 3 2 2 3 1 4 72 5 73 6 87 7 74 8 86 9 75 10 76 11 77 13
REMARK SMILES IDX 78 14 79 15 80 16 81 18 82 19 83 20 84 21 85 22 5 23 6 24
REMARK SMILES IDX 7 25 8 26 9 27 10 28 71 29 11 30 70 31 12 32 13 33 14 34
REMARK SMILES IDX 64 35 15 36 69 37 63 38 65 39 16 40 68 41 62 42 61 43 17 45
REMARK SMILES IDX 49 46 29 47 48 48 30 49 33 50 47 51 66 52 31 53 32 54 46 56
REMARK SMILES IDX 67 57 34 58 18 59 19 60 27 61 20 62 26 63 28 64 25 65 21 66
REMARK SMILES IDX 22 67 23 68 24 69 50 70 51 71 59 72 52 73 58 74 60 75 57 76
REMARK SMILES IDX 53 77 54 78 55 79 56 80 35 81 36 82 44 83 37 84 43 85 45 86
REMARK SMILES IDX 42 87 38 88 39 89 40 90 41 91
REMARK H PARENT 76 12 79 17 65 44 33 55
REMARK Flexibility Score: inf
ROOT
ATOM      1  C   UNL A   1      38.997  21.104  26.039  1.00  0.00     0.275 C 
ENDROOT
BRANCH   1   2
ATOM      2  O   UNL A   1      38.116  21.453  24.945  1.00  0.00    -0.458 OA
BRANCH   2   3
ATOM      3  C   UNL A   1      36.761  21.351  24.937  1.00  0.00     0.338 C 
ATOM      4  O   UNL A   1      36.233  20.245  24.997  1.00  0.00    -0.246 OA
BRANCH   3   5
ATOM      5  C   UNL A   1      35.891  22.554  24.746  1.00  0.00     0.060 A 
ATOM      6  C   UNL A   1      35.777  23.568  25.689  1.00  0.00     0.018 A 
ATOM      7  C   UNL A   1      35.240  22.754  23.525  1.00  0.00     0.018 A 
ATOM      8  C   UNL A   1      35.038  24.726  25.475  1.00  0.00     0.027 A 
ATOM      9  C   UNL A   1      34.438  23.893  23.321  1.00  0.00     0.027 A 
ATOM     10  C   UNL A   1      34.296  24.857  24.329  1.00  0.00     0.040 A 
BRANCH  10  11
ATOM     11  N   UNL A   1      33.461  25.956  24.120  1.00  0.00    -0.332 N 
ATOM     12  H   UNL A   1      33.545  26.348  23.221  1.00  0.00     0.169 HD
BRANCH  11  13
ATOM     13  C   UNL A   1      32.568  26.585  24.895  1.00  0.00     0.177 C 
ATOM     14  S   UNL A   1      32.827  28.215  25.193  1.00  0.00    -0.040 S 
BRANCH  13  15
ATOM     15  N   UNL A   1      31.430  26.063  25.473  1.00  0.00    -0.299 N 
ATOM     16  C   UNL A   1      30.702  25.015  26.057  1.00  0.00     0.278 C 
ATOM     17  H   UNL A   1      30.800  26.820  25.479  1.00  0.00     0.172 HD
ATOM     18  O   UNL A   1      29.631  25.407  26.563  1.00  0.00    -0.270 OA
BRANCH  16  19
ATOM     19  C   UNL A   1      31.070  23.523  26.113  1.00  0.00     0.269 C 
ATOM     20  Cl  UNL A   1      31.315  22.723  24.568  1.00  0.00    -0.073 Cl
ATOM     21  Cl  UNL A   1      32.452  23.319  27.238  1.00  0.00    -0.073 Cl
ATOM     22  Cl  UNL A   1      29.680  22.655  26.907  1.00  0.00    -0.073 Cl
ENDBRANCH  16  19
ENDBRANCH  13  15
ENDBRANCH  11  13
ENDBRANCH  10  11
ENDBRANCH   3   5
ENDBRANCH   2   3
ENDBRANCH   1   2
BRANCH   1  23
ATOM     23  C   UNL A   1      39.467  19.639  25.915  1.00  0.00     0.275 C 
BRANCH  23  24
ATOM     24  O   UNL A   1      40.776  19.537  25.309  1.00  0.00    -0.458 OA
BRANCH  24  25
ATOM     25  C   UNL A   1      41.829  19.481  26.181  1.00  0.00     0.338 C 
ATOM     26  O   UNL A   1      42.458  18.489  26.463  1.00  0.00    -0.246 OA
BRANCH  25  27
ATOM     27  C   UNL A   1      42.252  20.872  26.544  1.00  0.00     0.060 A 
ATOM     28  C   UNL A   1      42.469  21.772  25.492  1.00  0.00     0.016 A 
ATOM     29  C   UNL A   1      42.333  21.336  27.862  1.00  0.00     0.016 A 
ATOM     30  C   UNL A   1      42.771  23.119  25.749  1.00  0.00     0.010 A 
ATOM     31  C   UNL A   1      42.615  22.694  28.116  1.00  0.00     0.010 A 
ATOM     32  C   UNL A   1      42.850  23.601  27.064  1.00  0.00    -0.014 A 
BRANCH  32  33
ATOM     33  C   UNL A   1      43.267  25.015  27.335  1.00  0.00     0.031 A 
ATOM     34  C   UNL A   1      42.279  25.975  27.950  1.00  0.00     0.074 A 
ATOM     35  C   UNL A   1      44.514  25.463  27.068  1.00  0.00     0.049 A 
ATOM     36  N   UNL A   1      42.437  27.236  28.272  1.00  0.00    -0.248 NA
ATOM     37  C   UNL A   1      40.941  25.444  28.247  1.00  0.00     0.031 C 
ATOM     38  C   UNL A   1      45.604  24.657  26.523  1.00  0.00     0.029 A 
ATOM     39  N   UNL A   1      45.076  26.713  27.214  1.00  0.00    -0.354 N 
ATOM     40  C   UNL A   1      41.227  27.644  28.821  1.00  0.00     0.074 A 
ATOM     41  C   UNL A   1      40.327  26.512  28.732  1.00  0.00     0.031 C 
ATOM     42  C   UNL A   1      46.686  25.436  26.347  1.00  0.00     0.029 A 
ATOM     43  C   UNL A   1      46.371  26.805  26.753  1.00  0.00     0.049 A 
ATOM     44  H   UNL A   1      44.593  27.474  27.612  1.00  0.00     0.167 HD
ATOM     45  C   UNL A   1      40.897  28.835  29.377  1.00  0.00     0.034 A 
ATOM     46  C   UNL A   1      47.207  27.863  26.655  1.00  0.00     0.034 A 
ATOM     47  C   UNL A   1      41.784  29.966  29.488  1.00  0.00     0.049 A 
ATOM     48  C   UNL A   1      46.769  29.219  27.168  1.00  0.00     0.074 A 
ATOM     49  C   UNL A   1      41.552  31.179  30.114  1.00  0.00     0.029 A 
ATOM     50  N   UNL A   1      43.057  30.039  28.947  1.00  0.00    -0.354 N 
ATOM     51  N   UNL A   1      45.648  29.555  27.764  1.00  0.00    -0.248 NA
ATOM     52  C   UNL A   1      47.719  30.335  27.015  1.00  0.00     0.031 C 
ATOM     53  C   UNL A   1      42.649  32.014  29.883  1.00  0.00     0.029 A 
ATOM     54  C   UNL A   1      43.599  31.297  29.174  1.00  0.00     0.049 A 
ATOM     55  H   UNL A   1      43.512  29.307  28.470  1.00  0.00     0.167 HD
ATOM     56  C   UNL A   1      45.783  30.905  28.093  1.00  0.00     0.074 A 
ATOM     57  C   UNL A   1      47.091  31.320  27.640  1.00  0.00     0.031 C 
ATOM     58  C   UNL A   1      44.902  31.722  28.723  1.00  0.00     0.034 A 
BRANCH  45  59
ATOM     59  C   UNL A   1      39.491  28.991  29.898  1.00  0.00     0.023 A 
ATOM     60  C   UNL A   1      38.464  29.510  29.093  1.00  0.00     0.031 A 
ATOM     61  C   UNL A   1      39.178  28.601  31.211  1.00  0.00     0.131 A 
ATOM     62  C   UNL A   1      37.178  29.678  29.630  1.00  0.00     0.055 A 
ATOM     63  C   UNL A   1      37.881  28.706  31.716  1.00  0.00     0.041 A 
ATOM     64  F   UNL A   1      40.128  28.115  32.024  1.00  0.00    -0.206 F 
ATOM     65  C   UNL A   1      36.875  29.256  30.927  1.00  0.00     0.022 A 
BRANCH  62  66
ATOM     66  S   UNL A   1      35.936  30.551  28.642  1.00  0.00     0.124 S 
ATOM     67  O   UNL A   1      36.772  31.269  27.683  1.00  0.00    -0.237 OA
ATOM     68  O   UNL A   1      35.135  29.459  28.101  1.00  0.00    -0.237 OA
ATOM     69  O   UNL A   1      35.256  31.399  29.620  1.00  0.00    -0.744 OA
ENDBRANCH  62  66
ENDBRANCH  45  59
BRANCH  46  70
ATOM     70  C   UNL A   1      48.543  27.728  25.995  1.00  0.00     0.023 A 
ATOM     71  C   UNL A   1      48.682  27.798  24.600  1.00  0.00     0.031 A 
ATOM     72  C   UNL A   1      49.683  27.396  26.751  1.00  0.00     0.131 A 
ATOM     73  C   UNL A   1      49.908  27.464  23.999  1.00  0.00     0.055 A 
ATOM     74  C   UNL A   1      50.913  27.117  26.153  1.00  0.00     0.041 A 
ATOM     75  F   UNL A   1      49.614  27.328  28.091  1.00  0.00    -0.206 F 
ATOM     76  C   UNL A   1      51.025  27.129  24.767  1.00  0.00     0.022 A 
BRANCH  73  77
ATOM     77  S   UNL A   1      49.986  27.345  22.189  1.00  0.00     0.124 S 
ATOM     78  O   UNL A   1      48.878  26.441  21.902  1.00  0.00    -0.237 OA
ATOM     79  O   UNL A   1      49.801  28.735  21.790  1.00  0.00    -0.237 OA
ATOM     80  O   UNL A   1      51.319  26.799  21.943  1.00  0.00    -0.744 OA
ENDBRANCH  73  77
ENDBRANCH  46  70
BRANCH  58  81
ATOM     81  C   UNL A   1      45.338  33.140  29.008  1.00  0.00     0.023 A 
ATOM     82  C   UNL A   1      45.144  34.177  28.078  1.00  0.00     0.031 A 
ATOM     83  C   UNL A   1      45.950  33.461  30.234  1.00  0.00     0.131 A 
ATOM     84  C   UNL A   1      45.596  35.474  28.369  1.00  0.00     0.055 A 
ATOM     85  C   UNL A   1      46.347  34.764  30.541  1.00  0.00     0.041 A 
ATOM     86  F   UNL A   1      46.162  32.513  31.160  1.00  0.00    -0.206 F 
ATOM     87  C   UNL A   1      46.180  35.778  29.602  1.00  0.00     0.022 A 
BRANCH  84  88
ATOM     88  S   UNL A   1      45.469  36.754  27.090  1.00  0.00     0.124 S 
ATOM     89  O   UNL A   1      46.164  36.134  25.968  1.00  0.00    -0.237 OA
ATOM     90  O   UNL A   1      44.025  36.906  26.941  1.00  0.00    -0.237 OA
ATOM     91  O   UNL A   1      46.151  37.903  27.684  1.00  0.00    -0.744 OA
ENDBRANCH  84  88
ENDBRANCH  58  81
ENDBRANCH  32  33
ENDBRANCH  25  27
ENDBRANCH  24  25
ENDBRANCH  23  24
ENDBRANCH   1  23
TORSDOF 18
ENDMDL
