MODEL 1
REMARK VINA RESULT:     -10.8      0.000      0.000
REMARK SMILES [NH3+][C@H]1CCC[C@H]1C(=O)NCc1ccc(C(=O)OCCOC(=O)c2ccc(-c3c4nc(c(-c5cc(S(=O)(=O)[O-])ccc5F)c5ccc([nH]5)c(-c5cc(S(=O)(=O)[O-])ccc5F)c5nc(c(-c6cc(S(=O)(=O)[O-])ccc6F)c6ccc3[nH]6)C=C5)C=C4)cc2)o1
REMARK SMILES IDX 18 1 17 2 15 3 16 4 14 5 11 6 12 7 86 8 13 9 10 10 9 11 7 12
REMARK SMILES IDX 8 13 6 15 2 16 3 17 4 18 5 19 1 20 19 24 20 25 21 26 22 27
REMARK SMILES IDX 23 28 24 29 85 30 25 31 84 32 26 33 27 34 28 35 78 36 29 37
REMARK SMILES IDX 83 38 77 39 79 40 30 41 82 42 76 43 75 44 31 46 63 47 43 48
REMARK SMILES IDX 62 49 44 50 47 51 61 52 80 53 45 54 46 55 60 57 81 58 48 59
REMARK SMILES IDX 32 60 33 61 41 62 34 63 40 64 42 65 39 66 35 67 36 68 37 69
REMARK SMILES IDX 38 70 64 71 65 72 73 73 66 74 72 75 74 76 71 77 67 78 68 79
REMARK SMILES IDX 69 80 70 81 49 82 50 83 58 84 51 85 57 86 59 87 56 88 52 89
REMARK SMILES IDX 53 90 54 91 55 92
REMARK H PARENT 9 14 1 21 1 22 1 23 79 45 47 56
REMARK Flexibility Score: inf
ROOT
ATOM      1  C   UNL A   1      33.095  34.250  28.282  1.00  0.00     0.275 C 
ENDROOT
BRANCH   1   2
ATOM      2  O   UNL A   1      32.527  34.915  29.426  1.00  0.00    -0.456 OA
BRANCH   2   3
ATOM      3  C   UNL A   1      32.915  36.215  29.618  1.00  0.00     0.374 C 
ATOM      4  O   UNL A   1      32.894  37.074  28.751  1.00  0.00    -0.242 OA
BRANCH   3   5
ATOM      5  C   UNL A   1      33.286  36.412  31.002  1.00  0.00     0.211 A 
ATOM      6  C   UNL A   1      34.177  35.792  32.925  1.00  0.00     0.124 A 
ATOM      7  C   UNL A   1      33.872  37.131  33.048  1.00  0.00     0.048 A 
ATOM      8  O   UNL A   1      33.756  35.333  31.711  1.00  0.00    -0.452 OA
ATOM      9  C   UNL A   1      33.325  37.535  31.810  1.00  0.00     0.058 A 
BRANCH   6  10
ATOM     10  C   UNL A   1      34.869  34.832  33.828  1.00  0.00     0.191 C 
BRANCH  10  11
ATOM     11  N   UNL A   1      34.945  33.534  33.189  1.00  0.00    -0.348 N 
ATOM     12  C   UNL A   1      35.734  33.036  32.205  1.00  0.00     0.229 C 
ATOM     13  O   UNL A   1      35.489  31.882  31.837  1.00  0.00    -0.275 OA
ATOM     14  H   UNL A   1      34.294  32.884  33.538  1.00  0.00     0.163 HD
BRANCH  12  15
ATOM     15  C   UNL A   1      36.836  33.831  31.514  1.00  0.00     0.136 C 
ATOM     16  C   UNL A   1      38.033  34.232  32.390  1.00  0.00     0.193 C 
ATOM     17  C   UNL A   1      39.247  34.255  31.459  1.00  0.00     0.066 C 
ATOM     18  C   UNL A   1      38.829  33.673  30.115  1.00  0.00     0.007 C 
ATOM     19  C   UNL A   1      37.376  33.237  30.220  1.00  0.00     0.020 C 
BRANCH  16  20
ATOM     20  N   UNL A   1      38.340  33.400  33.551  1.00  0.00    -0.354 N 
ATOM     21  H   UNL A   1      39.124  32.786  33.331  1.00  0.00     0.344 HD
ATOM     22  H   UNL A   1      37.524  32.838  33.791  1.00  0.00     0.344 HD
ATOM     23  H   UNL A   1      38.586  33.997  34.340  1.00  0.00     0.344 HD
ENDBRANCH  16  20
ENDBRANCH  12  15
ENDBRANCH  10  11
ENDBRANCH   6  10
ENDBRANCH   3   5
ENDBRANCH   2   3
ENDBRANCH   1   2
BRANCH   1  24
ATOM     24  C   UNL A   1      34.089  33.155  28.688  1.00  0.00     0.275 C 
BRANCH  24  25
ATOM     25  O   UNL A   1      34.648  32.480  27.547  1.00  0.00    -0.458 OA
BRANCH  25  26
ATOM     26  C   UNL A   1      34.492  31.132  27.544  1.00  0.00     0.338 C 
ATOM     27  O   UNL A   1      33.525  30.517  27.127  1.00  0.00    -0.246 OA
BRANCH  26  28
ATOM     28  C   UNL A   1      35.746  30.484  27.971  1.00  0.00     0.060 A 
ATOM     29  C   UNL A   1      35.703  29.715  29.135  1.00  0.00     0.016 A 
ATOM     30  C   UNL A   1      36.952  30.657  27.288  1.00  0.00     0.016 A 
ATOM     31  C   UNL A   1      36.857  29.111  29.624  1.00  0.00     0.010 A 
ATOM     32  C   UNL A   1      38.116  30.054  27.785  1.00  0.00     0.010 A 
ATOM     33  C   UNL A   1      38.075  29.282  28.959  1.00  0.00    -0.014 A 
BRANCH  33  34
ATOM     34  C   UNL A   1      39.303  28.696  29.552  1.00  0.00     0.031 A 
ATOM     35  C   UNL A   1      39.832  29.235  30.850  1.00  0.00     0.074 A 
ATOM     36  C   UNL A   1      39.898  27.641  28.963  1.00  0.00     0.049 A 
ATOM     37  N   UNL A   1      40.915  28.906  31.507  1.00  0.00    -0.248 NA
ATOM     38  C   UNL A   1      39.037  30.294  31.487  1.00  0.00     0.031 C 
ATOM     39  C   UNL A   1      39.432  26.989  27.738  1.00  0.00     0.029 A 
ATOM     40  N   UNL A   1      41.013  26.925  29.319  1.00  0.00    -0.354 N 
ATOM     41  C   UNL A   1      40.941  29.728  32.629  1.00  0.00     0.074 A 
ATOM     42  C   UNL A   1      39.781  30.591  32.543  1.00  0.00     0.031 C 
ATOM     43  C   UNL A   1      40.251  25.963  27.451  1.00  0.00     0.029 A 
ATOM     44  C   UNL A   1      41.325  25.916  28.440  1.00  0.00     0.049 A 
ATOM     45  H   UNL A   1      41.539  27.115  30.129  1.00  0.00     0.167 HD
ATOM     46  C   UNL A   1      41.849  29.754  33.638  1.00  0.00     0.034 A 
ATOM     47  C   UNL A   1      42.372  25.067  28.417  1.00  0.00     0.034 A 
ATOM     48  C   UNL A   1      42.992  28.874  33.712  1.00  0.00     0.049 A 
ATOM     49  C   UNL A   1      43.407  25.162  29.509  1.00  0.00     0.074 A 
ATOM     50  C   UNL A   1      43.973  28.811  34.686  1.00  0.00     0.029 A 
ATOM     51  N   UNL A   1      43.311  27.902  32.769  1.00  0.00    -0.354 N 
ATOM     52  N   UNL A   1      43.446  25.971  30.543  1.00  0.00    -0.248 NA
ATOM     53  C   UNL A   1      44.541  24.232  29.430  1.00  0.00     0.031 C 
ATOM     54  C   UNL A   1      44.915  27.848  34.303  1.00  0.00     0.029 A 
ATOM     55  C   UNL A   1      44.487  27.258  33.124  1.00  0.00     0.049 A 
ATOM     56  H   UNL A   1      42.778  27.701  31.967  1.00  0.00     0.167 HD
ATOM     57  C   UNL A   1      44.600  25.635  31.245  1.00  0.00     0.074 A 
ATOM     58  C   UNL A   1      45.217  24.539  30.527  1.00  0.00     0.031 C 
ATOM     59  C   UNL A   1      45.103  26.181  32.382  1.00  0.00     0.034 A 
BRANCH  46  60
ATOM     60  C   UNL A   1      41.672  30.815  34.698  1.00  0.00     0.023 A 
ATOM     61  C   UNL A   1      40.539  30.863  35.531  1.00  0.00     0.031 A 
ATOM     62  C   UNL A   1      42.639  31.825  34.845  1.00  0.00     0.131 A 
ATOM     63  C   UNL A   1      40.370  31.935  36.422  1.00  0.00     0.055 A 
ATOM     64  C   UNL A   1      42.502  32.848  35.785  1.00  0.00     0.041 A 
ATOM     65  F   UNL A   1      43.732  31.846  34.064  1.00  0.00    -0.206 F 
ATOM     66  C   UNL A   1      41.355  32.915  36.571  1.00  0.00     0.022 A 
BRANCH  63  67
ATOM     67  S   UNL A   1      38.786  32.112  37.292  1.00  0.00     0.124 S 
ATOM     68  O   UNL A   1      38.149  30.828  37.013  1.00  0.00    -0.237 OA
ATOM     69  O   UNL A   1      39.205  32.333  38.671  1.00  0.00    -0.237 OA
ATOM     70  O   UNL A   1      38.162  33.261  36.639  1.00  0.00    -0.744 OA
ENDBRANCH  63  67
ENDBRANCH  46  60
BRANCH  47  71
ATOM     71  C   UNL A   1      42.531  24.095  27.299  1.00  0.00     0.023 A 
ATOM     72  C   UNL A   1      41.916  22.834  27.333  1.00  0.00     0.031 A 
ATOM     73  C   UNL A   1      43.341  24.405  26.191  1.00  0.00     0.131 A 
ATOM     74  C   UNL A   1      42.146  21.917  26.295  1.00  0.00     0.055 A 
ATOM     75  C   UNL A   1      43.529  23.508  25.139  1.00  0.00     0.041 A 
ATOM     76  F   UNL A   1      43.957  25.595  26.111  1.00  0.00    -0.206 F 
ATOM     77  C   UNL A   1      42.937  22.250  25.193  1.00  0.00     0.022 A 
BRANCH  74  78
ATOM     78  S   UNL A   1      41.450  20.247  26.437  1.00  0.00     0.124 S 
ATOM     79  O   UNL A   1      41.832  19.877  27.795  1.00  0.00    -0.237 OA
ATOM     80  O   UNL A   1      40.028  20.489  26.214  1.00  0.00    -0.237 OA
ATOM     81  O   UNL A   1      42.125  19.504  25.375  1.00  0.00    -0.744 OA
ENDBRANCH  74  78
ENDBRANCH  47  71
BRANCH  59  82
ATOM     82  C   UNL A   1      46.370  25.569  32.926  1.00  0.00     0.023 A 
ATOM     83  C   UNL A   1      46.339  24.501  33.842  1.00  0.00     0.031 A 
ATOM     84  C   UNL A   1      47.623  26.077  32.540  1.00  0.00     0.131 A 
ATOM     85  C   UNL A   1      47.538  24.010  34.380  1.00  0.00     0.055 A 
ATOM     86  C   UNL A   1      48.814  25.549  33.040  1.00  0.00     0.041 A 
ATOM     87  F   UNL A   1      47.709  27.096  31.672  1.00  0.00    -0.206 F 
ATOM     88  C   UNL A   1      48.776  24.518  33.974  1.00  0.00     0.022 A 
BRANCH  85  89
ATOM     89  S   UNL A   1      47.459  22.753  35.686  1.00  0.00     0.124 S 
ATOM     90  O   UNL A   1      48.658  23.045  36.464  1.00  0.00    -0.237 OA
ATOM     91  O   UNL A   1      46.188  23.055  36.336  1.00  0.00    -0.237 OA
ATOM     92  O   UNL A   1      47.491  21.490  34.950  1.00  0.00    -0.744 OA
ENDBRANCH  85  89
ENDBRANCH  59  82
ENDBRANCH  33  34
ENDBRANCH  26  28
ENDBRANCH  25  26
ENDBRANCH  24  25
ENDBRANCH   1  24
TORSDOF 18
ENDMDL
MODEL 2
REMARK VINA RESULT:     -10.5      1.809      2.057
REMARK SMILES [NH3+][C@H]1CCC[C@H]1C(=O)NCc1ccc(C(=O)OCCOC(=O)c2ccc(-c3c4nc(c(-c5cc(S(=O)(=O)[O-])ccc5F)c5ccc([nH]5)c(-c5cc(S(=O)(=O)[O-])ccc5F)c5nc(c(-c6cc(S(=O)(=O)[O-])ccc6F)c6ccc3[nH]6)C=C5)C=C4)cc2)o1
REMARK SMILES IDX 18 1 17 2 15 3 16 4 14 5 11 6 12 7 86 8 13 9 10 10 9 11 7 12
REMARK SMILES IDX 8 13 6 15 2 16 3 17 4 18 5 19 1 20 19 24 20 25 21 26 22 27
REMARK SMILES IDX 23 28 24 29 85 30 25 31 84 32 26 33 27 34 28 35 78 36 29 37
REMARK SMILES IDX 83 38 77 39 79 40 30 41 82 42 76 43 75 44 31 46 63 47 43 48
REMARK SMILES IDX 62 49 44 50 47 51 61 52 80 53 45 54 46 55 60 57 81 58 48 59
REMARK SMILES IDX 32 60 33 61 41 62 34 63 40 64 42 65 39 66 35 67 36 68 37 69
REMARK SMILES IDX 38 70 64 71 65 72 73 73 66 74 72 75 74 76 71 77 67 78 68 79
REMARK SMILES IDX 69 80 70 81 49 82 50 83 58 84 51 85 57 86 59 87 56 88 52 89
REMARK SMILES IDX 53 90 54 91 55 92
REMARK H PARENT 9 14 1 21 1 22 1 23 79 45 47 56
REMARK Flexibility Score: inf
ROOT
ATOM      1  C   UNL A   1      33.409  34.107  28.371  1.00  0.00     0.275 C 
ENDROOT
BRANCH   1   2
ATOM      2  O   UNL A   1      32.748  34.662  29.523  1.00  0.00    -0.456 OA
BRANCH   2   3
ATOM      3  C   UNL A   1      32.914  36.007  29.718  1.00  0.00     0.374 C 
ATOM      4  O   UNL A   1      32.704  36.857  28.868  1.00  0.00    -0.242 OA
BRANCH   3   5
ATOM      5  C   UNL A   1      33.309  36.254  31.088  1.00  0.00     0.211 A 
ATOM      6  C   UNL A   1      34.272  35.718  33.002  1.00  0.00     0.124 A 
ATOM      7  C   UNL A   1      33.914  37.046  33.101  1.00  0.00     0.048 A 
ATOM      8  O   UNL A   1      33.842  35.213  31.810  1.00  0.00    -0.452 OA
ATOM      9  C   UNL A   1      33.321  37.397  31.868  1.00  0.00     0.058 A 
BRANCH   6  10
ATOM     10  C   UNL A   1      35.026  34.811  33.910  1.00  0.00     0.191 C 
BRANCH  10  11
ATOM     11  N   UNL A   1      35.206  33.525  33.268  1.00  0.00    -0.348 N 
ATOM     12  C   UNL A   1      36.042  33.090  32.293  1.00  0.00     0.229 C 
ATOM     13  O   UNL A   1      35.889  31.923  31.919  1.00  0.00    -0.275 OA
ATOM     14  H   UNL A   1      34.600  32.827  33.607  1.00  0.00     0.163 HD
BRANCH  12  15
ATOM     15  C   UNL A   1      37.092  33.966  31.619  1.00  0.00     0.136 C 
ATOM     16  C   UNL A   1      38.296  34.368  32.484  1.00  0.00     0.193 C 
ATOM     17  C   UNL A   1      39.482  34.492  31.524  1.00  0.00     0.066 C 
ATOM     18  C   UNL A   1      39.048  33.969  30.160  1.00  0.00     0.007 C 
ATOM     19  C   UNL A   1      37.617  33.468  30.279  1.00  0.00     0.020 C 
BRANCH  16  20
ATOM     20  N   UNL A   1      38.670  33.485  33.587  1.00  0.00    -0.354 N 
ATOM     21  H   UNL A   1      39.369  32.816  33.265  1.00  0.00     0.344 HD
ATOM     22  H   UNL A   1      37.845  32.985  33.917  1.00  0.00     0.344 HD
ATOM     23  H   UNL A   1      39.057  34.041  34.350  1.00  0.00     0.344 HD
ENDBRANCH  16  20
ENDBRANCH  12  15
ENDBRANCH  10  11
ENDBRANCH   6  10
ENDBRANCH   3   5
ENDBRANCH   2   3
ENDBRANCH   1   2
BRANCH   1  24
ATOM     24  C   UNL A   1      34.309  32.921  28.741  1.00  0.00     0.275 C 
BRANCH  24  25
ATOM     25  O   UNL A   1      34.638  32.111  27.597  1.00  0.00    -0.458 OA
BRANCH  25  26
ATOM     26  C   UNL A   1      34.520  30.773  27.787  1.00  0.00     0.338 C 
ATOM     27  O   UNL A   1      33.522  30.100  27.589  1.00  0.00    -0.246 OA
BRANCH  26  28
ATOM     28  C   UNL A   1      35.837  30.198  28.116  1.00  0.00     0.060 A 
ATOM     29  C   UNL A   1      35.982  29.615  29.376  1.00  0.00     0.016 A 
ATOM     30  C   UNL A   1      36.926  30.266  27.244  1.00  0.00     0.016 A 
ATOM     31  C   UNL A   1      37.209  29.092  29.774  1.00  0.00     0.010 A 
ATOM     32  C   UNL A   1      38.163  29.746  27.648  1.00  0.00     0.010 A 
ATOM     33  C   UNL A   1      38.312  29.161  28.918  1.00  0.00    -0.014 A 
BRANCH  33  34
ATOM     34  C   UNL A   1      39.627  28.672  29.404  1.00  0.00     0.031 A 
ATOM     35  C   UNL A   1      40.314  29.385  30.534  1.00  0.00     0.074 A 
ATOM     36  C   UNL A   1      40.165  27.555  28.880  1.00  0.00     0.049 A 
ATOM     37  N   UNL A   1      41.485  29.158  31.070  1.00  0.00    -0.248 NA
ATOM     38  C   UNL A   1      39.582  30.510  31.133  1.00  0.00     0.031 C 
ATOM     39  C   UNL A   1      39.555  26.741  27.828  1.00  0.00     0.029 A 
ATOM     40  N   UNL A   1      41.339  26.905  29.166  1.00  0.00    -0.354 N 
ATOM     41  C   UNL A   1      41.642  30.121  32.060  1.00  0.00     0.074 A 
ATOM     42  C   UNL A   1      40.456  30.953  32.026  1.00  0.00     0.031 C 
ATOM     43  C   UNL A   1      40.356  25.695  27.564  1.00  0.00     0.029 A 
ATOM     44  C   UNL A   1      41.557  25.791  28.390  1.00  0.00     0.049 A 
ATOM     45  H   UNL A   1      41.966  27.207  29.863  1.00  0.00     0.167 HD
ATOM     46  C   UNL A   1      42.678  30.291  32.920  1.00  0.00     0.034 A 
ATOM     47  C   UNL A   1      42.616  24.959  28.332  1.00  0.00     0.034 A 
ATOM     48  C   UNL A   1      43.847  29.442  32.946  1.00  0.00     0.049 A 
ATOM     49  C   UNL A   1      43.788  25.209  29.246  1.00  0.00     0.074 A 
ATOM     50  C   UNL A   1      44.954  29.519  33.773  1.00  0.00     0.029 A 
ATOM     51  N   UNL A   1      44.060  28.357  32.103  1.00  0.00    -0.354 N 
ATOM     52  N   UNL A   1      43.945  26.149  30.150  1.00  0.00    -0.248 NA
ATOM     53  C   UNL A   1      44.926  24.289  29.130  1.00  0.00     0.031 C 
ATOM     54  C   UNL A   1      45.862  28.524  33.390  1.00  0.00     0.029 A 
ATOM     55  C   UNL A   1      45.293  27.778  32.370  1.00  0.00     0.049 A 
ATOM     56  H   UNL A   1      43.429  28.045  31.416  1.00  0.00     0.167 HD
ATOM     57  C   UNL A   1      45.194  25.922  30.721  1.00  0.00     0.074 A 
ATOM     58  C   UNL A   1      45.738  24.746  30.072  1.00  0.00     0.031 C 
ATOM     59  C   UNL A   1      45.832  26.619  31.695  1.00  0.00     0.034 A 
BRANCH  46  60
ATOM     60  C   UNL A   1      42.618  31.482  33.847  1.00  0.00     0.023 A 
ATOM     61  C   UNL A   1      41.814  31.495  35.002  1.00  0.00     0.031 A 
ATOM     62  C   UNL A   1      43.349  32.645  33.542  1.00  0.00     0.131 A 
ATOM     63  C   UNL A   1      41.707  32.667  35.767  1.00  0.00     0.055 A 
ATOM     64  C   UNL A   1      43.296  33.783  34.348  1.00  0.00     0.041 A 
ATOM     65  F   UNL A   1      44.117  32.701  32.442  1.00  0.00    -0.206 F 
ATOM     66  C   UNL A   1      42.460  33.804  35.461  1.00  0.00     0.022 A 
BRANCH  63  67
ATOM     67  S   UNL A   1      40.469  32.739  37.094  1.00  0.00     0.124 S 
ATOM     68  O   UNL A   1      39.309  32.127  36.451  1.00  0.00    -0.237 OA
ATOM     69  O   UNL A   1      41.097  31.962  38.155  1.00  0.00    -0.237 OA
ATOM     70  O   UNL A   1      40.338  34.170  37.364  1.00  0.00    -0.744 OA
ENDBRANCH  63  67
ENDBRANCH  46  60
BRANCH  47  71
ATOM     71  C   UNL A   1      42.647  23.848  27.338  1.00  0.00     0.023 A 
ATOM     72  C   UNL A   1      42.030  22.616  27.598  1.00  0.00     0.031 A 
ATOM     73  C   UNL A   1      43.338  23.997  26.122  1.00  0.00     0.131 A 
ATOM     74  C   UNL A   1      42.141  21.569  26.670  1.00  0.00     0.055 A 
ATOM     75  C   UNL A   1      43.406  22.968  25.181  1.00  0.00     0.041 A 
ATOM     76  F   UNL A   1      43.951  25.154  25.824  1.00  0.00    -0.206 F 
ATOM     77  C   UNL A   1      42.814  21.741  25.458  1.00  0.00     0.022 A 
BRANCH  74  78
ATOM     78  S   UNL A   1      41.451  19.945  27.099  1.00  0.00     0.124 S 
ATOM     79  O   UNL A   1      40.561  19.692  25.971  1.00  0.00    -0.237 OA
ATOM     80  O   UNL A   1      42.649  19.114  27.170  1.00  0.00    -0.237 OA
ATOM     81  O   UNL A   1      40.786  20.184  28.377  1.00  0.00    -0.744 OA
ENDBRANCH  74  78
ENDBRANCH  47  71
BRANCH  59  82
ATOM     82  C   UNL A   1      47.179  26.099  32.131  1.00  0.00     0.023 A 
ATOM     83  C   UNL A   1      48.360  26.443  31.447  1.00  0.00     0.031 A 
ATOM     84  C   UNL A   1      47.280  25.230  33.232  1.00  0.00     0.131 A 
ATOM     85  C   UNL A   1      49.582  25.878  31.840  1.00  0.00     0.055 A 
ATOM     86  C   UNL A   1      48.506  24.713  33.649  1.00  0.00     0.041 A 
ATOM     87  F   UNL A   1      46.184  24.867  33.918  1.00  0.00    -0.206 F 
ATOM     88  C   UNL A   1      49.665  25.027  32.945  1.00  0.00     0.022 A 
BRANCH  85  89
ATOM     89  S   UNL A   1      51.057  26.204  30.835  1.00  0.00     0.124 S 
ATOM     90  O   UNL A   1      52.041  25.310  31.438  1.00  0.00    -0.237 OA
ATOM     91  O   UNL A   1      50.608  25.844  29.493  1.00  0.00    -0.237 OA
ATOM     92  O   UNL A   1      51.307  27.630  31.040  1.00  0.00    -0.744 OA
ENDBRANCH  85  89
ENDBRANCH  59  82
ENDBRANCH  33  34
ENDBRANCH  26  28
ENDBRANCH  25  26
ENDBRANCH  24  25
ENDBRANCH   1  24
TORSDOF 18
ENDMDL
MODEL 3
REMARK VINA RESULT:     -10.4      1.525      1.808
REMARK SMILES [NH3+][C@H]1CCC[C@H]1C(=O)NCc1ccc(C(=O)OCCOC(=O)c2ccc(-c3c4nc(c(-c5cc(S(=O)(=O)[O-])ccc5F)c5ccc([nH]5)c(-c5cc(S(=O)(=O)[O-])ccc5F)c5nc(c(-c6cc(S(=O)(=O)[O-])ccc6F)c6ccc3[nH]6)C=C5)C=C4)cc2)o1
REMARK SMILES IDX 18 1 17 2 15 3 16 4 14 5 11 6 12 7 86 8 13 9 10 10 9 11 7 12
REMARK SMILES IDX 8 13 6 15 2 16 3 17 4 18 5 19 1 20 19 24 20 25 21 26 22 27
REMARK SMILES IDX 23 28 24 29 85 30 25 31 84 32 26 33 27 34 28 35 78 36 29 37
REMARK SMILES IDX 83 38 77 39 79 40 30 41 82 42 76 43 75 44 31 46 63 47 43 48
REMARK SMILES IDX 62 49 44 50 47 51 61 52 80 53 45 54 46 55 60 57 81 58 48 59
REMARK SMILES IDX 32 60 33 61 41 62 34 63 40 64 42 65 39 66 35 67 36 68 37 69
REMARK SMILES IDX 38 70 64 71 65 72 73 73 66 74 72 75 74 76 71 77 67 78 68 79
REMARK SMILES IDX 69 80 70 81 49 82 50 83 58 84 51 85 57 86 59 87 56 88 52 89
REMARK SMILES IDX 53 90 54 91 55 92
REMARK H PARENT 9 14 1 21 1 22 1 23 79 45 47 56
REMARK Flexibility Score: inf
ROOT
ATOM      1  C   UNL A   1      33.367  34.380  28.041  1.00  0.00     0.275 C 
ENDROOT
BRANCH   1   2
ATOM      2  O   UNL A   1      32.611  34.801  29.192  1.00  0.00    -0.456 OA
BRANCH   2   3
ATOM      3  C   UNL A   1      33.007  35.977  29.772  1.00  0.00     0.374 C 
ATOM      4  O   UNL A   1      32.926  37.070  29.236  1.00  0.00    -0.242 OA
BRANCH   3   5
ATOM      5  C   UNL A   1      33.468  35.722  31.120  1.00  0.00     0.211 A 
ATOM      6  C   UNL A   1      34.278  34.448  32.732  1.00  0.00     0.124 A 
ATOM      7  C   UNL A   1      34.281  35.741  33.213  1.00  0.00     0.048 A 
ATOM      8  O   UNL A   1      33.717  34.422  31.489  1.00  0.00    -0.452 OA
ATOM      9  C   UNL A   1      33.788  36.559  32.174  1.00  0.00     0.058 A 
BRANCH   6  10
ATOM     10  C   UNL A   1      34.776  33.165  33.297  1.00  0.00     0.191 C 
BRANCH  10  11
ATOM     11  N   UNL A   1      36.151  33.326  33.725  1.00  0.00    -0.348 N 
ATOM     12  C   UNL A   1      37.285  33.675  33.070  1.00  0.00     0.229 C 
ATOM     13  O   UNL A   1      38.329  33.653  33.730  1.00  0.00    -0.275 OA
ATOM     14  H   UNL A   1      36.289  33.146  34.683  1.00  0.00     0.163 HD
BRANCH  12  15
ATOM     15  C   UNL A   1      37.338  34.028  31.588  1.00  0.00     0.136 C 
ATOM     16  C   UNL A   1      38.650  34.651  31.086  1.00  0.00     0.193 C 
ATOM     17  C   UNL A   1      38.804  34.194  29.633  1.00  0.00     0.066 C 
ATOM     18  C   UNL A   1      37.729  33.154  29.344  1.00  0.00     0.007 C 
ATOM     19  C   UNL A   1      36.942  32.918  30.623  1.00  0.00     0.020 C 
BRANCH  16  20
ATOM     20  N   UNL A   1      39.877  34.338  31.814  1.00  0.00    -0.354 N 
ATOM     21  H   UNL A   1      40.213  33.416  31.535  1.00  0.00     0.344 HD
ATOM     22  H   UNL A   1      39.689  34.343  32.816  1.00  0.00     0.344 HD
ATOM     23  H   UNL A   1      40.587  35.038  31.599  1.00  0.00     0.344 HD
ENDBRANCH  16  20
ENDBRANCH  12  15
ENDBRANCH  10  11
ENDBRANCH   6  10
ENDBRANCH   3   5
ENDBRANCH   2   3
ENDBRANCH   1   2
BRANCH   1  24
ATOM     24  C   UNL A   1      33.193  32.884  27.754  1.00  0.00     0.275 C 
BRANCH  24  25
ATOM     25  O   UNL A   1      34.302  32.105  28.239  1.00  0.00    -0.458 OA
BRANCH  25  26
ATOM     26  C   UNL A   1      34.397  30.855  27.721  1.00  0.00     0.338 C 
ATOM     27  O   UNL A   1      33.608  30.328  26.954  1.00  0.00    -0.246 OA
BRANCH  26  28
ATOM     28  C   UNL A   1      35.697  30.261  28.086  1.00  0.00     0.060 A 
ATOM     29  C   UNL A   1      35.796  29.665  29.344  1.00  0.00     0.016 A 
ATOM     30  C   UNL A   1      36.813  30.325  27.249  1.00  0.00     0.016 A 
ATOM     31  C   UNL A   1      37.003  29.124  29.774  1.00  0.00     0.010 A 
ATOM     32  C   UNL A   1      38.032  29.786  27.686  1.00  0.00     0.010 A 
ATOM     33  C   UNL A   1      38.134  29.188  28.954  1.00  0.00    -0.014 A 
BRANCH  33  34
ATOM     34  C   UNL A   1      39.427  28.679  29.477  1.00  0.00     0.031 A 
ATOM     35  C   UNL A   1      40.016  29.283  30.719  1.00  0.00     0.074 A 
ATOM     36  C   UNL A   1      40.031  27.636  28.877  1.00  0.00     0.049 A 
ATOM     37  N   UNL A   1      41.155  29.026  31.308  1.00  0.00    -0.248 NA
ATOM     38  C   UNL A   1      39.214  30.322  31.380  1.00  0.00     0.031 C 
ATOM     39  C   UNL A   1      39.515  26.924  27.706  1.00  0.00     0.029 A 
ATOM     40  N   UNL A   1      41.201  26.984  29.175  1.00  0.00    -0.354 N 
ATOM     41  C   UNL A   1      41.218  29.882  32.402  1.00  0.00     0.074 A 
ATOM     42  C   UNL A   1      40.013  30.687  32.373  1.00  0.00     0.031 C 
ATOM     43  C   UNL A   1      40.362  25.930  27.391  1.00  0.00     0.029 A 
ATOM     44  C   UNL A   1      41.502  25.964  28.304  1.00  0.00     0.049 A 
ATOM     45  H   UNL A   1      41.771  27.224  29.940  1.00  0.00     0.167 HD
ATOM     46  C   UNL A   1      42.190  29.983  33.344  1.00  0.00     0.034 A 
ATOM     47  C   UNL A   1      42.586  25.166  28.232  1.00  0.00     0.034 A 
ATOM     48  C   UNL A   1      43.378  29.161  33.363  1.00  0.00     0.049 A 
ATOM     49  C   UNL A   1      43.687  25.344  29.247  1.00  0.00     0.074 A 
ATOM     50  C   UNL A   1      44.425  29.174  34.268  1.00  0.00     0.029 A 
ATOM     51  N   UNL A   1      43.678  28.176  32.428  1.00  0.00    -0.354 N 
ATOM     52  N   UNL A   1      43.757  26.186  30.252  1.00  0.00    -0.248 NA
ATOM     53  C   UNL A   1      44.857  24.466  29.114  1.00  0.00     0.031 C 
ATOM     54  C   UNL A   1      45.384  28.245  33.847  1.00  0.00     0.029 A 
ATOM     55  C   UNL A   1      44.907  27.600  32.717  1.00  0.00     0.049 A 
ATOM     56  H   UNL A   1      43.103  27.925  31.670  1.00  0.00     0.167 HD
ATOM     57  C   UNL A   1      44.971  25.926  30.881  1.00  0.00     0.074 A 
ATOM     58  C   UNL A   1      45.591  24.838  30.153  1.00  0.00     0.031 C 
ATOM     59  C   UNL A   1      45.522  26.530  31.965  1.00  0.00     0.034 A 
BRANCH  46  60
ATOM     60  C   UNL A   1      42.034  31.067  34.384  1.00  0.00     0.023 A 
ATOM     61  C   UNL A   1      42.319  32.418  34.108  1.00  0.00     0.031 A 
ATOM     62  C   UNL A   1      41.633  30.734  35.690  1.00  0.00     0.131 A 
ATOM     63  C   UNL A   1      42.266  33.369  35.140  1.00  0.00     0.055 A 
ATOM     64  C   UNL A   1      41.510  31.697  36.693  1.00  0.00     0.041 A 
ATOM     65  F   UNL A   1      41.368  29.459  36.019  1.00  0.00    -0.206 F 
ATOM     66  C   UNL A   1      41.842  33.021  36.424  1.00  0.00     0.022 A 
BRANCH  63  67
ATOM     67  S   UNL A   1      42.888  35.045  34.820  1.00  0.00     0.124 S 
ATOM     68  O   UNL A   1      42.759  35.666  36.135  1.00  0.00    -0.237 OA
ATOM     69  O   UNL A   1      44.248  34.796  34.359  1.00  0.00    -0.237 OA
ATOM     70  O   UNL A   1      41.972  35.563  33.804  1.00  0.00    -0.744 OA
ENDBRANCH  63  67
ENDBRANCH  46  60
BRANCH  47  71
ATOM     71  C   UNL A   1      42.716  24.168  27.133  1.00  0.00     0.023 A 
ATOM     72  C   UNL A   1      42.120  22.900  27.221  1.00  0.00     0.031 A 
ATOM     73  C   UNL A   1      43.480  24.460  25.988  1.00  0.00     0.131 A 
ATOM     74  C   UNL A   1      42.323  21.960  26.199  1.00  0.00     0.055 A 
ATOM     75  C   UNL A   1      43.640  23.539  24.952  1.00  0.00     0.041 A 
ATOM     76  F   UNL A   1      44.075  25.656  25.855  1.00  0.00    -0.206 F 
ATOM     77  C   UNL A   1      43.068  22.275  25.060  1.00  0.00     0.022 A 
BRANCH  74  78
ATOM     78  S   UNL A   1      41.656  20.285  26.408  1.00  0.00     0.124 S 
ATOM     79  O   UNL A   1      42.092  19.957  27.761  1.00  0.00    -0.237 OA
ATOM     80  O   UNL A   1      40.224  20.503  26.230  1.00  0.00    -0.237 OA
ATOM     81  O   UNL A   1      42.304  19.525  25.342  1.00  0.00    -0.744 OA
ENDBRANCH  74  78
ENDBRANCH  47  71
BRANCH  59  82
ATOM     82  C   UNL A   1      46.852  25.996  32.437  1.00  0.00     0.023 A 
ATOM     83  C   UNL A   1      46.938  24.994  33.420  1.00  0.00     0.031 A 
ATOM     84  C   UNL A   1      48.049  26.514  31.911  1.00  0.00     0.131 A 
ATOM     85  C   UNL A   1      48.195  24.578  33.884  1.00  0.00     0.055 A 
ATOM     86  C   UNL A   1      49.296  26.058  32.339  1.00  0.00     0.041 A 
ATOM     87  F   UNL A   1      48.024  27.473  30.973  1.00  0.00    -0.206 F 
ATOM     88  C   UNL A   1      49.375  25.093  33.339  1.00  0.00     0.022 A 
BRANCH  85  89
ATOM     89  S   UNL A   1      48.272  23.411  35.271  1.00  0.00     0.124 S 
ATOM     90  O   UNL A   1      47.016  22.682  35.127  1.00  0.00    -0.237 OA
ATOM     91  O   UNL A   1      49.485  22.655  34.978  1.00  0.00    -0.237 OA
ATOM     92  O   UNL A   1      48.353  24.278  36.446  1.00  0.00    -0.744 OA
ENDBRANCH  85  89
ENDBRANCH  59  82
ENDBRANCH  33  34
ENDBRANCH  26  28
ENDBRANCH  25  26
ENDBRANCH  24  25
ENDBRANCH   1  24
TORSDOF 18
ENDMDL
