MODEL 1
REMARK VINA RESULT:     -13.2      0.000      0.000
REMARK SMILES O=C(OCCOC(=O)c1cc([C@@H]2C=NN=C2c2ccc(F)cc2)c2c(ccc3ccccc32)n1)c1ccc(-c2c3nc(c(-c4cc(S(=O)(=O)[O-])ccc4F)c4ccc([nH]4)c(-c4cc(S(=O)(=O)[O-])ccc4F)c4nc(c(-c5cc(S(=O)(=O)[O-])ccc5F)c5ccc2[nH]5)C=C4)C=C3)cc1
REMARK SMILES IDX 4 1 3 2 2 3 1 4 35 5 36 6 97 7 37 8 96 9 38 10 39 11 40 12
REMARK SMILES IDX 90 13 41 14 95 15 89 16 91 17 42 18 94 19 88 20 87 21 43 23
REMARK SMILES IDX 75 24 55 25 74 26 56 27 59 28 73 29 92 30 57 31 58 32 72 34
REMARK SMILES IDX 93 35 60 36 44 37 45 38 53 39 46 40 52 41 54 42 51 43 47 44
REMARK SMILES IDX 48 45 49 46 50 47 76 48 77 49 85 50 78 51 84 52 86 53 83 54
REMARK SMILES IDX 79 55 80 56 81 57 82 58 61 59 62 60 70 61 63 62 69 63 71 64
REMARK SMILES IDX 68 65 64 66 65 67 66 68 67 69 5 70 6 71 7 72 8 73 9 74 10 75
REMARK SMILES IDX 34 76 11 77 25 78 24 79 26 80 33 81 27 82 28 83 32 84 29 85
REMARK SMILES IDX 31 86 30 87 12 88 13 89 16 90 14 91 15 92 17 93 18 94 23 95
REMARK SMILES IDX 19 96 22 97 20 98 21 99
REMARK H PARENT 91 22 59 33
REMARK Flexibility Score: inf
ROOT
ATOM      1  C   UNL A   1      45.401  39.076  26.435  1.00  0.00     0.275 C 
ENDROOT
BRANCH   1   2
ATOM      2  O   UNL A   1      44.610  38.257  27.317  1.00  0.00    -0.458 OA
BRANCH   2   3
ATOM      3  C   UNL A   1      44.739  36.912  27.244  1.00  0.00     0.338 C 
ATOM      4  O   UNL A   1      45.610  36.346  26.604  1.00  0.00    -0.246 OA
BRANCH   3   5
ATOM      5  C   UNL A   1      43.810  36.225  28.172  1.00  0.00     0.060 A 
ATOM      6  C   UNL A   1      44.158  35.030  28.816  1.00  0.00     0.016 A 
ATOM      7  C   UNL A   1      42.550  36.795  28.386  1.00  0.00     0.016 A 
ATOM      8  C   UNL A   1      43.229  34.366  29.600  1.00  0.00     0.010 A 
ATOM      9  C   UNL A   1      41.616  36.128  29.170  1.00  0.00     0.010 A 
ATOM     10  C   UNL A   1      41.946  34.895  29.742  1.00  0.00    -0.014 A 
BRANCH  10  11
ATOM     11  C   UNL A   1      40.999  34.160  30.578  1.00  0.00     0.031 A 
ATOM     12  C   UNL A   1      41.410  33.953  31.996  1.00  0.00     0.074 A 
ATOM     13  C   UNL A   1      39.755  33.853  30.160  1.00  0.00     0.049 A 
ATOM     14  N   UNL A   1      41.518  32.859  32.675  1.00  0.00    -0.248 NA
ATOM     15  C   UNL A   1      41.830  35.148  32.740  1.00  0.00     0.031 C 
ATOM     16  C   UNL A   1      39.118  34.244  28.901  1.00  0.00     0.029 A 
ATOM     17  N   UNL A   1      38.748  33.236  30.839  1.00  0.00    -0.354 N 
ATOM     18  C   UNL A   1      41.806  33.248  33.984  1.00  0.00     0.074 A 
ATOM     19  C   UNL A   1      42.137  34.646  33.933  1.00  0.00     0.031 C 
ATOM     20  C   UNL A   1      37.785  34.063  29.006  1.00  0.00     0.029 A 
ATOM     21  C   UNL A   1      37.489  33.435  30.283  1.00  0.00     0.049 A 
ATOM     22  H   UNL A   1      38.897  32.699  31.651  1.00  0.00     0.167 HD
ATOM     23  C   UNL A   1      41.534  32.456  35.057  1.00  0.00     0.034 A 
ATOM     24  C   UNL A   1      36.288  33.175  30.864  1.00  0.00     0.034 A 
ATOM     25  C   UNL A   1      41.418  31.069  34.689  1.00  0.00     0.049 A 
ATOM     26  C   UNL A   1      36.538  32.172  31.929  1.00  0.00     0.074 A 
ATOM     27  C   UNL A   1      42.247  30.178  34.034  1.00  0.00     0.029 A 
ATOM     28  N   UNL A   1      40.166  30.502  34.642  1.00  0.00    -0.354 N 
ATOM     29  N   UNL A   1      36.973  30.961  31.702  1.00  0.00    -0.248 NA
ATOM     30  C   UNL A   1      36.715  32.649  33.291  1.00  0.00     0.031 C 
ATOM     31  C   UNL A   1      41.379  29.433  33.184  1.00  0.00     0.029 A 
ATOM     32  C   UNL A   1      40.074  29.865  33.428  1.00  0.00     0.049 A 
ATOM     33  H   UNL A   1      39.474  30.544  35.341  1.00  0.00     0.167 HD
ATOM     34  C   UNL A   1      37.834  30.687  32.753  1.00  0.00     0.074 A 
ATOM     35  C   UNL A   1      37.559  31.720  33.747  1.00  0.00     0.031 C 
ATOM     36  C   UNL A   1      38.876  29.817  32.615  1.00  0.00     0.034 A 
BRANCH  23  37
ATOM     37  C   UNL A   1      41.061  32.996  36.384  1.00  0.00     0.023 A 
ATOM     38  C   UNL A   1      41.801  32.701  37.545  1.00  0.00     0.031 A 
ATOM     39  C   UNL A   1      39.778  33.559  36.592  1.00  0.00     0.131 A 
ATOM     40  C   UNL A   1      41.253  32.933  38.822  1.00  0.00     0.055 A 
ATOM     41  C   UNL A   1      39.270  33.851  37.859  1.00  0.00     0.041 A 
ATOM     42  F   UNL A   1      38.914  33.760  35.588  1.00  0.00    -0.206 F 
ATOM     43  C   UNL A   1      40.000  33.520  38.985  1.00  0.00     0.022 A 
BRANCH  40  44
ATOM     44  S   UNL A   1      42.145  32.321  40.277  1.00  0.00     0.124 S 
ATOM     45  O   UNL A   1      41.071  31.690  41.037  1.00  0.00    -0.237 OA
ATOM     46  O   UNL A   1      43.124  31.421  39.678  1.00  0.00    -0.237 OA
ATOM     47  O   UNL A   1      42.699  33.536  40.871  1.00  0.00    -0.744 OA
ENDBRANCH  40  44
ENDBRANCH  23  37
BRANCH  24  48
ATOM     48  C   UNL A   1      35.027  33.964  30.752  1.00  0.00     0.023 A 
ATOM     49  C   UNL A   1      34.636  34.881  31.752  1.00  0.00     0.031 A 
ATOM     50  C   UNL A   1      34.300  34.011  29.541  1.00  0.00     0.131 A 
ATOM     51  C   UNL A   1      33.574  35.785  31.519  1.00  0.00     0.055 A 
ATOM     52  C   UNL A   1      33.239  34.893  29.322  1.00  0.00     0.041 A 
ATOM     53  F   UNL A   1      34.650  33.264  28.482  1.00  0.00    -0.206 F 
ATOM     54  C   UNL A   1      32.878  35.795  30.309  1.00  0.00     0.022 A 
BRANCH  51  55
ATOM     55  S   UNL A   1      33.168  37.069  32.745  1.00  0.00     0.124 S 
ATOM     56  O   UNL A   1      34.137  36.798  33.801  1.00  0.00    -0.237 OA
ATOM     57  O   UNL A   1      33.359  38.303  31.991  1.00  0.00    -0.237 OA
ATOM     58  O   UNL A   1      31.777  36.775  33.091  1.00  0.00    -0.744 OA
ENDBRANCH  51  55
ENDBRANCH  24  48
BRANCH  36  59
ATOM     59  C   UNL A   1      38.919  28.898  31.414  1.00  0.00     0.023 A 
ATOM     60  C   UNL A   1      39.430  29.247  30.144  1.00  0.00     0.031 A 
ATOM     61  C   UNL A   1      38.585  27.550  31.638  1.00  0.00     0.131 A 
ATOM     62  C   UNL A   1      39.593  28.253  29.156  1.00  0.00     0.055 A 
ATOM     63  C   UNL A   1      38.764  26.568  30.666  1.00  0.00     0.041 A 
ATOM     64  F   UNL A   1      38.126  27.155  32.839  1.00  0.00    -0.206 F 
ATOM     65  C   UNL A   1      39.270  26.916  29.420  1.00  0.00     0.022 A 
BRANCH  62  66
ATOM     66  S   UNL A   1      40.276  28.672  27.518  1.00  0.00     0.124 S 
ATOM     67  O   UNL A   1      41.524  29.352  27.844  1.00  0.00    -0.237 OA
ATOM     68  O   UNL A   1      40.401  27.367  26.876  1.00  0.00    -0.237 OA
ATOM     69  O   UNL A   1      39.250  29.536  26.930  1.00  0.00    -0.744 OA
ENDBRANCH  62  66
ENDBRANCH  36  59
ENDBRANCH  10  11
ENDBRANCH   3   5
ENDBRANCH   2   3
ENDBRANCH   1   2
BRANCH   1  70
ATOM     70  C   UNL A   1      45.066  40.564  26.387  1.00  0.00     0.275 C 
BRANCH  70  71
ATOM     71  O   UNL A   1      44.875  40.979  25.024  1.00  0.00    -0.457 OA
BRANCH  71  72
ATOM     72  C   UNL A   1      45.744  41.923  24.575  1.00  0.00     0.357 C 
ATOM     73  O   UNL A   1      46.684  42.413  25.176  1.00  0.00    -0.244 OA
BRANCH  72  74
ATOM     74  C   UNL A   1      45.194  42.478  23.325  1.00  0.00     0.149 A 
ATOM     75  C   UNL A   1      46.105  42.847  22.370  1.00  0.00     0.041 A 
ATOM     76  N   UNL A   1      43.871  42.517  23.131  1.00  0.00    -0.241 NA
ATOM     77  C   UNL A   1      45.664  43.275  21.100  1.00  0.00    -0.021 A 
ATOM     78  C   UNL A   1      43.425  42.942  21.940  1.00  0.00     0.072 A 
ATOM     79  C   UNL A   1      44.239  43.331  20.826  1.00  0.00     0.012 A 
ATOM     80  C   UNL A   1      42.051  42.957  21.849  1.00  0.00     0.029 A 
ATOM     81  C   UNL A   1      43.520  43.697  19.586  1.00  0.00    -0.009 A 
ATOM     82  C   UNL A   1      41.387  43.399  20.713  1.00  0.00     0.011 A 
ATOM     83  C   UNL A   1      42.101  43.779  19.588  1.00  0.00    -0.018 A 
ATOM     84  C   UNL A   1      44.098  43.967  18.323  1.00  0.00     0.009 A 
ATOM     85  C   UNL A   1      41.372  44.218  18.467  1.00  0.00     0.009 A 
ATOM     86  C   UNL A   1      43.376  44.384  17.198  1.00  0.00     0.001 A 
ATOM     87  C   UNL A   1      42.008  44.537  17.277  1.00  0.00     0.001 A 
BRANCH  77  88
ATOM     88  C   UNL A   1      46.839  43.521  20.187  1.00  0.00     0.115 C 
ATOM     89  C   UNL A   1      48.114  42.792  20.364  1.00  0.00     0.123 C 
ATOM     90  C   UNL A   1      47.386  44.904  20.032  1.00  0.00     0.083 C 
ATOM     91  N   UNL A   1      49.145  43.543  20.130  1.00  0.00    -0.162 NA
ATOM     92  N   UNL A   1      48.683  44.893  19.907  1.00  0.00    -0.154 NA
BRANCH  90  93
ATOM     93  C   UNL A   1      46.549  46.108  19.880  1.00  0.00    -0.001 A 
ATOM     94  C   UNL A   1      46.192  46.511  18.589  1.00  0.00     0.013 A 
ATOM     95  C   UNL A   1      46.113  46.849  20.985  1.00  0.00     0.013 A 
ATOM     96  C   UNL A   1      45.369  47.627  18.413  1.00  0.00     0.040 A 
ATOM     97  C   UNL A   1      45.284  47.958  20.807  1.00  0.00     0.040 A 
ATOM     98  C   UNL A   1      44.916  48.334  19.523  1.00  0.00     0.123 A 
ATOM     99  F   UNL A   1      44.126  49.401  19.348  1.00  0.00    -0.207 F 
ENDBRANCH  90  93
ENDBRANCH  77  88
ENDBRANCH  72  74
ENDBRANCH  71  72
ENDBRANCH  70  71
ENDBRANCH   1  70
TORSDOF 16
ENDMDL
MODEL 2
REMARK VINA RESULT:     -13.2      9.211     13.633
REMARK SMILES O=C(OCCOC(=O)c1cc([C@@H]2C=NN=C2c2ccc(F)cc2)c2c(ccc3ccccc32)n1)c1ccc(-c2c3nc(c(-c4cc(S(=O)(=O)[O-])ccc4F)c4ccc([nH]4)c(-c4cc(S(=O)(=O)[O-])ccc4F)c4nc(c(-c5cc(S(=O)(=O)[O-])ccc5F)c5ccc2[nH]5)C=C4)C=C3)cc1
REMARK SMILES IDX 4 1 3 2 2 3 1 4 35 5 36 6 97 7 37 8 96 9 38 10 39 11 40 12
REMARK SMILES IDX 90 13 41 14 95 15 89 16 91 17 42 18 94 19 88 20 87 21 43 23
REMARK SMILES IDX 75 24 55 25 74 26 56 27 59 28 73 29 92 30 57 31 58 32 72 34
REMARK SMILES IDX 93 35 60 36 44 37 45 38 53 39 46 40 52 41 54 42 51 43 47 44
REMARK SMILES IDX 48 45 49 46 50 47 76 48 77 49 85 50 78 51 84 52 86 53 83 54
REMARK SMILES IDX 79 55 80 56 81 57 82 58 61 59 62 60 70 61 63 62 69 63 71 64
REMARK SMILES IDX 68 65 64 66 65 67 66 68 67 69 5 70 6 71 7 72 8 73 9 74 10 75
REMARK SMILES IDX 34 76 11 77 25 78 24 79 26 80 33 81 27 82 28 83 32 84 29 85
REMARK SMILES IDX 31 86 30 87 12 88 13 89 16 90 14 91 15 92 17 93 18 94 23 95
REMARK SMILES IDX 19 96 22 97 20 98 21 99
REMARK H PARENT 91 22 59 33
REMARK Flexibility Score: inf
ROOT
ATOM      1  C   UNL A   1      34.522  33.194  30.192  1.00  0.00     0.275 C 
ENDROOT
BRANCH   1   2
ATOM      2  O   UNL A   1      35.545  33.033  29.190  1.00  0.00    -0.458 OA
BRANCH   2   3
ATOM      3  C   UNL A   1      35.603  31.868  28.504  1.00  0.00     0.338 C 
ATOM      4  O   UNL A   1      34.821  31.561  27.619  1.00  0.00    -0.246 OA
BRANCH   3   5
ATOM      5  C   UNL A   1      36.827  31.101  28.833  1.00  0.00     0.060 A 
ATOM      6  C   UNL A   1      37.999  31.731  29.270  1.00  0.00     0.016 A 
ATOM      7  C   UNL A   1      36.793  29.710  28.684  1.00  0.00     0.016 A 
ATOM      8  C   UNL A   1      39.153  30.991  29.476  1.00  0.00     0.010 A 
ATOM      9  C   UNL A   1      37.950  28.967  28.887  1.00  0.00     0.010 A 
ATOM     10  C   UNL A   1      39.137  29.617  29.243  1.00  0.00    -0.014 A 
BRANCH  10  11
ATOM     11  C   UNL A   1      40.376  28.876  29.473  1.00  0.00     0.031 A 
ATOM     12  C   UNL A   1      40.814  28.769  30.894  1.00  0.00     0.074 A 
ATOM     13  C   UNL A   1      40.987  28.173  28.500  1.00  0.00     0.049 A 
ATOM     14  N   UNL A   1      41.936  29.102  31.442  1.00  0.00    -0.248 NA
ATOM     15  C   UNL A   1      39.816  28.280  31.854  1.00  0.00     0.031 C 
ATOM     16  C   UNL A   1      40.516  27.954  27.131  1.00  0.00     0.029 A 
ATOM     17  N   UNL A   1      42.100  27.389  28.574  1.00  0.00    -0.354 N 
ATOM     18  C   UNL A   1      41.862  28.664  32.764  1.00  0.00     0.074 A 
ATOM     19  C   UNL A   1      40.488  28.308  33.002  1.00  0.00     0.031 C 
ATOM     20  C   UNL A   1      41.198  26.924  26.587  1.00  0.00     0.029 A 
ATOM     21  C   UNL A   1      42.229  26.494  27.518  1.00  0.00     0.049 A 
ATOM     22  H   UNL A   1      42.752  27.451  29.309  1.00  0.00     0.167 HD
ATOM     23  C   UNL A   1      42.970  28.405  33.510  1.00  0.00     0.034 A 
ATOM     24  C   UNL A   1      43.069  25.428  27.449  1.00  0.00     0.034 A 
ATOM     25  C   UNL A   1      44.132  29.085  33.004  1.00  0.00     0.049 A 
ATOM     26  C   UNL A   1      44.169  25.689  28.411  1.00  0.00     0.074 A 
ATOM     27  C   UNL A   1      44.426  30.408  32.731  1.00  0.00     0.029 A 
ATOM     28  N   UNL A   1      45.083  28.356  32.331  1.00  0.00    -0.354 N 
ATOM     29  N   UNL A   1      45.014  26.679  28.301  1.00  0.00    -0.248 NA
ATOM     30  C   UNL A   1      44.073  25.100  29.737  1.00  0.00     0.031 C 
ATOM     31  C   UNL A   1      45.161  30.371  31.511  1.00  0.00     0.029 A 
ATOM     32  C   UNL A   1      45.332  29.030  31.160  1.00  0.00     0.049 A 
ATOM     33  H   UNL A   1      45.502  27.516  32.629  1.00  0.00     0.167 HD
ATOM     34  C   UNL A   1      45.239  27.103  29.601  1.00  0.00     0.074 A 
ATOM     35  C   UNL A   1      44.713  26.034  30.444  1.00  0.00     0.031 C 
ATOM     36  C   UNL A   1      45.583  28.394  29.883  1.00  0.00     0.034 A 
BRANCH  23  37
ATOM     37  C   UNL A   1      43.048  27.277  34.510  1.00  0.00     0.023 A 
ATOM     38  C   UNL A   1      43.718  26.092  34.153  1.00  0.00     0.031 A 
ATOM     39  C   UNL A   1      42.266  27.216  35.689  1.00  0.00     0.131 A 
ATOM     40  C   UNL A   1      43.570  24.924  34.926  1.00  0.00     0.055 A 
ATOM     41  C   UNL A   1      42.180  26.075  36.490  1.00  0.00     0.041 A 
ATOM     42  F   UNL A   1      41.467  28.222  36.071  1.00  0.00    -0.206 F 
ATOM     43  C   UNL A   1      42.819  24.913  36.100  1.00  0.00     0.022 A 
BRANCH  40  44
ATOM     44  S   UNL A   1      44.261  23.369  34.299  1.00  0.00     0.124 S 
ATOM     45  O   UNL A   1      45.592  23.790  33.872  1.00  0.00    -0.237 OA
ATOM     46  O   UNL A   1      44.204  22.513  35.478  1.00  0.00    -0.237 OA
ATOM     47  O   UNL A   1      43.347  23.002  33.219  1.00  0.00    -0.744 OA
ENDBRANCH  40  44
ENDBRANCH  23  37
BRANCH  24  48
ATOM     48  C   UNL A   1      42.806  24.093  26.838  1.00  0.00     0.023 A 
ATOM     49  C   UNL A   1      43.700  23.512  25.913  1.00  0.00     0.031 A 
ATOM     50  C   UNL A   1      41.786  23.250  27.338  1.00  0.00     0.131 A 
ATOM     51  C   UNL A   1      43.557  22.158  25.533  1.00  0.00     0.055 A 
ATOM     52  C   UNL A   1      41.638  21.917  26.945  1.00  0.00     0.041 A 
ATOM     53  F   UNL A   1      40.946  23.658  28.301  1.00  0.00    -0.206 F 
ATOM     54  C   UNL A   1      42.533  21.360  26.047  1.00  0.00     0.022 A 
BRANCH  51  55
ATOM     55  S   UNL A   1      44.796  21.364  24.460  1.00  0.00     0.124 S 
ATOM     56  O   UNL A   1      44.300  19.994  24.386  1.00  0.00    -0.237 OA
ATOM     57  O   UNL A   1      44.710  22.150  23.235  1.00  0.00    -0.237 OA
ATOM     58  O   UNL A   1      46.043  21.532  25.206  1.00  0.00    -0.744 OA
ENDBRANCH  51  55
ENDBRANCH  24  48
BRANCH  36  59
ATOM     59  C   UNL A   1      46.035  29.301  28.760  1.00  0.00     0.023 A 
ATOM     60  C   UNL A   1      45.241  30.301  28.157  1.00  0.00     0.031 A 
ATOM     61  C   UNL A   1      47.400  29.254  28.422  1.00  0.00     0.131 A 
ATOM     62  C   UNL A   1      45.826  31.211  27.252  1.00  0.00     0.055 A 
ATOM     63  C   UNL A   1      47.979  30.167  27.541  1.00  0.00     0.041 A 
ATOM     64  F   UNL A   1      48.211  28.346  28.992  1.00  0.00    -0.206 F 
ATOM     65  C   UNL A   1      47.193  31.150  26.953  1.00  0.00     0.022 A 
BRANCH  62  66
ATOM     66  S   UNL A   1      44.829  32.527  26.479  1.00  0.00     0.124 S 
ATOM     67  O   UNL A   1      45.807  33.261  25.685  1.00  0.00    -0.237 OA
ATOM     68  O   UNL A   1      43.824  31.776  25.733  1.00  0.00    -0.237 OA
ATOM     69  O   UNL A   1      44.297  33.271  27.624  1.00  0.00    -0.744 OA
ENDBRANCH  62  66
ENDBRANCH  36  59
ENDBRANCH  10  11
ENDBRANCH   3   5
ENDBRANCH   2   3
ENDBRANCH   1   2
BRANCH   1  70
ATOM     70  C   UNL A   1      34.990  33.449  31.622  1.00  0.00     0.275 C 
BRANCH  70  71
ATOM     71  O   UNL A   1      34.898  32.237  32.390  1.00  0.00    -0.457 OA
BRANCH  71  72
ATOM     72  C   UNL A   1      36.045  31.511  32.472  1.00  0.00     0.357 C 
ATOM     73  O   UNL A   1      36.224  30.360  32.114  1.00  0.00    -0.244 OA
BRANCH  72  74
ATOM     74  C   UNL A   1      36.983  32.254  33.335  1.00  0.00     0.149 A 
ATOM     75  C   UNL A   1      38.070  32.810  32.715  1.00  0.00     0.041 A 
ATOM     76  N   UNL A   1      36.704  32.435  34.630  1.00  0.00    -0.241 NA
ATOM     77  C   UNL A   1      38.952  33.637  33.442  1.00  0.00    -0.021 A 
ATOM     78  C   UNL A   1      37.540  33.198  35.350  1.00  0.00     0.072 A 
ATOM     79  C   UNL A   1      38.700  33.877  34.852  1.00  0.00     0.012 A 
ATOM     80  C   UNL A   1      37.172  33.307  36.673  1.00  0.00     0.029 A 
ATOM     81  C   UNL A   1      39.429  34.722  35.821  1.00  0.00    -0.009 A 
ATOM     82  C   UNL A   1      37.923  34.022  37.595  1.00  0.00     0.011 A 
ATOM     83  C   UNL A   1      39.050  34.719  37.191  1.00  0.00    -0.018 A 
ATOM     84  C   UNL A   1      40.503  35.600  35.536  1.00  0.00     0.009 A 
ATOM     85  C   UNL A   1      39.770  35.425  38.172  1.00  0.00     0.009 A 
ATOM     86  C   UNL A   1      41.210  36.321  36.506  1.00  0.00     0.001 A 
ATOM     87  C   UNL A   1      40.860  36.214  37.835  1.00  0.00     0.001 A 
BRANCH  77  88
ATOM     88  C   UNL A   1      40.005  34.219  32.532  1.00  0.00     0.115 C 
ATOM     89  C   UNL A   1      39.752  34.400  31.085  1.00  0.00     0.123 C 
ATOM     90  C   UNL A   1      41.355  33.583  32.450  1.00  0.00     0.083 C 
ATOM     91  N   UNL A   1      40.803  34.145  30.369  1.00  0.00    -0.162 NA
ATOM     92  N   UNL A   1      41.834  33.632  31.240  1.00  0.00    -0.154 NA
BRANCH  90  93
ATOM     93  C   UNL A   1      42.112  33.107  33.623  1.00  0.00    -0.001 A 
ATOM     94  C   UNL A   1      43.280  33.788  33.981  1.00  0.00     0.013 A 
ATOM     95  C   UNL A   1      41.694  32.000  34.371  1.00  0.00     0.013 A 
ATOM     96  C   UNL A   1      44.001  33.383  35.109  1.00  0.00     0.040 A 
ATOM     97  C   UNL A   1      42.411  31.603  35.502  1.00  0.00     0.040 A 
ATOM     98  C   UNL A   1      43.555  32.301  35.863  1.00  0.00     0.123 A 
ATOM     99  F   UNL A   1      44.248  31.920  36.943  1.00  0.00    -0.207 F 
ENDBRANCH  90  93
ENDBRANCH  77  88
ENDBRANCH  72  74
ENDBRANCH  71  72
ENDBRANCH  70  71
ENDBRANCH   1  70
TORSDOF 16
ENDMDL
MODEL 3
REMARK VINA RESULT:     -13.1      9.027     13.681
REMARK SMILES O=C(OCCOC(=O)c1cc([C@@H]2C=NN=C2c2ccc(F)cc2)c2c(ccc3ccccc32)n1)c1ccc(-c2c3nc(c(-c4cc(S(=O)(=O)[O-])ccc4F)c4ccc([nH]4)c(-c4cc(S(=O)(=O)[O-])ccc4F)c4nc(c(-c5cc(S(=O)(=O)[O-])ccc5F)c5ccc2[nH]5)C=C4)C=C3)cc1
REMARK SMILES IDX 4 1 3 2 2 3 1 4 35 5 36 6 97 7 37 8 96 9 38 10 39 11 40 12
REMARK SMILES IDX 90 13 41 14 95 15 89 16 91 17 42 18 94 19 88 20 87 21 43 23
REMARK SMILES IDX 75 24 55 25 74 26 56 27 59 28 73 29 92 30 57 31 58 32 72 34
REMARK SMILES IDX 93 35 60 36 44 37 45 38 53 39 46 40 52 41 54 42 51 43 47 44
REMARK SMILES IDX 48 45 49 46 50 47 76 48 77 49 85 50 78 51 84 52 86 53 83 54
REMARK SMILES IDX 79 55 80 56 81 57 82 58 61 59 62 60 70 61 63 62 69 63 71 64
REMARK SMILES IDX 68 65 64 66 65 67 66 68 67 69 5 70 6 71 7 72 8 73 9 74 10 75
REMARK SMILES IDX 34 76 11 77 25 78 24 79 26 80 33 81 27 82 28 83 32 84 29 85
REMARK SMILES IDX 31 86 30 87 12 88 13 89 16 90 14 91 15 92 17 93 18 94 23 95
REMARK SMILES IDX 19 96 22 97 20 98 21 99
REMARK H PARENT 91 22 59 33
REMARK Flexibility Score: inf
ROOT
ATOM      1  C   UNL A   1      34.610  34.261  30.667  1.00  0.00     0.275 C 
ENDROOT
BRANCH   1   2
ATOM      2  O   UNL A   1      35.364  34.227  29.440  1.00  0.00    -0.458 OA
BRANCH   2   3
ATOM      3  C   UNL A   1      35.315  33.109  28.679  1.00  0.00     0.338 C 
ATOM      4  O   UNL A   1      34.433  32.877  27.868  1.00  0.00    -0.246 OA
BRANCH   3   5
ATOM      5  C   UNL A   1      36.546  32.296  28.823  1.00  0.00     0.060 A 
ATOM      6  C   UNL A   1      36.540  30.907  28.643  1.00  0.00     0.016 A 
ATOM      7  C   UNL A   1      37.733  32.955  29.162  1.00  0.00     0.016 A 
ATOM      8  C   UNL A   1      37.689  30.170  28.881  1.00  0.00     0.010 A 
ATOM      9  C   UNL A   1      38.885  32.215  29.404  1.00  0.00     0.010 A 
ATOM     10  C   UNL A   1      38.847  30.821  29.301  1.00  0.00    -0.014 A 
BRANCH  10  11
ATOM     11  C   UNL A   1      40.035  30.003  29.540  1.00  0.00     0.031 A 
ATOM     12  C   UNL A   1      40.493  29.923  30.957  1.00  0.00     0.074 A 
ATOM     13  C   UNL A   1      40.576  29.218  28.587  1.00  0.00     0.049 A 
ATOM     14  N   UNL A   1      41.647  30.197  31.470  1.00  0.00    -0.248 NA
ATOM     15  C   UNL A   1      39.483  29.546  31.954  1.00  0.00     0.031 C 
ATOM     16  C   UNL A   1      40.062  28.979  27.237  1.00  0.00     0.029 A 
ATOM     17  N   UNL A   1      41.631  28.361  28.675  1.00  0.00    -0.354 N 
ATOM     18  C   UNL A   1      41.569  29.819  32.811  1.00  0.00     0.074 A 
ATOM     19  C   UNL A   1      40.179  29.573  33.088  1.00  0.00     0.031 C 
ATOM     20  C   UNL A   1      40.659  27.881  26.726  1.00  0.00     0.029 A 
ATOM     21  C   UNL A   1      41.675  27.416  27.656  1.00  0.00     0.049 A 
ATOM     22  H   UNL A   1      42.300  28.406  29.395  1.00  0.00     0.167 HD
ATOM     23  C   UNL A   1      42.671  29.512  33.548  1.00  0.00     0.034 A 
ATOM     24  C   UNL A   1      42.435  26.291  27.617  1.00  0.00     0.034 A 
ATOM     25  C   UNL A   1      43.868  30.086  32.994  1.00  0.00     0.049 A 
ATOM     26  C   UNL A   1      43.571  26.511  28.548  1.00  0.00     0.074 A 
ATOM     27  C   UNL A   1      44.249  31.372  32.660  1.00  0.00     0.029 A 
ATOM     28  N   UNL A   1      44.750  29.263  32.336  1.00  0.00    -0.354 N 
ATOM     29  N   UNL A   1      44.481  27.433  28.382  1.00  0.00    -0.248 NA
ATOM     30  C   UNL A   1      43.460  25.985  29.899  1.00  0.00     0.031 C 
ATOM     31  C   UNL A   1      44.955  31.232  31.430  1.00  0.00     0.029 A 
ATOM     32  C   UNL A   1      45.023  29.870  31.133  1.00  0.00     0.049 A 
ATOM     33  H   UNL A   1      45.115  28.408  32.662  1.00  0.00     0.167 HD
ATOM     34  C   UNL A   1      44.762  27.892  29.659  1.00  0.00     0.074 A 
ATOM     35  C   UNL A   1      44.178  26.899  30.555  1.00  0.00     0.031 C 
ATOM     36  C   UNL A   1      45.202  29.165  29.880  1.00  0.00     0.034 A 
BRANCH  23  37
ATOM     37  C   UNL A   1      42.688  28.423  34.593  1.00  0.00     0.023 A 
ATOM     38  C   UNL A   1      43.298  27.191  34.287  1.00  0.00     0.031 A 
ATOM     39  C   UNL A   1      41.902  28.450  35.771  1.00  0.00     0.131 A 
ATOM     40  C   UNL A   1      43.088  26.065  35.106  1.00  0.00     0.055 A 
ATOM     41  C   UNL A   1      41.757  27.349  36.616  1.00  0.00     0.041 A 
ATOM     42  F   UNL A   1      41.156  29.511  36.108  1.00  0.00    -0.206 F 
ATOM     43  C   UNL A   1      42.335  26.140  36.276  1.00  0.00     0.022 A 
BRANCH  40  44
ATOM     44  S   UNL A   1      43.699  24.453  34.545  1.00  0.00     0.124 S 
ATOM     45  O   UNL A   1      42.538  23.600  34.779  1.00  0.00    -0.237 OA
ATOM     46  O   UNL A   1      44.030  24.722  33.150  1.00  0.00    -0.237 OA
ATOM     47  O   UNL A   1      44.844  24.200  35.417  1.00  0.00    -0.744 OA
ENDBRANCH  40  44
ENDBRANCH  23  37
BRANCH  24  48
ATOM     48  C   UNL A   1      42.066  24.954  27.068  1.00  0.00     0.023 A 
ATOM     49  C   UNL A   1      42.964  24.202  26.281  1.00  0.00     0.031 A 
ATOM     50  C   UNL A   1      40.904  24.279  27.510  1.00  0.00     0.131 A 
ATOM     51  C   UNL A   1      42.689  22.850  25.974  1.00  0.00     0.055 A 
ATOM     52  C   UNL A   1      40.628  22.948  27.189  1.00  0.00     0.041 A 
ATOM     53  F   UNL A   1      40.034  24.857  28.351  1.00  0.00    -0.206 F 
ATOM     54  C   UNL A   1      41.527  22.221  26.427  1.00  0.00     0.022 A 
BRANCH  51  55
ATOM     55  S   UNL A   1      43.915  21.834  25.090  1.00  0.00     0.124 S 
ATOM     56  O   UNL A   1      43.939  22.463  23.774  1.00  0.00    -0.237 OA
ATOM     57  O   UNL A   1      45.113  21.996  25.907  1.00  0.00    -0.237 OA
ATOM     58  O   UNL A   1      43.330  20.494  25.125  1.00  0.00    -0.744 OA
ENDBRANCH  51  55
ENDBRANCH  24  48
BRANCH  36  59
ATOM     59  C   UNL A   1      45.695  29.991  28.712  1.00  0.00     0.023 A 
ATOM     60  C   UNL A   1      44.932  30.964  28.029  1.00  0.00     0.031 A 
ATOM     61  C   UNL A   1      47.065  29.899  28.408  1.00  0.00     0.131 A 
ATOM     62  C   UNL A   1      45.554  31.804  27.081  1.00  0.00     0.055 A 
ATOM     63  C   UNL A   1      47.680  30.743  27.484  1.00  0.00     0.041 A 
ATOM     64  F   UNL A   1      47.847  29.015  29.052  1.00  0.00    -0.206 F 
ATOM     65  C   UNL A   1      46.925  31.701  26.817  1.00  0.00     0.022 A 
BRANCH  62  66
ATOM     66  S   UNL A   1      44.597  33.086  26.205  1.00  0.00     0.124 S 
ATOM     67  O   UNL A   1      43.871  33.750  27.281  1.00  0.00    -0.237 OA
ATOM     68  O   UNL A   1      45.637  33.872  25.547  1.00  0.00    -0.237 OA
ATOM     69  O   UNL A   1      43.753  32.317  25.288  1.00  0.00    -0.744 OA
ENDBRANCH  62  66
ENDBRANCH  36  59
ENDBRANCH  10  11
ENDBRANCH   3   5
ENDBRANCH   2   3
ENDBRANCH   1   2
BRANCH   1  70
ATOM     70  C   UNL A   1      35.382  34.581  31.944  1.00  0.00     0.275 C 
BRANCH  70  71
ATOM     71  O   UNL A   1      35.335  33.457  32.839  1.00  0.00    -0.457 OA
BRANCH  71  72
ATOM     72  C   UNL A   1      36.175  32.433  32.534  1.00  0.00     0.357 C 
ATOM     73  O   UNL A   1      35.888  31.361  32.032  1.00  0.00    -0.244 OA
BRANCH  72  74
ATOM     74  C   UNL A   1      37.474  32.715  33.174  1.00  0.00     0.149 A 
ATOM     75  C   UNL A   1      37.637  32.249  34.451  1.00  0.00     0.041 A 
ATOM     76  N   UNL A   1      38.449  33.313  32.480  1.00  0.00    -0.241 NA
ATOM     77  C   UNL A   1      38.887  32.370  35.094  1.00  0.00    -0.021 A 
ATOM     78  C   UNL A   1      39.641  33.462  33.076  1.00  0.00     0.072 A 
ATOM     79  C   UNL A   1      39.988  33.004  34.390  1.00  0.00     0.012 A 
ATOM     80  C   UNL A   1      40.568  34.101  32.284  1.00  0.00     0.029 A 
ATOM     81  C   UNL A   1      41.390  33.218  34.807  1.00  0.00    -0.009 A 
ATOM     82  C   UNL A   1      41.852  34.385  32.726  1.00  0.00     0.011 A 
ATOM     83  C   UNL A   1      42.271  33.964  33.978  1.00  0.00    -0.018 A 
ATOM     84  C   UNL A   1      42.006  32.725  35.983  1.00  0.00     0.009 A 
ATOM     85  C   UNL A   1      43.584  34.283  34.371  1.00  0.00     0.009 A 
ATOM     86  C   UNL A   1      43.319  33.022  36.370  1.00  0.00     0.001 A 
ATOM     87  C   UNL A   1      44.105  33.827  35.573  1.00  0.00     0.001 A 
BRANCH  77  88
ATOM     88  C   UNL A   1      38.858  31.693  36.441  1.00  0.00     0.115 C 
ATOM     89  C   UNL A   1      37.890  30.614  36.736  1.00  0.00     0.123 C 
ATOM     90  C   UNL A   1      38.677  32.508  37.682  1.00  0.00     0.083 C 
ATOM     91  N   UNL A   1      37.444  30.675  37.952  1.00  0.00    -0.162 NA
ATOM     92  N   UNL A   1      37.952  31.880  38.564  1.00  0.00    -0.154 NA
BRANCH  90  93
ATOM     93  C   UNL A   1      39.363  33.788  37.932  1.00  0.00    -0.001 A 
ATOM     94  C   UNL A   1      40.351  33.830  38.923  1.00  0.00     0.013 A 
ATOM     95  C   UNL A   1      39.050  34.948  37.214  1.00  0.00     0.013 A 
ATOM     96  C   UNL A   1      41.046  35.019  39.160  1.00  0.00     0.040 A 
ATOM     97  C   UNL A   1      39.751  36.133  37.447  1.00  0.00     0.040 A 
ATOM     98  C   UNL A   1      40.745  36.156  38.415  1.00  0.00     0.123 A 
ATOM     99  F   UNL A   1      41.416  37.292  38.645  1.00  0.00    -0.207 F 
ENDBRANCH  90  93
ENDBRANCH  77  88
ENDBRANCH  72  74
ENDBRANCH  71  72
ENDBRANCH  70  71
ENDBRANCH   1  70
TORSDOF 16
ENDMDL
