MODEL 1
REMARK VINA RESULT:     -13.0      0.000      0.000
REMARK SMILES O=C(OCCOC(=O)[C@@H]1CC2(CC[NH2+]CC2)C[N@@H+]1Cc1cccc2nonc12)c1ccc(-c2c3nc(c(-c4cc(S(=O)(=O)[O-])ccc4F)c4ccc([nH]4)c(-c4cc(S(=O)(=O)[O-])ccc4F)c4nc(c(-c5cc(S(=O)(=O)[O-])ccc5F)c5ccc2[nH]5)C=C4)C=C3)cc1
REMARK SMILES IDX 4 1 3 2 2 3 1 4 29 5 30 6 91 7 31 8 90 9 32 10 33 11 34 12
REMARK SMILES IDX 84 13 35 14 89 15 83 16 85 17 36 18 88 19 82 20 81 21 37 23
REMARK SMILES IDX 69 24 49 25 68 26 50 27 53 28 67 29 86 30 51 31 52 32 66 34
REMARK SMILES IDX 87 35 54 36 38 37 39 38 47 39 40 40 46 41 48 42 45 43 41 44
REMARK SMILES IDX 42 45 43 46 44 47 70 48 71 49 79 50 72 51 78 52 80 53 77 54
REMARK SMILES IDX 73 55 74 56 75 57 76 58 55 59 56 60 64 61 57 62 63 63 65 64
REMARK SMILES IDX 62 65 58 66 59 67 60 68 61 69 5 70 6 71 7 72 8 73 9 74 10 75
REMARK SMILES IDX 18 76 11 77 17 78 12 80 16 81 13 82 15 83 14 84 19 87 20 88
REMARK SMILES IDX 21 89 28 90 22 91 24 92 27 93 23 94 25 95 26 96
REMARK H PARENT 85 22 53 33 18 79 14 85 14 86
REMARK Flexibility Score: inf
ROOT
ATOM      1  C   UNL A   1      38.349  21.708  25.287  1.00  0.00     0.275 C 
ENDROOT
BRANCH   1   2
ATOM      2  O   UNL A   1      39.102  20.824  26.118  1.00  0.00    -0.458 OA
BRANCH   2   3
ATOM      3  C   UNL A   1      40.273  21.107  26.716  1.00  0.00     0.338 C 
ATOM      4  O   UNL A   1      40.779  20.255  27.449  1.00  0.00    -0.246 OA
BRANCH   3   5
ATOM      5  C   UNL A   1      40.963  22.440  26.667  1.00  0.00     0.060 A 
ATOM      6  C   UNL A   1      40.221  23.540  27.903  1.00  0.00     0.016 A 
ATOM      7  C   UNL A   1      42.363  23.053  25.651  1.00  0.00     0.016 A 
ATOM      8  C   UNL A   1      40.852  25.181  28.164  1.00  0.00     0.010 A 
ATOM      9  C   UNL A   1      43.093  24.719  26.037  1.00  0.00     0.010 A 
ATOM     10  C   UNL A   1      42.236  25.817  27.235  1.00  0.00    -0.014 A 
BRANCH  10  11
ATOM     11  C   UNL A   1      42.584  27.243  27.402  1.00  0.00     0.031 A 
ATOM     12  C   UNL A   1      41.427  28.152  27.454  1.00  0.00     0.074 A 
ATOM     13  C   UNL A   1      43.752  27.676  27.930  1.00  0.00     0.049 A 
ATOM     14  N   UNL A   1      40.691  28.280  28.514  1.00  0.00    -0.248 NA
ATOM     15  C   UNL A   1      40.906  28.800  26.254  1.00  0.00     0.031 C 
ATOM     16  C   UNL A   1      44.869  26.865  28.425  1.00  0.00     0.029 A 
ATOM     17  N   UNL A   1      44.100  28.943  28.319  1.00  0.00    -0.354 N 
ATOM     18  C   UNL A   1      39.552  28.935  28.113  1.00  0.00     0.074 A 
ATOM     19  C   UNL A   1      39.731  29.256  26.710  1.00  0.00     0.031 C 
ATOM     20  C   UNL A   1      45.652  27.612  29.233  1.00  0.00     0.029 A 
ATOM     21  C   UNL A   1      45.151  28.973  29.220  1.00  0.00     0.049 A 
ATOM     22  H   UNL A   1      43.648  29.752  27.991  1.00  0.00     0.167 HD
ATOM     23  C   UNL A   1      38.499  29.154  28.936  1.00  0.00     0.034 A 
ATOM     24  C   UNL A   1      45.469  29.916  30.149  1.00  0.00     0.034 A 
ATOM     25  C   UNL A   1      38.650  28.766  30.305  1.00  0.00     0.049 A 
ATOM     26  C   UNL A   1      44.165  30.242  30.846  1.00  0.00     0.074 A 
ATOM     27  C   UNL A   1      38.208  27.763  31.135  1.00  0.00     0.029 A 
ATOM     28  N   UNL A   1      39.398  29.575  31.129  1.00  0.00    -0.354 N 
ATOM     29  N   UNL A   1      43.687  29.620  31.902  1.00  0.00    -0.248 NA
ATOM     30  C   UNL A   1      43.182  31.046  30.131  1.00  0.00     0.031 C 
ATOM     31  C   UNL A   1      39.041  27.818  32.298  1.00  0.00     0.029 A 
ATOM     32  C   UNL A   1      40.016  28.792  32.076  1.00  0.00     0.049 A 
ATOM     33  H   UNL A   1      39.479  30.553  31.053  1.00  0.00     0.167 HD
ATOM     34  C   UNL A   1      42.291  29.727  31.811  1.00  0.00     0.074 A 
ATOM     35  C   UNL A   1      42.065  30.544  30.638  1.00  0.00     0.031 C 
ATOM     36  C   UNL A   1      41.367  29.061  32.581  1.00  0.00     0.034 A 
BRANCH  23  37
ATOM     37  C   UNL A   1      37.322  29.896  28.469  1.00  0.00     0.023 A 
ATOM     38  C   UNL A   1      36.239  29.263  27.848  1.00  0.00     0.031 A 
ATOM     39  C   UNL A   1      37.280  31.278  28.695  1.00  0.00     0.131 A 
ATOM     40  C   UNL A   1      35.129  30.033  27.483  1.00  0.00     0.055 A 
ATOM     41  C   UNL A   1      36.172  32.036  28.338  1.00  0.00     0.041 A 
ATOM     42  F   UNL A   1      38.325  31.901  29.268  1.00  0.00    -0.206 F 
ATOM     43  C   UNL A   1      35.087  31.411  27.733  1.00  0.00     0.022 A 
BRANCH  40  44
ATOM     44  S   UNL A   1      33.694  29.275  26.679  1.00  0.00     0.124 S 
ATOM     45  O   UNL A   1      33.183  28.397  27.729  1.00  0.00    -0.237 OA
ATOM     46  O   UNL A   1      32.870  30.441  26.377  1.00  0.00    -0.237 OA
ATOM     47  O   UNL A   1      34.266  28.595  25.519  1.00  0.00    -0.744 OA
ENDBRANCH  40  44
ENDBRANCH  23  37
BRANCH  24  48
ATOM     48  C   UNL A   1      46.396  30.900  29.495  1.00  0.00     0.023 A 
ATOM     49  C   UNL A   1      45.968  31.911  28.622  1.00  0.00     0.031 A 
ATOM     50  C   UNL A   1      47.776  30.606  29.499  1.00  0.00     0.131 A 
ATOM     51  C   UNL A   1      46.843  32.426  27.654  1.00  0.00     0.055 A 
ATOM     52  C   UNL A   1      48.665  31.179  28.584  1.00  0.00     0.041 A 
ATOM     53  F   UNL A   1      48.266  29.685  30.346  1.00  0.00    -0.206 F 
ATOM     54  C   UNL A   1      48.188  32.063  27.622  1.00  0.00     0.022 A 
BRANCH  51  55
ATOM     55  S   UNL A   1      46.188  33.468  26.318  1.00  0.00     0.124 S 
ATOM     56  O   UNL A   1      45.385  34.447  27.045  1.00  0.00    -0.237 OA
ATOM     57  O   UNL A   1      47.417  33.976  25.718  1.00  0.00    -0.237 OA
ATOM     58  O   UNL A   1      45.434  32.525  25.498  1.00  0.00    -0.744 OA
ENDBRANCH  51  55
ENDBRANCH  24  48
BRANCH  36  59
ATOM     59  C   UNL A   1      41.810  28.472  33.906  1.00  0.00     0.023 A 
ATOM     60  C   UNL A   1      42.273  27.146  34.012  1.00  0.00     0.031 A 
ATOM     61  C   UNL A   1      41.602  29.162  35.114  1.00  0.00     0.131 A 
ATOM     62  C   UNL A   1      42.449  26.531  35.263  1.00  0.00     0.055 A 
ATOM     63  C   UNL A   1      41.849  28.572  36.363  1.00  0.00     0.041 A 
ATOM     64  F   UNL A   1      41.084  30.402  35.118  1.00  0.00    -0.206 F 
ATOM     65  C   UNL A   1      42.262  27.246  36.443  1.00  0.00     0.022 A 
BRANCH  62  66
ATOM     66  S   UNL A   1      42.875  24.768  35.383  1.00  0.00     0.124 S 
ATOM     67  O   UNL A   1      41.564  24.139  35.511  1.00  0.00    -0.237 OA
ATOM     68  O   UNL A   1      43.563  24.528  34.118  1.00  0.00    -0.237 OA
ATOM     69  O   UNL A   1      43.714  24.697  36.575  1.00  0.00    -0.744 OA
ENDBRANCH  62  66
ENDBRANCH  36  59
ENDBRANCH  10  11
ENDBRANCH   3   5
ENDBRANCH   2   3
ENDBRANCH   1   2
BRANCH   1  70
ATOM     70  C   UNL A   1      36.906  21.859  25.753  1.00  0.00     0.274 C 
BRANCH  70  71
ATOM     71  O   UNL A   1      36.037  21.229  24.811  1.00  0.00    -0.458 OA
BRANCH  71  72
ATOM     72  C   UNL A   1      34.740  21.625  24.755  1.00  0.00     0.365 C 
ATOM     73  O   UNL A   1      34.241  22.192  23.787  1.00  0.00    -0.245 OA
BRANCH  72  74
ATOM     74  C   UNL A   1      33.934  21.254  26.029  1.00  0.00     0.296 C 
ATOM     75  C   UNL A   1      33.993  19.711  26.100  1.00  0.00     0.091 C 
ATOM     76  N   UNL A   1      32.357  21.690  26.121  1.00  0.00    -0.319 N 
ATOM     77  C   UNL A   1      32.900  19.170  25.203  1.00  0.00     0.036 C 
ATOM     78  C   UNL A   1      31.851  20.276  25.276  1.00  0.00     0.270 C 
ATOM     79  H   UNL A   1      32.032  22.230  26.924  1.00  0.00     0.349 HD
ATOM     80  C   UNL A   1      32.296  17.831  25.676  1.00  0.00     0.074 C 
ATOM     81  C   UNL A   1      33.304  18.869  23.738  1.00  0.00     0.074 C 
ATOM     82  C   UNL A   1      33.288  16.681  25.589  1.00  0.00     0.261 C 
ATOM     83  C   UNL A   1      34.333  17.749  23.643  1.00  0.00     0.261 C 
ATOM     84  N   UNL A   1      33.902  16.512  24.279  1.00  0.00    -0.346 N 
ATOM     85  H   UNL A   1      33.223  16.059  23.666  1.00  0.00     0.346 HD
ATOM     86  H   UNL A   1      34.744  15.955  24.426  1.00  0.00     0.346 HD
BRANCH  76  87
ATOM     87  C   UNL A   1      31.266  23.453  26.489  1.00  0.00     0.302 C 
BRANCH  87  88
ATOM     88  C   UNL A   1      31.236  25.057  25.641  1.00  0.00     0.038 A 
ATOM     89  C   UNL A   1      29.992  25.746  25.397  1.00  0.00     0.012 A 
ATOM     90  C   UNL A   1      32.268  25.533  24.784  1.00  0.00     0.144 A 
ATOM     91  C   UNL A   1      29.710  26.444  24.186  1.00  0.00     0.003 A 
ATOM     92  C   UNL A   1      31.973  26.283  23.557  1.00  0.00     0.135 A 
ATOM     93  N   UNL A   1      33.589  25.335  24.826  1.00  0.00    -0.049 NA
ATOM     94  C   UNL A   1      30.672  26.667  23.190  1.00  0.00     0.034 A 
ATOM     95  N   UNL A   1      33.112  26.433  22.871  1.00  0.00    -0.050 NA
ATOM     96  O   UNL A   1      34.101  25.882  23.666  1.00  0.00    -0.243 OA
ENDBRANCH  87  88
ENDBRANCH  76  87
ENDBRANCH  72  74
ENDBRANCH  71  72
ENDBRANCH  70  71
ENDBRANCH   1  70
TORSDOF 16
ENDMDL
MODEL 2
REMARK VINA RESULT:     -12.8      1.681      4.243
REMARK SMILES O=C(OCCOC(=O)[C@@H]1CC2(CC[NH2+]CC2)C[N@@H+]1Cc1cccc2nonc12)c1ccc(-c2c3nc(c(-c4cc(S(=O)(=O)[O-])ccc4F)c4ccc([nH]4)c(-c4cc(S(=O)(=O)[O-])ccc4F)c4nc(c(-c5cc(S(=O)(=O)[O-])ccc5F)c5ccc2[nH]5)C=C4)C=C3)cc1
REMARK SMILES IDX 4 1 3 2 2 3 1 4 29 5 30 6 91 7 31 8 90 9 32 10 33 11 34 12
REMARK SMILES IDX 84 13 35 14 89 15 83 16 85 17 36 18 88 19 82 20 81 21 37 23
REMARK SMILES IDX 69 24 49 25 68 26 50 27 53 28 67 29 86 30 51 31 52 32 66 34
REMARK SMILES IDX 87 35 54 36 38 37 39 38 47 39 40 40 46 41 48 42 45 43 41 44
REMARK SMILES IDX 42 45 43 46 44 47 70 48 71 49 79 50 72 51 78 52 80 53 77 54
REMARK SMILES IDX 73 55 74 56 75 57 76 58 55 59 56 60 64 61 57 62 63 63 65 64
REMARK SMILES IDX 62 65 58 66 59 67 60 68 61 69 5 70 6 71 7 72 8 73 9 74 10 75
REMARK SMILES IDX 18 76 11 77 17 78 12 80 16 81 13 82 15 83 14 84 19 87 20 88
REMARK SMILES IDX 21 89 28 90 22 91 24 92 27 93 23 94 25 95 26 96
REMARK H PARENT 85 22 53 33 18 79 14 85 14 86
REMARK Flexibility Score: inf
ROOT
ATOM      1  C   UNL A   1      37.764  22.210  25.055  1.00  0.00     0.275 C 
ENDROOT
BRANCH   1   2
ATOM      2  O   UNL A   1      38.490  21.138  25.658  1.00  0.00    -0.458 OA
BRANCH   2   3
ATOM      3  C   UNL A   1      39.666  21.244  26.304  1.00  0.00     0.338 C 
ATOM      4  O   UNL A   1      40.056  20.286  26.972  1.00  0.00    -0.246 OA
BRANCH   3   5
ATOM      5  C   UNL A   1      40.492  22.496  26.384  1.00  0.00     0.060 A 
ATOM      6  C   UNL A   1      39.638  23.707  27.429  1.00  0.00     0.016 A 
ATOM      7  C   UNL A   1      42.129  22.924  25.674  1.00  0.00     0.016 A 
ATOM      8  C   UNL A   1      40.378  25.281  27.797  1.00  0.00     0.010 A 
ATOM      9  C   UNL A   1      42.942  24.517  26.184  1.00  0.00     0.010 A 
ATOM     10  C   UNL A   1      41.983  25.737  27.167  1.00  0.00    -0.014 A 
BRANCH  10  11
ATOM     11  C   UNL A   1      42.443  27.123  27.388  1.00  0.00     0.031 A 
ATOM     12  C   UNL A   1      41.361  28.118  27.487  1.00  0.00     0.074 A 
ATOM     13  C   UNL A   1      43.645  27.442  27.921  1.00  0.00     0.049 A 
ATOM     14  N   UNL A   1      40.645  28.260  28.558  1.00  0.00    -0.248 NA
ATOM     15  C   UNL A   1      40.885  28.852  26.319  1.00  0.00     0.031 C 
ATOM     16  C   UNL A   1      44.698  26.527  28.373  1.00  0.00     0.029 A 
ATOM     17  N   UNL A   1      44.094  28.661  28.357  1.00  0.00    -0.354 N 
ATOM     18  C   UNL A   1      39.558  29.017  28.195  1.00  0.00     0.074 A 
ATOM     19  C   UNL A   1      39.753  29.380  26.804  1.00  0.00     0.031 C 
ATOM     20  C   UNL A   1      45.543  27.177  29.202  1.00  0.00     0.029 A 
ATOM     21  C   UNL A   1      45.150  28.573  29.248  1.00  0.00     0.049 A 
ATOM     22  H   UNL A   1      43.705  29.516  28.065  1.00  0.00     0.167 HD
ATOM     23  C   UNL A   1      38.531  29.285  29.037  1.00  0.00     0.034 A 
ATOM     24  C   UNL A   1      45.547  29.449  30.210  1.00  0.00     0.034 A 
ATOM     25  C   UNL A   1      38.660  28.831  30.387  1.00  0.00     0.049 A 
ATOM     26  C   UNL A   1      44.278  29.848  30.932  1.00  0.00     0.074 A 
ATOM     27  C   UNL A   1      38.146  27.833  31.181  1.00  0.00     0.029 A 
ATOM     28  N   UNL A   1      39.475  29.546  31.235  1.00  0.00    -0.354 N 
ATOM     29  N   UNL A   1      43.759  29.223  31.968  1.00  0.00    -0.248 NA
ATOM     30  C   UNL A   1      43.356  30.755  30.260  1.00  0.00     0.031 C 
ATOM     31  C   UNL A   1      38.988  27.775  32.337  1.00  0.00     0.029 A 
ATOM     32  C   UNL A   1      40.035  28.679  32.144  1.00  0.00     0.049 A 
ATOM     33  H   UNL A   1      39.632  30.516  31.197  1.00  0.00     0.167 HD
ATOM     34  C   UNL A   1      42.375  29.443  31.895  1.00  0.00     0.074 A 
ATOM     35  C   UNL A   1      42.206  30.322  30.758  1.00  0.00     0.031 C 
ATOM     36  C   UNL A   1      41.407  28.820  32.646  1.00  0.00     0.034 A 
BRANCH  23  37
ATOM     37  C   UNL A   1      37.413  30.135  28.610  1.00  0.00     0.023 A 
ATOM     38  C   UNL A   1      36.235  29.604  28.070  1.00  0.00     0.031 A 
ATOM     39  C   UNL A   1      37.529  31.519  28.794  1.00  0.00     0.131 A 
ATOM     40  C   UNL A   1      35.193  30.478  27.742  1.00  0.00     0.055 A 
ATOM     41  C   UNL A   1      36.487  32.381  28.474  1.00  0.00     0.041 A 
ATOM     42  F   UNL A   1      38.664  32.043  29.289  1.00  0.00    -0.206 F 
ATOM     43  C   UNL A   1      35.309  31.859  27.950  1.00  0.00     0.022 A 
BRANCH  40  44
ATOM     44  S   UNL A   1      33.642  29.855  27.042  1.00  0.00     0.124 S 
ATOM     45  O   UNL A   1      32.714  30.943  27.338  1.00  0.00    -0.237 OA
ATOM     46  O   UNL A   1      33.993  29.691  25.635  1.00  0.00    -0.237 OA
ATOM     47  O   UNL A   1      33.406  28.614  27.776  1.00  0.00    -0.744 OA
ENDBRANCH  40  44
ENDBRANCH  23  37
BRANCH  24  48
ATOM     48  C   UNL A   1      46.544  30.384  29.587  1.00  0.00     0.023 A 
ATOM     49  C   UNL A   1      47.318  30.061  28.463  1.00  0.00     0.031 A 
ATOM     50  C   UNL A   1      46.954  31.504  30.341  1.00  0.00     0.131 A 
ATOM     51  C   UNL A   1      48.554  30.689  28.252  1.00  0.00     0.055 A 
ATOM     52  C   UNL A   1      48.150  32.181  30.082  1.00  0.00     0.041 A 
ATOM     53  F   UNL A   1      46.232  31.904  31.401  1.00  0.00    -0.206 F 
ATOM     54  C   UNL A   1      48.982  31.743  29.058  1.00  0.00     0.022 A 
BRANCH  51  55
ATOM     55  S   UNL A   1      49.696  30.024  27.006  1.00  0.00     0.124 S 
ATOM     56  O   UNL A   1      48.809  29.239  26.151  1.00  0.00    -0.237 OA
ATOM     57  O   UNL A   1      50.225  31.249  26.415  1.00  0.00    -0.237 OA
ATOM     58  O   UNL A   1      50.645  29.250  27.801  1.00  0.00    -0.744 OA
ENDBRANCH  51  55
ENDBRANCH  24  48
BRANCH  36  59
ATOM     59  C   UNL A   1      41.811  28.146  33.942  1.00  0.00     0.023 A 
ATOM     60  C   UNL A   1      42.371  26.853  33.964  1.00  0.00     0.031 A 
ATOM     61  C   UNL A   1      41.472  28.703  35.189  1.00  0.00     0.131 A 
ATOM     62  C   UNL A   1      42.516  26.139  35.165  1.00  0.00     0.055 A 
ATOM     63  C   UNL A   1      41.686  28.020  36.395  1.00  0.00     0.041 A 
ATOM     64  F   UNL A   1      40.858  29.896  35.265  1.00  0.00    -0.206 F 
ATOM     65  C   UNL A   1      42.198  26.726  36.388  1.00  0.00     0.022 A 
BRANCH  62  66
ATOM     66  S   UNL A   1      43.073  24.410  35.161  1.00  0.00     0.124 S 
ATOM     67  O   UNL A   1      43.931  24.356  36.341  1.00  0.00    -0.237 OA
ATOM     68  O   UNL A   1      41.815  23.678  35.268  1.00  0.00    -0.237 OA
ATOM     69  O   UNL A   1      43.768  24.275  33.884  1.00  0.00    -0.744 OA
ENDBRANCH  62  66
ENDBRANCH  36  59
ENDBRANCH  10  11
ENDBRANCH   3   5
ENDBRANCH   2   3
ENDBRANCH   1   2
BRANCH   1  70
ATOM     70  C   UNL A   1      36.266  22.118  25.315  1.00  0.00     0.274 C 
BRANCH  70  71
ATOM     71  O   UNL A   1      35.590  21.844  24.087  1.00  0.00    -0.458 OA
BRANCH  71  72
ATOM     72  C   UNL A   1      35.024  22.876  23.410  1.00  0.00     0.365 C 
ATOM     73  O   UNL A   1      35.620  23.909  23.119  1.00  0.00    -0.245 OA
BRANCH  72  74
ATOM     74  C   UNL A   1      33.550  22.603  23.004  1.00  0.00     0.296 C 
ATOM     75  C   UNL A   1      32.836  23.964  23.169  1.00  0.00     0.091 C 
ATOM     76  N   UNL A   1      32.692  21.492  23.849  1.00  0.00    -0.319 N 
ATOM     77  C   UNL A   1      32.450  24.104  24.626  1.00  0.00     0.036 C 
ATOM     78  C   UNL A   1      32.246  22.652  25.045  1.00  0.00     0.270 C 
ATOM     79  H   UNL A   1      32.234  20.727  23.352  1.00  0.00     0.349 HD
ATOM     80  C   UNL A   1      31.159  24.914  24.866  1.00  0.00     0.074 C 
ATOM     81  C   UNL A   1      33.479  24.817  25.540  1.00  0.00     0.074 C 
ATOM     82  C   UNL A   1      31.315  26.383  24.502  1.00  0.00     0.261 C 
ATOM     83  C   UNL A   1      33.679  26.278  25.154  1.00  0.00     0.261 C 
ATOM     84  N   UNL A   1      32.442  27.047  25.144  1.00  0.00    -0.346 N 
ATOM     85  H   UNL A   1      32.184  27.247  26.111  1.00  0.00     0.346 HD
ATOM     86  H   UNL A   1      32.630  27.888  24.597  1.00  0.00     0.346 HD
BRANCH  76  87
ATOM     87  C   UNL A   1      32.579  19.392  23.959  1.00  0.00     0.302 C 
BRANCH  87  88
ATOM     88  C   UNL A   1      33.539  18.177  24.904  1.00  0.00     0.038 A 
ATOM     89  C   UNL A   1      34.983  18.200  24.896  1.00  0.00     0.012 A 
ATOM     90  C   UNL A   1      33.045  16.909  25.320  1.00  0.00     0.144 A 
ATOM     91  C   UNL A   1      35.782  17.020  24.846  1.00  0.00     0.003 A 
ATOM     92  C   UNL A   1      33.884  15.705  25.302  1.00  0.00     0.135 A 
ATOM     93  N   UNL A   1      31.812  16.534  25.675  1.00  0.00    -0.049 NA
ATOM     94  C   UNL A   1      35.249  15.729  24.969  1.00  0.00     0.034 A 
ATOM     95  N   UNL A   1      33.108  14.646  25.564  1.00  0.00    -0.050 NA
ATOM     96  O   UNL A   1      31.850  15.162  25.824  1.00  0.00    -0.243 OA
ENDBRANCH  87  88
ENDBRANCH  76  87
ENDBRANCH  72  74
ENDBRANCH  71  72
ENDBRANCH  70  71
ENDBRANCH   1  70
TORSDOF 16
ENDMDL
MODEL 3
REMARK VINA RESULT:     -12.5      6.373     13.081
REMARK SMILES O=C(OCCOC(=O)[C@@H]1CC2(CC[NH2+]CC2)C[N@@H+]1Cc1cccc2nonc12)c1ccc(-c2c3nc(c(-c4cc(S(=O)(=O)[O-])ccc4F)c4ccc([nH]4)c(-c4cc(S(=O)(=O)[O-])ccc4F)c4nc(c(-c5cc(S(=O)(=O)[O-])ccc5F)c5ccc2[nH]5)C=C4)C=C3)cc1
REMARK SMILES IDX 4 1 3 2 2 3 1 4 29 5 30 6 91 7 31 8 90 9 32 10 33 11 34 12
REMARK SMILES IDX 84 13 35 14 89 15 83 16 85 17 36 18 88 19 82 20 81 21 37 23
REMARK SMILES IDX 69 24 49 25 68 26 50 27 53 28 67 29 86 30 51 31 52 32 66 34
REMARK SMILES IDX 87 35 54 36 38 37 39 38 47 39 40 40 46 41 48 42 45 43 41 44
REMARK SMILES IDX 42 45 43 46 44 47 70 48 71 49 79 50 72 51 78 52 80 53 77 54
REMARK SMILES IDX 73 55 74 56 75 57 76 58 55 59 56 60 64 61 57 62 63 63 65 64
REMARK SMILES IDX 62 65 58 66 59 67 60 68 61 69 5 70 6 71 7 72 8 73 9 74 10 75
REMARK SMILES IDX 18 76 11 77 17 78 12 80 16 81 13 82 15 83 14 84 19 87 20 88
REMARK SMILES IDX 21 89 28 90 22 91 24 92 27 93 23 94 25 95 26 96
REMARK H PARENT 85 22 53 33 18 79 14 85 14 86
REMARK Flexibility Score: inf
ROOT
ATOM      1  C   UNL A   1      46.497  24.039  38.402  1.00  0.00     0.275 C 
ENDROOT
BRANCH   1   2
ATOM      2  O   UNL A   1      45.381  23.430  37.751  1.00  0.00    -0.458 OA
BRANCH   2   3
ATOM      3  C   UNL A   1      45.368  22.939  36.498  1.00  0.00     0.338 C 
ATOM      4  O   UNL A   1      45.552  21.731  36.340  1.00  0.00    -0.246 OA
BRANCH   3   5
ATOM      5  C   UNL A   1      45.275  23.769  35.250  1.00  0.00     0.060 A 
ATOM      6  C   UNL A   1      46.937  24.312  34.771  1.00  0.00     0.016 A 
ATOM      7  C   UNL A   1      43.844  24.238  34.201  1.00  0.00     0.016 A 
ATOM      8  C   UNL A   1      47.199  25.257  33.288  1.00  0.00     0.010 A 
ATOM      9  C   UNL A   1      44.158  25.106  32.587  1.00  0.00     0.010 A 
ATOM     10  C   UNL A   1      45.852  25.708  32.209  1.00  0.00    -0.014 A 
BRANCH  10  11
ATOM     11  C   UNL A   1      46.140  26.632  31.093  1.00  0.00     0.031 A 
ATOM     12  C   UNL A   1      46.042  26.024  29.755  1.00  0.00     0.074 A 
ATOM     13  C   UNL A   1      46.039  27.978  31.183  1.00  0.00     0.049 A 
ATOM     14  N   UNL A   1      44.902  25.795  29.179  1.00  0.00    -0.248 NA
ATOM     15  C   UNL A   1      47.202  25.442  29.089  1.00  0.00     0.031 C 
ATOM     16  C   UNL A   1      45.641  28.771  32.350  1.00  0.00     0.029 A 
ATOM     17  N   UNL A   1      46.079  28.911  30.181  1.00  0.00    -0.354 N 
ATOM     18  C   UNL A   1      45.167  24.952  28.128  1.00  0.00     0.074 A 
ATOM     19  C   UNL A   1      46.606  24.771  28.094  1.00  0.00     0.031 C 
ATOM     20  C   UNL A   1      45.263  30.007  31.956  1.00  0.00     0.029 A 
ATOM     21  C   UNL A   1      45.499  30.119  30.529  1.00  0.00     0.049 A 
ATOM     22  H   UNL A   1      46.483  28.740  29.300  1.00  0.00     0.167 HD
ATOM     23  C   UNL A   1      44.196  24.411  27.353  1.00  0.00     0.034 A 
ATOM     24  C   UNL A   1      44.944  31.074  29.734  1.00  0.00     0.034 A 
ATOM     25  C   UNL A   1      42.853  24.836  27.601  1.00  0.00     0.049 A 
ATOM     26  C   UNL A   1      44.058  30.320  28.766  1.00  0.00     0.074 A 
ATOM     27  C   UNL A   1      41.714  24.329  28.183  1.00  0.00     0.029 A 
ATOM     28  N   UNL A   1      42.468  26.071  27.133  1.00  0.00    -0.354 N 
ATOM     29  N   UNL A   1      42.795  30.011  28.969  1.00  0.00    -0.248 NA
ATOM     30  C   UNL A   1      44.692  29.566  27.692  1.00  0.00     0.031 C 
ATOM     31  C   UNL A   1      40.841  25.447  28.378  1.00  0.00     0.029 A 
ATOM     32  C   UNL A   1      41.532  26.598  27.993  1.00  0.00     0.049 A 
ATOM     33  H   UNL A   1      42.806  26.506  26.318  1.00  0.00     0.167 HD
ATOM     34  C   UNL A   1      42.569  28.829  28.245  1.00  0.00     0.074 A 
ATOM     35  C   UNL A   1      43.819  28.577  27.561  1.00  0.00     0.031 C 
ATOM     36  C   UNL A   1      41.455  28.027  28.316  1.00  0.00     0.034 A 
BRANCH  23  37
ATOM     37  C   UNL A   1      44.536  23.547  26.217  1.00  0.00     0.023 A 
ATOM     38  C   UNL A   1      44.335  22.162  26.245  1.00  0.00     0.031 A 
ATOM     39  C   UNL A   1      45.040  24.151  25.057  1.00  0.00     0.131 A 
ATOM     40  C   UNL A   1      44.632  21.416  25.099  1.00  0.00     0.055 A 
ATOM     41  C   UNL A   1      45.325  23.407  23.919  1.00  0.00     0.041 A 
ATOM     42  F   UNL A   1      45.261  25.476  25.026  1.00  0.00    -0.206 F 
ATOM     43  C   UNL A   1      45.115  22.031  23.936  1.00  0.00     0.022 A 
BRANCH  40  44
ATOM     44  S   UNL A   1      44.392  19.621  25.069  1.00  0.00     0.124 S 
ATOM     45  O   UNL A   1      43.227  19.453  25.932  1.00  0.00    -0.237 OA
ATOM     46  O   UNL A   1      44.165  19.374  23.648  1.00  0.00    -0.237 OA
ATOM     47  O   UNL A   1      45.647  19.095  25.602  1.00  0.00    -0.744 OA
ENDBRANCH  40  44
ENDBRANCH  23  37
BRANCH  24  48
ATOM     48  C   UNL A   1      46.031  32.045  29.369  1.00  0.00     0.023 A 
ATOM     49  C   UNL A   1      46.873  31.891  28.259  1.00  0.00     0.031 A 
ATOM     50  C   UNL A   1      46.436  32.976  30.350  1.00  0.00     0.131 A 
ATOM     51  C   UNL A   1      48.152  32.468  28.256  1.00  0.00     0.055 A 
ATOM     52  C   UNL A   1      47.680  33.614  30.306  1.00  0.00     0.041 A 
ATOM     53  F   UNL A   1      45.654  33.215  31.416  1.00  0.00    -0.206 F 
ATOM     54  C   UNL A   1      48.567  33.324  29.275  1.00  0.00     0.022 A 
BRANCH  51  55
ATOM     55  S   UNL A   1      49.354  31.978  26.985  1.00  0.00     0.124 S 
ATOM     56  O   UNL A   1      49.070  30.556  26.814  1.00  0.00    -0.237 OA
ATOM     57  O   UNL A   1      48.967  32.839  25.873  1.00  0.00    -0.237 OA
ATOM     58  O   UNL A   1      50.639  32.290  27.602  1.00  0.00    -0.744 OA
ENDBRANCH  51  55
ENDBRANCH  24  48
BRANCH  36  59
ATOM     59  C   UNL A   1      40.173  28.607  28.879  1.00  0.00     0.023 A 
ATOM     60  C   UNL A   1      39.881  28.564  30.257  1.00  0.00     0.031 A 
ATOM     61  C   UNL A   1      39.137  29.043  28.032  1.00  0.00     0.131 A 
ATOM     62  C   UNL A   1      38.600  28.877  30.743  1.00  0.00     0.055 A 
ATOM     63  C   UNL A   1      37.881  29.426  28.525  1.00  0.00     0.041 A 
ATOM     64  F   UNL A   1      39.294  29.039  26.697  1.00  0.00    -0.206 F 
ATOM     65  C   UNL A   1      37.602  29.332  29.884  1.00  0.00     0.022 A 
BRANCH  62  66
ATOM     66  S   UNL A   1      38.187  28.648  32.498  1.00  0.00     0.124 S 
ATOM     67  O   UNL A   1      38.230  27.196  32.640  1.00  0.00    -0.237 OA
ATOM     68  O   UNL A   1      39.262  29.374  33.167  1.00  0.00    -0.237 OA
ATOM     69  O   UNL A   1      36.860  29.243  32.619  1.00  0.00    -0.744 OA
ENDBRANCH  62  66
ENDBRANCH  36  59
ENDBRANCH  10  11
ENDBRANCH   3   5
ENDBRANCH   2   3
ENDBRANCH   1   2
BRANCH   1  70
ATOM     70  C   UNL A   1      46.713  23.504  39.812  1.00  0.00     0.274 C 
BRANCH  70  71
ATOM     71  O   UNL A   1      46.709  22.076  39.780  1.00  0.00    -0.458 OA
BRANCH  71  72
ATOM     72  C   UNL A   1      47.889  21.424  39.623  1.00  0.00     0.365 C 
ATOM     73  O   UNL A   1      48.910  21.703  40.243  1.00  0.00    -0.245 OA
BRANCH  72  74
ATOM     74  C   UNL A   1      47.809  20.259  38.599  1.00  0.00     0.296 C 
ATOM     75  C   UNL A   1      46.600  19.413  39.057  1.00  0.00     0.091 C 
ATOM     76  N   UNL A   1      49.091  19.247  38.453  1.00  0.00    -0.319 N 
ATOM     77  C   UNL A   1      47.082  18.476  40.144  1.00  0.00     0.036 C 
ATOM     78  C   UNL A   1      48.542  18.263  39.758  1.00  0.00     0.270 C 
ATOM     79  H   UNL A   1      49.508  19.095  37.535  1.00  0.00     0.349 HD
ATOM     80  C   UNL A   1      46.341  17.124  40.193  1.00  0.00     0.074 C 
ATOM     81  C   UNL A   1      46.951  18.994  41.599  1.00  0.00     0.074 C 
ATOM     82  C   UNL A   1      44.885  17.271  40.611  1.00  0.00     0.261 C 
ATOM     83  C   UNL A   1      45.497  19.190  42.012  1.00  0.00     0.261 C 
ATOM     84  N   UNL A   1      44.687  17.989  41.863  1.00  0.00    -0.346 N 
ATOM     85  H   UNL A   1      44.911  17.356  42.630  1.00  0.00     0.346 HD
ATOM     86  H   UNL A   1      43.714  18.296  41.867  1.00  0.00     0.346 HD
BRANCH  76  87
ATOM     87  C   UNL A   1      51.000  19.299  37.568  1.00  0.00     0.302 C 
BRANCH  87  88
ATOM     88  C   UNL A   1      51.651  20.219  36.146  1.00  0.00     0.038 A 
ATOM     89  C   UNL A   1      50.894  21.289  35.543  1.00  0.00     0.012 A 
ATOM     90  C   UNL A   1      52.648  19.727  35.259  1.00  0.00     0.144 A 
ATOM     91  C   UNL A   1      50.827  21.501  34.134  1.00  0.00     0.003 A 
ATOM     92  C   UNL A   1      52.594  19.980  33.814  1.00  0.00     0.135 A 
ATOM     93  N   UNL A   1      53.687  18.917  35.486  1.00  0.00    -0.049 NA
ATOM     94  C   UNL A   1      51.619  20.797  33.217  1.00  0.00     0.034 A 
ATOM     95  N   UNL A   1      53.546  19.249  33.222  1.00  0.00    -0.050 NA
ATOM     96  O   UNL A   1      54.233  18.628  34.251  1.00  0.00    -0.243 OA
ENDBRANCH  87  88
ENDBRANCH  76  87
ENDBRANCH  72  74
ENDBRANCH  71  72
ENDBRANCH  70  71
ENDBRANCH   1  70
TORSDOF 16
ENDMDL
