MODEL 1
REMARK VINA RESULT:     -12.3      0.000      0.000
REMARK SMILES C[C@@H](C(=O)OCCOC(=O)c1ccc(-c2c3nc(c(-c4cc(S(=O)(=O)[O-])ccc4F)c4ccc([nH]4)c(-c4cc(S(=O)(=O)[O-])ccc4F)c4nc(c(-c5cc(S(=O)(=O)[O-])ccc5F)c5ccc2[nH]5)C=C4)C=C3)cc1)c1ccc(-c2cccc(OC(=O)NC3CC3)c2)c(F)c1
REMARK SMILES IDX 6 1 5 2 3 3 4 4 2 5 1 6 74 7 75 8 93 9 76 10 91 11 77 12
REMARK SMILES IDX 92 13 78 14 79 15 90 16 80 17 82 18 81 19 83 20 84 21 85 22
REMARK SMILES IDX 86 23 87 25 88 26 89 27 7 28 8 29 9 30 10 31 11 32 12 33
REMARK SMILES IDX 73 34 13 35 72 36 14 37 15 38 16 39 66 40 17 41 71 42 65 43
REMARK SMILES IDX 67 44 18 45 70 46 64 47 63 48 19 50 51 51 31 52 50 53 32 54
REMARK SMILES IDX 35 55 49 56 68 57 33 58 34 59 48 61 69 62 36 63 20 64 21 65
REMARK SMILES IDX 29 66 22 67 28 68 30 69 27 70 23 71 24 72 25 73 26 74 52 75
REMARK SMILES IDX 53 76 61 77 54 78 60 79 62 80 59 81 55 82 56 83 57 84 58 85
REMARK SMILES IDX 37 86 38 87 46 88 39 89 45 90 47 91 44 92 40 93 41 94 42 95
REMARK SMILES IDX 43 96
REMARK H PARENT 86 24 67 49 35 60
REMARK Flexibility Score: inf
ROOT
ATOM      1  C   UNL A   1      37.102  21.153  24.538  1.00  0.00     0.274 C 
ENDROOT
BRANCH   1   2
ATOM      2  O   UNL A   1      36.233  21.366  25.671  1.00  0.00    -0.462 OA
BRANCH   2   3
ATOM      3  C   UNL A   1      35.003  21.897  25.418  1.00  0.00     0.313 C 
ATOM      4  O   UNL A   1      34.489  21.932  24.306  1.00  0.00    -0.252 OA
BRANCH   3   5
ATOM      5  C   UNL A   1      34.361  22.516  26.667  1.00  0.00     0.126 C 
ATOM      6  C   UNL A   1      33.417  21.568  27.414  1.00  0.00     0.025 C 
BRANCH   5   7
ATOM      7  C   UNL A   1      33.700  23.853  26.358  1.00  0.00    -0.031 A 
ATOM      8  C   UNL A   1      34.431  24.888  25.756  1.00  0.00     0.005 A 
ATOM      9  C   UNL A   1      32.344  24.081  26.611  1.00  0.00     0.044 A 
ATOM     10  C   UNL A   1      33.812  26.097  25.391  1.00  0.00     0.012 A 
ATOM     11  C   UNL A   1      31.736  25.285  26.237  1.00  0.00     0.131 A 
ATOM     12  C   UNL A   1      32.439  26.319  25.596  1.00  0.00     0.018 A 
ATOM     13  F   UNL A   1      30.413  25.379  26.439  1.00  0.00    -0.206 F 
BRANCH  12  14
ATOM     14  C   UNL A   1      31.765  27.552  25.112  1.00  0.00    -0.012 A 
ATOM     15  C   UNL A   1      32.008  28.807  25.706  1.00  0.00     0.009 A 
ATOM     16  C   UNL A   1      30.877  27.522  24.019  1.00  0.00     0.056 A 
ATOM     17  C   UNL A   1      31.409  29.976  25.221  1.00  0.00     0.004 A 
ATOM     18  C   UNL A   1      30.295  28.693  23.519  1.00  0.00     0.133 A 
ATOM     19  C   UNL A   1      30.558  29.921  24.120  1.00  0.00     0.047 A 
BRANCH  18  20
ATOM     20  O   UNL A   1      29.365  28.723  22.446  1.00  0.00    -0.410 OA
BRANCH  20  21
ATOM     21  C   UNL A   1      27.990  28.923  22.588  1.00  0.00     0.412 C 
ATOM     22  O   UNL A   1      27.233  28.192  23.223  1.00  0.00    -0.224 OA
ATOM     23  N   UNL A   1      27.531  30.051  21.953  1.00  0.00    -0.318 N 
ATOM     24  H   UNL A   1      26.578  30.265  22.080  1.00  0.00     0.167 HD
BRANCH  23  25
ATOM     25  C   UNL A   1      28.273  30.949  21.132  1.00  0.00     0.085 C 
ATOM     26  C   UNL A   1      27.719  32.218  20.550  1.00  0.00     0.027 C 
ATOM     27  C   UNL A   1      28.669  32.288  21.705  1.00  0.00     0.027 C 
ENDBRANCH  23  25
ENDBRANCH  20  21
ENDBRANCH  18  20
ENDBRANCH  12  14
ENDBRANCH   5   7
ENDBRANCH   3   5
ENDBRANCH   2   3
ENDBRANCH   1   2
BRANCH   1  28
ATOM     28  C   UNL A   1      38.018  19.958  24.784  1.00  0.00     0.275 C 
BRANCH  28  29
ATOM     29  O   UNL A   1      38.583  20.060  26.100  1.00  0.00    -0.458 OA
BRANCH  29  30
ATOM     30  C   UNL A   1      39.917  20.270  26.154  1.00  0.00     0.338 C 
ATOM     31  O   UNL A   1      40.798  19.504  25.791  1.00  0.00    -0.246 OA
BRANCH  30  32
ATOM     32  C   UNL A   1      40.182  21.605  26.711  1.00  0.00     0.060 A 
ATOM     33  C   UNL A   1      39.494  22.705  26.208  1.00  0.00     0.016 A 
ATOM     34  C   UNL A   1      41.223  21.785  27.621  1.00  0.00     0.016 A 
ATOM     35  C   UNL A   1      39.937  23.990  26.517  1.00  0.00     0.010 A 
ATOM     36  C   UNL A   1      41.585  23.081  28.013  1.00  0.00     0.010 A 
ATOM     37  C   UNL A   1      40.992  24.209  27.418  1.00  0.00    -0.014 A 
BRANCH  37  38
ATOM     38  C   UNL A   1      41.526  25.592  27.658  1.00  0.00     0.031 A 
ATOM     39  C   UNL A   1      42.900  25.975  27.149  1.00  0.00     0.074 A 
ATOM     40  C   UNL A   1      40.792  26.518  28.312  1.00  0.00     0.049 A 
ATOM     41  N   UNL A   1      43.686  26.958  27.514  1.00  0.00    -0.248 NA
ATOM     42  C   UNL A   1      43.497  25.083  26.145  1.00  0.00     0.031 C 
ATOM     43  C   UNL A   1      39.454  26.304  28.870  1.00  0.00     0.029 A 
ATOM     44  N   UNL A   1      41.062  27.831  28.617  1.00  0.00    -0.354 N 
ATOM     45  C   UNL A   1      44.889  26.763  26.834  1.00  0.00     0.074 A 
ATOM     46  C   UNL A   1      44.743  25.531  26.089  1.00  0.00     0.031 C 
ATOM     47  C   UNL A   1      39.004  27.449  29.400  1.00  0.00     0.029 A 
ATOM     48  C   UNL A   1      40.057  28.452  29.322  1.00  0.00     0.049 A 
ATOM     49  H   UNL A   1      41.896  28.285  28.355  1.00  0.00     0.167 HD
ATOM     50  C   UNL A   1      45.994  27.558  26.811  1.00  0.00     0.034 A 
ATOM     51  C   UNL A   1      40.000  29.669  29.899  1.00  0.00     0.034 A 
ATOM     52  C   UNL A   1      46.048  28.849  27.475  1.00  0.00     0.049 A 
ATOM     53  C   UNL A   1      41.193  30.573  29.781  1.00  0.00     0.074 A 
ATOM     54  C   UNL A   1      47.102  29.745  27.572  1.00  0.00     0.029 A 
ATOM     55  N   UNL A   1      44.959  29.470  28.080  1.00  0.00    -0.354 N 
ATOM     56  N   UNL A   1      42.366  30.316  29.249  1.00  0.00    -0.248 NA
ATOM     57  C   UNL A   1      41.065  31.925  30.337  1.00  0.00     0.031 C 
ATOM     58  C   UNL A   1      46.657  30.894  28.232  1.00  0.00     0.029 A 
ATOM     59  C   UNL A   1      45.312  30.740  28.512  1.00  0.00     0.049 A 
ATOM     60  H   UNL A   1      44.067  29.066  28.187  1.00  0.00     0.167 HD
ATOM     61  C   UNL A   1      43.117  31.468  29.422  1.00  0.00     0.074 A 
ATOM     62  C   UNL A   1      42.253  32.441  30.059  1.00  0.00     0.031 C 
ATOM     63  C   UNL A   1      44.417  31.696  29.114  1.00  0.00     0.034 A 
BRANCH  50  64
ATOM     64  C   UNL A   1      47.196  27.116  25.991  1.00  0.00     0.023 A 
ATOM     65  C   UNL A   1      47.331  27.490  24.646  1.00  0.00     0.031 A 
ATOM     66  C   UNL A   1      48.271  26.406  26.554  1.00  0.00     0.131 A 
ATOM     67  C   UNL A   1      48.484  27.185  23.912  1.00  0.00     0.055 A 
ATOM     68  C   UNL A   1      49.448  26.144  25.838  1.00  0.00     0.041 A 
ATOM     69  F   UNL A   1      48.216  25.974  27.824  1.00  0.00    -0.206 F 
ATOM     70  C   UNL A   1      49.563  26.540  24.508  1.00  0.00     0.022 A 
BRANCH  67  71
ATOM     71  S   UNL A   1      48.540  27.692  22.175  1.00  0.00     0.124 S 
ATOM     72  O   UNL A   1      48.594  26.405  21.491  1.00  0.00    -0.237 OA
ATOM     73  O   UNL A   1      47.289  28.438  22.035  1.00  0.00    -0.237 OA
ATOM     74  O   UNL A   1      49.759  28.493  22.093  1.00  0.00    -0.744 OA
ENDBRANCH  67  71
ENDBRANCH  50  64
BRANCH  51  75
ATOM     75  C   UNL A   1      38.816  30.053  30.720  1.00  0.00     0.023 A 
ATOM     76  C   UNL A   1      37.774  30.836  30.202  1.00  0.00     0.031 A 
ATOM     77  C   UNL A   1      38.722  29.639  32.063  1.00  0.00     0.131 A 
ATOM     78  C   UNL A   1      36.701  31.206  31.029  1.00  0.00     0.055 A 
ATOM     79  C   UNL A   1      37.624  29.957  32.862  1.00  0.00     0.041 A 
ATOM     80  F   UNL A   1      39.691  28.889  32.612  1.00  0.00    -0.206 F 
ATOM     81  C   UNL A   1      36.610  30.756  32.348  1.00  0.00     0.022 A 
BRANCH  78  82
ATOM     82  S   UNL A   1      35.452  32.349  30.376  1.00  0.00     0.124 S 
ATOM     83  O   UNL A   1      34.500  32.409  31.478  1.00  0.00    -0.237 OA
ATOM     84  O   UNL A   1      36.238  33.555  30.142  1.00  0.00    -0.237 OA
ATOM     85  O   UNL A   1      34.972  31.677  29.170  1.00  0.00    -0.744 OA
ENDBRANCH  78  82
ENDBRANCH  51  75
BRANCH  63  86
ATOM     86  C   UNL A   1      44.940  33.071  29.425  1.00  0.00     0.023 A 
ATOM     87  C   UNL A   1      44.827  34.115  28.492  1.00  0.00     0.031 A 
ATOM     88  C   UNL A   1      45.596  33.324  30.640  1.00  0.00     0.131 A 
ATOM     89  C   UNL A   1      45.411  35.358  28.767  1.00  0.00     0.055 A 
ATOM     90  C   UNL A   1      46.143  34.575  30.925  1.00  0.00     0.041 A 
ATOM     91  F   UNL A   1      45.728  32.354  31.559  1.00  0.00    -0.206 F 
ATOM     92  C   UNL A   1      46.063  35.597  29.981  1.00  0.00     0.022 A 
BRANCH  89  93
ATOM     93  S   UNL A   1      45.374  36.640  27.485  1.00  0.00     0.124 S 
ATOM     94  O   UNL A   1      46.249  37.661  28.049  1.00  0.00    -0.237 OA
ATOM     95  O   UNL A   1      45.891  35.930  26.319  1.00  0.00    -0.237 OA
ATOM     96  O   UNL A   1      43.961  37.007  27.407  1.00  0.00    -0.744 OA
ENDBRANCH  89  93
ENDBRANCH  63  86
ENDBRANCH  37  38
ENDBRANCH  30  32
ENDBRANCH  29  30
ENDBRANCH  28  29
ENDBRANCH   1  28
TORSDOF 19
ENDMDL
MODEL 2
REMARK VINA RESULT:     -12.2      1.296      7.474
REMARK SMILES C[C@@H](C(=O)OCCOC(=O)c1ccc(-c2c3nc(c(-c4cc(S(=O)(=O)[O-])ccc4F)c4ccc([nH]4)c(-c4cc(S(=O)(=O)[O-])ccc4F)c4nc(c(-c5cc(S(=O)(=O)[O-])ccc5F)c5ccc2[nH]5)C=C4)C=C3)cc1)c1ccc(-c2cccc(OC(=O)NC3CC3)c2)c(F)c1
REMARK SMILES IDX 6 1 5 2 3 3 4 4 2 5 1 6 74 7 75 8 93 9 76 10 91 11 77 12
REMARK SMILES IDX 92 13 78 14 79 15 90 16 80 17 82 18 81 19 83 20 84 21 85 22
REMARK SMILES IDX 86 23 87 25 88 26 89 27 7 28 8 29 9 30 10 31 11 32 12 33
REMARK SMILES IDX 73 34 13 35 72 36 14 37 15 38 16 39 66 40 17 41 71 42 65 43
REMARK SMILES IDX 67 44 18 45 70 46 64 47 63 48 19 50 51 51 31 52 50 53 32 54
REMARK SMILES IDX 35 55 49 56 68 57 33 58 34 59 48 61 69 62 36 63 20 64 21 65
REMARK SMILES IDX 29 66 22 67 28 68 30 69 27 70 23 71 24 72 25 73 26 74 52 75
REMARK SMILES IDX 53 76 61 77 54 78 60 79 62 80 59 81 55 82 56 83 57 84 58 85
REMARK SMILES IDX 37 86 38 87 46 88 39 89 45 90 47 91 44 92 40 93 41 94 42 95
REMARK SMILES IDX 43 96
REMARK H PARENT 86 24 67 49 35 60
REMARK Flexibility Score: inf
ROOT
ATOM      1  C   UNL A   1      35.863  21.303  25.736  1.00  0.00     0.274 C 
ENDROOT
BRANCH   1   2
ATOM      2  O   UNL A   1      34.652  21.013  25.006  1.00  0.00    -0.462 OA
BRANCH   2   3
ATOM      3  C   UNL A   1      33.545  20.702  25.739  1.00  0.00     0.313 C 
ATOM      4  O   UNL A   1      33.580  20.338  26.909  1.00  0.00    -0.252 OA
BRANCH   3   5
ATOM      5  C   UNL A   1      32.252  20.782  24.917  1.00  0.00     0.126 C 
ATOM      6  C   UNL A   1      32.300  19.990  23.606  1.00  0.00     0.025 C 
BRANCH   5   7
ATOM      7  C   UNL A   1      31.810  22.223  24.697  1.00  0.00    -0.031 A 
ATOM      8  C   UNL A   1      31.220  22.955  25.737  1.00  0.00     0.005 A 
ATOM      9  C   UNL A   1      32.023  22.881  23.482  1.00  0.00     0.044 A 
ATOM     10  C   UNL A   1      30.883  24.310  25.572  1.00  0.00     0.012 A 
ATOM     11  C   UNL A   1      31.691  24.233  23.330  1.00  0.00     0.131 A 
ATOM     12  C   UNL A   1      31.135  24.996  24.371  1.00  0.00     0.018 A 
ATOM     13  F   UNL A   1      32.012  24.804  22.159  1.00  0.00    -0.206 F 
BRANCH  12  14
ATOM     14  C   UNL A   1      30.881  26.454  24.234  1.00  0.00    -0.012 A 
ATOM     15  C   UNL A   1      31.650  27.405  24.935  1.00  0.00     0.009 A 
ATOM     16  C   UNL A   1      29.880  26.947  23.375  1.00  0.00     0.056 A 
ATOM     17  C   UNL A   1      31.441  28.781  24.772  1.00  0.00     0.004 A 
ATOM     18  C   UNL A   1      29.685  28.321  23.194  1.00  0.00     0.133 A 
ATOM     19  C   UNL A   1      30.463  29.240  23.893  1.00  0.00     0.047 A 
BRANCH  18  20
ATOM     20  O   UNL A   1      28.670  28.879  22.372  1.00  0.00    -0.410 OA
BRANCH  20  21
ATOM     21  C   UNL A   1      27.490  29.460  22.845  1.00  0.00     0.412 C 
ATOM     22  O   UNL A   1      26.583  28.853  23.409  1.00  0.00    -0.224 OA
ATOM     23  N   UNL A   1      27.426  30.816  22.639  1.00  0.00    -0.318 N 
ATOM     24  H   UNL A   1      26.640  31.276  23.013  1.00  0.00     0.167 HD
BRANCH  23  25
ATOM     25  C   UNL A   1      28.364  31.636  21.947  1.00  0.00     0.085 C 
ATOM     26  C   UNL A   1      28.003  32.880  21.187  1.00  0.00     0.027 C 
ATOM     27  C   UNL A   1      28.687  32.997  22.514  1.00  0.00     0.027 C 
ENDBRANCH  23  25
ENDBRANCH  20  21
ENDBRANCH  18  20
ENDBRANCH  12  14
ENDBRANCH   5   7
ENDBRANCH   3   5
ENDBRANCH   2   3
ENDBRANCH   1   2
BRANCH   1  28
ATOM     28  C   UNL A   1      37.087  20.867  24.936  1.00  0.00     0.275 C 
BRANCH  28  29
ATOM     29  O   UNL A   1      38.132  21.836  25.109  1.00  0.00    -0.458 OA
BRANCH  29  30
ATOM     30  C   UNL A   1      39.103  21.506  25.989  1.00  0.00     0.338 C 
ATOM     31  O   UNL A   1      39.536  20.387  26.222  1.00  0.00    -0.246 OA
BRANCH  30  32
ATOM     32  C   UNL A   1      39.608  22.723  26.643  1.00  0.00     0.060 A 
ATOM     33  C   UNL A   1      39.152  23.967  26.218  1.00  0.00     0.016 A 
ATOM     34  C   UNL A   1      40.646  22.635  27.570  1.00  0.00     0.016 A 
ATOM     35  C   UNL A   1      39.826  25.118  26.623  1.00  0.00     0.010 A 
ATOM     36  C   UNL A   1      41.241  23.806  28.057  1.00  0.00     0.010 A 
ATOM     37  C   UNL A   1      40.886  25.067  27.543  1.00  0.00    -0.014 A 
BRANCH  37  38
ATOM     38  C   UNL A   1      41.669  26.300  27.887  1.00  0.00     0.031 A 
ATOM     39  C   UNL A   1      41.035  27.396  28.719  1.00  0.00     0.074 A 
ATOM     40  C   UNL A   1      42.949  26.449  27.480  1.00  0.00     0.049 A 
ATOM     41  N   UNL A   1      41.379  28.654  28.852  1.00  0.00    -0.248 NA
ATOM     42  C   UNL A   1      39.804  27.041  29.438  1.00  0.00     0.031 C 
ATOM     43  C   UNL A   1      43.699  25.489  26.667  1.00  0.00     0.029 A 
ATOM     44  N   UNL A   1      43.851  27.464  27.696  1.00  0.00    -0.354 N 
ATOM     45  C   UNL A   1      40.373  29.250  29.614  1.00  0.00     0.074 A 
ATOM     46  C   UNL A   1      39.380  28.225  29.853  1.00  0.00     0.031 C 
ATOM     47  C   UNL A   1      44.952  25.933  26.496  1.00  0.00     0.029 A 
ATOM     48  C   UNL A   1      45.069  27.257  27.090  1.00  0.00     0.049 A 
ATOM     49  H   UNL A   1      43.645  28.263  28.233  1.00  0.00     0.167 HD
ATOM     50  C   UNL A   1      40.308  30.522  30.094  1.00  0.00     0.034 A 
ATOM     51  C   UNL A   1      46.145  28.059  26.967  1.00  0.00     0.034 A 
ATOM     52  C   UNL A   1      41.388  31.479  29.935  1.00  0.00     0.049 A 
ATOM     53  C   UNL A   1      46.093  29.426  27.587  1.00  0.00     0.074 A 
ATOM     54  C   UNL A   1      41.453  32.807  30.329  1.00  0.00     0.029 A 
ATOM     55  N   UNL A   1      42.640  31.174  29.407  1.00  0.00    -0.354 N 
ATOM     56  N   UNL A   1      45.084  30.015  28.186  1.00  0.00    -0.248 NA
ATOM     57  C   UNL A   1      47.314  30.238  27.518  1.00  0.00     0.031 C 
ATOM     58  C   UNL A   1      42.729  33.301  30.042  1.00  0.00     0.029 A 
ATOM     59  C   UNL A   1      43.482  32.272  29.505  1.00  0.00     0.049 A 
ATOM     60  H   UNL A   1      42.892  30.304  29.020  1.00  0.00     0.167 HD
ATOM     61  C   UNL A   1      45.545  31.272  28.549  1.00  0.00     0.074 A 
ATOM     62  C   UNL A   1      46.937  31.339  28.152  1.00  0.00     0.031 C 
ATOM     63  C   UNL A   1      44.872  32.296  29.129  1.00  0.00     0.034 A 
BRANCH  50  64
ATOM     64  C   UNL A   1      39.087  30.938  30.899  1.00  0.00     0.023 A 
ATOM     65  C   UNL A   1      37.968  31.508  30.273  1.00  0.00     0.031 A 
ATOM     66  C   UNL A   1      38.972  30.686  32.277  1.00  0.00     0.131 A 
ATOM     67  C   UNL A   1      36.795  31.792  30.984  1.00  0.00     0.055 A 
ATOM     68  C   UNL A   1      37.782  30.921  32.982  1.00  0.00     0.041 A 
ATOM     69  F   UNL A   1      40.004  30.177  32.968  1.00  0.00    -0.206 F 
ATOM     70  C   UNL A   1      36.680  31.473  32.334  1.00  0.00     0.022 A 
BRANCH  67  71
ATOM     71  S   UNL A   1      35.421  32.551  30.082  1.00  0.00     0.124 S 
ATOM     72  O   UNL A   1      35.270  31.642  28.952  1.00  0.00    -0.237 OA
ATOM     73  O   UNL A   1      34.349  32.517  31.077  1.00  0.00    -0.237 OA
ATOM     74  O   UNL A   1      35.925  33.881  29.750  1.00  0.00    -0.744 OA
ENDBRANCH  67  71
ENDBRANCH  50  64
BRANCH  51  75
ATOM     75  C   UNL A   1      47.311  27.627  26.143  1.00  0.00     0.023 A 
ATOM     76  C   UNL A   1      47.383  27.882  24.766  1.00  0.00     0.031 A 
ATOM     77  C   UNL A   1      48.379  26.930  26.740  1.00  0.00     0.131 A 
ATOM     78  C   UNL A   1      48.482  27.417  24.027  1.00  0.00     0.055 A 
ATOM     79  C   UNL A   1      49.498  26.524  26.013  1.00  0.00     0.041 A 
ATOM     80  F   UNL A   1      48.362  26.657  28.055  1.00  0.00    -0.206 F 
ATOM     81  C   UNL A   1      49.549  26.758  24.644  1.00  0.00     0.022 A 
BRANCH  78  82
ATOM     82  S   UNL A   1      48.471  27.623  22.224  1.00  0.00     0.124 S 
ATOM     83  O   UNL A   1      48.684  26.255  21.767  1.00  0.00    -0.237 OA
ATOM     84  O   UNL A   1      47.141  28.176  21.992  1.00  0.00    -0.237 OA
ATOM     85  O   UNL A   1      49.578  28.545  21.979  1.00  0.00    -0.744 OA
ENDBRANCH  78  82
ENDBRANCH  51  75
BRANCH  63  86
ATOM     86  C   UNL A   1      45.669  33.540  29.403  1.00  0.00     0.023 A 
ATOM     87  C   UNL A   1      45.758  34.567  28.448  1.00  0.00     0.031 A 
ATOM     88  C   UNL A   1      46.377  33.680  30.607  1.00  0.00     0.131 A 
ATOM     89  C   UNL A   1      46.587  35.670  28.690  1.00  0.00     0.055 A 
ATOM     90  C   UNL A   1      47.172  34.799  30.859  1.00  0.00     0.041 A 
ATOM     91  F   UNL A   1      46.321  32.723  31.547  1.00  0.00    -0.206 F 
ATOM     92  C   UNL A   1      47.290  35.796  29.892  1.00  0.00     0.022 A 
BRANCH  89  93
ATOM     93  S   UNL A   1      46.796  36.905  27.379  1.00  0.00     0.124 S 
ATOM     94  O   UNL A   1      45.646  37.777  27.596  1.00  0.00    -0.237 OA
ATOM     95  O   UNL A   1      48.100  37.478  27.695  1.00  0.00    -0.237 OA
ATOM     96  O   UNL A   1      46.750  36.113  26.151  1.00  0.00    -0.744 OA
ENDBRANCH  89  93
ENDBRANCH  63  86
ENDBRANCH  37  38
ENDBRANCH  30  32
ENDBRANCH  29  30
ENDBRANCH  28  29
ENDBRANCH   1  28
TORSDOF 19
ENDMDL
MODEL 3
REMARK VINA RESULT:     -11.9      2.350      3.145
REMARK SMILES C[C@@H](C(=O)OCCOC(=O)c1ccc(-c2c3nc(c(-c4cc(S(=O)(=O)[O-])ccc4F)c4ccc([nH]4)c(-c4cc(S(=O)(=O)[O-])ccc4F)c4nc(c(-c5cc(S(=O)(=O)[O-])ccc5F)c5ccc2[nH]5)C=C4)C=C3)cc1)c1ccc(-c2cccc(OC(=O)NC3CC3)c2)c(F)c1
REMARK SMILES IDX 6 1 5 2 3 3 4 4 2 5 1 6 74 7 75 8 93 9 76 10 91 11 77 12
REMARK SMILES IDX 92 13 78 14 79 15 90 16 80 17 82 18 81 19 83 20 84 21 85 22
REMARK SMILES IDX 86 23 87 25 88 26 89 27 7 28 8 29 9 30 10 31 11 32 12 33
REMARK SMILES IDX 73 34 13 35 72 36 14 37 15 38 16 39 66 40 17 41 71 42 65 43
REMARK SMILES IDX 67 44 18 45 70 46 64 47 63 48 19 50 51 51 31 52 50 53 32 54
REMARK SMILES IDX 35 55 49 56 68 57 33 58 34 59 48 61 69 62 36 63 20 64 21 65
REMARK SMILES IDX 29 66 22 67 28 68 30 69 27 70 23 71 24 72 25 73 26 74 52 75
REMARK SMILES IDX 53 76 61 77 54 78 60 79 62 80 59 81 55 82 56 83 57 84 58 85
REMARK SMILES IDX 37 86 38 87 46 88 39 89 45 90 47 91 44 92 40 93 41 94 42 95
REMARK SMILES IDX 43 96
REMARK H PARENT 86 24 67 49 35 60
REMARK Flexibility Score: inf
ROOT
ATOM      1  C   UNL A   1      36.854  19.118  25.002  1.00  0.00     0.274 C 
ENDROOT
BRANCH   1   2
ATOM      2  O   UNL A   1      35.482  19.382  24.641  1.00  0.00    -0.462 OA
BRANCH   2   3
ATOM      3  C   UNL A   1      34.631  18.316  24.614  1.00  0.00     0.313 C 
ATOM      4  O   UNL A   1      34.999  17.147  24.628  1.00  0.00    -0.252 OA
BRANCH   3   5
ATOM      5  C   UNL A   1      33.161  18.739  24.486  1.00  0.00     0.126 C 
ATOM      6  C   UNL A   1      32.494  18.278  23.186  1.00  0.00     0.025 C 
BRANCH   5   7
ATOM      7  C   UNL A   1      32.980  20.232  24.722  1.00  0.00    -0.031 A 
ATOM      8  C   UNL A   1      32.722  21.098  23.650  1.00  0.00     0.005 A 
ATOM      9  C   UNL A   1      33.010  20.783  26.007  1.00  0.00     0.044 A 
ATOM     10  C   UNL A   1      32.472  22.466  23.864  1.00  0.00     0.012 A 
ATOM     11  C   UNL A   1      32.751  22.144  26.210  1.00  0.00     0.131 A 
ATOM     12  C   UNL A   1      32.451  23.023  25.155  1.00  0.00     0.018 A 
ATOM     13  F   UNL A   1      32.714  22.566  27.484  1.00  0.00    -0.206 F 
BRANCH  12  14
ATOM     14  C   UNL A   1      32.078  24.442  25.390  1.00  0.00    -0.012 A 
ATOM     15  C   UNL A   1      30.766  24.809  25.751  1.00  0.00     0.009 A 
ATOM     16  C   UNL A   1      33.028  25.477  25.289  1.00  0.00     0.056 A 
ATOM     17  C   UNL A   1      30.425  26.141  26.017  1.00  0.00     0.004 A 
ATOM     18  C   UNL A   1      32.694  26.805  25.575  1.00  0.00     0.133 A 
ATOM     19  C   UNL A   1      31.392  27.140  25.938  1.00  0.00     0.047 A 
BRANCH  18  20
ATOM     20  O   UNL A   1      33.595  27.896  25.456  1.00  0.00    -0.410 OA
BRANCH  20  21
ATOM     21  C   UNL A   1      33.277  29.137  24.899  1.00  0.00     0.412 C 
ATOM     22  O   UNL A   1      32.984  29.326  23.721  1.00  0.00    -0.224 OA
ATOM     23  N   UNL A   1      33.300  30.167  25.806  1.00  0.00    -0.318 N 
ATOM     24  H   UNL A   1      33.020  31.050  25.470  1.00  0.00     0.167 HD
BRANCH  23  25
ATOM     25  C   UNL A   1      33.682  30.110  27.178  1.00  0.00     0.085 C 
ATOM     26  C   UNL A   1      35.101  30.001  27.659  1.00  0.00     0.027 C 
ATOM     27  C   UNL A   1      34.376  31.306  27.783  1.00  0.00     0.027 C 
ENDBRANCH  23  25
ENDBRANCH  20  21
ENDBRANCH  18  20
ENDBRANCH  12  14
ENDBRANCH   5   7
ENDBRANCH   3   5
ENDBRANCH   2   3
ENDBRANCH   1   2
BRANCH   1  28
ATOM     28  C   UNL A   1      37.750  20.278  24.580  1.00  0.00     0.275 C 
BRANCH  28  29
ATOM     29  O   UNL A   1      38.020  21.105  25.723  1.00  0.00    -0.458 OA
BRANCH  29  30
ATOM     30  C   UNL A   1      39.283  21.060  26.199  1.00  0.00     0.338 C 
ATOM     31  O   UNL A   1      40.034  20.095  26.207  1.00  0.00    -0.246 OA
BRANCH  30  32
ATOM     32  C   UNL A   1      39.664  22.387  26.707  1.00  0.00     0.060 A 
ATOM     33  C   UNL A   1      39.089  23.524  26.148  1.00  0.00     0.016 A 
ATOM     34  C   UNL A   1      40.703  22.508  27.629  1.00  0.00     0.016 A 
ATOM     35  C   UNL A   1      39.645  24.774  26.414  1.00  0.00     0.010 A 
ATOM     36  C   UNL A   1      41.179  23.779  27.975  1.00  0.00     0.010 A 
ATOM     37  C   UNL A   1      40.702  24.932  27.326  1.00  0.00    -0.014 A 
BRANCH  37  38
ATOM     38  C   UNL A   1      41.359  26.268  27.521  1.00  0.00     0.031 A 
ATOM     39  C   UNL A   1      42.737  26.529  26.947  1.00  0.00     0.074 A 
ATOM     40  C   UNL A   1      40.734  27.260  28.191  1.00  0.00     0.049 A 
ATOM     41  N   UNL A   1      43.617  27.447  27.262  1.00  0.00    -0.248 NA
ATOM     42  C   UNL A   1      43.212  25.578  25.932  1.00  0.00     0.031 C 
ATOM     43  C   UNL A   1      39.409  27.165  28.809  1.00  0.00     0.029 A 
ATOM     44  N   UNL A   1      41.126  28.550  28.463  1.00  0.00    -0.354 N 
ATOM     45  C   UNL A   1      44.768  27.145  26.534  1.00  0.00     0.074 A 
ATOM     46  C   UNL A   1      44.487  25.920  25.815  1.00  0.00     0.031 C 
ATOM     47  C   UNL A   1      39.080  28.350  29.341  1.00  0.00     0.029 A 
ATOM     48  C   UNL A   1      40.208  29.261  29.202  1.00  0.00     0.049 A 
ATOM     49  H   UNL A   1      41.982  28.929  28.159  1.00  0.00     0.167 HD
ATOM     50  C   UNL A   1      45.932  27.844  26.451  1.00  0.00     0.034 A 
ATOM     51  C   UNL A   1      40.277  30.485  29.762  1.00  0.00     0.034 A 
ATOM     52  C   UNL A   1      46.123  29.133  27.091  1.00  0.00     0.049 A 
ATOM     53  C   UNL A   1      41.535  31.284  29.578  1.00  0.00     0.074 A 
ATOM     54  C   UNL A   1      47.251  29.939  27.129  1.00  0.00     0.029 A 
ATOM     55  N   UNL A   1      45.117  29.850  27.734  1.00  0.00    -0.354 N 
ATOM     56  N   UNL A   1      42.658  30.924  28.999  1.00  0.00    -0.248 NA
ATOM     57  C   UNL A   1      41.544  32.650  30.118  1.00  0.00     0.031 C 
ATOM     58  C   UNL A   1      46.933  31.130  27.790  1.00  0.00     0.029 A 
ATOM     59  C   UNL A   1      45.593  31.092  28.130  1.00  0.00     0.049 A 
ATOM     60  H   UNL A   1      44.201  29.524  27.885  1.00  0.00     0.167 HD
ATOM     61  C   UNL A   1      43.509  32.012  29.122  1.00  0.00     0.074 A 
ATOM     62  C   UNL A   1      42.758  33.061  29.780  1.00  0.00     0.031 C 
ATOM     63  C   UNL A   1      44.809  32.127  28.755  1.00  0.00     0.034 A 
BRANCH  50  64
ATOM     64  C   UNL A   1      47.057  27.293  25.587  1.00  0.00     0.023 A 
ATOM     65  C   UNL A   1      47.202  27.691  24.250  1.00  0.00     0.031 A 
ATOM     66  C   UNL A   1      48.055  26.448  26.100  1.00  0.00     0.131 A 
ATOM     67  C   UNL A   1      48.295  27.280  23.477  1.00  0.00     0.055 A 
ATOM     68  C   UNL A   1      49.178  26.076  25.345  1.00  0.00     0.041 A 
ATOM     69  F   UNL A   1      47.981  25.985  27.358  1.00  0.00    -0.206 F 
ATOM     70  C   UNL A   1      49.306  26.497  24.025  1.00  0.00     0.022 A 
BRANCH  67  71
ATOM     71  S   UNL A   1      48.369  27.832  21.754  1.00  0.00     0.124 S 
ATOM     72  O   UNL A   1      48.365  26.563  21.035  1.00  0.00    -0.237 OA
ATOM     73  O   UNL A   1      47.151  28.634  21.639  1.00  0.00    -0.237 OA
ATOM     74  O   UNL A   1      49.621  28.581  21.689  1.00  0.00    -0.744 OA
ENDBRANCH  67  71
ENDBRANCH  50  64
BRANCH  51  75
ATOM     75  C   UNL A   1      39.167  30.976  30.627  1.00  0.00     0.023 A 
ATOM     76  C   UNL A   1      39.273  31.010  32.025  1.00  0.00     0.031 A 
ATOM     77  C   UNL A   1      37.960  31.414  30.048  1.00  0.00     0.131 A 
ATOM     78  C   UNL A   1      38.183  31.443  32.798  1.00  0.00     0.055 A 
ATOM     79  C   UNL A   1      36.903  31.901  30.816  1.00  0.00     0.041 A 
ATOM     80  F   UNL A   1      37.803  31.402  28.714  1.00  0.00    -0.206 F 
ATOM     81  C   UNL A   1      37.007  31.906  32.202  1.00  0.00     0.022 A 
BRANCH  78  82
ATOM     82  S   UNL A   1      38.295  31.326  34.605  1.00  0.00     0.124 S 
ATOM     83  O   UNL A   1      37.122  32.084  35.025  1.00  0.00    -0.237 OA
ATOM     84  O   UNL A   1      38.235  29.883  34.819  1.00  0.00    -0.237 OA
ATOM     85  O   UNL A   1      39.583  31.945  34.908  1.00  0.00    -0.744 OA
ENDBRANCH  78  82
ENDBRANCH  51  75
BRANCH  63  86
ATOM     86  C   UNL A   1      45.457  33.456  29.021  1.00  0.00     0.023 A 
ATOM     87  C   UNL A   1      45.525  34.440  28.020  1.00  0.00     0.031 A 
ATOM     88  C   UNL A   1      46.050  33.721  30.265  1.00  0.00     0.131 A 
ATOM     89  C   UNL A   1      46.222  35.631  28.264  1.00  0.00     0.055 A 
ATOM     90  C   UNL A   1      46.710  34.924  30.515  1.00  0.00     0.041 A 
ATOM     91  F   UNL A   1      46.009  32.808  31.249  1.00  0.00    -0.206 F 
ATOM     92  C   UNL A   1      46.810  35.882  29.508  1.00  0.00     0.022 A 
BRANCH  89  93
ATOM     93  S   UNL A   1      46.416  36.818  26.908  1.00  0.00     0.124 S 
ATOM     94  O   UNL A   1      46.572  35.940  25.754  1.00  0.00    -0.237 OA
ATOM     95  O   UNL A   1      45.169  37.573  26.973  1.00  0.00    -0.237 OA
ATOM     96  O   UNL A   1      47.613  37.571  27.280  1.00  0.00    -0.744 OA
ENDBRANCH  89  93
ENDBRANCH  63  86
ENDBRANCH  37  38
ENDBRANCH  30  32
ENDBRANCH  29  30
ENDBRANCH  28  29
ENDBRANCH   1  28
TORSDOF 19
ENDMDL
