MODEL 1
REMARK VINA RESULT:     -11.8      0.000      0.000
REMARK SMILES CCOC(=O)[C@@]1(C)C/C(=N/c2cccc(C(=O)OCCOC(=O)c3ccc(-c4c5nc(c(-c6cc(S(=O)(=O)[O-])ccc6F)c6ccc([nH]6)c(-c6cc(S(=O)(=O)[O-])ccc6F)c6nc(c(-c7cc(S(=O)(=O)[O-])ccc7F)c7ccc4[nH]7)C=C6)C=C5)cc3)c2)C(=O)N1c1ccccc1
REMARK SMILES IDX 19 1 18 2 16 3 17 4 15 5 11 6 12 7 87 8 13 9 14 10 10 11
REMARK SMILES IDX 6 12 7 13 8 14 90 15 9 16 88 17 89 18 4 19 5 20 3 21 2 22
REMARK SMILES IDX 1 23 91 24 92 25 96 26 93 27 95 28 94 29 20 30 21 31 22 32
REMARK SMILES IDX 23 33 24 34 25 35 86 36 26 37 85 38 27 39 28 40 29 41 79 42
REMARK SMILES IDX 30 43 84 44 78 45 80 46 31 47 83 48 77 49 76 50 32 52 64 53
REMARK SMILES IDX 44 54 63 55 45 56 48 57 62 58 81 59 46 60 47 61 61 63 82 64
REMARK SMILES IDX 49 65 33 66 34 67 42 68 35 69 41 70 43 71 40 72 36 73 37 74
REMARK SMILES IDX 38 75 39 76 65 77 66 78 74 79 67 80 73 81 75 82 72 83 68 84
REMARK SMILES IDX 69 85 70 86 71 87 50 88 51 89 59 90 52 91 58 92 60 93 57 94
REMARK SMILES IDX 53 95 54 96 55 97 56 98
REMARK H PARENT 80 51 48 62
REMARK Flexibility Score: inf
ROOT
ATOM      1  C   UNL A   1      32.799  31.541  27.220  1.00  0.00     0.275 C 
ENDROOT
BRANCH   1   2
ATOM      2  O   UNL A   1      32.080  30.771  26.236  1.00  0.00    -0.458 OA
BRANCH   2   3
ATOM      3  C   UNL A   1      31.855  29.472  26.572  1.00  0.00     0.338 C 
ATOM      4  O   UNL A   1      31.541  29.059  27.676  1.00  0.00    -0.246 OA
BRANCH   3   5
ATOM      5  C   UNL A   1      31.975  28.596  25.381  1.00  0.00     0.062 A 
ATOM      6  C   UNL A   1      31.484  26.542  24.187  1.00  0.00     0.064 A 
ATOM      7  C   UNL A   1      32.164  27.033  23.071  1.00  0.00     0.028 A 
ATOM      8  C   UNL A   1      31.436  27.307  25.359  1.00  0.00     0.044 A 
ATOM      9  C   UNL A   1      32.733  28.307  23.098  1.00  0.00     0.003 A 
ATOM     10  C   UNL A   1      32.621  29.096  24.243  1.00  0.00     0.016 A 
BRANCH   6  11
ATOM     11  N   UNL A   1      30.846  25.294  24.126  1.00  0.00    -0.248 NA
ATOM     12  C   UNL A   1      32.308  22.146  23.829  1.00  0.00     0.148 C 
ATOM     13  C   UNL A   1      32.386  22.184  22.290  1.00  0.00     0.048 C 
ATOM     14  C   UNL A   1      31.009  22.869  24.270  1.00  0.00     0.103 C 
ATOM     15  N   UNL A   1      33.417  22.916  24.451  1.00  0.00    -0.290 N 
ATOM     16  C   UNL A   1      31.528  24.243  24.462  1.00  0.00     0.109 C 
ATOM     17  C   UNL A   1      32.956  24.142  24.930  1.00  0.00     0.273 C 
ATOM     18  O   UNL A   1      33.492  25.013  25.581  1.00  0.00    -0.267 OA
BRANCH  12  19
ATOM     19  C   UNL A   1      32.155  20.717  24.397  1.00  0.00     0.332 C 
ATOM     20  O   UNL A   1      31.735  20.434  25.510  1.00  0.00    -0.249 OA
BRANCH  19  21
ATOM     21  O   UNL A   1      32.459  19.792  23.437  1.00  0.00    -0.464 OA
BRANCH  21  22
ATOM     22  C   UNL A   1      32.525  18.425  23.873  1.00  0.00     0.229 C 
ATOM     23  C   UNL A   1      33.973  18.027  24.071  1.00  0.00     0.049 C 
ENDBRANCH  21  22
ENDBRANCH  19  21
ENDBRANCH  12  19
BRANCH  15  24
ATOM     24  C   UNL A   1      34.792  22.509  24.496  1.00  0.00     0.045 A 
ATOM     25  C   UNL A   1      35.287  21.728  25.555  1.00  0.00     0.026 A 
ATOM     26  C   UNL A   1      35.716  22.889  23.511  1.00  0.00     0.026 A 
ATOM     27  C   UNL A   1      36.638  21.367  25.643  1.00  0.00     0.002 A 
ATOM     28  C   UNL A   1      37.073  22.545  23.604  1.00  0.00     0.002 A 
ATOM     29  C   UNL A   1      37.535  21.786  24.672  1.00  0.00     0.000 A 
ENDBRANCH  15  24
ENDBRANCH   6  11
ENDBRANCH   3   5
ENDBRANCH   2   3
ENDBRANCH   1   2
BRANCH   1  30
ATOM     30  C   UNL A   1      32.240  32.963  27.294  1.00  0.00     0.275 C 
BRANCH  30  31
ATOM     31  O   UNL A   1      33.314  33.866  27.584  1.00  0.00    -0.458 OA
BRANCH  31  32
ATOM     32  C   UNL A   1      33.382  34.369  28.837  1.00  0.00     0.338 C 
ATOM     33  O   UNL A   1      32.622  35.186  29.327  1.00  0.00    -0.246 OA
BRANCH  32  34
ATOM     34  C   UNL A   1      34.571  33.796  29.523  1.00  0.00     0.060 A 
ATOM     35  C   UNL A   1      34.452  32.782  30.485  1.00  0.00     0.016 A 
ATOM     36  C   UNL A   1      35.839  34.286  29.190  1.00  0.00     0.016 A 
ATOM     37  C   UNL A   1      35.587  32.257  31.105  1.00  0.00     0.010 A 
ATOM     38  C   UNL A   1      36.977  33.753  29.802  1.00  0.00     0.010 A 
ATOM     39  C   UNL A   1      36.857  32.736  30.763  1.00  0.00    -0.014 A 
BRANCH  39  40
ATOM     40  C   UNL A   1      38.065  32.204  31.435  1.00  0.00     0.031 A 
ATOM     41  C   UNL A   1      38.865  31.123  30.772  1.00  0.00     0.074 A 
ATOM     42  C   UNL A   1      38.439  32.687  32.633  1.00  0.00     0.049 A 
ATOM     43  N   UNL A   1      39.859  30.419  31.248  1.00  0.00    -0.248 NA
ATOM     44  C   UNL A   1      38.488  30.787  29.391  1.00  0.00     0.031 C 
ATOM     45  C   UNL A   1      37.767  33.765  33.361  1.00  0.00     0.029 A 
ATOM     46  N   UNL A   1      39.477  32.325  33.452  1.00  0.00    -0.354 N 
ATOM     47  C   UNL A   1      40.213  29.535  30.237  1.00  0.00     0.074 A 
ATOM     48  C   UNL A   1      39.329  29.800  29.118  1.00  0.00     0.031 C 
ATOM     49  C   UNL A   1      38.412  33.976  34.520  1.00  0.00     0.029 A 
ATOM     50  C   UNL A   1      39.516  33.027  34.632  1.00  0.00     0.049 A 
ATOM     51  H   UNL A   1      40.133  31.629  33.216  1.00  0.00     0.167 HD
ATOM     52  C   UNL A   1      41.173  28.577  30.247  1.00  0.00     0.034 A 
ATOM     53  C   UNL A   1      40.332  32.895  35.695  1.00  0.00     0.034 A 
ATOM     54  C   UNL A   1      42.042  28.313  31.365  1.00  0.00     0.049 A 
ATOM     55  C   UNL A   1      41.391  31.828  35.684  1.00  0.00     0.074 A 
ATOM     56  C   UNL A   1      43.001  27.325  31.508  1.00  0.00     0.029 A 
ATOM     57  N   UNL A   1      42.061  29.056  32.538  1.00  0.00    -0.354 N 
ATOM     58  N   UNL A   1      41.647  30.931  34.763  1.00  0.00    -0.248 NA
ATOM     59  C   UNL A   1      42.262  31.751  36.866  1.00  0.00     0.031 C 
ATOM     60  C   UNL A   1      43.587  27.459  32.775  1.00  0.00     0.029 A 
ATOM     61  C   UNL A   1      43.015  28.551  33.407  1.00  0.00     0.049 A 
ATOM     62  H   UNL A   1      41.481  29.829  32.725  1.00  0.00     0.167 HD
ATOM     63  C   UNL A   1      42.701  30.172  35.259  1.00  0.00     0.074 A 
ATOM     64  C   UNL A   1      43.044  30.727  36.554  1.00  0.00     0.031 C 
ATOM     65  C   UNL A   1      43.325  29.108  34.698  1.00  0.00     0.034 A 
BRANCH  52  66
ATOM     66  C   UNL A   1      41.261  27.706  29.027  1.00  0.00     0.023 A 
ATOM     67  C   UNL A   1      42.240  27.917  28.041  1.00  0.00     0.031 A 
ATOM     68  C   UNL A   1      40.307  26.696  28.815  1.00  0.00     0.131 A 
ATOM     69  C   UNL A   1      42.207  27.163  26.857  1.00  0.00     0.055 A 
ATOM     70  C   UNL A   1      40.312  25.914  27.660  1.00  0.00     0.041 A 
ATOM     71  F   UNL A   1      39.337  26.475  29.718  1.00  0.00    -0.206 F 
ATOM     72  C   UNL A   1      41.259  26.153  26.668  1.00  0.00     0.022 A 
BRANCH  69  73
ATOM     73  S   UNL A   1      43.353  27.593  25.517  1.00  0.00     0.124 S 
ATOM     74  O   UNL A   1      42.443  28.133  24.510  1.00  0.00    -0.237 OA
ATOM     75  O   UNL A   1      44.242  28.556  26.158  1.00  0.00    -0.237 OA
ATOM     76  O   UNL A   1      43.969  26.314  25.169  1.00  0.00    -0.744 OA
ENDBRANCH  69  73
ENDBRANCH  52  66
BRANCH  53  77
ATOM     77  C   UNL A   1      40.140  33.752  36.890  1.00  0.00     0.023 A 
ATOM     78  C   UNL A   1      39.548  33.244  38.057  1.00  0.00     0.031 A 
ATOM     79  C   UNL A   1      40.530  35.101  36.866  1.00  0.00     0.131 A 
ATOM     80  C   UNL A   1      39.341  34.091  39.156  1.00  0.00     0.055 A 
ATOM     81  C   UNL A   1      40.339  35.935  37.967  1.00  0.00     0.041 A 
ATOM     82  F   UNL A   1      41.107  35.620  35.770  1.00  0.00    -0.206 F 
ATOM     83  C   UNL A   1      39.736  35.432  39.119  1.00  0.00     0.022 A 
BRANCH  80  84
ATOM     84  S   UNL A   1      38.512  33.420  40.629  1.00  0.00     0.124 S 
ATOM     85  O   UNL A   1      38.972  34.324  41.677  1.00  0.00    -0.237 OA
ATOM     86  O   UNL A   1      37.103  33.529  40.264  1.00  0.00    -0.237 OA
ATOM     87  O   UNL A   1      39.025  32.054  40.716  1.00  0.00    -0.744 OA
ENDBRANCH  80  84
ENDBRANCH  53  77
BRANCH  65  88
ATOM     88  C   UNL A   1      44.445  28.498  35.488  1.00  0.00     0.023 A 
ATOM     89  C   UNL A   1      44.199  27.495  36.441  1.00  0.00     0.031 A 
ATOM     90  C   UNL A   1      45.765  28.938  35.297  1.00  0.00     0.131 A 
ATOM     91  C   UNL A   1      45.264  26.978  37.194  1.00  0.00     0.055 A 
ATOM     92  C   UNL A   1      46.823  28.406  36.034  1.00  0.00     0.041 A 
ATOM     93  F   UNL A   1      46.040  29.898  34.399  1.00  0.00    -0.206 F 
ATOM     94  C   UNL A   1      46.574  27.425  36.992  1.00  0.00     0.022 A 
BRANCH  91  95
ATOM     95  S   UNL A   1      44.911  25.735  38.470  1.00  0.00     0.124 S 
ATOM     96  O   UNL A   1      46.246  25.415  38.965  1.00  0.00    -0.237 OA
ATOM     97  O   UNL A   1      44.048  26.466  39.392  1.00  0.00    -0.237 OA
ATOM     98  O   UNL A   1      44.252  24.660  37.729  1.00  0.00    -0.744 OA
ENDBRANCH  91  95
ENDBRANCH  65  88
ENDBRANCH  39  40
ENDBRANCH  32  34
ENDBRANCH  31  32
ENDBRANCH  30  31
ENDBRANCH   1  30
TORSDOF 19
ENDMDL
MODEL 2
REMARK VINA RESULT:     -11.4      2.223      8.258
REMARK SMILES CCOC(=O)[C@@]1(C)C/C(=N/c2cccc(C(=O)OCCOC(=O)c3ccc(-c4c5nc(c(-c6cc(S(=O)(=O)[O-])ccc6F)c6ccc([nH]6)c(-c6cc(S(=O)(=O)[O-])ccc6F)c6nc(c(-c7cc(S(=O)(=O)[O-])ccc7F)c7ccc4[nH]7)C=C6)C=C5)cc3)c2)C(=O)N1c1ccccc1
REMARK SMILES IDX 19 1 18 2 16 3 17 4 15 5 11 6 12 7 87 8 13 9 14 10 10 11
REMARK SMILES IDX 6 12 7 13 8 14 90 15 9 16 88 17 89 18 4 19 5 20 3 21 2 22
REMARK SMILES IDX 1 23 91 24 92 25 96 26 93 27 95 28 94 29 20 30 21 31 22 32
REMARK SMILES IDX 23 33 24 34 25 35 86 36 26 37 85 38 27 39 28 40 29 41 79 42
REMARK SMILES IDX 30 43 84 44 78 45 80 46 31 47 83 48 77 49 76 50 32 52 64 53
REMARK SMILES IDX 44 54 63 55 45 56 48 57 62 58 81 59 46 60 47 61 61 63 82 64
REMARK SMILES IDX 49 65 33 66 34 67 42 68 35 69 41 70 43 71 40 72 36 73 37 74
REMARK SMILES IDX 38 75 39 76 65 77 66 78 74 79 67 80 73 81 75 82 72 83 68 84
REMARK SMILES IDX 69 85 70 86 71 87 50 88 51 89 59 90 52 91 58 92 60 93 57 94
REMARK SMILES IDX 53 95 54 96 55 97 56 98
REMARK H PARENT 80 51 48 62
REMARK Flexibility Score: inf
ROOT
ATOM      1  C   UNL A   1      33.152  34.623  28.818  1.00  0.00     0.275 C 
ENDROOT
BRANCH   1   2
ATOM      2  O   UNL A   1      34.409  33.920  28.793  1.00  0.00    -0.458 OA
BRANCH   2   3
ATOM      3  C   UNL A   1      34.416  32.726  29.444  1.00  0.00     0.338 C 
ATOM      4  O   UNL A   1      34.250  32.559  30.641  1.00  0.00    -0.246 OA
BRANCH   3   5
ATOM      5  C   UNL A   1      34.589  31.608  28.485  1.00  0.00     0.062 A 
ATOM      6  C   UNL A   1      33.826  30.273  26.607  1.00  0.00     0.064 A 
ATOM      7  C   UNL A   1      35.016  29.544  26.649  1.00  0.00     0.028 A 
ATOM      8  C   UNL A   1      33.595  31.271  27.561  1.00  0.00     0.044 A 
ATOM      9  C   UNL A   1      35.999  29.853  27.590  1.00  0.00     0.003 A 
ATOM     10  C   UNL A   1      35.795  30.897  28.493  1.00  0.00     0.016 A 
BRANCH   6  11
ATOM     11  N   UNL A   1      32.878  30.010  25.608  1.00  0.00    -0.248 NA
ATOM     12  C   UNL A   1      31.902  26.919  24.332  1.00  0.00     0.148 C 
ATOM     13  C   UNL A   1      33.029  26.851  23.282  1.00  0.00     0.048 C 
ATOM     14  C   UNL A   1      31.453  28.398  24.470  1.00  0.00     0.103 C 
ATOM     15  N   UNL A   1      32.388  26.529  25.681  1.00  0.00    -0.290 N 
ATOM     16  C   UNL A   1      32.332  28.834  25.579  1.00  0.00     0.109 C 
ATOM     17  C   UNL A   1      32.561  27.654  26.486  1.00  0.00     0.273 C 
ATOM     18  O   UNL A   1      32.838  27.777  27.660  1.00  0.00    -0.267 OA
BRANCH  12  19
ATOM     19  C   UNL A   1      30.618  26.175  23.898  1.00  0.00     0.332 C 
ATOM     20  O   UNL A   1      30.578  25.170  23.203  1.00  0.00    -0.249 OA
BRANCH  19  21
ATOM     21  O   UNL A   1      29.523  26.739  24.490  1.00  0.00    -0.464 OA
BRANCH  21  22
ATOM     22  C   UNL A   1      28.338  26.818  23.683  1.00  0.00     0.229 C 
ATOM     23  C   UNL A   1      28.115  28.252  23.250  1.00  0.00     0.049 C 
ENDBRANCH  21  22
ENDBRANCH  19  21
ENDBRANCH  12  19
BRANCH  15  24
ATOM     24  C   UNL A   1      32.712  25.194  26.096  1.00  0.00     0.045 A 
ATOM     25  C   UNL A   1      31.754  24.366  26.705  1.00  0.00     0.026 A 
ATOM     26  C   UNL A   1      34.000  24.658  25.944  1.00  0.00     0.026 A 
ATOM     27  C   UNL A   1      32.068  23.081  27.165  1.00  0.00     0.002 A 
ATOM     28  C   UNL A   1      34.324  23.378  26.420  1.00  0.00     0.002 A 
ATOM     29  C   UNL A   1      33.358  22.589  27.032  1.00  0.00     0.000 A 
ENDBRANCH  15  24
ENDBRANCH   6  11
ENDBRANCH   3   5
ENDBRANCH   2   3
ENDBRANCH   1   2
BRANCH   1  30
ATOM     30  C   UNL A   1      33.214  35.788  29.807  1.00  0.00     0.275 C 
BRANCH  30  31
ATOM     31  O   UNL A   1      32.370  35.490  30.926  1.00  0.00    -0.458 OA
BRANCH  31  32
ATOM     32  C   UNL A   1      32.754  35.955  32.135  1.00  0.00     0.338 C 
ATOM     33  O   UNL A   1      32.244  36.876  32.748  1.00  0.00    -0.246 OA
BRANCH  32  34
ATOM     34  C   UNL A   1      33.943  35.185  32.593  1.00  0.00     0.060 A 
ATOM     35  C   UNL A   1      35.250  35.642  32.370  1.00  0.00     0.016 A 
ATOM     36  C   UNL A   1      33.741  33.975  33.266  1.00  0.00     0.016 A 
ATOM     37  C   UNL A   1      36.345  34.903  32.819  1.00  0.00     0.010 A 
ATOM     38  C   UNL A   1      34.837  33.240  33.727  1.00  0.00     0.010 A 
ATOM     39  C   UNL A   1      36.145  33.700  33.504  1.00  0.00    -0.014 A 
BRANCH  39  40
ATOM     40  C   UNL A   1      37.301  32.895  33.961  1.00  0.00     0.031 A 
ATOM     41  C   UNL A   1      37.951  33.211  35.275  1.00  0.00     0.074 A 
ATOM     42  C   UNL A   1      37.767  31.889  33.200  1.00  0.00     0.049 A 
ATOM     43  N   UNL A   1      39.054  32.735  35.789  1.00  0.00    -0.248 NA
ATOM     44  C   UNL A   1      37.266  34.202  36.118  1.00  0.00     0.031 C 
ATOM     45  C   UNL A   1      37.196  31.458  31.922  1.00  0.00     0.029 A 
ATOM     46  N   UNL A   1      38.833  31.050  33.392  1.00  0.00    -0.354 N 
ATOM     47  C   UNL A   1      39.217  33.386  37.004  1.00  0.00     0.074 A 
ATOM     48  C   UNL A   1      38.090  34.286  37.153  1.00  0.00     0.031 C 
ATOM     49  C   UNL A   1      37.922  30.433  31.445  1.00  0.00     0.029 A 
ATOM     50  C   UNL A   1      39.025  30.160  32.362  1.00  0.00     0.049 A 
ATOM     51  H   UNL A   1      39.406  31.080  34.192  1.00  0.00     0.167 HD
ATOM     52  C   UNL A   1      40.223  33.260  37.905  1.00  0.00     0.034 A 
ATOM     53  C   UNL A   1      39.999  29.252  32.169  1.00  0.00     0.034 A 
ATOM     54  C   UNL A   1      41.345  32.370  37.748  1.00  0.00     0.049 A 
ATOM     55  C   UNL A   1      41.103  29.127  33.181  1.00  0.00     0.074 A 
ATOM     56  C   UNL A   1      42.452  32.213  38.563  1.00  0.00     0.029 A 
ATOM     57  N   UNL A   1      41.495  31.475  36.698  1.00  0.00    -0.354 N 
ATOM     58  N   UNL A   1      41.300  29.822  34.275  1.00  0.00    -0.248 NA
ATOM     59  C   UNL A   1      42.124  28.102  32.920  1.00  0.00     0.031 C 
ATOM     60  C   UNL A   1      43.282  31.234  37.996  1.00  0.00     0.029 A 
ATOM     61  C   UNL A   1      42.673  30.760  36.845  1.00  0.00     0.049 A 
ATOM     62  H   UNL A   1      40.858  31.363  35.956  1.00  0.00     0.167 HD
ATOM     63  C   UNL A   1      42.474  29.327  34.829  1.00  0.00     0.074 A 
ATOM     64  C   UNL A   1      42.935  28.264  33.958  1.00  0.00     0.031 C 
ATOM     65  C   UNL A   1      43.119  29.721  35.954  1.00  0.00     0.034 A 
BRANCH  52  66
ATOM     66  C   UNL A   1      40.172  34.173  39.097  1.00  0.00     0.023 A 
ATOM     67  C   UNL A   1      39.370  33.882  40.213  1.00  0.00     0.031 A 
ATOM     68  C   UNL A   1      40.881  35.387  39.082  1.00  0.00     0.131 A 
ATOM     69  C   UNL A   1      39.252  34.823  41.248  1.00  0.00     0.055 A 
ATOM     70  C   UNL A   1      40.802  36.295  40.138  1.00  0.00     0.041 A 
ATOM     71  F   UNL A   1      41.640  35.720  38.025  1.00  0.00    -0.206 F 
ATOM     72  C   UNL A   1      39.975  36.020  41.224  1.00  0.00     0.022 A 
BRANCH  69  73
ATOM     73  S   UNL A   1      38.056  34.513  42.577  1.00  0.00     0.124 S 
ATOM     74  O   UNL A   1      36.791  34.525  41.847  1.00  0.00    -0.237 OA
ATOM     75  O   UNL A   1      38.484  33.218  43.093  1.00  0.00    -0.237 OA
ATOM     76  O   UNL A   1      38.253  35.641  43.486  1.00  0.00    -0.744 OA
ENDBRANCH  69  73
ENDBRANCH  52  66
BRANCH  53  77
ATOM     77  C   UNL A   1      40.015  28.430  30.933  1.00  0.00     0.023 A 
ATOM     78  C   UNL A   1      40.843  28.767  29.851  1.00  0.00     0.031 A 
ATOM     79  C   UNL A   1      39.179  27.308  30.817  1.00  0.00     0.131 A 
ATOM     80  C   UNL A   1      40.804  27.995  28.680  1.00  0.00     0.055 A 
ATOM     81  C   UNL A   1      39.157  26.533  29.658  1.00  0.00     0.041 A 
ATOM     82  F   UNL A   1      38.379  26.950  31.834  1.00  0.00    -0.206 F 
ATOM     83  C   UNL A   1      39.969  26.879  28.579  1.00  0.00     0.022 A 
BRANCH  80  84
ATOM     84  S   UNL A   1      41.841  28.496  27.272  1.00  0.00     0.124 S 
ATOM     85  O   UNL A   1      40.852  29.017  26.336  1.00  0.00    -0.237 OA
ATOM     86  O   UNL A   1      42.728  29.481  27.880  1.00  0.00    -0.237 OA
ATOM     87  O   UNL A   1      42.488  27.249  26.865  1.00  0.00    -0.744 OA
ENDBRANCH  80  84
ENDBRANCH  53  77
BRANCH  65  88
ATOM     88  C   UNL A   1      44.379  28.980  36.296  1.00  0.00     0.023 A 
ATOM     89  C   UNL A   1      44.381  27.957  37.259  1.00  0.00     0.031 A 
ATOM     90  C   UNL A   1      45.588  29.315  35.666  1.00  0.00     0.131 A 
ATOM     91  C   UNL A   1      45.584  27.315  37.587  1.00  0.00     0.055 A 
ATOM     92  C   UNL A   1      46.779  28.661  35.981  1.00  0.00     0.041 A 
ATOM     93  F   UNL A   1      45.628  30.291  34.744  1.00  0.00    -0.206 F 
ATOM     94  C   UNL A   1      46.782  27.659  36.950  1.00  0.00     0.022 A 
BRANCH  91  95
ATOM     95  S   UNL A   1      45.574  26.046  38.886  1.00  0.00     0.124 S 
ATOM     96  O   UNL A   1      46.797  26.350  39.621  1.00  0.00    -0.237 OA
ATOM     97  O   UNL A   1      44.324  26.323  39.586  1.00  0.00    -0.237 OA
ATOM     98  O   UNL A   1      45.598  24.790  38.138  1.00  0.00    -0.744 OA
ENDBRANCH  91  95
ENDBRANCH  65  88
ENDBRANCH  39  40
ENDBRANCH  32  34
ENDBRANCH  31  32
ENDBRANCH  30  31
ENDBRANCH   1  30
TORSDOF 19
ENDMDL
MODEL 3
REMARK VINA RESULT:     -11.3      1.690      7.288
REMARK SMILES CCOC(=O)[C@@]1(C)C/C(=N/c2cccc(C(=O)OCCOC(=O)c3ccc(-c4c5nc(c(-c6cc(S(=O)(=O)[O-])ccc6F)c6ccc([nH]6)c(-c6cc(S(=O)(=O)[O-])ccc6F)c6nc(c(-c7cc(S(=O)(=O)[O-])ccc7F)c7ccc4[nH]7)C=C6)C=C5)cc3)c2)C(=O)N1c1ccccc1
REMARK SMILES IDX 19 1 18 2 16 3 17 4 15 5 11 6 12 7 87 8 13 9 14 10 10 11
REMARK SMILES IDX 6 12 7 13 8 14 90 15 9 16 88 17 89 18 4 19 5 20 3 21 2 22
REMARK SMILES IDX 1 23 91 24 92 25 96 26 93 27 95 28 94 29 20 30 21 31 22 32
REMARK SMILES IDX 23 33 24 34 25 35 86 36 26 37 85 38 27 39 28 40 29 41 79 42
REMARK SMILES IDX 30 43 84 44 78 45 80 46 31 47 83 48 77 49 76 50 32 52 64 53
REMARK SMILES IDX 44 54 63 55 45 56 48 57 62 58 81 59 46 60 47 61 61 63 82 64
REMARK SMILES IDX 49 65 33 66 34 67 42 68 35 69 41 70 43 71 40 72 36 73 37 74
REMARK SMILES IDX 38 75 39 76 65 77 66 78 74 79 67 80 73 81 75 82 72 83 68 84
REMARK SMILES IDX 69 85 70 86 71 87 50 88 51 89 59 90 52 91 58 92 60 93 57 94
REMARK SMILES IDX 53 95 54 96 55 97 56 98
REMARK H PARENT 80 51 48 62
REMARK Flexibility Score: inf
ROOT
ATOM      1  C   UNL A   1      32.669  31.543  26.927  1.00  0.00     0.275 C 
ENDROOT
BRANCH   1   2
ATOM      2  O   UNL A   1      31.752  30.711  26.188  1.00  0.00    -0.458 OA
BRANCH   2   3
ATOM      3  C   UNL A   1      31.786  29.389  26.509  1.00  0.00     0.338 C 
ATOM      4  O   UNL A   1      31.687  28.920  27.631  1.00  0.00    -0.246 OA
BRANCH   3   5
ATOM      5  C   UNL A   1      31.892  28.557  25.286  1.00  0.00     0.062 A 
ATOM      6  C   UNL A   1      31.413  26.533  24.037  1.00  0.00     0.064 A 
ATOM      7  C   UNL A   1      32.051  27.077  22.921  1.00  0.00     0.028 A 
ATOM      8  C   UNL A   1      31.381  27.257  25.235  1.00  0.00     0.044 A 
ATOM      9  C   UNL A   1      32.593  28.362  22.975  1.00  0.00     0.003 A 
ATOM     10  C   UNL A   1      32.495  29.109  24.149  1.00  0.00     0.016 A 
BRANCH   6  11
ATOM     11  N   UNL A   1      30.801  25.274  23.950  1.00  0.00    -0.248 NA
ATOM     12  C   UNL A   1      32.331  22.151  23.737  1.00  0.00     0.148 C 
ATOM     13  C   UNL A   1      32.482  22.185  22.203  1.00  0.00     0.048 C 
ATOM     14  C   UNL A   1      30.999  22.853  24.112  1.00  0.00     0.103 C 
ATOM     15  N   UNL A   1      33.394  22.943  24.409  1.00  0.00    -0.290 N 
ATOM     16  C   UNL A   1      31.484  24.236  24.323  1.00  0.00     0.109 C 
ATOM     17  C   UNL A   1      32.889  24.162  24.860  1.00  0.00     0.273 C 
ATOM     18  O   UNL A   1      33.378  25.044  25.532  1.00  0.00    -0.267 OA
BRANCH  12  19
ATOM     19  C   UNL A   1      32.175  20.721  24.303  1.00  0.00     0.332 C 
ATOM     20  O   UNL A   1      31.769  20.438  25.422  1.00  0.00    -0.249 OA
BRANCH  19  21
ATOM     21  O   UNL A   1      32.458  19.797  23.336  1.00  0.00    -0.464 OA
BRANCH  21  22
ATOM     22  C   UNL A   1      32.612  18.441  23.782  1.00  0.00     0.229 C 
ATOM     23  C   UNL A   1      34.038  18.219  24.243  1.00  0.00     0.049 C 
ENDBRANCH  21  22
ENDBRANCH  19  21
ENDBRANCH  12  19
BRANCH  15  24
ATOM     24  C   UNL A   1      34.772  22.560  24.522  1.00  0.00     0.045 A 
ATOM     25  C   UNL A   1      35.704  22.884  23.520  1.00  0.00     0.026 A 
ATOM     26  C   UNL A   1      35.255  21.823  25.614  1.00  0.00     0.026 A 
ATOM     27  C   UNL A   1      37.041  22.472  23.588  1.00  0.00     0.002 A 
ATOM     28  C   UNL A   1      36.589  21.392  25.677  1.00  0.00     0.002 A 
ATOM     29  C   UNL A   1      37.483  21.715  24.664  1.00  0.00     0.000 A 
ENDBRANCH  15  24
ENDBRANCH   6  11
ENDBRANCH   3   5
ENDBRANCH   2   3
ENDBRANCH   1   2
BRANCH   1  30
ATOM     30  C   UNL A   1      32.065  32.930  27.150  1.00  0.00     0.275 C 
BRANCH  30  31
ATOM     31  O   UNL A   1      33.127  33.886  27.251  1.00  0.00    -0.458 OA
BRANCH  31  32
ATOM     32  C   UNL A   1      33.356  34.436  28.464  1.00  0.00     0.338 C 
ATOM     33  O   UNL A   1      32.796  35.414  28.928  1.00  0.00    -0.246 OA
BRANCH  32  34
ATOM     34  C   UNL A   1      34.444  33.678  29.141  1.00  0.00     0.060 A 
ATOM     35  C   UNL A   1      34.193  32.484  29.832  1.00  0.00     0.016 A 
ATOM     36  C   UNL A   1      35.749  34.177  29.076  1.00  0.00     0.016 A 
ATOM     37  C   UNL A   1      35.235  31.790  30.448  1.00  0.00     0.010 A 
ATOM     38  C   UNL A   1      36.796  33.477  29.683  1.00  0.00     0.010 A 
ATOM     39  C   UNL A   1      36.543  32.280  30.374  1.00  0.00    -0.014 A 
BRANCH  39  40
ATOM     40  C   UNL A   1      37.652  31.565  31.048  1.00  0.00     0.031 A 
ATOM     41  C   UNL A   1      37.969  31.873  32.480  1.00  0.00     0.074 A 
ATOM     42  C   UNL A   1      38.370  30.647  30.376  1.00  0.00     0.049 A 
ATOM     43  N   UNL A   1      38.980  31.476  33.208  1.00  0.00    -0.248 NA
ATOM     44  C   UNL A   1      37.022  32.751  33.183  1.00  0.00     0.031 C 
ATOM     45  C   UNL A   1      38.133  30.231  28.993  1.00  0.00     0.029 A 
ATOM     46  N   UNL A   1      39.450  29.903  30.771  1.00  0.00    -0.354 N 
ATOM     47  C   UNL A   1      38.811  32.077  34.448  1.00  0.00     0.074 A 
ATOM     48  C   UNL A   1      37.593  32.859  34.375  1.00  0.00     0.031 C 
ATOM     49  C   UNL A   1      39.045  29.304  28.655  1.00  0.00     0.029 A 
ATOM     50  C   UNL A   1      39.948  29.090  29.781  1.00  0.00     0.049 A 
ATOM     51  H   UNL A   1      39.833  29.946  31.677  1.00  0.00     0.167 HD
ATOM     52  C   UNL A   1      39.609  31.999  35.543  1.00  0.00     0.034 A 
ATOM     53  C   UNL A   1      41.029  28.287  29.778  1.00  0.00     0.034 A 
ATOM     54  C   UNL A   1      40.824  31.227  35.606  1.00  0.00     0.049 A 
ATOM     55  C   UNL A   1      41.898  28.214  31.002  1.00  0.00     0.074 A 
ATOM     56  C   UNL A   1      41.741  31.133  36.639  1.00  0.00     0.029 A 
ATOM     57  N   UNL A   1      41.287  30.405  34.589  1.00  0.00    -0.354 N 
ATOM     58  N   UNL A   1      41.784  28.867  32.133  1.00  0.00    -0.248 NA
ATOM     59  C   UNL A   1      43.050  27.304  30.940  1.00  0.00     0.031 C 
ATOM     60  C   UNL A   1      42.769  30.266  36.237  1.00  0.00     0.029 A 
ATOM     61  C   UNL A   1      42.473  29.797  34.967  1.00  0.00     0.049 A 
ATOM     62  H   UNL A   1      40.838  30.272  33.723  1.00  0.00     0.167 HD
ATOM     63  C   UNL A   1      42.857  28.457  32.915  1.00  0.00     0.074 A 
ATOM     64  C   UNL A   1      43.600  27.488  32.133  1.00  0.00     0.031 C 
ATOM     65  C   UNL A   1      43.203  28.851  34.165  1.00  0.00     0.034 A 
BRANCH  52  66
ATOM     66  C   UNL A   1      39.211  32.841  36.721  1.00  0.00     0.023 A 
ATOM     67  C   UNL A   1      39.772  34.111  36.942  1.00  0.00     0.031 A 
ATOM     68  C   UNL A   1      38.310  32.335  37.673  1.00  0.00     0.131 A 
ATOM     69  C   UNL A   1      39.469  34.809  38.121  1.00  0.00     0.055 A 
ATOM     70  C   UNL A   1      37.971  33.057  38.818  1.00  0.00     0.041 A 
ATOM     71  F   UNL A   1      37.769  31.115  37.518  1.00  0.00    -0.206 F 
ATOM     72  C   UNL A   1      38.560  34.296  39.053  1.00  0.00     0.022 A 
BRANCH  69  73
ATOM     73  S   UNL A   1      40.361  36.348  38.478  1.00  0.00     0.124 S 
ATOM     74  O   UNL A   1      41.109  35.987  39.679  1.00  0.00    -0.237 OA
ATOM     75  O   UNL A   1      41.151  36.544  37.267  1.00  0.00    -0.237 OA
ATOM     76  O   UNL A   1      39.292  37.323  38.688  1.00  0.00    -0.744 OA
ENDBRANCH  69  73
ENDBRANCH  52  66
BRANCH  53  77
ATOM     77  C   UNL A   1      41.393  27.535  28.552  1.00  0.00     0.023 A 
ATOM     78  C   UNL A   1      41.044  26.184  28.401  1.00  0.00     0.031 A 
ATOM     79  C   UNL A   1      42.116  28.161  27.525  1.00  0.00     0.131 A 
ATOM     80  C   UNL A   1      41.439  25.488  27.249  1.00  0.00     0.055 A 
ATOM     81  C   UNL A   1      42.492  27.472  26.372  1.00  0.00     0.041 A 
ATOM     82  F   UNL A   1      42.461  29.455  27.629  1.00  0.00    -0.206 F 
ATOM     83  C   UNL A   1      42.158  26.125  26.232  1.00  0.00     0.022 A 
BRANCH  80  84
ATOM     84  S   UNL A   1      41.029  23.722  27.113  1.00  0.00     0.124 S 
ATOM     85  O   UNL A   1      41.762  23.330  25.915  1.00  0.00    -0.237 OA
ATOM     86  O   UNL A   1      41.534  23.192  28.375  1.00  0.00    -0.237 OA
ATOM     87  O   UNL A   1      39.573  23.720  26.981  1.00  0.00    -0.744 OA
ENDBRANCH  80  84
ENDBRANCH  53  77
BRANCH  65  88
ATOM     88  C   UNL A   1      44.429  28.215  34.750  1.00  0.00     0.023 A 
ATOM     89  C   UNL A   1      44.346  27.027  35.496  1.00  0.00     0.031 A 
ATOM     90  C   UNL A   1      45.687  28.814  34.576  1.00  0.00     0.131 A 
ATOM     91  C   UNL A   1      45.505  26.483  36.067  1.00  0.00     0.055 A 
ATOM     92  C   UNL A   1      46.841  28.259  35.129  1.00  0.00     0.041 A 
ATOM     93  F   UNL A   1      45.808  29.953  33.874  1.00  0.00    -0.206 F 
ATOM     94  C   UNL A   1      46.753  27.091  35.884  1.00  0.00     0.022 A 
BRANCH  91  95
ATOM     95  S   UNL A   1      45.361  24.987  37.086  1.00  0.00     0.124 S 
ATOM     96  O   UNL A   1      45.954  23.970  36.224  1.00  0.00    -0.237 OA
ATOM     97  O   UNL A   1      46.129  25.341  38.276  1.00  0.00    -0.237 OA
ATOM     98  O   UNL A   1      43.921  24.855  37.299  1.00  0.00    -0.744 OA
ENDBRANCH  91  95
ENDBRANCH  65  88
ENDBRANCH  39  40
ENDBRANCH  32  34
ENDBRANCH  31  32
ENDBRANCH  30  31
ENDBRANCH   1  30
TORSDOF 19
ENDMDL
