MODEL 1
REMARK VINA RESULT:     -13.7      0.000      0.000
REMARK SMILES Cc1ccc(S(=O)(=O)n2cc(C(=O)C(=O)N[C@@H](Cc3cnc[nH]3)C(=O)OCCOC(=O)c3ccc(-c4c5nc(c(-c6cc(S(=O)(=O)[O-])ccc6F)c6ccc([nH]6)c(-c6cc(S(=O)(=O)[O-])ccc6F)c6nc(c(-c7cc(S(=O)(=O)[O-])ccc7F)c7ccc4[nH]7)C=C6)C=C5)cc3)c3ccccc32)cc1
REMARK SMILES IDX 27 1 26 2 24 3 25 4 17 5 16 6 14 7 15 8 12 10 13 11 11 12
REMARK SMILES IDX 9 13 10 14 100 15 95 16 99 17 96 18 98 19 97 20 6 21 7 22
REMARK SMILES IDX 8 23 5 24 1 25 2 26 3 27 102 28 4 29 101 30 18 31 19 32
REMARK SMILES IDX 20 33 23 34 21 35 22 36 28 38 29 39 30 40 31 41 32 42 33 43
REMARK SMILES IDX 94 44 34 45 93 46 35 47 36 48 37 49 87 50 38 51 92 52 86 53
REMARK SMILES IDX 88 54 39 55 91 56 85 57 84 58 40 60 72 61 52 62 71 63 53 64
REMARK SMILES IDX 56 65 70 66 89 67 54 68 55 69 69 71 90 72 57 73 41 74 42 75
REMARK SMILES IDX 50 76 43 77 49 78 51 79 48 80 44 81 45 82 46 83 47 84 73 85
REMARK SMILES IDX 74 86 82 87 75 88 81 89 83 90 80 91 76 92 77 93 78 94 79 95
REMARK SMILES IDX 58 96 59 97 67 98 60 99 66 100 68 101 65 102 61 103 62 104
REMARK SMILES IDX 63 105 64 106
REMARK H PARENT 16 9 23 37 88 59 56 70
REMARK Flexibility Score: inf
ROOT
ATOM      1  C   UNL A   1      37.390  22.544  25.444  1.00  0.00     0.274 C 
ENDROOT
BRANCH   1   2
ATOM      2  O   UNL A   1      37.430  21.458  24.505  1.00  0.00    -0.461 OA
BRANCH   2   3
ATOM      3  C   UNL A   1      36.576  20.309  24.771  1.00  0.00     0.329 C 
ATOM      4  O   UNL A   1      37.383  19.392  25.067  1.00  0.00    -0.250 OA
BRANCH   3   5
ATOM      5  C   UNL A   1      34.377  20.413  24.815  1.00  0.00     0.198 C 
BRANCH   5   6
ATOM      6  N   UNL A   1      33.313  20.999  23.632  1.00  0.00    -0.335 N 
ATOM      7  C   UNL A   1      33.055  22.202  23.007  1.00  0.00     0.293 C 
ATOM      8  O   UNL A   1      32.050  22.253  22.297  1.00  0.00    -0.265 OA
ATOM      9  H   UNL A   1      32.719  20.287  23.301  1.00  0.00     0.164 HD
BRANCH   7  10
ATOM     10  C   UNL A   1      33.935  23.469  23.165  1.00  0.00     0.252 C 
ATOM     11  O   UNL A   1      35.125  23.391  22.870  1.00  0.00    -0.283 OA
BRANCH  10  12
ATOM     12  C   UNL A   1      33.390  24.720  23.760  1.00  0.00     0.054 A 
ATOM     13  N   UNL A   1      32.973  26.889  24.162  1.00  0.00    -0.240 N 
ATOM     14  C   UNL A   1      33.823  26.017  23.528  1.00  0.00     0.117 A 
ATOM     15  C   UNL A   1      31.986  26.213  24.844  1.00  0.00     0.065 A 
ATOM     16  C   UNL A   1      32.265  24.847  24.664  1.00  0.00     0.012 A 
ATOM     17  C   UNL A   1      30.891  26.661  25.608  1.00  0.00     0.028 A 
ATOM     18  C   UNL A   1      31.440  23.914  25.333  1.00  0.00     0.011 A 
ATOM     19  C   UNL A   1      30.105  25.711  26.262  1.00  0.00     0.002 A 
ATOM     20  C   UNL A   1      30.382  24.356  26.138  1.00  0.00     0.001 A 
BRANCH  13  21
ATOM     21  S   UNL A   1      33.072  28.586  24.018  1.00  0.00     0.268 S 
ATOM     22  O   UNL A   1      33.918  28.823  22.863  1.00  0.00    -0.201 OA
ATOM     23  O   UNL A   1      33.426  29.086  25.334  1.00  0.00    -0.201 OA
BRANCH  21  24
ATOM     24  C   UNL A   1      31.468  29.243  23.635  1.00  0.00     0.088 A 
ATOM     25  C   UNL A   1      27.703  31.170  22.821  1.00  0.00     0.044 C 
ATOM     26  C   UNL A   1      29.008  30.487  23.107  1.00  0.00    -0.051 A 
ATOM     27  C   UNL A   1      29.709  30.783  24.282  1.00  0.00     0.005 A 
ATOM     28  C   UNL A   1      29.537  29.543  22.217  1.00  0.00     0.005 A 
ATOM     29  C   UNL A   1      30.936  30.170  24.542  1.00  0.00     0.022 A 
ATOM     30  C   UNL A   1      30.756  28.910  22.483  1.00  0.00     0.022 A 
ENDBRANCH  21  24
ENDBRANCH  13  21
ENDBRANCH  10  12
ENDBRANCH   7  10
ENDBRANCH   5   6
BRANCH   5  31
ATOM     31  C   UNL A   1      33.122  19.309  25.453  1.00  0.00     0.092 C 
BRANCH  31  32
ATOM     32  C   UNL A   1      33.234  17.832  25.136  1.00  0.00     0.037 A 
ATOM     33  C   UNL A   1      32.998  17.087  24.000  1.00  0.00     0.134 A 
ATOM     34  N   UNL A   1      33.642  16.888  26.058  1.00  0.00    -0.348 N 
ATOM     35  N   UNL A   1      33.456  15.801  24.147  1.00  0.00    -0.245 NA
ATOM     36  C   UNL A   1      33.893  15.730  25.382  1.00  0.00     0.196 A 
ATOM     37  H   UNL A   1      33.737  17.027  27.028  1.00  0.00     0.167 HD
ENDBRANCH  31  32
ENDBRANCH   5  31
ENDBRANCH   3   5
ENDBRANCH   2   3
ENDBRANCH   1   2
BRANCH   1  38
ATOM     38  C   UNL A   1      38.509  22.371  26.481  1.00  0.00     0.275 C 
BRANCH  38  39
ATOM     39  O   UNL A   1      39.880  22.675  26.082  1.00  0.00    -0.458 OA
BRANCH  39  40
ATOM     40  C   UNL A   1      40.945  21.833  26.118  1.00  0.00     0.338 C 
ATOM     41  O   UNL A   1      40.890  20.624  25.949  1.00  0.00    -0.246 OA
BRANCH  40  42
ATOM     42  C   UNL A   1      42.182  22.420  26.640  1.00  0.00     0.060 A 
ATOM     43  C   UNL A   1      42.412  22.352  28.430  1.00  0.00     0.016 A 
ATOM     44  C   UNL A   1      42.980  23.706  25.674  1.00  0.00     0.016 A 
ATOM     45  C   UNL A   1      43.241  23.731  29.288  1.00  0.00     0.010 A 
ATOM     46  C   UNL A   1      43.794  25.064  26.538  1.00  0.00     0.010 A 
ATOM     47  C   UNL A   1      43.861  25.103  28.340  1.00  0.00    -0.014 A 
BRANCH  47  48
ATOM     48  C   UNL A   1      43.936  26.502  28.786  1.00  0.00     0.031 A 
ATOM     49  C   UNL A   1      42.656  27.206  28.891  1.00  0.00     0.074 A 
ATOM     50  C   UNL A   1      44.994  26.857  29.547  1.00  0.00     0.049 A 
ATOM     51  N   UNL A   1      42.071  27.510  30.005  1.00  0.00    -0.248 NA
ATOM     52  C   UNL A   1      41.834  27.415  27.693  1.00  0.00     0.031 C 
ATOM     53  C   UNL A   1      45.089  27.914  30.545  1.00  0.00     0.029 A 
ATOM     54  N   UNL A   1      46.307  26.455  29.370  1.00  0.00    -0.354 N 
ATOM     55  C   UNL A   1      40.900  28.152  29.667  1.00  0.00     0.074 A 
ATOM     56  C   UNL A   1      40.712  27.887  28.241  1.00  0.00     0.031 C 
ATOM     57  C   UNL A   1      46.377  28.283  30.672  1.00  0.00     0.029 A 
ATOM     58  C   UNL A   1      47.146  27.538  29.690  1.00  0.00     0.049 A 
ATOM     59  H   UNL A   1      46.602  25.564  29.072  1.00  0.00     0.167 HD
ATOM     60  C   UNL A   1      40.650  29.413  30.102  1.00  0.00     0.034 A 
ATOM     61  C   UNL A   1      47.856  28.086  28.657  1.00  0.00     0.034 A 
ATOM     62  C   UNL A   1      41.839  30.214  30.265  1.00  0.00     0.049 A 
ATOM     63  C   UNL A   1      47.168  29.345  28.137  1.00  0.00     0.074 A 
ATOM     64  C   UNL A   1      42.693  30.514  31.306  1.00  0.00     0.029 A 
ATOM     65  N   UNL A   1      42.444  30.681  29.117  1.00  0.00    -0.354 N 
ATOM     66  N   UNL A   1      45.995  29.759  28.547  1.00  0.00    -0.248 NA
ATOM     67  C   UNL A   1      47.727  30.229  27.118  1.00  0.00     0.031 C 
ATOM     68  C   UNL A   1      43.880  31.071  30.734  1.00  0.00     0.029 A 
ATOM     69  C   UNL A   1      43.712  31.158  29.360  1.00  0.00     0.049 A 
ATOM     70  H   UNL A   1      42.018  30.675  28.229  1.00  0.00     0.167 HD
ATOM     71  C   UNL A   1      45.656  30.926  27.928  1.00  0.00     0.074 A 
ATOM     72  C   UNL A   1      46.745  31.142  26.983  1.00  0.00     0.031 C 
ATOM     73  C   UNL A   1      44.525  31.632  28.246  1.00  0.00     0.034 A 
BRANCH  60  74
ATOM     74  C   UNL A   1      39.282  29.698  30.626  1.00  0.00     0.023 A 
ATOM     75  C   UNL A   1      38.575  30.793  30.114  1.00  0.00     0.031 A 
ATOM     76  C   UNL A   1      38.682  28.994  31.697  1.00  0.00     0.131 A 
ATOM     77  C   UNL A   1      37.364  31.195  30.696  1.00  0.00     0.055 A 
ATOM     78  C   UNL A   1      37.461  29.378  32.256  1.00  0.00     0.041 A 
ATOM     79  F   UNL A   1      39.281  27.927  32.257  1.00  0.00    -0.206 F 
ATOM     80  C   UNL A   1      36.800  30.496  31.765  1.00  0.00     0.022 A 
BRANCH  77  81
ATOM     81  S   UNL A   1      36.587  32.710  30.083  1.00  0.00     0.124 S 
ATOM     82  O   UNL A   1      37.040  33.697  31.057  1.00  0.00    -0.237 OA
ATOM     83  O   UNL A   1      37.150  32.821  28.742  1.00  0.00    -0.237 OA
ATOM     84  O   UNL A   1      35.158  32.403  30.133  1.00  0.00    -0.744 OA
ENDBRANCH  77  81
ENDBRANCH  60  74
BRANCH  61  85
ATOM     85  C   UNL A   1      48.510  26.983  27.864  1.00  0.00     0.023 A 
ATOM     86  C   UNL A   1      47.956  26.740  26.578  1.00  0.00     0.031 A 
ATOM     87  C   UNL A   1      49.839  26.593  28.076  1.00  0.00     0.131 A 
ATOM     88  C   UNL A   1      48.781  26.365  25.507  1.00  0.00     0.055 A 
ATOM     89  C   UNL A   1      50.629  26.104  27.022  1.00  0.00     0.041 A 
ATOM     90  F   UNL A   1      50.445  26.833  29.249  1.00  0.00    -0.206 F 
ATOM     91  C   UNL A   1      50.122  26.056  25.720  1.00  0.00     0.022 A 
BRANCH  88  92
ATOM     92  S   UNL A   1      48.153  26.588  23.807  1.00  0.00     0.124 S 
ATOM     93  O   UNL A   1      47.822  25.218  23.429  1.00  0.00    -0.237 OA
ATOM     94  O   UNL A   1      47.009  27.479  23.995  1.00  0.00    -0.237 OA
ATOM     95  O   UNL A   1      49.281  27.174  23.089  1.00  0.00    -0.744 OA
ENDBRANCH  88  92
ENDBRANCH  61  85
BRANCH  73  96
ATOM     96  C   UNL A   1      44.124  32.878  27.507  1.00  0.00     0.023 A 
ATOM     97  C   UNL A   1      43.964  34.088  28.185  1.00  0.00     0.031 A 
ATOM     98  C   UNL A   1      43.889  32.905  26.113  1.00  0.00     0.131 A 
ATOM     99  C   UNL A   1      43.770  35.279  27.477  1.00  0.00     0.055 A 
ATOM    100  C   UNL A   1      43.543  34.073  25.429  1.00  0.00     0.041 A 
ATOM    101  F   UNL A   1      44.054  31.819  25.344  1.00  0.00    -0.206 F 
ATOM    102  C   UNL A   1      43.521  35.282  26.107  1.00  0.00     0.022 A 
BRANCH  99 103
ATOM    103  S   UNL A   1      44.050  36.826  28.368  1.00  0.00     0.124 S 
ATOM    104  O   UNL A   1      43.579  36.512  29.711  1.00  0.00    -0.237 OA
ATOM    105  O   UNL A   1      45.496  36.979  28.225  1.00  0.00    -0.237 OA
ATOM    106  O   UNL A   1      43.247  37.797  27.629  1.00  0.00    -0.744 OA
ENDBRANCH  99 103
ENDBRANCH  73  96
ENDBRANCH  47  48
ENDBRANCH  40  42
ENDBRANCH  39  40
ENDBRANCH  38  39
ENDBRANCH   1  38
TORSDOF 21
ENDMDL
MODEL 2
REMARK VINA RESULT:     -13.2      2.830      3.991
REMARK SMILES Cc1ccc(S(=O)(=O)n2cc(C(=O)C(=O)N[C@@H](Cc3cnc[nH]3)C(=O)OCCOC(=O)c3ccc(-c4c5nc(c(-c6cc(S(=O)(=O)[O-])ccc6F)c6ccc([nH]6)c(-c6cc(S(=O)(=O)[O-])ccc6F)c6nc(c(-c7cc(S(=O)(=O)[O-])ccc7F)c7ccc4[nH]7)C=C6)C=C5)cc3)c3ccccc32)cc1
REMARK SMILES IDX 27 1 26 2 24 3 25 4 17 5 16 6 14 7 15 8 12 10 13 11 11 12
REMARK SMILES IDX 9 13 10 14 100 15 95 16 99 17 96 18 98 19 97 20 6 21 7 22
REMARK SMILES IDX 8 23 5 24 1 25 2 26 3 27 102 28 4 29 101 30 18 31 19 32
REMARK SMILES IDX 20 33 23 34 21 35 22 36 28 38 29 39 30 40 31 41 32 42 33 43
REMARK SMILES IDX 94 44 34 45 93 46 35 47 36 48 37 49 87 50 38 51 92 52 86 53
REMARK SMILES IDX 88 54 39 55 91 56 85 57 84 58 40 60 72 61 52 62 71 63 53 64
REMARK SMILES IDX 56 65 70 66 89 67 54 68 55 69 69 71 90 72 57 73 41 74 42 75
REMARK SMILES IDX 50 76 43 77 49 78 51 79 48 80 44 81 45 82 46 83 47 84 73 85
REMARK SMILES IDX 74 86 82 87 75 88 81 89 83 90 80 91 76 92 77 93 78 94 79 95
REMARK SMILES IDX 58 96 59 97 67 98 60 99 66 100 68 101 65 102 61 103 62 104
REMARK SMILES IDX 63 105 64 106
REMARK H PARENT 16 9 23 37 88 59 56 70
REMARK Flexibility Score: inf
ROOT
ATOM      1  C   UNL A   1      37.003  22.555  24.192  1.00  0.00     0.274 C 
ENDROOT
BRANCH   1   2
ATOM      2  O   UNL A   1      35.680  22.301  24.689  1.00  0.00    -0.461 OA
BRANCH   2   3
ATOM      3  C   UNL A   1      35.310  20.914  24.934  1.00  0.00     0.329 C 
ATOM      4  O   UNL A   1      36.410  20.307  24.969  1.00  0.00    -0.250 OA
BRANCH   3   5
ATOM      5  C   UNL A   1      33.249  20.261  25.346  1.00  0.00     0.198 C 
BRANCH   5   6
ATOM      6  N   UNL A   1      31.854  21.201  25.555  1.00  0.00    -0.335 N 
ATOM      7  C   UNL A   1      31.538  22.453  26.044  1.00  0.00     0.293 C 
ATOM      8  O   UNL A   1      30.341  22.708  26.180  1.00  0.00    -0.265 OA
ATOM      9  H   UNL A   1      31.051  20.725  25.241  1.00  0.00     0.164 HD
BRANCH   7  10
ATOM     10  C   UNL A   1      32.589  23.522  26.438  1.00  0.00     0.252 C 
ATOM     11  O   UNL A   1      33.485  23.198  27.214  1.00  0.00    -0.283 OA
BRANCH  10  12
ATOM     12  C   UNL A   1      32.465  24.934  25.983  1.00  0.00     0.054 A 
ATOM     13  N   UNL A   1      32.177  27.160  25.982  1.00  0.00    -0.240 N 
ATOM     14  C   UNL A   1      32.009  26.016  26.721  1.00  0.00     0.117 A 
ATOM     15  C   UNL A   1      32.715  26.878  24.746  1.00  0.00     0.065 A 
ATOM     16  C   UNL A   1      32.842  25.479  24.695  1.00  0.00     0.012 A 
ATOM     17  C   UNL A   1      33.086  27.705  23.668  1.00  0.00     0.028 A 
ATOM     18  C   UNL A   1      33.303  24.905  23.488  1.00  0.00     0.011 A 
ATOM     19  C   UNL A   1      33.527  27.102  22.490  1.00  0.00     0.002 A 
ATOM     20  C   UNL A   1      33.622  25.720  22.394  1.00  0.00     0.001 A 
BRANCH  13  21
ATOM     21  S   UNL A   1      31.867  28.729  26.576  1.00  0.00     0.268 S 
ATOM     22  O   UNL A   1      31.110  28.532  27.798  1.00  0.00    -0.201 OA
ATOM     23  O   UNL A   1      31.327  29.487  25.462  1.00  0.00    -0.201 OA
BRANCH  21  24
ATOM     24  C   UNL A   1      33.398  29.505  27.029  1.00  0.00     0.088 A 
ATOM     25  C   UNL A   1      36.923  31.566  28.402  1.00  0.00     0.044 C 
ATOM     26  C   UNL A   1      35.699  30.848  27.911  1.00  0.00    -0.051 A 
ATOM     27  C   UNL A   1      34.481  31.530  27.811  1.00  0.00     0.005 A 
ATOM     28  C   UNL A   1      35.757  29.499  27.538  1.00  0.00     0.005 A 
ATOM     29  C   UNL A   1      33.334  30.861  27.380  1.00  0.00     0.022 A 
ATOM     30  C   UNL A   1      34.616  28.829  27.085  1.00  0.00     0.022 A 
ENDBRANCH  21  24
ENDBRANCH  13  21
ENDBRANCH  10  12
ENDBRANCH   7  10
ENDBRANCH   5   6
BRANCH   5  31
ATOM     31  C   UNL A   1      32.276  18.874  24.771  1.00  0.00     0.092 C 
BRANCH  31  32
ATOM     32  C   UNL A   1      32.918  17.502  24.755  1.00  0.00     0.037 A 
ATOM     33  C   UNL A   1      33.550  16.764  23.776  1.00  0.00     0.134 A 
ATOM     34  N   UNL A   1      32.975  16.679  25.863  1.00  0.00    -0.348 N 
ATOM     35  N   UNL A   1      34.161  15.656  24.309  1.00  0.00    -0.245 NA
ATOM     36  C   UNL A   1      33.844  15.665  25.581  1.00  0.00     0.196 A 
ATOM     37  H   UNL A   1      32.479  16.803  26.703  1.00  0.00     0.167 HD
ENDBRANCH  31  32
ENDBRANCH   5  31
ENDBRANCH   3   5
ENDBRANCH   2   3
ENDBRANCH   1   2
BRANCH   1  38
ATOM     38  C   UNL A   1      37.758  23.467  25.170  1.00  0.00     0.275 C 
BRANCH  38  39
ATOM     39  O   UNL A   1      38.625  22.849  26.169  1.00  0.00    -0.458 OA
BRANCH  39  40
ATOM     40  C   UNL A   1      39.691  23.419  26.786  1.00  0.00     0.338 C 
ATOM     41  O   UNL A   1      40.643  22.807  27.250  1.00  0.00    -0.246 OA
BRANCH  40  42
ATOM     42  C   UNL A   1      39.533  24.837  27.117  1.00  0.00     0.060 A 
ATOM     43  C   UNL A   1      40.643  25.988  26.277  1.00  0.00     0.016 A 
ATOM     44  C   UNL A   1      38.836  25.259  28.718  1.00  0.00     0.016 A 
ATOM     45  C   UNL A   1      41.260  27.459  27.162  1.00  0.00     0.010 A 
ATOM     46  C   UNL A   1      39.458  26.716  29.580  1.00  0.00     0.010 A 
ATOM     47  C   UNL A   1      40.714  27.769  28.826  1.00  0.00    -0.014 A 
BRANCH  47  48
ATOM     48  C   UNL A   1      41.496  28.416  29.889  1.00  0.00     0.031 A 
ATOM     49  C   UNL A   1      40.853  29.556  30.548  1.00  0.00     0.074 A 
ATOM     50  C   UNL A   1      42.414  27.664  30.534  1.00  0.00     0.049 A 
ATOM     51  N   UNL A   1      40.364  29.535  31.746  1.00  0.00    -0.248 NA
ATOM     52  C   UNL A   1      40.523  30.758  29.773  1.00  0.00     0.031 C 
ATOM     53  C   UNL A   1      42.920  27.802  31.893  1.00  0.00     0.029 A 
ATOM     54  N   UNL A   1      43.268  26.737  29.959  1.00  0.00    -0.354 N 
ATOM     55  C   UNL A   1      39.850  30.793  31.978  1.00  0.00     0.074 A 
ATOM     56  C   UNL A   1      39.797  31.436  30.666  1.00  0.00     0.031 C 
ATOM     57  C   UNL A   1      44.141  27.242  31.965  1.00  0.00     0.029 A 
ATOM     58  C   UNL A   1      44.504  26.804  30.629  1.00  0.00     0.049 A 
ATOM     59  H   UNL A   1      43.048  26.135  29.212  1.00  0.00     0.167 HD
ATOM     60  C   UNL A   1      40.294  31.542  33.018  1.00  0.00     0.034 A 
ATOM     61  C   UNL A   1      45.567  27.268  29.903  1.00  0.00     0.034 A 
ATOM     62  C   UNL A   1      41.676  31.301  33.354  1.00  0.00     0.049 A 
ATOM     63  C   UNL A   1      45.825  28.741  30.206  1.00  0.00     0.074 A 
ATOM     64  C   UNL A   1      42.351  30.491  34.243  1.00  0.00     0.029 A 
ATOM     65  N   UNL A   1      42.629  31.830  32.509  1.00  0.00    -0.354 N 
ATOM     66  N   UNL A   1      45.049  29.478  30.960  1.00  0.00    -0.248 NA
ATOM     67  C   UNL A   1      46.956  29.503  29.686  1.00  0.00     0.031 C 
ATOM     68  C   UNL A   1      43.722  30.459  33.833  1.00  0.00     0.029 A 
ATOM     69  C   UNL A   1      43.876  31.294  32.738  1.00  0.00     0.049 A 
ATOM     70  H   UNL A   1      42.440  32.511  31.823  1.00  0.00     0.167 HD
ATOM     71  C   UNL A   1      45.553  30.741  31.073  1.00  0.00     0.074 A 
ATOM     72  C   UNL A   1      46.714  30.727  30.193  1.00  0.00     0.031 C 
ATOM     73  C   UNL A   1      44.993  31.691  31.888  1.00  0.00     0.034 A 
BRANCH  60  74
ATOM     74  C   UNL A   1      39.268  32.251  33.839  1.00  0.00     0.023 A 
ATOM     75  C   UNL A   1      38.046  32.593  33.246  1.00  0.00     0.031 A 
ATOM     76  C   UNL A   1      39.488  32.705  35.161  1.00  0.00     0.131 A 
ATOM     77  C   UNL A   1      37.128  33.406  33.928  1.00  0.00     0.055 A 
ATOM     78  C   UNL A   1      38.558  33.490  35.848  1.00  0.00     0.041 A 
ATOM     79  F   UNL A   1      40.630  32.427  35.816  1.00  0.00    -0.206 F 
ATOM     80  C   UNL A   1      37.374  33.858  35.225  1.00  0.00     0.022 A 
BRANCH  77  81
ATOM     81  S   UNL A   1      35.641  33.936  33.041  1.00  0.00     0.124 S 
ATOM     82  O   UNL A   1      35.876  35.367  32.886  1.00  0.00    -0.237 OA
ATOM     83  O   UNL A   1      35.710  33.135  31.824  1.00  0.00    -0.237 OA
ATOM     84  O   UNL A   1      34.557  33.583  33.957  1.00  0.00    -0.744 OA
ENDBRANCH  77  81
ENDBRANCH  60  74
BRANCH  61  85
ATOM     85  C   UNL A   1      45.600  26.568  28.568  1.00  0.00     0.023 A 
ATOM     86  C   UNL A   1      45.611  27.419  27.430  1.00  0.00     0.031 A 
ATOM     87  C   UNL A   1      46.116  25.275  28.410  1.00  0.00     0.131 A 
ATOM     88  C   UNL A   1      46.339  27.064  26.283  1.00  0.00     0.055 A 
ATOM     89  C   UNL A   1      46.741  24.884  27.214  1.00  0.00     0.041 A 
ATOM     90  F   UNL A   1      46.183  24.432  29.452  1.00  0.00    -0.206 F 
ATOM     91  C   UNL A   1      46.916  25.801  26.174  1.00  0.00     0.022 A 
BRANCH  88  92
ATOM     92  S   UNL A   1      46.774  28.374  25.090  1.00  0.00     0.124 S 
ATOM     93  O   UNL A   1      46.205  27.852  23.851  1.00  0.00    -0.237 OA
ATOM     94  O   UNL A   1      46.103  29.552  25.637  1.00  0.00    -0.237 OA
ATOM     95  O   UNL A   1      48.232  28.420  25.132  1.00  0.00    -0.744 OA
ENDBRANCH  88  92
ENDBRANCH  61  85
BRANCH  73  96
ATOM     96  C   UNL A   1      45.513  33.101  31.949  1.00  0.00     0.023 A 
ATOM     97  C   UNL A   1      44.950  34.103  31.159  1.00  0.00     0.031 A 
ATOM     98  C   UNL A   1      46.580  33.491  32.791  1.00  0.00     0.131 A 
ATOM     99  C   UNL A   1      45.308  35.443  31.347  1.00  0.00     0.055 A 
ATOM    100  C   UNL A   1      47.040  34.808  32.863  1.00  0.00     0.041 A 
ATOM    101  F   UNL A   1      47.173  32.631  33.631  1.00  0.00    -0.206 F 
ATOM    102  C   UNL A   1      46.375  35.805  32.166  1.00  0.00     0.022 A 
BRANCH  99 103
ATOM    103  S   UNL A   1      44.216  36.699  30.645  1.00  0.00     0.124 S 
ATOM    104  O   UNL A   1      43.635  37.317  31.832  1.00  0.00    -0.237 OA
ATOM    105  O   UNL A   1      45.169  37.524  29.906  1.00  0.00    -0.237 OA
ATOM    106  O   UNL A   1      43.291  35.927  29.820  1.00  0.00    -0.744 OA
ENDBRANCH  99 103
ENDBRANCH  73  96
ENDBRANCH  47  48
ENDBRANCH  40  42
ENDBRANCH  39  40
ENDBRANCH  38  39
ENDBRANCH   1  38
TORSDOF 21
ENDMDL
MODEL 3
REMARK VINA RESULT:     -12.9      3.862      8.634
REMARK SMILES Cc1ccc(S(=O)(=O)n2cc(C(=O)C(=O)N[C@@H](Cc3cnc[nH]3)C(=O)OCCOC(=O)c3ccc(-c4c5nc(c(-c6cc(S(=O)(=O)[O-])ccc6F)c6ccc([nH]6)c(-c6cc(S(=O)(=O)[O-])ccc6F)c6nc(c(-c7cc(S(=O)(=O)[O-])ccc7F)c7ccc4[nH]7)C=C6)C=C5)cc3)c3ccccc32)cc1
REMARK SMILES IDX 27 1 26 2 24 3 25 4 17 5 16 6 14 7 15 8 12 10 13 11 11 12
REMARK SMILES IDX 9 13 10 14 100 15 95 16 99 17 96 18 98 19 97 20 6 21 7 22
REMARK SMILES IDX 8 23 5 24 1 25 2 26 3 27 102 28 4 29 101 30 18 31 19 32
REMARK SMILES IDX 20 33 23 34 21 35 22 36 28 38 29 39 30 40 31 41 32 42 33 43
REMARK SMILES IDX 94 44 34 45 93 46 35 47 36 48 37 49 87 50 38 51 92 52 86 53
REMARK SMILES IDX 88 54 39 55 91 56 85 57 84 58 40 60 72 61 52 62 71 63 53 64
REMARK SMILES IDX 56 65 70 66 89 67 54 68 55 69 69 71 90 72 57 73 41 74 42 75
REMARK SMILES IDX 50 76 43 77 49 78 51 79 48 80 44 81 45 82 46 83 47 84 73 85
REMARK SMILES IDX 74 86 82 87 75 88 81 89 83 90 80 91 76 92 77 93 78 94 79 95
REMARK SMILES IDX 58 96 59 97 67 98 60 99 66 100 68 101 65 102 61 103 62 104
REMARK SMILES IDX 63 105 64 106
REMARK H PARENT 16 9 23 37 88 59 56 70
REMARK Flexibility Score: inf
ROOT
ATOM      1  C   UNL A   1      36.908  23.351  25.015  1.00  0.00     0.274 C 
ENDROOT
BRANCH   1   2
ATOM      2  O   UNL A   1      35.791  22.669  25.606  1.00  0.00    -0.461 OA
BRANCH   2   3
ATOM      3  C   UNL A   1      35.614  21.261  25.278  1.00  0.00     0.329 C 
ATOM      4  O   UNL A   1      36.784  20.800  25.278  1.00  0.00    -0.250 OA
BRANCH   3   5
ATOM      5  C   UNL A   1      33.646  20.296  25.086  1.00  0.00     0.198 C 
BRANCH   5   6
ATOM      6  N   UNL A   1      32.104  20.962  25.316  1.00  0.00    -0.335 N 
ATOM      7  C   UNL A   1      31.554  22.043  25.976  1.00  0.00     0.293 C 
ATOM      8  O   UNL A   1      30.325  22.086  26.040  1.00  0.00    -0.265 OA
ATOM      9  H   UNL A   1      31.413  20.435  24.854  1.00  0.00     0.164 HD
BRANCH   7  10
ATOM     10  C   UNL A   1      32.387  23.169  26.640  1.00  0.00     0.252 C 
ATOM     11  O   UNL A   1      33.042  22.895  27.643  1.00  0.00    -0.283 OA
BRANCH  10  12
ATOM     12  C   UNL A   1      32.318  24.574  26.150  1.00  0.00     0.054 A 
ATOM     13  N   UNL A   1      32.079  26.805  26.089  1.00  0.00    -0.240 N 
ATOM     14  C   UNL A   1      31.847  25.681  26.841  1.00  0.00     0.117 A 
ATOM     15  C   UNL A   1      32.674  26.486  24.889  1.00  0.00     0.065 A 
ATOM     16  C   UNL A   1      32.773  25.084  24.873  1.00  0.00     0.012 A 
ATOM     17  C   UNL A   1      33.120  27.282  23.815  1.00  0.00     0.028 A 
ATOM     18  C   UNL A   1      33.285  24.474  23.705  1.00  0.00     0.011 A 
ATOM     19  C   UNL A   1      33.609  26.644  22.675  1.00  0.00     0.002 A 
ATOM     20  C   UNL A   1      33.679  25.259  22.613  1.00  0.00     0.001 A 
BRANCH  13  21
ATOM     21  S   UNL A   1      31.772  28.392  26.633  1.00  0.00     0.268 S 
ATOM     22  O   UNL A   1      31.067  28.235  27.892  1.00  0.00    -0.201 OA
ATOM     23  O   UNL A   1      31.177  29.099  25.513  1.00  0.00    -0.201 OA
BRANCH  21  24
ATOM     24  C   UNL A   1      33.309  29.204  26.993  1.00  0.00     0.088 A 
ATOM     25  C   UNL A   1      36.856  31.365  28.133  1.00  0.00     0.044 C 
ATOM     26  C   UNL A   1      35.625  30.611  27.723  1.00  0.00    -0.051 A 
ATOM     27  C   UNL A   1      34.399  31.278  27.621  1.00  0.00     0.005 A 
ATOM     28  C   UNL A   1      35.683  29.242  27.429  1.00  0.00     0.005 A 
ATOM     29  C   UNL A   1      33.244  30.578  27.265  1.00  0.00     0.022 A 
ATOM     30  C   UNL A   1      34.534  28.540  27.051  1.00  0.00     0.022 A 
ENDBRANCH  21  24
ENDBRANCH  13  21
ENDBRANCH  10  12
ENDBRANCH   7  10
ENDBRANCH   5   6
BRANCH   5  31
ATOM     31  C   UNL A   1      32.994  19.083  23.942  1.00  0.00     0.092 C 
BRANCH  31  32
ATOM     32  C   UNL A   1      33.161  17.616  24.278  1.00  0.00     0.037 A 
ATOM     33  C   UNL A   1      34.177  16.707  24.070  1.00  0.00     0.134 A 
ATOM     34  N   UNL A   1      32.194  16.872  24.927  1.00  0.00    -0.348 N 
ATOM     35  N   UNL A   1      33.944  15.539  24.755  1.00  0.00    -0.245 NA
ATOM     36  C   UNL A   1      32.766  15.693  25.310  1.00  0.00     0.196 A 
ATOM     37  H   UNL A   1      31.262  17.144  25.085  1.00  0.00     0.167 HD
ENDBRANCH  31  32
ENDBRANCH   5  31
ENDBRANCH   3   5
ENDBRANCH   2   3
ENDBRANCH   1   2
BRANCH   1  38
ATOM     38  C   UNL A   1      37.635  24.177  26.085  1.00  0.00     0.275 C 
BRANCH  38  39
ATOM     39  O   UNL A   1      38.961  23.742  26.515  1.00  0.00    -0.458 OA
BRANCH  39  40
ATOM     40  C   UNL A   1      40.067  24.517  26.654  1.00  0.00     0.338 C 
ATOM     41  O   UNL A   1      41.218  24.132  26.503  1.00  0.00    -0.246 OA
BRANCH  40  42
ATOM     42  C   UNL A   1      39.835  25.828  27.267  1.00  0.00     0.060 A 
ATOM     43  C   UNL A   1      40.643  27.239  26.480  1.00  0.00     0.016 A 
ATOM     44  C   UNL A   1      39.420  25.881  29.014  1.00  0.00     0.016 A 
ATOM     45  C   UNL A   1      41.268  28.610  27.506  1.00  0.00     0.010 A 
ATOM     46  C   UNL A   1      40.047  27.245  30.014  1.00  0.00     0.010 A 
ATOM     47  C   UNL A   1      41.024  28.565  29.268  1.00  0.00    -0.014 A 
BRANCH  47  48
ATOM     48  C   UNL A   1      41.927  29.124  30.284  1.00  0.00     0.031 A 
ATOM     49  C   UNL A   1      43.314  28.655  30.230  1.00  0.00     0.074 A 
ATOM     50  C   UNL A   1      41.619  30.337  30.791  1.00  0.00     0.049 A 
ATOM     51  N   UNL A   1      44.315  29.360  29.815  1.00  0.00    -0.248 NA
ATOM     52  C   UNL A   1      43.614  27.234  30.446  1.00  0.00     0.031 C 
ATOM     53  C   UNL A   1      42.509  31.351  31.342  1.00  0.00     0.029 A 
ATOM     54  N   UNL A   1      40.356  30.791  31.130  1.00  0.00    -0.354 N 
ATOM     55  C   UNL A   1      45.428  28.555  29.918  1.00  0.00     0.074 A 
ATOM     56  C   UNL A   1      44.909  27.203  30.120  1.00  0.00     0.031 C 
ATOM     57  C   UNL A   1      41.813  32.131  32.190  1.00  0.00     0.029 A 
ATOM     58  C   UNL A   1      40.469  31.587  32.285  1.00  0.00     0.049 A 
ATOM     59  H   UNL A   1      39.522  30.592  30.646  1.00  0.00     0.167 HD
ATOM     60  C   UNL A   1      46.489  28.931  30.675  1.00  0.00     0.034 A 
ATOM     61  C   UNL A   1      39.891  31.096  33.424  1.00  0.00     0.034 A 
ATOM     62  C   UNL A   1      46.127  29.736  31.817  1.00  0.00     0.049 A 
ATOM     63  C   UNL A   1      40.935  30.431  34.316  1.00  0.00     0.074 A 
ATOM     64  C   UNL A   1      46.038  31.086  32.086  1.00  0.00     0.029 A 
ATOM     65  N   UNL A   1      45.540  29.086  32.882  1.00  0.00    -0.354 N 
ATOM     66  N   UNL A   1      42.185  30.249  33.968  1.00  0.00    -0.248 NA
ATOM     67  C   UNL A   1      40.667  29.911  35.654  1.00  0.00     0.031 C 
ATOM     68  C   UNL A   1      45.276  31.230  33.289  1.00  0.00     0.029 A 
ATOM     69  C   UNL A   1      44.962  29.967  33.768  1.00  0.00     0.049 A 
ATOM     70  H   UNL A   1      45.535  28.108  32.995  1.00  0.00     0.167 HD
ATOM     71  C   UNL A   1      42.883  29.661  34.981  1.00  0.00     0.074 A 
ATOM     72  C   UNL A   1      41.866  29.401  35.992  1.00  0.00     0.031 C 
ATOM     73  C   UNL A   1      44.236  29.448  34.922  1.00  0.00     0.034 A 
BRANCH  60  74
ATOM     74  C   UNL A   1      47.850  28.740  30.092  1.00  0.00     0.023 A 
ATOM     75  C   UNL A   1      48.012  28.842  28.704  1.00  0.00     0.031 A 
ATOM     76  C   UNL A   1      48.984  28.349  30.842  1.00  0.00     0.131 A 
ATOM     77  C   UNL A   1      49.233  28.501  28.104  1.00  0.00     0.055 A 
ATOM     78  C   UNL A   1      50.209  28.039  30.243  1.00  0.00     0.041 A 
ATOM     79  F   UNL A   1      48.930  28.224  32.180  1.00  0.00    -0.206 F 
ATOM     80  C   UNL A   1      50.334  28.100  28.862  1.00  0.00     0.022 A 
BRANCH  77  81
ATOM     81  S   UNL A   1      49.322  28.507  26.296  1.00  0.00     0.124 S 
ATOM     82  O   UNL A   1      47.959  28.876  25.928  1.00  0.00    -0.237 OA
ATOM     83  O   UNL A   1      50.352  29.508  26.043  1.00  0.00    -0.237 OA
ATOM     84  O   UNL A   1      49.699  27.132  25.971  1.00  0.00    -0.744 OA
ENDBRANCH  77  81
ENDBRANCH  60  74
BRANCH  61  85
ATOM     85  C   UNL A   1      38.495  30.624  33.108  1.00  0.00     0.023 A 
ATOM     86  C   UNL A   1      37.512  31.645  32.998  1.00  0.00     0.031 A 
ATOM     87  C   UNL A   1      38.242  29.414  32.448  1.00  0.00     0.131 A 
ATOM     88  C   UNL A   1      36.470  31.533  32.065  1.00  0.00     0.055 A 
ATOM     89  C   UNL A   1      37.129  29.267  31.604  1.00  0.00     0.041 A 
ATOM     90  F   UNL A   1      39.145  28.422  32.467  1.00  0.00    -0.206 F 
ATOM     91  C   UNL A   1      36.280  30.350  31.356  1.00  0.00     0.022 A 
BRANCH  88  92
ATOM     92  S   UNL A   1      35.575  33.046  31.575  1.00  0.00     0.124 S 
ATOM     93  O   UNL A   1      36.478  33.620  30.582  1.00  0.00    -0.237 OA
ATOM     94  O   UNL A   1      34.315  32.526  31.048  1.00  0.00    -0.237 OA
ATOM     95  O   UNL A   1      35.458  33.804  32.818  1.00  0.00    -0.744 OA
ENDBRANCH  88  92
ENDBRANCH  61  85
BRANCH  73  96
ATOM     96  C   UNL A   1      44.983  28.734  36.014  1.00  0.00     0.023 A 
ATOM     97  C   UNL A   1      45.410  29.420  37.152  1.00  0.00     0.031 A 
ATOM     98  C   UNL A   1      45.295  27.356  35.960  1.00  0.00     0.131 A 
ATOM     99  C   UNL A   1      45.941  28.725  38.244  1.00  0.00     0.055 A 
ATOM    100  C   UNL A   1      45.966  26.693  36.990  1.00  0.00     0.041 A 
ATOM    101  F   UNL A   1      44.900  26.579  34.941  1.00  0.00    -0.206 F 
ATOM    102  C   UNL A   1      46.259  27.372  38.163  1.00  0.00     0.022 A 
BRANCH  99 103
ATOM    103  S   UNL A   1      46.018  29.598  39.824  1.00  0.00     0.124 S 
ATOM    104  O   UNL A   1      45.762  30.981  39.438  1.00  0.00    -0.237 OA
ATOM    105  O   UNL A   1      44.944  28.940  40.565  1.00  0.00    -0.237 OA
ATOM    106  O   UNL A   1      47.368  29.318  40.305  1.00  0.00    -0.744 OA
ENDBRANCH  99 103
ENDBRANCH  73  96
ENDBRANCH  47  48
ENDBRANCH  40  42
ENDBRANCH  39  40
ENDBRANCH  38  39
ENDBRANCH   1  38
TORSDOF 21
ENDMDL
