MODEL 1
REMARK VINA RESULT:     -12.2      0.000      0.000
REMARK SMILES NS(=O)(=O)c1ccc(-n2nc(C(F)(F)F)cc2-c2ccc(CC(=O)OCCOC(=O)c3ccc(-c4c5nc(c(-c6cc(S(=O)(=O)[O-])ccc6F)c6ccc([nH]6)c(-c6cc(S(=O)(=O)[O-])ccc6F)c6nc(c(-c7cc(S(=O)(=O)[O-])ccc7F)c7ccc4[nH]7)C=C6)C=C5)cc3)cc2)cc1
REMARK SMILES IDX 26 1 25 2 23 3 24 4 22 5 21 6 18 7 19 8 95 9 20 10 94 11
REMARK SMILES IDX 17 12 9 13 10 14 11 15 16 16 8 17 5 18 6 19 97 20 7 21 96 22
REMARK SMILES IDX 2 23 3 24 4 25 1 26 12 29 13 30 14 31 15 32 27 33 28 34
REMARK SMILES IDX 29 35 30 36 31 37 32 38 93 39 33 40 92 41 34 42 35 43 36 44
REMARK SMILES IDX 86 45 37 46 91 47 85 48 87 49 38 50 90 51 84 52 83 53 39 55
REMARK SMILES IDX 71 56 51 57 70 58 52 59 55 60 69 61 88 62 53 63 54 64 68 66
REMARK SMILES IDX 89 67 56 68 40 69 41 70 49 71 42 72 48 73 50 74 47 75 43 76
REMARK SMILES IDX 44 77 45 78 46 79 72 80 73 81 81 82 74 83 80 84 82 85 79 86
REMARK SMILES IDX 75 87 76 88 77 89 78 90 57 91 58 92 66 93 59 94 65 95 67 96
REMARK SMILES IDX 64 97 60 98 61 99 62 100 63 101
REMARK H PARENT 1 27 1 28 87 54 55 65
REMARK Flexibility Score: inf
ROOT
ATOM      1  C   UNL A   1      35.312  33.605  28.407  1.00  0.00     0.274 C 
ENDROOT
BRANCH   1   2
ATOM      2  O   UNL A   1      35.347  32.416  27.586  1.00  0.00    -0.462 OA
BRANCH   2   3
ATOM      3  C   UNL A   1      34.241  31.625  27.644  1.00  0.00     0.310 C 
ATOM      4  O   UNL A   1      33.091  32.055  27.570  1.00  0.00    -0.252 OA
BRANCH   3   5
ATOM      5  C   UNL A   1      34.517  30.163  27.928  1.00  0.00     0.158 C 
BRANCH   5   6
ATOM      6  C   UNL A   1      34.008  29.117  26.964  1.00  0.00    -0.037 A 
ATOM      7  C   UNL A   1      33.120  27.155  25.137  1.00  0.00     0.000 A 
ATOM      8  C   UNL A   1      34.060  28.105  24.744  1.00  0.00     0.010 A 
ATOM      9  C   UNL A   1      32.580  27.226  26.427  1.00  0.00     0.010 A 
ATOM     10  C   UNL A   1      34.469  29.089  25.643  1.00  0.00     0.005 A 
ATOM     11  C   UNL A   1      33.039  28.183  27.340  1.00  0.00     0.005 A 
BRANCH   7  12
ATOM     12  C   UNL A   1      32.727  26.095  24.215  1.00  0.00     0.075 A 
ATOM     13  N   UNL A   1      31.600  26.119  23.397  1.00  0.00    -0.233 N 
ATOM     14  N   UNL A   1      31.386  24.913  22.805  1.00  0.00    -0.163 NA
ATOM     15  C   UNL A   1      32.437  24.151  23.156  1.00  0.00     0.167 A 
ATOM     16  C   UNL A   1      33.279  24.842  24.061  1.00  0.00     0.064 A 
BRANCH  13  17
ATOM     17  C   UNL A   1      30.773  27.228  23.070  1.00  0.00     0.065 A 
ATOM     18  C   UNL A   1      29.165  29.428  22.466  1.00  0.00     0.082 A 
ATOM     19  C   UNL A   1      30.483  29.388  22.005  1.00  0.00     0.024 A 
ATOM     20  C   UNL A   1      28.640  28.371  23.217  1.00  0.00     0.024 A 
ATOM     21  C   UNL A   1      31.288  28.294  22.317  1.00  0.00     0.030 A 
ATOM     22  C   UNL A   1      29.437  27.253  23.495  1.00  0.00     0.030 A 
BRANCH  18  23
ATOM     23  S   UNL A   1      28.166  30.832  22.086  1.00  0.00     0.238 S 
ATOM     24  O   UNL A   1      27.213  31.070  23.145  1.00  0.00    -0.207 OA
ATOM     25  O   UNL A   1      27.790  30.767  20.695  1.00  0.00    -0.207 OA
BRANCH  23  26
ATOM     26  N   UNL A   1      29.247  32.125  22.194  1.00  0.00    -0.225 NA
ATOM     27  H   UNL A   1      29.381  32.534  21.269  1.00  0.00     0.137 HD
ATOM     28  H   UNL A   1      30.142  31.790  22.550  1.00  0.00     0.137 HD
ENDBRANCH  23  26
ENDBRANCH  18  23
ENDBRANCH  13  17
BRANCH  15  29
ATOM     29  C   UNL A   1      32.666  22.762  22.625  1.00  0.00     0.435 C 
ATOM     30  F   UNL A   1      31.576  21.958  22.699  1.00  0.00    -0.164 F 
ATOM     31  F   UNL A   1      33.068  22.775  21.324  1.00  0.00    -0.164 F 
ATOM     32  F   UNL A   1      33.661  22.124  23.310  1.00  0.00    -0.164 F 
ENDBRANCH  15  29
ENDBRANCH   7  12
ENDBRANCH   5   6
ENDBRANCH   3   5
ENDBRANCH   2   3
ENDBRANCH   1   2
BRANCH   1  33
ATOM     33  C   UNL A   1      35.286  33.319  29.907  1.00  0.00     0.275 C 
BRANCH  33  34
ATOM     34  O   UNL A   1      36.553  32.901  30.413  1.00  0.00    -0.458 OA
BRANCH  34  35
ATOM     35  C   UNL A   1      36.574  31.582  30.704  1.00  0.00     0.338 C 
ATOM     36  O   UNL A   1      35.849  31.005  31.497  1.00  0.00    -0.246 OA
BRANCH  35  37
ATOM     37  C   UNL A   1      37.741  30.922  30.131  1.00  0.00     0.060 A 
ATOM     38  C   UNL A   1      37.696  29.528  30.017  1.00  0.00     0.016 A 
ATOM     39  C   UNL A   1      38.942  31.632  30.127  1.00  0.00     0.016 A 
ATOM     40  C   UNL A   1      38.869  28.818  30.107  1.00  0.00     0.010 A 
ATOM     41  C   UNL A   1      40.113  30.922  30.224  1.00  0.00     0.010 A 
ATOM     42  C   UNL A   1      40.053  29.527  30.294  1.00  0.00    -0.014 A 
BRANCH  42  43
ATOM     43  C   UNL A   1      41.286  28.779  30.414  1.00  0.00     0.031 A 
ATOM     44  C   UNL A   1      41.657  28.541  31.830  1.00  0.00     0.074 A 
ATOM     45  C   UNL A   1      41.874  28.222  29.338  1.00  0.00     0.049 A 
ATOM     46  N   UNL A   1      42.712  28.942  32.457  1.00  0.00    -0.248 NA
ATOM     47  C   UNL A   1      40.625  27.967  32.716  1.00  0.00     0.031 C 
ATOM     48  C   UNL A   1      41.386  28.208  27.957  1.00  0.00     0.029 A 
ATOM     49  N   UNL A   1      42.960  27.410  29.275  1.00  0.00    -0.354 N 
ATOM     50  C   UNL A   1      42.586  28.430  33.745  1.00  0.00     0.074 A 
ATOM     51  C   UNL A   1      41.204  28.089  33.908  1.00  0.00     0.031 C 
ATOM     52  C   UNL A   1      42.002  27.211  27.282  1.00  0.00     0.029 A 
ATOM     53  C   UNL A   1      42.988  26.589  28.152  1.00  0.00     0.049 A 
ATOM     54  H   UNL A   1      43.664  27.402  29.964  1.00  0.00     0.167 HD
ATOM     55  C   UNL A   1      43.679  28.040  34.454  1.00  0.00     0.034 A 
ATOM     56  C   UNL A   1      43.674  25.418  28.017  1.00  0.00     0.034 A 
ATOM     57  C   UNL A   1      44.882  28.640  33.921  1.00  0.00     0.049 A 
ATOM     58  C   UNL A   1      44.732  25.422  29.068  1.00  0.00     0.074 A 
ATOM     59  C   UNL A   1      45.268  29.944  33.668  1.00  0.00     0.029 A 
ATOM     60  N   UNL A   1      45.734  27.852  33.176  1.00  0.00    -0.354 N 
ATOM     61  N   UNL A   1      45.722  26.275  29.083  1.00  0.00    -0.248 NA
ATOM     62  C   UNL A   1      44.397  24.851  30.368  1.00  0.00     0.031 C 
ATOM     63  C   UNL A   1      45.942  29.886  32.414  1.00  0.00     0.029 A 
ATOM     64  C   UNL A   1      46.024  28.547  32.026  1.00  0.00     0.049 A 
ATOM     65  H   UNL A   1      46.071  26.961  33.423  1.00  0.00     0.167 HD
ATOM     66  C   UNL A   1      45.841  26.674  30.408  1.00  0.00     0.074 A 
ATOM     67  C   UNL A   1      45.051  25.703  31.166  1.00  0.00     0.031 C 
ATOM     68  C   UNL A   1      46.303  27.916  30.748  1.00  0.00     0.034 A 
BRANCH  55  69
ATOM     69  C   UNL A   1      43.704  26.825  35.357  1.00  0.00     0.023 A 
ATOM     70  C   UNL A   1      44.078  27.039  36.695  1.00  0.00     0.031 A 
ATOM     71  C   UNL A   1      43.677  25.474  34.937  1.00  0.00     0.131 A 
ATOM     72  C   UNL A   1      44.507  25.973  37.502  1.00  0.00     0.055 A 
ATOM     73  C   UNL A   1      44.032  24.409  35.767  1.00  0.00     0.041 A 
ATOM     74  F   UNL A   1      43.402  25.100  33.682  1.00  0.00    -0.206 F 
ATOM     75  C   UNL A   1      44.486  24.658  37.048  1.00  0.00     0.022 A 
BRANCH  72  76
ATOM     76  S   UNL A   1      45.281  26.367  39.088  1.00  0.00     0.124 S 
ATOM     77  O   UNL A   1      44.128  26.781  39.880  1.00  0.00    -0.237 OA
ATOM     78  O   UNL A   1      45.887  25.090  39.448  1.00  0.00    -0.237 OA
ATOM     79  O   UNL A   1      46.222  27.431  38.749  1.00  0.00    -0.744 OA
ENDBRANCH  72  76
ENDBRANCH  55  69
BRANCH  56  80
ATOM     80  C   UNL A   1      43.197  24.186  27.308  1.00  0.00     0.023 A 
ATOM     81  C   UNL A   1      43.996  23.445  26.406  1.00  0.00     0.031 A 
ATOM     82  C   UNL A   1      41.967  23.591  27.678  1.00  0.00     0.131 A 
ATOM     83  C   UNL A   1      43.544  22.193  25.908  1.00  0.00     0.055 A 
ATOM     84  C   UNL A   1      41.520  22.367  27.175  1.00  0.00     0.041 A 
ATOM     85  F   UNL A   1      41.179  24.138  28.618  1.00  0.00    -0.206 F 
ATOM     86  C   UNL A   1      42.313  21.658  26.290  1.00  0.00     0.022 A 
BRANCH  83  87
ATOM     87  S   UNL A   1      44.597  21.184  24.810  1.00  0.00     0.124 S 
ATOM     88  O   UNL A   1      45.883  21.215  25.494  1.00  0.00    -0.237 OA
ATOM     89  O   UNL A   1      43.897  19.904  24.795  1.00  0.00    -0.237 OA
ATOM     90  O   UNL A   1      44.561  21.910  23.539  1.00  0.00    -0.744 OA
ENDBRANCH  83  87
ENDBRANCH  56  80
BRANCH  68  91
ATOM     91  C   UNL A   1      46.950  28.788  29.687  1.00  0.00     0.023 A 
ATOM     92  C   UNL A   1      46.257  29.485  28.670  1.00  0.00     0.031 A 
ATOM     93  C   UNL A   1      48.330  29.034  29.814  1.00  0.00     0.131 A 
ATOM     94  C   UNL A   1      46.951  30.378  27.826  1.00  0.00     0.055 A 
ATOM     95  C   UNL A   1      49.007  29.935  28.995  1.00  0.00     0.041 A 
ATOM     96  F   UNL A   1      49.045  28.426  30.776  1.00  0.00    -0.206 F 
ATOM     97  C   UNL A   1      48.321  30.608  27.993  1.00  0.00     0.022 A 
BRANCH  94  98
ATOM     98  S   UNL A   1      46.092  31.247  26.474  1.00  0.00     0.124 S 
ATOM     99  O   UNL A   1      46.168  30.308  25.363  1.00  0.00    -0.237 OA
ATOM    100  O   UNL A   1      44.762  31.468  27.038  1.00  0.00    -0.237 OA
ATOM    101  O   UNL A   1      46.885  32.465  26.297  1.00  0.00    -0.744 OA
ENDBRANCH  94  98
ENDBRANCH  68  91
ENDBRANCH  42  43
ENDBRANCH  35  37
ENDBRANCH  34  35
ENDBRANCH  33  34
ENDBRANCH   1  33
TORSDOF 20
ENDMDL
MODEL 2
REMARK VINA RESULT:     -11.5      3.044      3.876
REMARK SMILES NS(=O)(=O)c1ccc(-n2nc(C(F)(F)F)cc2-c2ccc(CC(=O)OCCOC(=O)c3ccc(-c4c5nc(c(-c6cc(S(=O)(=O)[O-])ccc6F)c6ccc([nH]6)c(-c6cc(S(=O)(=O)[O-])ccc6F)c6nc(c(-c7cc(S(=O)(=O)[O-])ccc7F)c7ccc4[nH]7)C=C6)C=C5)cc3)cc2)cc1
REMARK SMILES IDX 26 1 25 2 23 3 24 4 22 5 21 6 18 7 19 8 95 9 20 10 94 11
REMARK SMILES IDX 17 12 9 13 10 14 11 15 16 16 8 17 5 18 6 19 97 20 7 21 96 22
REMARK SMILES IDX 2 23 3 24 4 25 1 26 12 29 13 30 14 31 15 32 27 33 28 34
REMARK SMILES IDX 29 35 30 36 31 37 32 38 93 39 33 40 92 41 34 42 35 43 36 44
REMARK SMILES IDX 86 45 37 46 91 47 85 48 87 49 38 50 90 51 84 52 83 53 39 55
REMARK SMILES IDX 71 56 51 57 70 58 52 59 55 60 69 61 88 62 53 63 54 64 68 66
REMARK SMILES IDX 89 67 56 68 40 69 41 70 49 71 42 72 48 73 50 74 47 75 43 76
REMARK SMILES IDX 44 77 45 78 46 79 72 80 73 81 81 82 74 83 80 84 82 85 79 86
REMARK SMILES IDX 75 87 76 88 77 89 78 90 57 91 58 92 66 93 59 94 65 95 67 96
REMARK SMILES IDX 64 97 60 98 61 99 62 100 63 101
REMARK H PARENT 1 27 1 28 87 54 55 65
REMARK Flexibility Score: inf
ROOT
ATOM      1  C   UNL A   1      36.029  33.043  28.105  1.00  0.00     0.274 C 
ENDROOT
BRANCH   1   2
ATOM      2  O   UNL A   1      35.360  31.830  27.697  1.00  0.00    -0.462 OA
BRANCH   2   3
ATOM      3  C   UNL A   1      36.053  30.676  27.900  1.00  0.00     0.310 C 
ATOM      4  O   UNL A   1      37.280  30.620  27.967  1.00  0.00    -0.252 OA
BRANCH   3   5
ATOM      5  C   UNL A   1      35.207  29.420  27.922  1.00  0.00     0.158 C 
BRANCH   5   6
ATOM      6  C   UNL A   1      34.070  29.280  26.937  1.00  0.00    -0.037 A 
ATOM      7  C   UNL A   1      31.918  29.077  25.120  1.00  0.00     0.000 A 
ATOM      8  C   UNL A   1      31.691  29.482  26.433  1.00  0.00     0.010 A 
ATOM      9  C   UNL A   1      33.214  28.716  24.734  1.00  0.00     0.010 A 
ATOM     10  C   UNL A   1      32.755  29.549  27.332  1.00  0.00     0.005 A 
ATOM     11  C   UNL A   1      34.285  28.840  25.627  1.00  0.00     0.005 A 
BRANCH   7  12
ATOM     12  C   UNL A   1      30.815  29.053  24.165  1.00  0.00     0.075 A 
ATOM     13  N   UNL A   1      30.521  27.999  23.304  1.00  0.00    -0.233 N 
ATOM     14  N   UNL A   1      29.570  28.345  22.395  1.00  0.00    -0.163 NA
ATOM     15  C   UNL A   1      29.176  29.583  22.746  1.00  0.00     0.167 A 
ATOM     16  C   UNL A   1      29.951  30.072  23.824  1.00  0.00     0.064 A 
BRANCH  13  17
ATOM     17  C   UNL A   1      31.013  26.665  23.345  1.00  0.00     0.065 A 
ATOM     18  C   UNL A   1      32.008  24.060  23.457  1.00  0.00     0.082 A 
ATOM     19  C   UNL A   1      30.988  24.448  24.329  1.00  0.00     0.024 A 
ATOM     20  C   UNL A   1      32.527  24.961  22.521  1.00  0.00     0.024 A 
ATOM     21  C   UNL A   1      30.500  25.753  24.279  1.00  0.00     0.030 A 
ATOM     22  C   UNL A   1      32.007  26.259  22.444  1.00  0.00     0.030 A 
BRANCH  18  23
ATOM     23  S   UNL A   1      32.635  22.414  23.551  1.00  0.00     0.238 S 
ATOM     24  O   UNL A   1      34.048  22.432  23.852  1.00  0.00    -0.207 OA
ATOM     25  O   UNL A   1      32.076  21.645  22.466  1.00  0.00    -0.207 OA
BRANCH  23  26
ATOM     26  N   UNL A   1      31.915  21.797  24.949  1.00  0.00    -0.225 NA
ATOM     27  H   UNL A   1      32.600  21.778  25.704  1.00  0.00     0.137 HD
ATOM     28  H   UNL A   1      31.582  20.850  24.769  1.00  0.00     0.137 HD
ENDBRANCH  23  26
ENDBRANCH  18  23
ENDBRANCH  13  17
BRANCH  15  29
ATOM     29  C   UNL A   1      28.046  30.312  22.070  1.00  0.00     0.435 C 
ATOM     30  F   UNL A   1      28.082  30.250  20.716  1.00  0.00    -0.164 F 
ATOM     31  F   UNL A   1      26.830  29.842  22.463  1.00  0.00    -0.164 F 
ATOM     32  F   UNL A   1      28.047  31.640  22.393  1.00  0.00    -0.164 F 
ENDBRANCH  15  29
ENDBRANCH   7  12
ENDBRANCH   5   6
ENDBRANCH   3   5
ENDBRANCH   2   3
ENDBRANCH   1   2
BRANCH   1  33
ATOM     33  C   UNL A   1      35.555  33.585  29.452  1.00  0.00     0.275 C 
BRANCH  33  34
ATOM     34  O   UNL A   1      36.435  33.249  30.525  1.00  0.00    -0.458 OA
BRANCH  34  35
ATOM     35  C   UNL A   1      36.026  32.147  31.191  1.00  0.00     0.338 C 
ATOM     36  O   UNL A   1      34.883  31.887  31.526  1.00  0.00    -0.246 OA
BRANCH  35  37
ATOM     37  C   UNL A   1      37.154  31.373  31.695  1.00  0.00     0.060 A 
ATOM     38  C   UNL A   1      38.321  32.077  32.015  1.00  0.00     0.016 A 
ATOM     39  C   UNL A   1      37.157  30.001  31.440  1.00  0.00     0.016 A 
ATOM     40  C   UNL A   1      39.534  31.446  31.876  1.00  0.00     0.010 A 
ATOM     41  C   UNL A   1      38.370  29.373  31.294  1.00  0.00     0.010 A 
ATOM     42  C   UNL A   1      39.540  30.125  31.434  1.00  0.00    -0.014 A 
BRANCH  42  43
ATOM     43  C   UNL A   1      40.818  29.467  31.264  1.00  0.00     0.031 A 
ATOM     44  C   UNL A   1      41.494  29.222  32.560  1.00  0.00     0.074 A 
ATOM     45  C   UNL A   1      41.201  28.982  30.067  1.00  0.00     0.049 A 
ATOM     46  N   UNL A   1      42.629  29.683  32.968  1.00  0.00    -0.248 NA
ATOM     47  C   UNL A   1      40.713  28.551  33.618  1.00  0.00     0.031 C 
ATOM     48  C   UNL A   1      40.434  28.967  28.819  1.00  0.00     0.029 A 
ATOM     49  N   UNL A   1      42.301  28.254  29.746  1.00  0.00    -0.354 N 
ATOM     50  C   UNL A   1      42.813  29.131  34.232  1.00  0.00     0.074 A 
ATOM     51  C   UNL A   1      41.522  28.685  34.667  1.00  0.00     0.031 C 
ATOM     52  C   UNL A   1      40.958  28.035  27.991  1.00  0.00     0.029 A 
ATOM     53  C   UNL A   1      42.145  27.466  28.610  1.00  0.00     0.049 A 
ATOM     54  H   UNL A   1      43.133  28.281  30.271  1.00  0.00     0.167 HD
ATOM     55  C   UNL A   1      44.054  28.805  34.681  1.00  0.00     0.034 A 
ATOM     56  C   UNL A   1      42.864  26.353  28.288  1.00  0.00     0.034 A 
ATOM     57  C   UNL A   1      45.075  29.505  33.933  1.00  0.00     0.049 A 
ATOM     58  C   UNL A   1      44.118  26.408  29.094  1.00  0.00     0.074 A 
ATOM     59  C   UNL A   1      45.311  30.840  33.657  1.00  0.00     0.029 A 
ATOM     60  N   UNL A   1      45.801  28.801  32.996  1.00  0.00    -0.354 N 
ATOM     61  N   UNL A   1      45.029  27.331  28.936  1.00  0.00    -0.248 NA
ATOM     62  C   UNL A   1      44.104  25.781  30.411  1.00  0.00     0.031 C 
ATOM     63  C   UNL A   1      45.707  30.864  32.289  1.00  0.00     0.029 A 
ATOM     64  C   UNL A   1      45.794  29.544  31.839  1.00  0.00     0.049 A 
ATOM     65  H   UNL A   1      46.241  27.932  33.130  1.00  0.00     0.167 HD
ATOM     66  C   UNL A   1      45.399  27.704  30.221  1.00  0.00     0.074 A 
ATOM     67  C   UNL A   1      44.853  26.659  31.088  1.00  0.00     0.031 C 
ATOM     68  C   UNL A   1      45.838  28.968  30.506  1.00  0.00     0.034 A 
BRANCH  55  69
ATOM     69  C   UNL A   1      44.350  27.573  35.509  1.00  0.00     0.023 A 
ATOM     70  C   UNL A   1      44.135  26.329  34.893  1.00  0.00     0.031 A 
ATOM     71  C   UNL A   1      44.536  27.537  36.912  1.00  0.00     0.131 A 
ATOM     72  C   UNL A   1      43.998  25.159  35.658  1.00  0.00     0.055 A 
ATOM     73  C   UNL A   1      44.475  26.360  37.660  1.00  0.00     0.041 A 
ATOM     74  F   UNL A   1      44.692  28.635  37.661  1.00  0.00    -0.206 F 
ATOM     75  C   UNL A   1      44.167  25.165  37.039  1.00  0.00     0.022 A 
BRANCH  72  76
ATOM     76  S   UNL A   1      43.396  23.668  34.829  1.00  0.00     0.124 S 
ATOM     77  O   UNL A   1      44.195  22.634  35.477  1.00  0.00    -0.237 OA
ATOM     78  O   UNL A   1      41.977  23.694  35.167  1.00  0.00    -0.237 OA
ATOM     79  O   UNL A   1      43.709  23.914  33.425  1.00  0.00    -0.744 OA
ENDBRANCH  72  76
ENDBRANCH  55  69
BRANCH  56  80
ATOM     80  C   UNL A   1      42.331  25.107  27.645  1.00  0.00     0.023 A 
ATOM     81  C   UNL A   1      43.090  24.291  26.775  1.00  0.00     0.031 A 
ATOM     82  C   UNL A   1      41.082  24.581  28.055  1.00  0.00     0.131 A 
ATOM     83  C   UNL A   1      42.584  23.035  26.344  1.00  0.00     0.055 A 
ATOM     84  C   UNL A   1      40.582  23.353  27.617  1.00  0.00     0.041 A 
ATOM     85  F   UNL A   1      40.327  25.205  28.973  1.00  0.00    -0.206 F 
ATOM     86  C   UNL A   1      41.337  22.569  26.763  1.00  0.00     0.022 A 
BRANCH  83  87
ATOM     87  S   UNL A   1      43.584  21.930  25.289  1.00  0.00     0.124 S 
ATOM     88  O   UNL A   1      42.882  20.659  25.414  1.00  0.00    -0.237 OA
ATOM     89  O   UNL A   1      43.513  22.589  23.989  1.00  0.00    -0.237 OA
ATOM     90  O   UNL A   1      44.908  21.964  25.916  1.00  0.00    -0.744 OA
ENDBRANCH  83  87
ENDBRANCH  56  80
BRANCH  68  91
ATOM     91  C   UNL A   1      46.186  29.912  29.370  1.00  0.00     0.023 A 
ATOM     92  C   UNL A   1      45.250  30.554  28.526  1.00  0.00     0.031 A 
ATOM     93  C   UNL A   1      47.537  30.286  29.238  1.00  0.00     0.131 A 
ATOM     94  C   UNL A   1      45.684  31.520  27.595  1.00  0.00     0.055 A 
ATOM     95  C   UNL A   1      47.959  31.258  28.334  1.00  0.00     0.041 A 
ATOM     96  F   UNL A   1      48.476  29.734  30.026  1.00  0.00    -0.206 F 
ATOM     97  C   UNL A   1      47.034  31.876  27.503  1.00  0.00     0.022 A 
BRANCH  94  98
ATOM     98  S   UNL A   1      44.505  32.323  26.459  1.00  0.00     0.124 S 
ATOM     99  O   UNL A   1      43.515  31.284  26.206  1.00  0.00    -0.237 OA
ATOM    100  O   UNL A   1      44.047  33.468  27.242  1.00  0.00    -0.237 OA
ATOM    101  O   UNL A   1      45.333  32.670  25.303  1.00  0.00    -0.744 OA
ENDBRANCH  94  98
ENDBRANCH  68  91
ENDBRANCH  42  43
ENDBRANCH  35  37
ENDBRANCH  34  35
ENDBRANCH  33  34
ENDBRANCH   1  33
TORSDOF 20
ENDMDL
MODEL 3
REMARK VINA RESULT:     -11.5      4.914      8.950
REMARK SMILES NS(=O)(=O)c1ccc(-n2nc(C(F)(F)F)cc2-c2ccc(CC(=O)OCCOC(=O)c3ccc(-c4c5nc(c(-c6cc(S(=O)(=O)[O-])ccc6F)c6ccc([nH]6)c(-c6cc(S(=O)(=O)[O-])ccc6F)c6nc(c(-c7cc(S(=O)(=O)[O-])ccc7F)c7ccc4[nH]7)C=C6)C=C5)cc3)cc2)cc1
REMARK SMILES IDX 26 1 25 2 23 3 24 4 22 5 21 6 18 7 19 8 95 9 20 10 94 11
REMARK SMILES IDX 17 12 9 13 10 14 11 15 16 16 8 17 5 18 6 19 97 20 7 21 96 22
REMARK SMILES IDX 2 23 3 24 4 25 1 26 12 29 13 30 14 31 15 32 27 33 28 34
REMARK SMILES IDX 29 35 30 36 31 37 32 38 93 39 33 40 92 41 34 42 35 43 36 44
REMARK SMILES IDX 86 45 37 46 91 47 85 48 87 49 38 50 90 51 84 52 83 53 39 55
REMARK SMILES IDX 71 56 51 57 70 58 52 59 55 60 69 61 88 62 53 63 54 64 68 66
REMARK SMILES IDX 89 67 56 68 40 69 41 70 49 71 42 72 48 73 50 74 47 75 43 76
REMARK SMILES IDX 44 77 45 78 46 79 72 80 73 81 81 82 74 83 80 84 82 85 79 86
REMARK SMILES IDX 75 87 76 88 77 89 78 90 57 91 58 92 66 93 59 94 65 95 67 96
REMARK SMILES IDX 64 97 60 98 61 99 62 100 63 101
REMARK H PARENT 1 27 1 28 87 54 55 65
REMARK Flexibility Score: inf
ROOT
ATOM      1  C   UNL A   1      33.650  34.335  28.811  1.00  0.00     0.274 C 
ENDROOT
BRANCH   1   2
ATOM      2  O   UNL A   1      34.628  34.367  29.874  1.00  0.00    -0.462 OA
BRANCH   2   3
ATOM      3  C   UNL A   1      34.180  33.985  31.101  1.00  0.00     0.310 C 
ATOM      4  O   UNL A   1      33.310  34.588  31.728  1.00  0.00    -0.252 OA
BRANCH   3   5
ATOM      5  C   UNL A   1      34.918  32.812  31.712  1.00  0.00     0.158 C 
BRANCH   5   6
ATOM      6  C   UNL A   1      36.283  33.037  32.320  1.00  0.00    -0.037 A 
ATOM      7  C   UNL A   1      38.808  33.509  33.493  1.00  0.00     0.000 A 
ATOM      8  C   UNL A   1      37.990  34.578  33.137  1.00  0.00     0.010 A 
ATOM      9  C   UNL A   1      38.387  32.205  33.207  1.00  0.00     0.010 A 
ATOM     10  C   UNL A   1      36.758  34.336  32.528  1.00  0.00     0.005 A 
ATOM     11  C   UNL A   1      37.125  31.970  32.648  1.00  0.00     0.005 A 
BRANCH   7  12
ATOM     12  C   UNL A   1      40.074  33.757  34.174  1.00  0.00     0.075 A 
ATOM     13  N   UNL A   1      40.248  33.802  35.555  1.00  0.00    -0.233 N 
ATOM     14  N   UNL A   1      41.487  34.253  35.890  1.00  0.00    -0.163 NA
ATOM     15  C   UNL A   1      42.143  34.390  34.724  1.00  0.00     0.167 A 
ATOM     16  C   UNL A   1      41.286  34.122  33.629  1.00  0.00     0.064 A 
BRANCH  13  17
ATOM     17  C   UNL A   1      39.354  33.360  36.570  1.00  0.00     0.065 A 
ATOM     18  C   UNL A   1      37.637  32.479  38.585  1.00  0.00     0.082 A 
ATOM     19  C   UNL A   1      38.152  33.776  38.635  1.00  0.00     0.024 A 
ATOM     20  C   UNL A   1      37.963  31.622  37.530  1.00  0.00     0.024 A 
ATOM     21  C   UNL A   1      39.019  34.211  37.633  1.00  0.00     0.030 A 
ATOM     22  C   UNL A   1      38.801  32.074  36.502  1.00  0.00     0.030 A 
BRANCH  18  23
ATOM     23  S   UNL A   1      36.563  31.934  39.875  1.00  0.00     0.238 S 
ATOM     24  O   UNL A   1      35.490  31.136  39.329  1.00  0.00    -0.207 OA
ATOM     25  O   UNL A   1      36.337  33.033  40.782  1.00  0.00    -0.207 OA
BRANCH  23  26
ATOM     26  N   UNL A   1      37.510  30.834  40.738  1.00  0.00    -0.225 NA
ATOM     27  H   UNL A   1      37.073  29.913  40.707  1.00  0.00     0.137 HD
ATOM     28  H   UNL A   1      37.587  31.140  41.708  1.00  0.00     0.137 HD
ENDBRANCH  23  26
ENDBRANCH  18  23
ENDBRANCH  13  17
BRANCH  15  29
ATOM     29  C   UNL A   1      43.598  34.762  34.633  1.00  0.00     0.435 C 
ATOM     30  F   UNL A   1      44.160  34.498  33.427  1.00  0.00    -0.164 F 
ATOM     31  F   UNL A   1      43.802  36.084  34.891  1.00  0.00    -0.164 F 
ATOM     32  F   UNL A   1      44.343  34.089  35.560  1.00  0.00    -0.164 F 
ENDBRANCH  15  29
ENDBRANCH   7  12
ENDBRANCH   5   6
ENDBRANCH   3   5
ENDBRANCH   2   3
ENDBRANCH   1   2
BRANCH   1  33
ATOM     33  C   UNL A   1      33.870  33.209  27.803  1.00  0.00     0.275 C 
BRANCH  33  34
ATOM     34  O   UNL A   1      35.210  32.718  27.805  1.00  0.00    -0.458 OA
BRANCH  34  35
ATOM     35  C   UNL A   1      35.257  31.368  27.778  1.00  0.00     0.338 C 
ATOM     36  O   UNL A   1      34.441  30.627  27.256  1.00  0.00    -0.246 OA
BRANCH  35  37
ATOM     37  C   UNL A   1      36.291  30.846  28.663  1.00  0.00     0.060 A 
ATOM     38  C   UNL A   1      37.303  31.731  29.056  1.00  0.00     0.016 A 
ATOM     39  C   UNL A   1      36.448  29.461  28.721  1.00  0.00     0.016 A 
ATOM     40  C   UNL A   1      38.557  31.231  29.313  1.00  0.00     0.010 A 
ATOM     41  C   UNL A   1      37.703  28.963  28.972  1.00  0.00     0.010 A 
ATOM     42  C   UNL A   1      38.755  29.858  29.184  1.00  0.00    -0.014 A 
BRANCH  42  43
ATOM     43  C   UNL A   1      40.081  29.333  29.431  1.00  0.00     0.031 A 
ATOM     44  C   UNL A   1      40.392  29.269  30.879  1.00  0.00     0.074 A 
ATOM     45  C   UNL A   1      40.818  28.797  28.439  1.00  0.00     0.049 A 
ATOM     46  N   UNL A   1      41.328  29.883  31.522  1.00  0.00    -0.248 NA
ATOM     47  C   UNL A   1      39.409  28.605  31.757  1.00  0.00     0.031 C 
ATOM     48  C   UNL A   1      40.428  28.597  27.041  1.00  0.00     0.029 A 
ATOM     49  N   UNL A   1      42.020  28.171  28.503  1.00  0.00    -0.354 N 
ATOM     50  C   UNL A   1      41.202  29.460  32.842  1.00  0.00     0.074 A 
ATOM     51  C   UNL A   1      39.884  28.911  32.963  1.00  0.00     0.031 C 
ATOM     52  C   UNL A   1      41.236  27.665  26.487  1.00  0.00     0.029 A 
ATOM     53  C   UNL A   1      42.250  27.281  27.458  1.00  0.00     0.049 A 
ATOM     54  H   UNL A   1      42.670  28.331  29.224  1.00  0.00     0.167 HD
ATOM     55  C   UNL A   1      42.295  29.309  33.637  1.00  0.00     0.034 A 
ATOM     56  C   UNL A   1      43.120  26.231  27.460  1.00  0.00     0.034 A 
ATOM     57  C   UNL A   1      43.420  30.054  33.116  1.00  0.00     0.049 A 
ATOM     58  C   UNL A   1      44.094  26.489  28.560  1.00  0.00     0.074 A 
ATOM     59  C   UNL A   1      43.610  31.380  32.771  1.00  0.00     0.029 A 
ATOM     60  N   UNL A   1      44.432  29.360  32.487  1.00  0.00    -0.354 N 
ATOM     61  N   UNL A   1      44.934  27.491  28.551  1.00  0.00    -0.248 NA
ATOM     62  C   UNL A   1      43.771  25.973  29.885  1.00  0.00     0.031 C 
ATOM     63  C   UNL A   1      44.364  31.336  31.562  1.00  0.00     0.029 A 
ATOM     64  C   UNL A   1      44.682  30.002  31.297  1.00  0.00     0.049 A 
ATOM     65  H   UNL A   1      44.889  28.558  32.827  1.00  0.00     0.167 HD
ATOM     66  C   UNL A   1      44.902  28.004  29.841  1.00  0.00     0.074 A 
ATOM     67  C   UNL A   1      44.228  26.980  30.638  1.00  0.00     0.031 C 
ATOM     68  C   UNL A   1      45.139  29.328  30.094  1.00  0.00     0.034 A 
BRANCH  55  69
ATOM     69  C   UNL A   1      42.453  28.188  34.642  1.00  0.00     0.023 A 
ATOM     70  C   UNL A   1      43.264  27.106  34.260  1.00  0.00     0.031 A 
ATOM     71  C   UNL A   1      41.650  27.978  35.788  1.00  0.00     0.131 A 
ATOM     72  C   UNL A   1      43.173  25.869  34.919  1.00  0.00     0.055 A 
ATOM     73  C   UNL A   1      41.620  26.769  36.488  1.00  0.00     0.041 A 
ATOM     74  F   UNL A   1      40.778  28.880  36.250  1.00  0.00    -0.206 F 
ATOM     75  C   UNL A   1      42.357  25.693  36.032  1.00  0.00     0.022 A 
BRANCH  72  76
ATOM     76  S   UNL A   1      43.994  24.444  34.168  1.00  0.00     0.124 S 
ATOM     77  O   UNL A   1      45.120  24.246  35.074  1.00  0.00    -0.237 OA
ATOM     78  O   UNL A   1      42.940  23.435  34.218  1.00  0.00    -0.237 OA
ATOM     79  O   UNL A   1      44.340  24.919  32.832  1.00  0.00    -0.744 OA
ENDBRANCH  72  76
ENDBRANCH  55  69
BRANCH  56  80
ATOM     80  C   UNL A   1      42.890  24.887  26.837  1.00  0.00     0.023 A 
ATOM     81  C   UNL A   1      43.834  24.240  26.006  1.00  0.00     0.031 A 
ATOM     82  C   UNL A   1      41.776  24.107  27.231  1.00  0.00     0.131 A 
ATOM     83  C   UNL A   1      43.627  22.895  25.595  1.00  0.00     0.055 A 
ATOM     84  C   UNL A   1      41.569  22.791  26.813  1.00  0.00     0.041 A 
ATOM     85  F   UNL A   1      40.877  24.568  28.116  1.00  0.00    -0.206 F 
ATOM     86  C   UNL A   1      42.500  22.175  25.996  1.00  0.00     0.022 A 
BRANCH  83  87
ATOM     87  S   UNL A   1      44.874  22.016  24.592  1.00  0.00     0.124 S 
ATOM     88  O   UNL A   1      44.182  20.780  24.246  1.00  0.00    -0.237 OA
ATOM     89  O   UNL A   1      45.117  22.954  23.501  1.00  0.00    -0.237 OA
ATOM     90  O   UNL A   1      46.000  21.851  25.513  1.00  0.00    -0.744 OA
ENDBRANCH  83  87
ENDBRANCH  56  80
BRANCH  68  91
ATOM     91  C   UNL A   1      45.706  30.209  28.996  1.00  0.00     0.023 A 
ATOM     92  C   UNL A   1      44.952  31.088  28.185  1.00  0.00     0.031 A 
ATOM     93  C   UNL A   1      47.108  30.258  28.874  1.00  0.00     0.131 A 
ATOM     94  C   UNL A   1      45.608  31.963  27.292  1.00  0.00     0.055 A 
ATOM     95  C   UNL A   1      47.752  31.140  28.009  1.00  0.00     0.041 A 
ATOM     96  F   UNL A   1      47.886  29.468  29.634  1.00  0.00    -0.206 F 
ATOM     97  C   UNL A   1      47.004  31.993  27.209  1.00  0.00     0.022 A 
BRANCH  94  98
ATOM     98  S   UNL A   1      44.658  33.067  26.196  1.00  0.00     0.124 S 
ATOM     99  O   UNL A   1      43.782  32.157  25.471  1.00  0.00    -0.237 OA
ATOM    100  O   UNL A   1      44.005  33.965  27.146  1.00  0.00    -0.237 OA
ATOM    101  O   UNL A   1      45.692  33.700  25.376  1.00  0.00    -0.744 OA
ENDBRANCH  94  98
ENDBRANCH  68  91
ENDBRANCH  42  43
ENDBRANCH  35  37
ENDBRANCH  34  35
ENDBRANCH  33  34
ENDBRANCH   1  33
TORSDOF 20
ENDMDL
