MODEL 1
REMARK VINA RESULT:     -12.4      0.000      0.000
REMARK SMILES CC1=C(C(=O)OCCOC(=O)c2ccc(-c3c4nc(c(-c5cc(S(=O)(=O)[O-])ccc5F)c5ccc([nH]5)c(-c5cc(S(=O)(=O)[O-])ccc5F)c5nc(c(-c6cc(S(=O)(=O)[O-])ccc6F)c6ccc3[nH]6)C=C5)C=C4)cc2)[C@H](c2ccc(Cl)cc2)n2ncnc2N1
REMARK SMILES IDX 8 1 7 2 6 3 4 4 5 5 3 6 1 7 2 8 88 9 75 10 87 11 83 13 86 14
REMARK SMILES IDX 84 15 85 16 76 17 77 18 82 19 78 20 81 21 79 22 80 23 9 24
REMARK SMILES IDX 10 25 11 26 12 27 13 28 74 29 14 30 73 31 15 32 16 33 17 34
REMARK SMILES IDX 67 35 18 36 72 37 66 38 68 39 19 40 71 41 65 42 64 43 20 45
REMARK SMILES IDX 52 46 32 47 51 48 33 49 36 50 50 51 69 52 34 53 35 54 49 56
REMARK SMILES IDX 70 57 37 58 21 59 22 60 30 61 23 62 29 63 31 64 28 65 24 66
REMARK SMILES IDX 25 67 26 68 27 69 53 70 54 71 62 72 55 73 61 74 63 75 60 76
REMARK SMILES IDX 56 77 57 78 58 79 59 80 38 81 39 82 47 83 40 84 46 85 48 86
REMARK SMILES IDX 45 87 41 88 42 89 43 90 44 91
REMARK H PARENT 88 12 68 44 36 55
REMARK Flexibility Score: inf
ROOT
ATOM      1  C   UNL A   1      34.703  30.207  27.621  1.00  0.00     0.275 C 
ENDROOT
BRANCH   1   2
ATOM      2  C   UNL A   1      34.546  28.888  26.884  1.00  0.00     0.275 C 
BRANCH   2   3
ATOM      3  O   UNL A   1      33.312  28.876  26.146  1.00  0.00    -0.459 OA
BRANCH   3   4
ATOM      4  C   UNL A   1      33.263  28.055  25.066  1.00  0.00     0.338 C 
ATOM      5  O   UNL A   1      34.024  28.150  24.114  1.00  0.00    -0.246 OA
BRANCH   4   6
ATOM      6  C   UNL A   1      32.271  26.954  25.232  1.00  0.00     0.085 C 
ATOM      7  C   UNL A   1      30.338  28.276  24.224  1.00  0.00     0.065 C 
ATOM      8  C   UNL A   1      30.957  27.075  24.896  1.00  0.00     0.028 C 
ATOM      9  N   UNL A   1      30.057  26.067  25.217  1.00  0.00    -0.328 N 
ATOM     10  C   UNL A   1      32.779  25.713  26.003  1.00  0.00     0.181 C 
ATOM     11  C   UNL A   1      30.365  25.019  25.995  1.00  0.00     0.226 A 
ATOM     12  H   UNL A   1      29.143  26.125  24.853  1.00  0.00     0.169 HD
ATOM     13  N   UNL A   1      31.648  24.876  26.450  1.00  0.00    -0.219 N 
ATOM     14  N   UNL A   1      29.625  24.034  26.438  1.00  0.00    -0.200 NA
ATOM     15  N   UNL A   1      31.758  23.790  27.251  1.00  0.00    -0.157 NA
ATOM     16  C   UNL A   1      30.504  23.325  27.214  1.00  0.00     0.248 A 
BRANCH  10  17
ATOM     17  C   UNL A   1      33.806  24.861  25.235  1.00  0.00    -0.018 A 
ATOM     18  C   UNL A   1      33.610  24.442  23.906  1.00  0.00     0.008 A 
ATOM     19  C   UNL A   1      35.004  24.477  25.868  1.00  0.00     0.008 A 
ATOM     20  C   UNL A   1      34.587  23.703  23.231  1.00  0.00     0.021 A 
ATOM     21  C   UNL A   1      36.006  23.791  25.178  1.00  0.00     0.021 A 
ATOM     22  C   UNL A   1      35.793  23.408  23.859  1.00  0.00     0.041 A 
ATOM     23  Cl  UNL A   1      37.028  22.573  22.998  1.00  0.00    -0.084 Cl
ENDBRANCH  10  17
ENDBRANCH   4   6
ENDBRANCH   3   4
ENDBRANCH   2   3
ENDBRANCH   1   2
BRANCH   1  24
ATOM     24  O   UNL A   1      36.066  30.451  27.970  1.00  0.00    -0.458 OA
BRANCH  24  25
ATOM     25  C   UNL A   1      36.480  29.804  29.085  1.00  0.00     0.338 C 
ATOM     26  O   UNL A   1      36.073  29.958  30.222  1.00  0.00    -0.246 OA
BRANCH  25  27
ATOM     27  C   UNL A   1      37.676  29.024  28.772  1.00  0.00     0.060 A 
ATOM     28  C   UNL A   1      38.185  28.182  29.768  1.00  0.00     0.016 A 
ATOM     29  C   UNL A   1      38.411  29.353  27.626  1.00  0.00     0.016 A 
ATOM     30  C   UNL A   1      39.497  27.766  29.670  1.00  0.00     0.010 A 
ATOM     31  C   UNL A   1      39.723  28.965  27.549  1.00  0.00     0.010 A 
ATOM     32  C   UNL A   1      40.265  28.220  28.595  1.00  0.00    -0.014 A 
BRANCH  32  33
ATOM     33  C   UNL A   1      41.642  27.789  28.478  1.00  0.00     0.031 A 
ATOM     34  C   UNL A   1      41.783  26.473  27.816  1.00  0.00     0.074 A 
ATOM     35  C   UNL A   1      42.671  28.612  28.751  1.00  0.00     0.049 A 
ATOM     36  N   UNL A   1      42.266  25.387  28.315  1.00  0.00    -0.248 NA
ATOM     37  C   UNL A   1      41.153  26.295  26.495  1.00  0.00     0.031 C 
ATOM     38  C   UNL A   1      42.607  30.024  29.137  1.00  0.00     0.029 A 
ATOM     39  N   UNL A   1      44.004  28.393  28.599  1.00  0.00    -0.354 N 
ATOM     40  C   UNL A   1      42.223  24.456  27.285  1.00  0.00     0.074 A 
ATOM     41  C   UNL A   1      41.330  24.989  26.296  1.00  0.00     0.031 C 
ATOM     42  C   UNL A   1      43.824  30.584  28.961  1.00  0.00     0.029 A 
ATOM     43  C   UNL A   1      44.768  29.554  28.553  1.00  0.00     0.049 A 
ATOM     44  H   UNL A   1      44.392  27.492  28.529  1.00  0.00     0.167 HD
ATOM     45  C   UNL A   1      43.136  23.451  27.210  1.00  0.00     0.034 A 
ATOM     46  C   UNL A   1      46.055  29.670  28.128  1.00  0.00     0.034 A 
ATOM     47  C   UNL A   1      43.800  23.258  28.480  1.00  0.00     0.049 A 
ATOM     48  C   UNL A   1      46.660  28.314  28.187  1.00  0.00     0.074 A 
ATOM     49  C   UNL A   1      43.355  22.989  29.761  1.00  0.00     0.029 A 
ATOM     50  N   UNL A   1      45.084  23.738  28.628  1.00  0.00    -0.354 N 
ATOM     51  N   UNL A   1      46.879  27.678  29.305  1.00  0.00    -0.248 NA
ATOM     52  C   UNL A   1      46.560  27.458  27.011  1.00  0.00     0.031 C 
ATOM     53  C   UNL A   1      44.176  23.787  30.610  1.00  0.00     0.029 A 
ATOM     54  C   UNL A   1      45.130  24.428  29.816  1.00  0.00     0.049 A 
ATOM     55  H   UNL A   1      45.829  23.611  27.998  1.00  0.00     0.167 HD
ATOM     56  C   UNL A   1      46.487  26.371  29.059  1.00  0.00     0.074 A 
ATOM     57  C   UNL A   1      46.416  26.268  27.603  1.00  0.00     0.031 C 
ATOM     58  C   UNL A   1      45.969  25.589  30.055  1.00  0.00     0.034 A 
BRANCH  45  59
ATOM     59  C   UNL A   1      43.681  22.899  25.913  1.00  0.00     0.023 A 
ATOM     60  C   UNL A   1      43.672  21.502  25.756  1.00  0.00     0.031 A 
ATOM     61  C   UNL A   1      44.449  23.618  24.964  1.00  0.00     0.131 A 
ATOM     62  C   UNL A   1      44.464  20.881  24.776  1.00  0.00     0.055 A 
ATOM     63  C   UNL A   1      45.173  22.999  23.943  1.00  0.00     0.041 A 
ATOM     64  F   UNL A   1      44.631  24.942  25.023  1.00  0.00    -0.206 F 
ATOM     65  C   UNL A   1      45.212  21.620  23.864  1.00  0.00     0.022 A 
BRANCH  62  66
ATOM     66  S   UNL A   1      44.646  19.081  24.841  1.00  0.00     0.124 S 
ATOM     67  O   UNL A   1      45.785  18.936  25.743  1.00  0.00    -0.237 OA
ATOM     68  O   UNL A   1      43.350  18.668  25.366  1.00  0.00    -0.237 OA
ATOM     69  O   UNL A   1      44.902  18.718  23.450  1.00  0.00    -0.744 OA
ENDBRANCH  62  66
ENDBRANCH  45  59
BRANCH  46  70
ATOM     70  C   UNL A   1      46.684  30.828  27.434  1.00  0.00     0.023 A 
ATOM     71  C   UNL A   1      45.938  31.908  26.917  1.00  0.00     0.031 A 
ATOM     72  C   UNL A   1      48.089  30.991  27.469  1.00  0.00     0.131 A 
ATOM     73  C   UNL A   1      46.597  33.075  26.458  1.00  0.00     0.055 A 
ATOM     74  C   UNL A   1      48.734  32.138  27.003  1.00  0.00     0.041 A 
ATOM     75  F   UNL A   1      48.884  30.072  28.039  1.00  0.00    -0.206 F 
ATOM     76  C   UNL A   1      47.989  33.191  26.502  1.00  0.00     0.022 A 
BRANCH  73  77
ATOM     77  S   UNL A   1      45.639  34.519  25.889  1.00  0.00     0.124 S 
ATOM     78  O   UNL A   1      44.517  34.534  26.819  1.00  0.00    -0.237 OA
ATOM     79  O   UNL A   1      46.603  35.605  26.014  1.00  0.00    -0.237 OA
ATOM     80  O   UNL A   1      45.289  34.173  24.510  1.00  0.00    -0.744 OA
ENDBRANCH  73  77
ENDBRANCH  46  70
BRANCH  58  81
ATOM     81  C   UNL A   1      46.075  26.086  31.487  1.00  0.00     0.023 A 
ATOM     82  C   UNL A   1      45.010  26.663  32.220  1.00  0.00     0.031 A 
ATOM     83  C   UNL A   1      47.284  25.868  32.170  1.00  0.00     0.131 A 
ATOM     84  C   UNL A   1      45.189  27.022  33.569  1.00  0.00     0.055 A 
ATOM     85  C   UNL A   1      47.449  26.200  33.514  1.00  0.00     0.041 A 
ATOM     86  F   UNL A   1      48.326  25.296  31.545  1.00  0.00    -0.206 F 
ATOM     87  C   UNL A   1      46.405  26.788  34.218  1.00  0.00     0.022 A 
BRANCH  84  88
ATOM     88  S   UNL A   1      43.846  27.830  34.500  1.00  0.00     0.124 S 
ATOM     89  O   UNL A   1      43.940  27.233  35.826  1.00  0.00    -0.237 OA
ATOM     90  O   UNL A   1      44.203  29.243  34.407  1.00  0.00    -0.237 OA
ATOM     91  O   UNL A   1      42.643  27.459  33.750  1.00  0.00    -0.744 OA
ENDBRANCH  84  88
ENDBRANCH  58  81
ENDBRANCH  32  33
ENDBRANCH  25  27
ENDBRANCH  24  25
ENDBRANCH   1  24
TORSDOF 15
ENDMDL
MODEL 2
REMARK VINA RESULT:     -12.4      2.425      7.046
REMARK SMILES CC1=C(C(=O)OCCOC(=O)c2ccc(-c3c4nc(c(-c5cc(S(=O)(=O)[O-])ccc5F)c5ccc([nH]5)c(-c5cc(S(=O)(=O)[O-])ccc5F)c5nc(c(-c6cc(S(=O)(=O)[O-])ccc6F)c6ccc3[nH]6)C=C5)C=C4)cc2)[C@H](c2ccc(Cl)cc2)n2ncnc2N1
REMARK SMILES IDX 8 1 7 2 6 3 4 4 5 5 3 6 1 7 2 8 88 9 75 10 87 11 83 13 86 14
REMARK SMILES IDX 84 15 85 16 76 17 77 18 82 19 78 20 81 21 79 22 80 23 9 24
REMARK SMILES IDX 10 25 11 26 12 27 13 28 74 29 14 30 73 31 15 32 16 33 17 34
REMARK SMILES IDX 67 35 18 36 72 37 66 38 68 39 19 40 71 41 65 42 64 43 20 45
REMARK SMILES IDX 52 46 32 47 51 48 33 49 36 50 50 51 69 52 34 53 35 54 49 56
REMARK SMILES IDX 70 57 37 58 21 59 22 60 30 61 23 62 29 63 31 64 28 65 24 66
REMARK SMILES IDX 25 67 26 68 27 69 53 70 54 71 62 72 55 73 61 74 63 75 60 76
REMARK SMILES IDX 56 77 57 78 58 79 59 80 38 81 39 82 47 83 40 84 46 85 48 86
REMARK SMILES IDX 45 87 41 88 42 89 43 90 44 91
REMARK H PARENT 88 12 68 44 36 55
REMARK Flexibility Score: inf
ROOT
ATOM      1  C   UNL A   1      33.513  31.212  27.316  1.00  0.00     0.275 C 
ENDROOT
BRANCH   1   2
ATOM      2  C   UNL A   1      32.750  29.977  26.869  1.00  0.00     0.275 C 
BRANCH   2   3
ATOM      3  O   UNL A   1      33.668  28.948  26.461  1.00  0.00    -0.459 OA
BRANCH   3   4
ATOM      4  C   UNL A   1      33.456  28.401  25.237  1.00  0.00     0.338 C 
ATOM      5  O   UNL A   1      34.114  28.691  24.248  1.00  0.00    -0.246 OA
BRANCH   4   6
ATOM      6  C   UNL A   1      32.428  27.321  25.266  1.00  0.00     0.085 C 
ATOM      7  C   UNL A   1      30.618  28.742  24.169  1.00  0.00     0.065 C 
ATOM      8  C   UNL A   1      31.150  27.494  24.829  1.00  0.00     0.028 C 
ATOM      9  N   UNL A   1      30.203  26.497  25.024  1.00  0.00    -0.328 N 
ATOM     10  C   UNL A   1      32.840  26.031  26.014  1.00  0.00     0.181 C 
ATOM     11  C   UNL A   1      30.420  25.404  25.773  1.00  0.00     0.226 A 
ATOM     12  H   UNL A   1      29.325  26.597  24.589  1.00  0.00     0.169 HD
ATOM     13  N   UNL A   1      31.657  25.205  26.324  1.00  0.00    -0.219 N 
ATOM     14  N   UNL A   1      29.622  24.421  26.103  1.00  0.00    -0.200 NA
ATOM     15  N   UNL A   1      31.674  24.080  27.077  1.00  0.00    -0.157 NA
ATOM     16  C   UNL A   1      30.416  23.651  26.913  1.00  0.00     0.248 A 
BRANCH  10  17
ATOM     17  C   UNL A   1      33.908  25.188  25.292  1.00  0.00    -0.018 A 
ATOM     18  C   UNL A   1      35.069  24.715  25.931  1.00  0.00     0.008 A 
ATOM     19  C   UNL A   1      33.733  24.860  23.934  1.00  0.00     0.008 A 
ATOM     20  C   UNL A   1      35.994  23.918  25.249  1.00  0.00     0.021 A 
ATOM     21  C   UNL A   1      34.625  24.015  23.267  1.00  0.00     0.021 A 
ATOM     22  C   UNL A   1      35.752  23.546  23.930  1.00  0.00     0.041 A 
ATOM     23  Cl  UNL A   1      36.848  22.495  23.120  1.00  0.00    -0.084 Cl
ENDBRANCH  10  17
ENDBRANCH   4   6
ENDBRANCH   3   4
ENDBRANCH   2   3
ENDBRANCH   1   2
BRANCH   1  24
ATOM     24  O   UNL A   1      34.503  30.889  28.294  1.00  0.00    -0.458 OA
BRANCH  24  25
ATOM     25  C   UNL A   1      35.612  31.664  28.241  1.00  0.00     0.338 C 
ATOM     26  O   UNL A   1      35.769  32.684  27.596  1.00  0.00    -0.246 OA
BRANCH  25  27
ATOM     27  C   UNL A   1      36.712  30.974  28.911  1.00  0.00     0.060 A 
ATOM     28  C   UNL A   1      37.830  31.732  29.278  1.00  0.00     0.016 A 
ATOM     29  C   UNL A   1      36.731  29.574  28.903  1.00  0.00     0.016 A 
ATOM     30  C   UNL A   1      39.020  31.076  29.520  1.00  0.00     0.010 A 
ATOM     31  C   UNL A   1      37.922  28.927  29.112  1.00  0.00     0.010 A 
ATOM     32  C   UNL A   1      39.062  29.688  29.367  1.00  0.00    -0.014 A 
BRANCH  32  33
ATOM     33  C   UNL A   1      40.302  28.987  29.621  1.00  0.00     0.031 A 
ATOM     34  C   UNL A   1      40.627  28.886  31.061  1.00  0.00     0.074 A 
ATOM     35  C   UNL A   1      40.953  28.319  28.651  1.00  0.00     0.049 A 
ATOM     36  N   UNL A   1      41.647  29.380  31.676  1.00  0.00    -0.248 NA
ATOM     37  C   UNL A   1      39.607  28.315  31.960  1.00  0.00     0.031 C 
ATOM     38  C   UNL A   1      40.536  28.135  27.259  1.00  0.00     0.029 A 
ATOM     39  N   UNL A   1      42.062  27.539  28.747  1.00  0.00    -0.354 N 
ATOM     40  C   UNL A   1      41.518  28.969  32.997  1.00  0.00     0.074 A 
ATOM     41  C   UNL A   1      40.157  28.537  33.153  1.00  0.00     0.031 C 
ATOM     42  C   UNL A   1      41.248  27.122  26.716  1.00  0.00     0.029 A 
ATOM     43  C   UNL A   1      42.232  26.660  27.683  1.00  0.00     0.049 A 
ATOM     44  H   UNL A   1      42.690  27.594  29.504  1.00  0.00     0.167 HD
ATOM     45  C   UNL A   1      42.611  28.764  33.778  1.00  0.00     0.034 A 
ATOM     46  C   UNL A   1      43.061  25.582  27.637  1.00  0.00     0.034 A 
ATOM     47  C   UNL A   1      43.776  29.411  33.218  1.00  0.00     0.049 A 
ATOM     48  C   UNL A   1      44.092  25.775  28.689  1.00  0.00     0.074 A 
ATOM     49  C   UNL A   1      44.067  30.714  32.856  1.00  0.00     0.029 A 
ATOM     50  N   UNL A   1      44.712  28.632  32.572  1.00  0.00    -0.354 N 
ATOM     51  N   UNL A   1      44.993  26.717  28.639  1.00  0.00    -0.248 NA
ATOM     52  C   UNL A   1      43.823  25.260  30.026  1.00  0.00     0.031 C 
ATOM     53  C   UNL A   1      44.806  30.602  31.642  1.00  0.00     0.029 A 
ATOM     54  C   UNL A   1      45.004  29.245  31.377  1.00  0.00     0.049 A 
ATOM     55  H   UNL A   1      45.099  27.790  32.905  1.00  0.00     0.167 HD
ATOM     56  C   UNL A   1      45.058  27.223  29.929  1.00  0.00     0.074 A 
ATOM     57  C   UNL A   1      44.409  26.212  30.762  1.00  0.00     0.031 C 
ATOM     58  C   UNL A   1      45.358  28.537  30.159  1.00  0.00     0.034 A 
BRANCH  45  59
ATOM     59  C   UNL A   1      42.706  27.689  34.836  1.00  0.00     0.023 A 
ATOM     60  C   UNL A   1      43.440  26.535  34.513  1.00  0.00     0.031 A 
ATOM     61  C   UNL A   1      41.907  27.602  36.003  1.00  0.00     0.131 A 
ATOM     62  C   UNL A   1      43.293  25.355  35.260  1.00  0.00     0.055 A 
ATOM     63  C   UNL A   1      41.825  26.449  36.786  1.00  0.00     0.041 A 
ATOM     64  F   UNL A   1      41.085  28.580  36.400  1.00  0.00    -0.206 F 
ATOM     65  C   UNL A   1      42.494  25.304  36.398  1.00  0.00     0.022 A 
BRANCH  62  66
ATOM     66  S   UNL A   1      44.018  23.832  34.602  1.00  0.00     0.124 S 
ATOM     67  O   UNL A   1      44.971  24.360  33.630  1.00  0.00    -0.237 OA
ATOM     68  O   UNL A   1      44.586  23.229  35.801  1.00  0.00    -0.237 OA
ATOM     69  O   UNL A   1      42.870  23.131  34.032  1.00  0.00    -0.744 OA
ENDBRANCH  62  66
ENDBRANCH  45  59
BRANCH  46  70
ATOM     70  C   UNL A   1      42.840  24.295  26.920  1.00  0.00     0.023 A 
ATOM     71  C   UNL A   1      43.807  23.713  26.073  1.00  0.00     0.031 A 
ATOM     72  C   UNL A   1      41.723  23.490  27.248  1.00  0.00     0.131 A 
ATOM     73  C   UNL A   1      43.631  22.395  25.588  1.00  0.00     0.055 A 
ATOM     74  C   UNL A   1      41.548  22.195  26.755  1.00  0.00     0.041 A 
ATOM     75  F   UNL A   1      40.800  23.903  28.130  1.00  0.00    -0.206 F 
ATOM     76  C   UNL A   1      42.507  21.637  25.929  1.00  0.00     0.022 A 
BRANCH  73  77
ATOM     77  S   UNL A   1      44.924  21.595  24.582  1.00  0.00     0.124 S 
ATOM     78  O   UNL A   1      44.629  22.090  23.244  1.00  0.00    -0.237 OA
ATOM     79  O   UNL A   1      46.151  22.083  25.201  1.00  0.00    -0.237 OA
ATOM     80  O   UNL A   1      44.672  20.166  24.777  1.00  0.00    -0.744 OA
ENDBRANCH  73  77
ENDBRANCH  46  70
BRANCH  58  81
ATOM     81  C   UNL A   1      45.876  29.369  28.998  1.00  0.00     0.023 A 
ATOM     82  C   UNL A   1      45.154  30.412  28.369  1.00  0.00     0.031 A 
ATOM     83  C   UNL A   1      47.202  29.160  28.582  1.00  0.00     0.131 A 
ATOM     84  C   UNL A   1      45.753  31.176  27.349  1.00  0.00     0.055 A 
ATOM     85  C   UNL A   1      47.802  29.937  27.590  1.00  0.00     0.041 A 
ATOM     86  F   UNL A   1      47.956  28.209  29.157  1.00  0.00    -0.206 F 
ATOM     87  C   UNL A   1      47.076  30.943  26.962  1.00  0.00     0.022 A 
BRANCH  84  88
ATOM     88  S   UNL A   1      44.808  32.473  26.485  1.00  0.00     0.124 S 
ATOM     89  O   UNL A   1      43.783  31.728  25.764  1.00  0.00    -0.237 OA
ATOM     90  O   UNL A   1      44.336  33.307  27.587  1.00  0.00    -0.237 OA
ATOM     91  O   UNL A   1      45.812  33.111  25.630  1.00  0.00    -0.744 OA
ENDBRANCH  84  88
ENDBRANCH  58  81
ENDBRANCH  32  33
ENDBRANCH  25  27
ENDBRANCH  24  25
ENDBRANCH   1  24
TORSDOF 15
ENDMDL
MODEL 3
REMARK VINA RESULT:     -12.3      2.765      7.234
REMARK SMILES CC1=C(C(=O)OCCOC(=O)c2ccc(-c3c4nc(c(-c5cc(S(=O)(=O)[O-])ccc5F)c5ccc([nH]5)c(-c5cc(S(=O)(=O)[O-])ccc5F)c5nc(c(-c6cc(S(=O)(=O)[O-])ccc6F)c6ccc3[nH]6)C=C5)C=C4)cc2)[C@H](c2ccc(Cl)cc2)n2ncnc2N1
REMARK SMILES IDX 8 1 7 2 6 3 4 4 5 5 3 6 1 7 2 8 88 9 75 10 87 11 83 13 86 14
REMARK SMILES IDX 84 15 85 16 76 17 77 18 82 19 78 20 81 21 79 22 80 23 9 24
REMARK SMILES IDX 10 25 11 26 12 27 13 28 74 29 14 30 73 31 15 32 16 33 17 34
REMARK SMILES IDX 67 35 18 36 72 37 66 38 68 39 19 40 71 41 65 42 64 43 20 45
REMARK SMILES IDX 52 46 32 47 51 48 33 49 36 50 50 51 69 52 34 53 35 54 49 56
REMARK SMILES IDX 70 57 37 58 21 59 22 60 30 61 23 62 29 63 31 64 28 65 24 66
REMARK SMILES IDX 25 67 26 68 27 69 53 70 54 71 62 72 55 73 61 74 63 75 60 76
REMARK SMILES IDX 56 77 57 78 58 79 59 80 38 81 39 82 47 83 40 84 46 85 48 86
REMARK SMILES IDX 45 87 41 88 42 89 43 90 44 91
REMARK H PARENT 88 12 68 44 36 55
REMARK Flexibility Score: inf
ROOT
ATOM      1  C   UNL A   1      33.699  30.991  27.374  1.00  0.00     0.275 C 
ENDROOT
BRANCH   1   2
ATOM      2  C   UNL A   1      32.844  29.978  26.631  1.00  0.00     0.275 C 
BRANCH   2   3
ATOM      3  O   UNL A   1      33.591  28.771  26.401  1.00  0.00    -0.459 OA
BRANCH   3   4
ATOM      4  C   UNL A   1      33.409  28.168  25.199  1.00  0.00     0.338 C 
ATOM      5  O   UNL A   1      34.068  28.436  24.205  1.00  0.00    -0.246 OA
BRANCH   4   6
ATOM      6  C   UNL A   1      32.413  27.059  25.264  1.00  0.00     0.085 C 
ATOM      7  C   UNL A   1      30.550  28.402  24.158  1.00  0.00     0.065 C 
ATOM      8  C   UNL A   1      31.126  27.185  24.839  1.00  0.00     0.028 C 
ATOM      9  N   UNL A   1      30.211  26.165  25.066  1.00  0.00    -0.328 N 
ATOM     10  C   UNL A   1      32.872  25.799  26.035  1.00  0.00     0.181 C 
ATOM     11  C   UNL A   1      30.469  25.096  25.836  1.00  0.00     0.226 A 
ATOM     12  H   UNL A   1      29.325  26.230  24.640  1.00  0.00     0.169 HD
ATOM     13  N   UNL A   1      31.717  24.945  26.376  1.00  0.00    -0.219 N 
ATOM     14  N   UNL A   1      29.704  24.098  26.197  1.00  0.00    -0.200 NA
ATOM     15  N   UNL A   1      31.776  23.839  27.153  1.00  0.00    -0.157 NA
ATOM     16  C   UNL A   1      30.530  23.369  27.014  1.00  0.00     0.248 A 
BRANCH  10  17
ATOM     17  C   UNL A   1      33.956  24.972  25.318  1.00  0.00    -0.018 A 
ATOM     18  C   UNL A   1      35.085  24.454  25.981  1.00  0.00     0.008 A 
ATOM     19  C   UNL A   1      33.831  24.705  23.941  1.00  0.00     0.008 A 
ATOM     20  C   UNL A   1      36.025  23.673  25.301  1.00  0.00     0.021 A 
ATOM     21  C   UNL A   1      34.736  23.877  23.274  1.00  0.00     0.021 A 
ATOM     22  C   UNL A   1      35.830  23.362  23.959  1.00  0.00     0.041 A 
ATOM     23  Cl  UNL A   1      36.943  22.331  23.146  1.00  0.00    -0.084 Cl
ENDBRANCH  10  17
ENDBRANCH   4   6
ENDBRANCH   3   4
ENDBRANCH   2   3
ENDBRANCH   1   2
BRANCH   1  24
ATOM     24  O   UNL A   1      34.817  30.365  28.006  1.00  0.00    -0.458 OA
BRANCH  24  25
ATOM     25  C   UNL A   1      35.720  31.231  28.523  1.00  0.00     0.338 C 
ATOM     26  O   UNL A   1      35.532  32.391  28.842  1.00  0.00    -0.246 OA
BRANCH  25  27
ATOM     27  C   UNL A   1      37.054  30.641  28.440  1.00  0.00     0.060 A 
ATOM     28  C   UNL A   1      37.156  29.320  27.987  1.00  0.00     0.016 A 
ATOM     29  C   UNL A   1      38.120  31.297  29.069  1.00  0.00     0.016 A 
ATOM     30  C   UNL A   1      38.302  28.609  28.281  1.00  0.00     0.010 A 
ATOM     31  C   UNL A   1      39.243  30.580  29.387  1.00  0.00     0.010 A 
ATOM     32  C   UNL A   1      39.300  29.232  29.036  1.00  0.00    -0.014 A 
BRANCH  32  33
ATOM     33  C   UNL A   1      40.508  28.500  29.349  1.00  0.00     0.031 A 
ATOM     34  C   UNL A   1      40.821  28.489  30.795  1.00  0.00     0.074 A 
ATOM     35  C   UNL A   1      41.136  27.739  28.434  1.00  0.00     0.049 A 
ATOM     36  N   UNL A   1      41.858  28.983  31.381  1.00  0.00    -0.248 NA
ATOM     37  C   UNL A   1      39.774  28.026  31.724  1.00  0.00     0.031 C 
ATOM     38  C   UNL A   1      40.718  27.473  27.055  1.00  0.00     0.029 A 
ATOM     39  N   UNL A   1      42.211  26.923  28.594  1.00  0.00    -0.354 N 
ATOM     40  C   UNL A   1      41.706  28.673  32.726  1.00  0.00     0.074 A 
ATOM     41  C   UNL A   1      40.328  28.310  32.902  1.00  0.00     0.031 C 
ATOM     42  C   UNL A   1      41.390  26.396  26.591  1.00  0.00     0.029 A 
ATOM     43  C   UNL A   1      42.349  25.964  27.596  1.00  0.00     0.049 A 
ATOM     44  H   UNL A   1      42.837  27.005  29.349  1.00  0.00     0.167 HD
ATOM     45  C   UNL A   1      42.786  28.480  33.529  1.00  0.00     0.034 A 
ATOM     46  C   UNL A   1      43.133  24.852  27.633  1.00  0.00     0.034 A 
ATOM     47  C   UNL A   1      43.980  29.037  32.934  1.00  0.00     0.049 A 
ATOM     48  C   UNL A   1      44.166  25.077  28.677  1.00  0.00     0.074 A 
ATOM     49  C   UNL A   1      44.326  30.298  32.482  1.00  0.00     0.029 A 
ATOM     50  N   UNL A   1      44.885  28.175  32.352  1.00  0.00    -0.354 N 
ATOM     51  N   UNL A   1      45.106  25.975  28.567  1.00  0.00    -0.248 NA
ATOM     52  C   UNL A   1      43.870  24.670  30.045  1.00  0.00     0.031 C 
ATOM     53  C   UNL A   1      45.065  30.069  31.285  1.00  0.00     0.029 A 
ATOM     54  C   UNL A   1      45.208  28.690  31.118  1.00  0.00     0.049 A 
ATOM     55  H   UNL A   1      45.235  27.344  32.746  1.00  0.00     0.167 HD
ATOM     56  C   UNL A   1      45.185  26.568  29.818  1.00  0.00     0.074 A 
ATOM     57  C   UNL A   1      44.491  25.647  30.716  1.00  0.00     0.031 C 
ATOM     58  C   UNL A   1      45.538  27.883  29.957  1.00  0.00     0.034 A 
BRANCH  45  59
ATOM     59  C   UNL A   1      42.830  27.479  34.661  1.00  0.00     0.023 A 
ATOM     60  C   UNL A   1      43.552  26.294  34.441  1.00  0.00     0.031 A 
ATOM     61  C   UNL A   1      41.998  27.488  35.807  1.00  0.00     0.131 A 
ATOM     62  C   UNL A   1      43.362  25.171  35.263  1.00  0.00     0.055 A 
ATOM     63  C   UNL A   1      41.872  26.394  36.666  1.00  0.00     0.041 A 
ATOM     64  F   UNL A   1      41.183  28.504  36.112  1.00  0.00    -0.206 F 
ATOM     65  C   UNL A   1      42.531  25.213  36.378  1.00  0.00     0.022 A 
BRANCH  62  66
ATOM     66  S   UNL A   1      44.077  23.595  34.734  1.00  0.00     0.124 S 
ATOM     67  O   UNL A   1      42.920  22.936  34.136  1.00  0.00    -0.237 OA
ATOM     68  O   UNL A   1      45.118  24.033  33.812  1.00  0.00    -0.237 OA
ATOM     69  O   UNL A   1      44.555  23.005  35.982  1.00  0.00    -0.744 OA
ENDBRANCH  62  66
ENDBRANCH  45  59
BRANCH  46  70
ATOM     70  C   UNL A   1      42.862  23.527  27.008  1.00  0.00     0.023 A 
ATOM     71  C   UNL A   1      43.830  22.818  26.264  1.00  0.00     0.031 A 
ATOM     72  C   UNL A   1      41.678  22.824  27.334  1.00  0.00     0.131 A 
ATOM     73  C   UNL A   1      43.589  21.478  25.875  1.00  0.00     0.055 A 
ATOM     74  C   UNL A   1      41.441  21.507  26.936  1.00  0.00     0.041 A 
ATOM     75  F   UNL A   1      40.742  23.365  28.129  1.00  0.00    -0.206 F 
ATOM     76  C   UNL A   1      42.402  20.824  26.210  1.00  0.00     0.022 A 
BRANCH  73  77
ATOM     77  S   UNL A   1      44.875  20.519  25.008  1.00  0.00     0.124 S 
ATOM     78  O   UNL A   1      44.601  19.158  25.451  1.00  0.00    -0.237 OA
ATOM     79  O   UNL A   1      44.599  20.816  23.607  1.00  0.00    -0.237 OA
ATOM     80  O   UNL A   1      46.125  21.090  25.514  1.00  0.00    -0.744 OA
ENDBRANCH  73  77
ENDBRANCH  46  70
BRANCH  58  81
ATOM     81  C   UNL A   1      46.096  28.607  28.743  1.00  0.00     0.023 A 
ATOM     82  C   UNL A   1      47.442  28.536  28.311  1.00  0.00     0.031 A 
ATOM     83  C   UNL A   1      45.194  29.317  27.931  1.00  0.00     0.131 A 
ATOM     84  C   UNL A   1      47.843  29.183  27.126  1.00  0.00     0.055 A 
ATOM     85  C   UNL A   1      45.590  29.934  26.744  1.00  0.00     0.041 A 
ATOM     86  F   UNL A   1      43.896  29.399  28.264  1.00  0.00    -0.206 F 
ATOM     87  C   UNL A   1      46.919  29.878  26.342  1.00  0.00     0.022 A 
BRANCH  84  88
ATOM     88  S   UNL A   1      49.588  29.156  26.600  1.00  0.00     0.124 S 
ATOM     89  O   UNL A   1      49.977  30.560  26.628  1.00  0.00    -0.237 OA
ATOM     90  O   UNL A   1      50.209  28.300  27.607  1.00  0.00    -0.237 OA
ATOM     91  O   UNL A   1      49.528  28.568  25.259  1.00  0.00    -0.744 OA
ENDBRANCH  84  88
ENDBRANCH  58  81
ENDBRANCH  32  33
ENDBRANCH  25  27
ENDBRANCH  24  25
ENDBRANCH   1  24
TORSDOF 15
ENDMDL
