MODEL 1
REMARK VINA RESULT:     -12.2      0.000      0.000
REMARK SMILES N#Cc1ccc(C(=O)N2CCC(Oc3ccccc3)(C(=O)OCCOC(=O)c3ccc(-c4c5nc(c(-c6cc(S(=O)(=O)[O-])ccc6F)c6ccc([nH]6)c(-c6cc(S(=O)(=O)[O-])ccc6F)c6nc(c(-c7cc(S(=O)(=O)[O-])ccc7F)c7ccc4[nH]7)C=C6)C=C5)cc3)CC2)cc1
REMARK SMILES IDX 24 1 23 2 22 3 20 4 21 5 12 6 7 7 8 8 9 9 10 10 92 11 11 12
REMARK SMILES IDX 91 13 6 14 3 15 4 16 94 17 5 18 93 19 2 20 1 21 13 22 14 23
REMARK SMILES IDX 15 24 19 25 16 26 18 27 17 28 25 29 26 30 27 31 28 32 29 33
REMARK SMILES IDX 90 34 30 35 89 36 31 37 32 38 33 39 83 40 34 41 88 42 82 43
REMARK SMILES IDX 84 44 35 45 87 46 81 47 80 48 36 50 68 51 48 52 67 53 49 54
REMARK SMILES IDX 52 55 66 56 85 57 50 58 51 59 65 61 86 62 53 63 37 64 38 65
REMARK SMILES IDX 46 66 39 67 45 68 47 69 44 70 40 71 41 72 42 73 43 74 69 75
REMARK SMILES IDX 70 76 78 77 71 78 77 79 79 80 76 81 72 82 73 83 74 84 75 85
REMARK SMILES IDX 54 86 55 87 63 88 56 89 62 90 64 91 61 92 57 93 58 94 59 95
REMARK SMILES IDX 60 96
REMARK H PARENT 84 49 52 60
REMARK Flexibility Score: inf
ROOT
ATOM      1  C   UNL A   1      32.349  30.246  26.149  1.00  0.00     0.275 C 
ENDROOT
BRANCH   1   2
ATOM      2  C   UNL A   1      33.255  29.499  25.171  1.00  0.00     0.274 C 
BRANCH   2   3
ATOM      3  O   UNL A   1      32.841  29.704  23.798  1.00  0.00    -0.459 OA
BRANCH   3   4
ATOM      4  C   UNL A   1      32.963  28.628  22.969  1.00  0.00     0.350 C 
ATOM      5  O   UNL A   1      33.986  28.405  22.324  1.00  0.00    -0.247 OA
BRANCH   4   6
ATOM      6  C   UNL A   1      31.674  27.793  22.808  1.00  0.00     0.209 C 
ATOM      7  C   UNL A   1      31.599  23.762  24.368  1.00  0.00     0.253 C 
ATOM      8  O   UNL A   1      30.496  23.367  24.739  1.00  0.00    -0.269 OA
ATOM      9  N   UNL A   1      31.775  25.062  23.888  1.00  0.00    -0.338 N 
ATOM     10  C   UNL A   1      31.524  26.161  24.801  1.00  0.00     0.124 C 
ATOM     11  C   UNL A   1      32.525  25.366  22.692  1.00  0.00     0.124 C 
ATOM     12  C   UNL A   1      30.969  27.396  24.114  1.00  0.00     0.082 C 
ATOM     13  C   UNL A   1      31.938  26.552  21.919  1.00  0.00     0.082 C 
BRANCH   7  14
ATOM     14  C   UNL A   1      32.805  22.904  24.623  1.00  0.00     0.040 A 
ATOM     15  C   UNL A   1      35.161  21.345  24.810  1.00  0.00     0.052 A 
ATOM     16  C   UNL A   1      35.202  22.721  25.042  1.00  0.00     0.020 A 
ATOM     17  C   UNL A   1      33.946  20.755  24.457  1.00  0.00     0.020 A 
ATOM     18  C   UNL A   1      34.031  23.496  24.952  1.00  0.00     0.015 A 
ATOM     19  C   UNL A   1      32.783  21.530  24.359  1.00  0.00     0.015 A 
BRANCH  15  20
ATOM     20  C   UNL A   1      36.331  20.528  24.946  1.00  0.00     0.099 C 
ATOM     21  N   UNL A   1      37.247  19.829  25.122  1.00  0.00    -0.192 NA
ENDBRANCH  15  20
ENDBRANCH   7  14
BRANCH   6  22
ATOM     22  O   UNL A   1      30.935  28.878  22.136  1.00  0.00    -0.475 OA
BRANCH  22  23
ATOM     23  C   UNL A   1      29.701  29.184  22.620  1.00  0.00     0.121 A 
ATOM     24  C   UNL A   1      28.746  28.174  22.732  1.00  0.00     0.046 A 
ATOM     25  C   UNL A   1      29.363  30.504  22.897  1.00  0.00     0.046 A 
ATOM     26  C   UNL A   1      27.477  28.482  23.224  1.00  0.00     0.004 A 
ATOM     27  C   UNL A   1      28.107  30.806  23.417  1.00  0.00     0.004 A 
ATOM     28  C   UNL A   1      27.167  29.793  23.588  1.00  0.00     0.000 A 
ENDBRANCH  22  23
ENDBRANCH   6  22
ENDBRANCH   4   6
ENDBRANCH   3   4
ENDBRANCH   2   3
ENDBRANCH   1   2
BRANCH   1  29
ATOM     29  O   UNL A   1      32.962  30.312  27.453  1.00  0.00    -0.458 OA
BRANCH  29  30
ATOM     30  C   UNL A   1      33.777  31.375  27.604  1.00  0.00     0.338 C 
ATOM     31  O   UNL A   1      33.435  32.549  27.637  1.00  0.00    -0.246 OA
BRANCH  30  32
ATOM     32  C   UNL A   1      35.180  31.003  27.841  1.00  0.00     0.060 A 
ATOM     33  C   UNL A   1      35.460  29.708  28.261  1.00  0.00     0.016 A 
ATOM     34  C   UNL A   1      36.117  32.018  28.037  1.00  0.00     0.016 A 
ATOM     35  C   UNL A   1      36.588  29.467  29.038  1.00  0.00     0.010 A 
ATOM     36  C   UNL A   1      37.331  31.730  28.674  1.00  0.00     0.010 A 
ATOM     37  C   UNL A   1      37.571  30.454  29.202  1.00  0.00    -0.014 A 
BRANCH  37  38
ATOM     38  C   UNL A   1      38.894  30.094  29.777  1.00  0.00     0.031 A 
ATOM     39  C   UNL A   1      39.819  29.102  29.131  1.00  0.00     0.074 A 
ATOM     40  C   UNL A   1      39.237  30.653  30.951  1.00  0.00     0.049 A 
ATOM     41  N   UNL A   1      40.835  28.448  29.634  1.00  0.00    -0.248 NA
ATOM     42  C   UNL A   1      39.556  28.804  27.725  1.00  0.00     0.031 C 
ATOM     43  C   UNL A   1      38.475  31.689  31.654  1.00  0.00     0.029 A 
ATOM     44  N   UNL A   1      40.310  30.422  31.766  1.00  0.00    -0.354 N 
ATOM     45  C   UNL A   1      41.289  27.604  28.622  1.00  0.00     0.074 A 
ATOM     46  C   UNL A   1      40.430  27.836  27.482  1.00  0.00     0.031 C 
ATOM     47  C   UNL A   1      39.127  32.039  32.765  1.00  0.00     0.029 A 
ATOM     48  C   UNL A   1      40.255  31.140  32.932  1.00  0.00     0.049 A 
ATOM     49  H   UNL A   1      41.044  29.806  31.538  1.00  0.00     0.167 HD
ATOM     50  C   UNL A   1      42.325  26.723  28.653  1.00  0.00     0.034 A 
ATOM     51  C   UNL A   1      40.972  31.033  34.062  1.00  0.00     0.034 A 
ATOM     52  C   UNL A   1      43.191  26.573  29.801  1.00  0.00     0.049 A 
ATOM     53  C   UNL A   1      42.038  29.987  34.130  1.00  0.00     0.074 A 
ATOM     54  C   UNL A   1      44.289  25.744  29.959  1.00  0.00     0.029 A 
ATOM     55  N   UNL A   1      43.056  27.276  30.994  1.00  0.00    -0.354 N 
ATOM     56  N   UNL A   1      42.414  29.133  33.208  1.00  0.00    -0.248 NA
ATOM     57  C   UNL A   1      42.769  29.886  35.395  1.00  0.00     0.031 C 
ATOM     58  C   UNL A   1      44.758  25.882  31.269  1.00  0.00     0.029 A 
ATOM     59  C   UNL A   1      44.019  26.868  31.903  1.00  0.00     0.049 A 
ATOM     60  H   UNL A   1      42.373  27.963  31.167  1.00  0.00     0.167 HD
ATOM     61  C   UNL A   1      43.453  28.406  33.775  1.00  0.00     0.074 A 
ATOM     62  C   UNL A   1      43.648  28.937  35.111  1.00  0.00     0.031 C 
ATOM     63  C   UNL A   1      44.184  27.396  33.237  1.00  0.00     0.034 A 
BRANCH  50  64
ATOM     64  C   UNL A   1      42.531  25.812  27.456  1.00  0.00     0.023 A 
ATOM     65  C   UNL A   1      41.936  24.543  27.357  1.00  0.00     0.031 A 
ATOM     66  C   UNL A   1      43.374  26.215  26.400  1.00  0.00     0.131 A 
ATOM     67  C   UNL A   1      42.263  23.691  26.287  1.00  0.00     0.055 A 
ATOM     68  C   UNL A   1      43.622  25.399  25.293  1.00  0.00     0.041 A 
ATOM     69  F   UNL A   1      43.984  27.410  26.430  1.00  0.00    -0.206 F 
ATOM     70  C   UNL A   1      43.084  24.119  25.242  1.00  0.00     0.022 A 
BRANCH  67  71
ATOM     71  S   UNL A   1      41.755  21.951  26.377  1.00  0.00     0.124 S 
ATOM     72  O   UNL A   1      42.584  21.346  25.337  1.00  0.00    -0.237 OA
ATOM     73  O   UNL A   1      42.094  21.594  27.749  1.00  0.00    -0.237 OA
ATOM     74  O   UNL A   1      40.327  21.993  26.072  1.00  0.00    -0.744 OA
ENDBRANCH  67  71
ENDBRANCH  50  64
BRANCH  51  75
ATOM     75  C   UNL A   1      40.662  31.929  35.204  1.00  0.00     0.023 A 
ATOM     76  C   UNL A   1      39.482  31.742  35.930  1.00  0.00     0.031 A 
ATOM     77  C   UNL A   1      41.552  32.936  35.621  1.00  0.00     0.131 A 
ATOM     78  C   UNL A   1      39.204  32.569  37.023  1.00  0.00     0.055 A 
ATOM     79  C   UNL A   1      41.303  33.712  36.752  1.00  0.00     0.041 A 
ATOM     80  F   UNL A   1      42.706  33.142  34.964  1.00  0.00    -0.206 F 
ATOM     81  C   UNL A   1      40.116  33.537  37.455  1.00  0.00     0.022 A 
BRANCH  78  82
ATOM     82  S   UNL A   1      37.591  32.404  37.824  1.00  0.00     0.124 S 
ATOM     83  O   UNL A   1      37.772  33.220  39.019  1.00  0.00    -0.237 OA
ATOM     84  O   UNL A   1      36.692  32.943  36.809  1.00  0.00    -0.237 OA
ATOM     85  O   UNL A   1      37.476  30.967  38.059  1.00  0.00    -0.744 OA
ENDBRANCH  78  82
ENDBRANCH  51  75
BRANCH  63  86
ATOM     86  C   UNL A   1      45.288  26.835  34.093  1.00  0.00     0.023 A 
ATOM     87  C   UNL A   1      45.099  25.681  34.871  1.00  0.00     0.031 A 
ATOM     88  C   UNL A   1      46.538  27.475  34.146  1.00  0.00     0.131 A 
ATOM     89  C   UNL A   1      46.126  25.235  35.715  1.00  0.00     0.055 A 
ATOM     90  C   UNL A   1      47.582  26.982  34.928  1.00  0.00     0.041 A 
ATOM     91  F   UNL A   1      46.768  28.589  33.431  1.00  0.00    -0.206 F 
ATOM     92  C   UNL A   1      47.373  25.863  35.729  1.00  0.00     0.022 A 
BRANCH  89  93
ATOM     93  S   UNL A   1      45.767  23.891  36.877  1.00  0.00     0.124 S 
ATOM     94  O   UNL A   1      44.741  23.140  36.161  1.00  0.00    -0.237 OA
ATOM     95  O   UNL A   1      47.064  23.234  37.006  1.00  0.00    -0.237 OA
ATOM     96  O   UNL A   1      45.304  24.589  38.074  1.00  0.00    -0.744 OA
ENDBRANCH  89  93
ENDBRANCH  63  86
ENDBRANCH  37  38
ENDBRANCH  30  32
ENDBRANCH  29  30
ENDBRANCH   1  29
TORSDOF 18
ENDMDL
MODEL 2
REMARK VINA RESULT:     -12.0      4.928     10.169
REMARK SMILES N#Cc1ccc(C(=O)N2CCC(Oc3ccccc3)(C(=O)OCCOC(=O)c3ccc(-c4c5nc(c(-c6cc(S(=O)(=O)[O-])ccc6F)c6ccc([nH]6)c(-c6cc(S(=O)(=O)[O-])ccc6F)c6nc(c(-c7cc(S(=O)(=O)[O-])ccc7F)c7ccc4[nH]7)C=C6)C=C5)cc3)CC2)cc1
REMARK SMILES IDX 24 1 23 2 22 3 20 4 21 5 12 6 7 7 8 8 9 9 10 10 92 11 11 12
REMARK SMILES IDX 91 13 6 14 3 15 4 16 94 17 5 18 93 19 2 20 1 21 13 22 14 23
REMARK SMILES IDX 15 24 19 25 16 26 18 27 17 28 25 29 26 30 27 31 28 32 29 33
REMARK SMILES IDX 90 34 30 35 89 36 31 37 32 38 33 39 83 40 34 41 88 42 82 43
REMARK SMILES IDX 84 44 35 45 87 46 81 47 80 48 36 50 68 51 48 52 67 53 49 54
REMARK SMILES IDX 52 55 66 56 85 57 50 58 51 59 65 61 86 62 53 63 37 64 38 65
REMARK SMILES IDX 46 66 39 67 45 68 47 69 44 70 40 71 41 72 42 73 43 74 69 75
REMARK SMILES IDX 70 76 78 77 71 78 77 79 79 80 76 81 72 82 73 83 74 84 75 85
REMARK SMILES IDX 54 86 55 87 63 88 56 89 62 90 64 91 61 92 57 93 58 94 59 95
REMARK SMILES IDX 60 96
REMARK H PARENT 84 49 52 60
REMARK Flexibility Score: inf
ROOT
ATOM      1  C   UNL A   1      37.774  20.940  24.587  1.00  0.00     0.275 C 
ENDROOT
BRANCH   1   2
ATOM      2  C   UNL A   1      36.574  20.112  25.046  1.00  0.00     0.274 C 
BRANCH   2   3
ATOM      3  O   UNL A   1      35.613  20.921  25.770  1.00  0.00    -0.459 OA
BRANCH   3   4
ATOM      4  C   UNL A   1      34.619  21.481  25.022  1.00  0.00     0.350 C 
ATOM      5  O   UNL A   1      34.837  22.045  23.951  1.00  0.00    -0.247 OA
BRANCH   4   6
ATOM      6  C   UNL A   1      33.227  21.463  25.690  1.00  0.00     0.209 C 
ATOM      7  C   UNL A   1      31.203  25.220  26.380  1.00  0.00     0.253 C 
ATOM      8  O   UNL A   1      29.976  25.164  26.353  1.00  0.00    -0.269 OA
ATOM      9  N   UNL A   1      31.982  24.089  26.124  1.00  0.00    -0.338 N 
ATOM     10  C   UNL A   1      31.891  23.487  24.808  1.00  0.00     0.124 C 
ATOM     11  C   UNL A   1      33.116  23.713  26.937  1.00  0.00     0.124 C 
ATOM     12  C   UNL A   1      32.066  21.978  24.826  1.00  0.00     0.082 C 
ATOM     13  C   UNL A   1      33.270  22.193  27.056  1.00  0.00     0.082 C 
BRANCH   7  14
ATOM     14  C   UNL A   1      31.870  26.561  26.488  1.00  0.00     0.040 A 
ATOM     15  C   UNL A   1      33.262  28.984  26.953  1.00  0.00     0.052 A 
ATOM     16  C   UNL A   1      33.871  27.938  26.257  1.00  0.00     0.020 A 
ATOM     17  C   UNL A   1      31.966  28.806  27.440  1.00  0.00     0.020 A 
ATOM     18  C   UNL A   1      33.179  26.735  26.023  1.00  0.00     0.015 A 
ATOM     19  C   UNL A   1      31.281  27.604  27.215  1.00  0.00     0.015 A 
BRANCH  15  20
ATOM     20  C   UNL A   1      33.929  30.236  27.157  1.00  0.00     0.099 C 
ATOM     21  N   UNL A   1      34.397  31.288  27.332  1.00  0.00    -0.192 NA
ENDBRANCH  15  20
ENDBRANCH   7  14
BRANCH   6  22
ATOM     22  O   UNL A   1      33.181  19.992  25.786  1.00  0.00    -0.475 OA
BRANCH  22  23
ATOM     23  C   UNL A   1      33.009  19.298  24.629  1.00  0.00     0.121 A 
ATOM     24  C   UNL A   1      33.643  18.066  24.476  1.00  0.00     0.046 A 
ATOM     25  C   UNL A   1      32.298  19.858  23.572  1.00  0.00     0.046 A 
ATOM     26  C   UNL A   1      33.474  17.349  23.290  1.00  0.00     0.004 A 
ATOM     27  C   UNL A   1      32.104  19.130  22.402  1.00  0.00     0.004 A 
ATOM     28  C   UNL A   1      32.685  17.871  22.264  1.00  0.00     0.000 A 
ENDBRANCH  22  23
ENDBRANCH   6  22
ENDBRANCH   4   6
ENDBRANCH   3   4
ENDBRANCH   2   3
ENDBRANCH   1   2
BRANCH   1  29
ATOM     29  O   UNL A   1      38.047  21.995  25.532  1.00  0.00    -0.458 OA
BRANCH  29  30
ATOM     30  C   UNL A   1      39.168  21.788  26.250  1.00  0.00     0.338 C 
ATOM     31  O   UNL A   1      39.852  20.775  26.246  1.00  0.00    -0.246 OA
BRANCH  30  32
ATOM     32  C   UNL A   1      39.598  22.971  27.011  1.00  0.00     0.060 A 
ATOM     33  C   UNL A   1      39.199  24.226  26.565  1.00  0.00     0.016 A 
ATOM     34  C   UNL A   1      40.685  22.852  27.877  1.00  0.00     0.016 A 
ATOM     35  C   UNL A   1      39.996  25.334  26.832  1.00  0.00     0.010 A 
ATOM     36  C   UNL A   1      41.383  23.997  28.279  1.00  0.00     0.010 A 
ATOM     37  C   UNL A   1      41.059  25.251  27.742  1.00  0.00    -0.014 A 
BRANCH  37  38
ATOM     38  C   UNL A   1      41.708  26.493  28.240  1.00  0.00     0.031 A 
ATOM     39  C   UNL A   1      40.971  27.531  29.039  1.00  0.00     0.074 A 
ATOM     40  C   UNL A   1      42.994  26.702  27.908  1.00  0.00     0.049 A 
ATOM     41  N   UNL A   1      41.276  28.781  29.277  1.00  0.00    -0.248 NA
ATOM     42  C   UNL A   1      39.716  27.098  29.648  1.00  0.00     0.031 C 
ATOM     43  C   UNL A   1      43.856  25.747  27.205  1.00  0.00     0.029 A 
ATOM     44  N   UNL A   1      43.799  27.787  28.110  1.00  0.00    -0.354 N 
ATOM     45  C   UNL A   1      40.210  29.306  30.005  1.00  0.00     0.074 A 
ATOM     46  C   UNL A   1      39.256  28.230  30.164  1.00  0.00     0.031 C 
ATOM     47  C   UNL A   1      45.078  26.267  27.079  1.00  0.00     0.029 A 
ATOM     48  C   UNL A   1      45.038  27.644  27.539  1.00  0.00     0.049 A 
ATOM     49  H   UNL A   1      43.520  28.587  28.614  1.00  0.00     0.167 HD
ATOM     50  C   UNL A   1      40.052  30.567  30.490  1.00  0.00     0.034 A 
ATOM     51  C   UNL A   1      46.011  28.541  27.320  1.00  0.00     0.034 A 
ATOM     52  C   UNL A   1      41.065  31.590  30.356  1.00  0.00     0.049 A 
ATOM     53  C   UNL A   1      45.787  29.953  27.757  1.00  0.00     0.074 A 
ATOM     54  C   UNL A   1      41.051  32.894  30.820  1.00  0.00     0.029 A 
ATOM     55  N   UNL A   1      42.283  31.419  29.705  1.00  0.00    -0.354 N 
ATOM     56  N   UNL A   1      44.749  30.471  28.370  1.00  0.00    -0.248 NA
ATOM     57  C   UNL A   1      46.863  30.902  27.465  1.00  0.00     0.031 C 
ATOM     58  C   UNL A   1      42.214  33.531  30.377  1.00  0.00     0.029 A 
ATOM     59  C   UNL A   1      43.005  32.603  29.719  1.00  0.00     0.049 A 
ATOM     60  H   UNL A   1      42.588  30.579  29.294  1.00  0.00     0.167 HD
ATOM     61  C   UNL A   1      45.060  31.810  28.564  1.00  0.00     0.074 A 
ATOM     62  C   UNL A   1      46.389  32.009  28.015  1.00  0.00     0.031 C 
ATOM     63  C   UNL A   1      44.319  32.786  29.149  1.00  0.00     0.034 A 
BRANCH  50  64
ATOM     64  C   UNL A   1      38.727  30.930  31.136  1.00  0.00     0.023 A 
ATOM     65  C   UNL A   1      37.739  31.679  30.474  1.00  0.00     0.031 A 
ATOM     66  C   UNL A   1      38.459  30.540  32.464  1.00  0.00     0.131 A 
ATOM     67  C   UNL A   1      36.586  32.094  31.163  1.00  0.00     0.055 A 
ATOM     68  C   UNL A   1      37.269  30.877  33.114  1.00  0.00     0.041 A 
ATOM     69  F   UNL A   1      39.359  29.829  33.163  1.00  0.00    -0.206 F 
ATOM     70  C   UNL A   1      36.334  31.679  32.472  1.00  0.00     0.022 A 
BRANCH  67  71
ATOM     71  S   UNL A   1      35.515  33.340  30.391  1.00  0.00     0.124 S 
ATOM     72  O   UNL A   1      34.230  32.646  30.360  1.00  0.00    -0.237 OA
ATOM     73  O   UNL A   1      35.613  34.458  31.320  1.00  0.00    -0.237 OA
ATOM     74  O   UNL A   1      36.125  33.554  29.081  1.00  0.00    -0.744 OA
ENDBRANCH  67  71
ENDBRANCH  50  64
BRANCH  51  75
ATOM     75  C   UNL A   1      47.251  28.110  26.629  1.00  0.00     0.023 A 
ATOM     76  C   UNL A   1      47.296  28.094  25.232  1.00  0.00     0.031 A 
ATOM     77  C   UNL A   1      48.416  27.764  27.340  1.00  0.00     0.131 A 
ATOM     78  C   UNL A   1      48.475  27.714  24.582  1.00  0.00     0.055 A 
ATOM     79  C   UNL A   1      49.608  27.452  26.687  1.00  0.00     0.041 A 
ATOM     80  F   UNL A   1      48.426  27.780  28.683  1.00  0.00    -0.206 F 
ATOM     81  C   UNL A   1      49.638  27.416  25.297  1.00  0.00     0.022 A 
BRANCH  78  82
ATOM     82  S   UNL A   1      48.434  27.544  22.782  1.00  0.00     0.124 S 
ATOM     83  O   UNL A   1      49.688  28.181  22.399  1.00  0.00    -0.237 OA
ATOM     84  O   UNL A   1      48.373  26.095  22.615  1.00  0.00    -0.237 OA
ATOM     85  O   UNL A   1      47.223  28.267  22.401  1.00  0.00    -0.744 OA
ENDBRANCH  78  82
ENDBRANCH  51  75
BRANCH  63  86
ATOM     86  C   UNL A   1      44.958  34.145  29.255  1.00  0.00     0.023 A 
ATOM     87  C   UNL A   1      45.743  34.502  30.363  1.00  0.00     0.031 A 
ATOM     88  C   UNL A   1      44.763  35.100  28.243  1.00  0.00     0.131 A 
ATOM     89  C   UNL A   1      46.256  35.803  30.462  1.00  0.00     0.055 A 
ATOM     90  C   UNL A   1      45.340  36.367  28.310  1.00  0.00     0.041 A 
ATOM     91  F   UNL A   1      44.010  34.814  27.167  1.00  0.00    -0.206 F 
ATOM     92  C   UNL A   1      46.080  36.729  29.431  1.00  0.00     0.022 A 
BRANCH  89  93
ATOM     93  S   UNL A   1      47.059  36.300  32.009  1.00  0.00     0.124 S 
ATOM     94  O   UNL A   1      48.154  35.341  32.102  1.00  0.00    -0.237 OA
ATOM     95  O   UNL A   1      47.442  37.681  31.733  1.00  0.00    -0.237 OA
ATOM     96  O   UNL A   1      46.005  36.138  33.008  1.00  0.00    -0.744 OA
ENDBRANCH  89  93
ENDBRANCH  63  86
ENDBRANCH  37  38
ENDBRANCH  30  32
ENDBRANCH  29  30
ENDBRANCH   1  29
TORSDOF 18
ENDMDL
MODEL 3
REMARK VINA RESULT:     -11.8      5.374      9.137
REMARK SMILES N#Cc1ccc(C(=O)N2CCC(Oc3ccccc3)(C(=O)OCCOC(=O)c3ccc(-c4c5nc(c(-c6cc(S(=O)(=O)[O-])ccc6F)c6ccc([nH]6)c(-c6cc(S(=O)(=O)[O-])ccc6F)c6nc(c(-c7cc(S(=O)(=O)[O-])ccc7F)c7ccc4[nH]7)C=C6)C=C5)cc3)CC2)cc1
REMARK SMILES IDX 24 1 23 2 22 3 20 4 21 5 12 6 7 7 8 8 9 9 10 10 92 11 11 12
REMARK SMILES IDX 91 13 6 14 3 15 4 16 94 17 5 18 93 19 2 20 1 21 13 22 14 23
REMARK SMILES IDX 15 24 19 25 16 26 18 27 17 28 25 29 26 30 27 31 28 32 29 33
REMARK SMILES IDX 90 34 30 35 89 36 31 37 32 38 33 39 83 40 34 41 88 42 82 43
REMARK SMILES IDX 84 44 35 45 87 46 81 47 80 48 36 50 68 51 48 52 67 53 49 54
REMARK SMILES IDX 52 55 66 56 85 57 50 58 51 59 65 61 86 62 53 63 37 64 38 65
REMARK SMILES IDX 46 66 39 67 45 68 47 69 44 70 40 71 41 72 42 73 43 74 69 75
REMARK SMILES IDX 70 76 78 77 71 78 77 79 79 80 76 81 72 82 73 83 74 84 75 85
REMARK SMILES IDX 54 86 55 87 63 88 56 89 62 90 64 91 61 92 57 93 58 94 59 95
REMARK SMILES IDX 60 96
REMARK H PARENT 84 49 52 60
REMARK Flexibility Score: inf
ROOT
ATOM      1  C   UNL A   1      39.933  20.250  26.518  1.00  0.00     0.275 C 
ENDROOT
BRANCH   1   2
ATOM      2  C   UNL A   1      39.236  21.361  25.732  1.00  0.00     0.274 C 
BRANCH   2   3
ATOM      3  O   UNL A   1      37.861  21.016  25.428  1.00  0.00    -0.459 OA
BRANCH   3   4
ATOM      4  C   UNL A   1      37.013  22.064  25.225  1.00  0.00     0.350 C 
ATOM      5  O   UNL A   1      37.405  23.229  25.165  1.00  0.00    -0.247 OA
BRANCH   4   6
ATOM      6  C   UNL A   1      35.516  21.684  25.209  1.00  0.00     0.209 C 
ATOM      7  C   UNL A   1      32.567  24.840  25.393  1.00  0.00     0.253 C 
ATOM      8  O   UNL A   1      31.506  24.595  24.826  1.00  0.00    -0.269 OA
ATOM      9  N   UNL A   1      33.625  23.927  25.369  1.00  0.00    -0.338 N 
ATOM     10  C   UNL A   1      34.215  23.608  24.084  1.00  0.00     0.124 C 
ATOM     11  C   UNL A   1      34.389  23.575  26.543  1.00  0.00     0.124 C 
ATOM     12  C   UNL A   1      34.716  22.176  23.993  1.00  0.00     0.082 C 
ATOM     13  C   UNL A   1      34.834  22.109  26.534  1.00  0.00     0.082 C 
BRANCH   7  14
ATOM     14  C   UNL A   1      32.800  26.218  25.944  1.00  0.00     0.040 A 
ATOM     15  C   UNL A   1      33.053  28.919  26.754  1.00  0.00     0.052 A 
ATOM     16  C   UNL A   1      31.989  28.139  27.210  1.00  0.00     0.020 A 
ATOM     17  C   UNL A   1      33.974  28.355  25.869  1.00  0.00     0.020 A 
ATOM     18  C   UNL A   1      31.864  26.796  26.811  1.00  0.00     0.015 A 
ATOM     19  C   UNL A   1      33.843  27.019  25.465  1.00  0.00     0.015 A 
BRANCH  15  20
ATOM     20  C   UNL A   1      33.229  30.274  27.188  1.00  0.00     0.099 C 
ATOM     21  N   UNL A   1      33.304  31.366  27.587  1.00  0.00    -0.192 NA
ENDBRANCH  15  20
ENDBRANCH   7  14
BRANCH   6  22
ATOM     22  O   UNL A   1      35.781  20.238  25.096  1.00  0.00    -0.475 OA
BRANCH  22  23
ATOM     23  C   UNL A   1      34.737  19.438  24.750  1.00  0.00     0.121 A 
ATOM     24  C   UNL A   1      33.435  19.908  24.923  1.00  0.00     0.046 A 
ATOM     25  C   UNL A   1      34.962  18.131  24.333  1.00  0.00     0.046 A 
ATOM     26  C   UNL A   1      32.359  19.092  24.574  1.00  0.00     0.004 A 
ATOM     27  C   UNL A   1      33.889  17.327  23.956  1.00  0.00     0.004 A 
ATOM     28  C   UNL A   1      32.588  17.811  24.068  1.00  0.00     0.000 A 
ENDBRANCH  22  23
ENDBRANCH   6  22
ENDBRANCH   4   6
ENDBRANCH   3   4
ENDBRANCH   2   3
ENDBRANCH   1   2
BRANCH   1  29
ATOM     29  O   UNL A   1      40.873  19.552  25.675  1.00  0.00    -0.458 OA
BRANCH  29  30
ATOM     30  C   UNL A   1      42.107  19.468  26.211  1.00  0.00     0.338 C 
ATOM     31  O   UNL A   1      42.688  18.440  26.530  1.00  0.00    -0.246 OA
BRANCH  30  32
ATOM     32  C   UNL A   1      42.792  20.767  26.301  1.00  0.00     0.060 A 
ATOM     33  C   UNL A   1      42.873  21.388  27.542  1.00  0.00     0.016 A 
ATOM     34  C   UNL A   1      42.970  21.511  25.135  1.00  0.00     0.016 A 
ATOM     35  C   UNL A   1      42.945  22.776  27.611  1.00  0.00     0.010 A 
ATOM     36  C   UNL A   1      43.212  22.888  25.219  1.00  0.00     0.010 A 
ATOM     37  C   UNL A   1      43.180  23.540  26.460  1.00  0.00    -0.014 A 
BRANCH  37  38
ATOM     38  C   UNL A   1      43.547  24.976  26.585  1.00  0.00     0.031 A 
ATOM     39  C   UNL A   1      44.925  25.491  26.280  1.00  0.00     0.074 A 
ATOM     40  C   UNL A   1      42.608  25.823  27.039  1.00  0.00     0.049 A 
ATOM     41  N   UNL A   1      45.497  26.617  26.625  1.00  0.00    -0.248 NA
ATOM     42  C   UNL A   1      45.775  24.612  25.480  1.00  0.00     0.031 C 
ATOM     43  C   UNL A   1      41.207  25.479  27.302  1.00  0.00     0.029 A 
ATOM     44  N   UNL A   1      42.690  27.147  27.371  1.00  0.00    -0.354 N 
ATOM     45  C   UNL A   1      46.804  26.549  26.143  1.00  0.00     0.074 A 
ATOM     46  C   UNL A   1      46.929  25.267  25.485  1.00  0.00     0.031 C 
ATOM     47  C   UNL A   1      40.553  26.570  27.703  1.00  0.00     0.029 A 
ATOM     48  C   UNL A   1      41.519  27.639  27.885  1.00  0.00     0.049 A 
ATOM     49  H   UNL A   1      43.504  27.689  27.251  1.00  0.00     0.167 HD
ATOM     50  C   UNL A   1      47.795  27.474  26.247  1.00  0.00     0.034 A 
ATOM     51  C   UNL A   1      41.256  28.791  28.522  1.00  0.00     0.034 A 
ATOM     52  C   UNL A   1      47.599  28.767  26.865  1.00  0.00     0.049 A 
ATOM     53  C   UNL A   1      42.378  29.758  28.731  1.00  0.00     0.074 A 
ATOM     54  C   UNL A   1      48.503  29.805  27.013  1.00  0.00     0.029 A 
ATOM     55  N   UNL A   1      46.408  29.199  27.438  1.00  0.00    -0.354 N 
ATOM     56  N   UNL A   1      43.630  29.662  28.352  1.00  0.00    -0.248 NA
ATOM     57  C   UNL A   1      42.051  30.984  29.461  1.00  0.00     0.031 C 
ATOM     58  C   UNL A   1      47.886  30.822  27.748  1.00  0.00     0.029 A 
ATOM     59  C   UNL A   1      46.566  30.466  27.976  1.00  0.00     0.049 A 
ATOM     60  H   UNL A   1      45.572  28.679  27.457  1.00  0.00     0.167 HD
ATOM     61  C   UNL A   1      44.239  30.835  28.775  1.00  0.00     0.074 A 
ATOM     62  C   UNL A   1      43.208  31.625  29.424  1.00  0.00     0.031 C 
ATOM     63  C   UNL A   1      45.531  31.228  28.636  1.00  0.00     0.034 A 
BRANCH  50  64
ATOM     64  C   UNL A   1      49.183  27.100  25.757  1.00  0.00     0.023 A 
ATOM     65  C   UNL A   1      49.670  27.480  24.494  1.00  0.00     0.031 A 
ATOM     66  C   UNL A   1      50.029  26.315  26.565  1.00  0.00     0.131 A 
ATOM     67  C   UNL A   1      50.912  27.000  24.042  1.00  0.00     0.055 A 
ATOM     68  C   UNL A   1      51.302  25.917  26.147  1.00  0.00     0.041 A 
ATOM     69  F   UNL A   1      49.629  25.907  27.780  1.00  0.00    -0.206 F 
ATOM     70  C   UNL A   1      51.741  26.240  24.869  1.00  0.00     0.022 A 
BRANCH  67  71
ATOM     71  S   UNL A   1      51.342  27.222  22.293  1.00  0.00     0.124 S 
ATOM     72  O   UNL A   1      51.469  28.674  22.201  1.00  0.00    -0.237 OA
ATOM     73  O   UNL A   1      52.582  26.465  22.176  1.00  0.00    -0.237 OA
ATOM     74  O   UNL A   1      50.194  26.663  21.582  1.00  0.00    -0.744 OA
ENDBRANCH  67  71
ENDBRANCH  50  64
BRANCH  51  75
ATOM     75  C   UNL A   1      39.882  29.048  29.019  1.00  0.00     0.023 A 
ATOM     76  C   UNL A   1      39.610  28.946  30.386  1.00  0.00     0.031 A 
ATOM     77  C   UNL A   1      38.843  29.449  28.158  1.00  0.00     0.131 A 
ATOM     78  C   UNL A   1      38.321  29.214  30.857  1.00  0.00     0.055 A 
ATOM     79  C   UNL A   1      37.579  29.782  28.641  1.00  0.00     0.041 A 
ATOM     80  F   UNL A   1      39.062  29.577  26.838  1.00  0.00    -0.206 F 
ATOM     81  C   UNL A   1      37.309  29.655  29.999  1.00  0.00     0.022 A 
BRANCH  78  82
ATOM     82  S   UNL A   1      37.974  28.904  32.604  1.00  0.00     0.124 S 
ATOM     83  O   UNL A   1      39.030  29.671  33.254  1.00  0.00    -0.237 OA
ATOM     84  O   UNL A   1      36.620  29.430  32.743  1.00  0.00    -0.237 OA
ATOM     85  O   UNL A   1      38.094  27.452  32.721  1.00  0.00    -0.744 OA
ENDBRANCH  78  82
ENDBRANCH  51  75
BRANCH  63  86
ATOM     86  C   UNL A   1      45.880  32.594  29.163  1.00  0.00     0.023 A 
ATOM     87  C   UNL A   1      45.770  33.742  28.361  1.00  0.00     0.031 A 
ATOM     88  C   UNL A   1      46.347  32.747  30.480  1.00  0.00     0.131 A 
ATOM     89  C   UNL A   1      46.179  34.985  28.863  1.00  0.00     0.055 A 
ATOM     90  C   UNL A   1      46.679  33.997  31.000  1.00  0.00     0.041 A 
ATOM     91  F   UNL A   1      46.483  31.681  31.286  1.00  0.00    -0.206 F 
ATOM     92  C   UNL A   1      46.608  35.123  30.185  1.00  0.00     0.022 A 
BRANCH  89  93
ATOM     93  S   UNL A   1      46.248  36.396  27.729  1.00  0.00     0.124 S 
ATOM     94  O   UNL A   1      46.328  35.734  26.430  1.00  0.00    -0.237 OA
ATOM     95  O   UNL A   1      44.996  37.090  28.014  1.00  0.00    -0.237 OA
ATOM     96  O   UNL A   1      47.457  37.106  28.139  1.00  0.00    -0.744 OA
ENDBRANCH  89  93
ENDBRANCH  63  86
ENDBRANCH  37  38
ENDBRANCH  30  32
ENDBRANCH  29  30
ENDBRANCH   1  29
TORSDOF 18
ENDMDL
