MODEL 1
REMARK VINA RESULT:     -11.9      0.000      0.000
REMARK SMILES O=C(COc1cc(-c2ccncc2)nc(Nc2ccccc2Br)n1)OCCOC(=O)c1ccc(-c2c3nc(c(-c4cc(S(=O)(=O)[O-])ccc4F)c4ccc([nH]4)c(-c4cc(S(=O)(=O)[O-])ccc4F)c4nc(c(-c5cc(S(=O)(=O)[O-])ccc5F)c5ccc2[nH]5)C=C4)C=C3)cc1
REMARK SMILES IDX 26 1 25 2 2 3 1 4 3 5 4 6 5 7 6 8 24 9 7 10 15 11 14 12 8 13
REMARK SMILES IDX 9 14 13 15 10 16 12 17 11 18 16 19 17 21 18 22 22 23 19 24
REMARK SMILES IDX 21 25 23 26 20 27 27 28 28 29 29 30 30 31 31 32 32 33 93 34
REMARK SMILES IDX 33 35 92 36 34 37 35 38 36 39 86 40 37 41 91 42 85 43 87 44
REMARK SMILES IDX 38 45 90 46 84 47 83 48 39 50 71 51 51 52 70 53 52 54 55 55
REMARK SMILES IDX 69 56 88 57 53 58 54 59 68 61 89 62 56 63 40 64 41 65 49 66
REMARK SMILES IDX 42 67 48 68 50 69 47 70 43 71 44 72 45 73 46 74 72 75 73 76
REMARK SMILES IDX 81 77 74 78 80 79 82 80 79 81 75 82 76 83 77 84 78 85 57 86
REMARK SMILES IDX 58 87 66 88 59 89 65 90 67 91 64 92 60 93 61 94 62 95 63 96
REMARK H PARENT 16 20 87 49 55 60
REMARK Flexibility Score: inf
ROOT
ATOM      1  C   UNL A   1      42.539  20.899  26.017  1.00  0.00     0.274 C 
ENDROOT
BRANCH   1   2
ATOM      2  O   UNL A   1      41.197  21.334  25.721  1.00  0.00    -0.460 OA
BRANCH   2   3
ATOM      3  C   UNL A   1      40.253  21.522  26.676  1.00  0.00     0.344 C 
ATOM      4  O   UNL A   1      40.478  21.210  27.843  1.00  0.00    -0.248 OA
BRANCH   3   5
ATOM      5  C   UNL A   1      38.974  22.249  26.282  1.00  0.00     0.353 C 
BRANCH   5   6
ATOM      6  O   UNL A   1      38.378  21.654  25.128  1.00  0.00    -0.466 OA
BRANCH   6   7
ATOM      7  C   UNL A   1      37.063  21.373  25.393  1.00  0.00     0.219 A 
ATOM      8  C   UNL A   1      36.486  20.233  24.914  1.00  0.00     0.097 A 
ATOM      9  N   UNL A   1      36.413  22.294  26.096  1.00  0.00    -0.177 NA
ATOM     10  C   UNL A   1      35.126  20.130  25.095  1.00  0.00     0.080 A 
ATOM     11  C   UNL A   1      35.092  22.119  26.252  1.00  0.00     0.231 A 
ATOM     12  N   UNL A   1      34.411  21.067  25.758  1.00  0.00    -0.212 NA
BRANCH  10  13
ATOM     13  C   UNL A   1      34.411  19.002  24.484  1.00  0.00     0.004 A 
ATOM     14  C   UNL A   1      35.052  17.768  24.295  1.00  0.00     0.030 A 
ATOM     15  C   UNL A   1      33.128  19.155  23.952  1.00  0.00     0.030 A 
ATOM     16  C   UNL A   1      34.411  16.775  23.573  1.00  0.00     0.111 A 
ATOM     17  C   UNL A   1      32.570  18.103  23.241  1.00  0.00     0.111 A 
ATOM     18  N   UNL A   1      33.182  16.914  23.041  1.00  0.00    -0.265 NA
ENDBRANCH  10  13
BRANCH  11  19
ATOM     19  N   UNL A   1      34.374  23.110  26.928  1.00  0.00    -0.323 N 
ATOM     20  H   UNL A   1      34.800  23.540  27.705  1.00  0.00     0.170 HD
BRANCH  19  21
ATOM     21  C   UNL A   1      33.080  23.532  26.568  1.00  0.00     0.055 A 
ATOM     22  C   UNL A   1      31.975  22.917  27.168  1.00  0.00     0.027 A 
ATOM     23  C   UNL A   1      32.845  24.529  25.603  1.00  0.00     0.041 A 
ATOM     24  C   UNL A   1      30.674  23.342  26.881  1.00  0.00     0.002 A 
ATOM     25  C   UNL A   1      31.545  24.960  25.317  1.00  0.00     0.018 A 
ATOM     26  Br  UNL A   1      34.282  25.319  24.648  1.00  0.00    -0.049 Br
ATOM     27  C   UNL A   1      30.461  24.373  25.968  1.00  0.00     0.001 A 
ENDBRANCH  19  21
ENDBRANCH  11  19
ENDBRANCH   6   7
ENDBRANCH   5   6
ENDBRANCH   3   5
ENDBRANCH   2   3
ENDBRANCH   1   2
BRANCH   1  28
ATOM     28  C   UNL A   1      43.547  22.010  25.720  1.00  0.00     0.275 C 
BRANCH  28  29
ATOM     29  O   UNL A   1      42.856  23.203  25.304  1.00  0.00    -0.458 OA
BRANCH  29  30
ATOM     30  C   UNL A   1      43.570  24.357  25.390  1.00  0.00     0.338 C 
ATOM     31  O   UNL A   1      44.466  24.708  24.643  1.00  0.00    -0.246 OA
BRANCH  30  32
ATOM     32  C   UNL A   1      42.959  25.224  26.423  1.00  0.00     0.060 A 
ATOM     33  C   UNL A   1      43.473  26.514  26.604  1.00  0.00     0.016 A 
ATOM     34  C   UNL A   1      41.887  24.782  27.205  1.00  0.00     0.016 A 
ATOM     35  C   UNL A   1      42.938  27.352  27.586  1.00  0.00     0.010 A 
ATOM     36  C   UNL A   1      41.357  25.618  28.191  1.00  0.00     0.010 A 
ATOM     37  C   UNL A   1      41.896  26.899  28.406  1.00  0.00    -0.014 A 
BRANCH  37  38
ATOM     38  C   UNL A   1      41.464  27.694  29.584  1.00  0.00     0.031 A 
ATOM     39  C   UNL A   1      40.241  28.558  29.465  1.00  0.00     0.074 A 
ATOM     40  C   UNL A   1      42.145  27.660  30.743  1.00  0.00     0.049 A 
ATOM     41  N   UNL A   1      39.708  29.366  30.343  1.00  0.00    -0.248 NA
ATOM     42  C   UNL A   1      39.532  28.505  28.178  1.00  0.00     0.031 C 
ATOM     43  C   UNL A   1      43.324  26.839  30.995  1.00  0.00     0.029 A 
ATOM     44  N   UNL A   1      41.948  28.337  31.922  1.00  0.00    -0.354 N 
ATOM     45  C   UNL A   1      38.591  29.912  29.723  1.00  0.00     0.074 A 
ATOM     46  C   UNL A   1      38.557  29.380  28.376  1.00  0.00     0.031 C 
ATOM     47  C   UNL A   1      43.751  27.067  32.249  1.00  0.00     0.029 A 
ATOM     48  C   UNL A   1      42.900  28.071  32.877  1.00  0.00     0.049 A 
ATOM     49  H   UNL A   1      41.195  28.954  32.069  1.00  0.00     0.167 HD
ATOM     50  C   UNL A   1      37.670  30.766  30.234  1.00  0.00     0.034 A 
ATOM     51  C   UNL A   1      43.084  28.588  34.110  1.00  0.00     0.034 A 
ATOM     52  C   UNL A   1      37.728  31.313  31.567  1.00  0.00     0.049 A 
ATOM     53  C   UNL A   1      42.107  29.616  34.621  1.00  0.00     0.074 A 
ATOM     54  C   UNL A   1      36.845  32.185  32.181  1.00  0.00     0.029 A 
ATOM     55  N   UNL A   1      38.736  31.059  32.489  1.00  0.00    -0.354 N 
ATOM     56  N   UNL A   1      41.044  30.112  34.030  1.00  0.00    -0.248 NA
ATOM     57  C   UNL A   1      42.349  30.150  35.969  1.00  0.00     0.031 C 
ATOM     58  C   UNL A   1      37.352  32.509  33.444  1.00  0.00     0.029 A 
ATOM     59  C   UNL A   1      38.513  31.783  33.652  1.00  0.00     0.049 A 
ATOM     60  H   UNL A   1      39.497  30.453  32.340  1.00  0.00     0.167 HD
ATOM     61  C   UNL A   1      40.472  30.986  34.950  1.00  0.00     0.074 A 
ATOM     62  C   UNL A   1      41.302  30.945  36.135  1.00  0.00     0.031 C 
ATOM     63  C   UNL A   1      39.354  31.747  34.826  1.00  0.00     0.034 A 
BRANCH  50  64
ATOM     64  C   UNL A   1      36.552  31.188  29.315  1.00  0.00     0.023 A 
ATOM     65  C   UNL A   1      35.657  30.253  28.768  1.00  0.00     0.031 A 
ATOM     66  C   UNL A   1      36.410  32.536  28.942  1.00  0.00     0.131 A 
ATOM     67  C   UNL A   1      34.711  30.664  27.818  1.00  0.00     0.055 A 
ATOM     68  C   UNL A   1      35.413  32.951  28.057  1.00  0.00     0.041 A 
ATOM     69  F   UNL A   1      37.252  33.469  29.414  1.00  0.00    -0.206 F 
ATOM     70  C   UNL A   1      34.566  32.011  27.478  1.00  0.00     0.022 A 
BRANCH  67  71
ATOM     71  S   UNL A   1      33.772  29.395  26.925  1.00  0.00     0.124 S 
ATOM     72  O   UNL A   1      34.839  28.514  26.458  1.00  0.00    -0.237 OA
ATOM     73  O   UNL A   1      32.904  28.854  27.964  1.00  0.00    -0.237 OA
ATOM     74  O   UNL A   1      33.092  30.149  25.874  1.00  0.00    -0.744 OA
ENDBRANCH  67  71
ENDBRANCH  50  64
BRANCH  51  75
ATOM     75  C   UNL A   1      44.253  28.175  34.942  1.00  0.00     0.023 A 
ATOM     76  C   UNL A   1      44.128  27.187  35.932  1.00  0.00     0.031 A 
ATOM     77  C   UNL A   1      45.502  28.808  34.798  1.00  0.00     0.131 A 
ATOM     78  C   UNL A   1      45.216  26.896  36.771  1.00  0.00     0.055 A 
ATOM     79  C   UNL A   1      46.595  28.479  35.601  1.00  0.00     0.041 A 
ATOM     80  F   UNL A   1      45.678  29.759  33.865  1.00  0.00    -0.206 F 
ATOM     81  C   UNL A   1      46.450  27.527  36.606  1.00  0.00     0.022 A 
BRANCH  78  82
ATOM     82  S   UNL A   1      44.967  25.742  38.150  1.00  0.00     0.124 S 
ATOM     83  O   UNL A   1      43.796  26.311  38.807  1.00  0.00    -0.237 OA
ATOM     84  O   UNL A   1      44.761  24.477  37.451  1.00  0.00    -0.237 OA
ATOM     85  O   UNL A   1      46.215  25.838  38.903  1.00  0.00    -0.744 OA
ENDBRANCH  78  82
ENDBRANCH  51  75
BRANCH  63  86
ATOM     86  C   UNL A   1      38.941  32.559  36.029  1.00  0.00     0.023 A 
ATOM     87  C   UNL A   1      38.231  31.989  37.101  1.00  0.00     0.031 A 
ATOM     88  C   UNL A   1      39.253  33.928  36.096  1.00  0.00     0.131 A 
ATOM     89  C   UNL A   1      37.812  32.798  38.170  1.00  0.00     0.055 A 
ATOM     90  C   UNL A   1      38.884  34.714  37.188  1.00  0.00     0.041 A 
ATOM     91  F   UNL A   1      39.928  34.524  35.100  1.00  0.00    -0.206 F 
ATOM     92  C   UNL A   1      38.148  34.153  38.227  1.00  0.00     0.022 A 
BRANCH  89  93
ATOM     93  S   UNL A   1      36.747  32.073  39.447  1.00  0.00     0.124 S 
ATOM     94  O   UNL A   1      37.052  32.907  40.606  1.00  0.00    -0.237 OA
ATOM     95  O   UNL A   1      35.415  32.240  38.876  1.00  0.00    -0.237 OA
ATOM     96  O   UNL A   1      37.212  30.690  39.538  1.00  0.00    -0.744 OA
ENDBRANCH  89  93
ENDBRANCH  63  86
ENDBRANCH  37  38
ENDBRANCH  30  32
ENDBRANCH  29  30
ENDBRANCH  28  29
ENDBRANCH   1  28
TORSDOF 19
ENDMDL
MODEL 2
REMARK VINA RESULT:     -11.8      2.970      9.443
REMARK SMILES O=C(COc1cc(-c2ccncc2)nc(Nc2ccccc2Br)n1)OCCOC(=O)c1ccc(-c2c3nc(c(-c4cc(S(=O)(=O)[O-])ccc4F)c4ccc([nH]4)c(-c4cc(S(=O)(=O)[O-])ccc4F)c4nc(c(-c5cc(S(=O)(=O)[O-])ccc5F)c5ccc2[nH]5)C=C4)C=C3)cc1
REMARK SMILES IDX 26 1 25 2 2 3 1 4 3 5 4 6 5 7 6 8 24 9 7 10 15 11 14 12 8 13
REMARK SMILES IDX 9 14 13 15 10 16 12 17 11 18 16 19 17 21 18 22 22 23 19 24
REMARK SMILES IDX 21 25 23 26 20 27 27 28 28 29 29 30 30 31 31 32 32 33 93 34
REMARK SMILES IDX 33 35 92 36 34 37 35 38 36 39 86 40 37 41 91 42 85 43 87 44
REMARK SMILES IDX 38 45 90 46 84 47 83 48 39 50 71 51 51 52 70 53 52 54 55 55
REMARK SMILES IDX 69 56 88 57 53 58 54 59 68 61 89 62 56 63 40 64 41 65 49 66
REMARK SMILES IDX 42 67 48 68 50 69 47 70 43 71 44 72 45 73 46 74 72 75 73 76
REMARK SMILES IDX 81 77 74 78 80 79 82 80 79 81 75 82 76 83 77 84 78 85 57 86
REMARK SMILES IDX 58 87 66 88 59 89 65 90 67 91 64 92 60 93 61 94 62 95 63 96
REMARK H PARENT 16 20 87 49 55 60
REMARK Flexibility Score: inf
ROOT
ATOM      1  C   UNL A   1      31.458  31.611  26.517  1.00  0.00     0.274 C 
ENDROOT
BRANCH   1   2
ATOM      2  O   UNL A   1      32.616  30.754  26.477  1.00  0.00    -0.460 OA
BRANCH   2   3
ATOM      3  C   UNL A   1      32.604  29.473  26.919  1.00  0.00     0.344 C 
ATOM      4  O   UNL A   1      31.665  29.057  27.595  1.00  0.00    -0.248 OA
BRANCH   3   5
ATOM      5  C   UNL A   1      33.710  28.542  26.441  1.00  0.00     0.353 C 
BRANCH   5   6
ATOM      6  O   UNL A   1      34.090  28.841  25.097  1.00  0.00    -0.466 OA
BRANCH   6   7
ATOM      7  C   UNL A   1      33.222  28.226  24.234  1.00  0.00     0.219 A 
ATOM      8  C   UNL A   1      32.124  28.884  23.765  1.00  0.00     0.097 A 
ATOM      9  N   UNL A   1      33.512  26.963  23.937  1.00  0.00    -0.177 NA
ATOM     10  C   UNL A   1      31.234  28.125  23.040  1.00  0.00     0.080 A 
ATOM     11  C   UNL A   1      32.610  26.288  23.210  1.00  0.00     0.231 A 
ATOM     12  N   UNL A   1      31.459  26.822  22.758  1.00  0.00    -0.212 NA
BRANCH  10  13
ATOM     13  C   UNL A   1      29.961  28.726  22.622  1.00  0.00     0.004 A 
ATOM     14  C   UNL A   1      29.944  29.893  21.843  1.00  0.00     0.030 A 
ATOM     15  C   UNL A   1      28.738  28.242  23.094  1.00  0.00     0.030 A 
ATOM     16  C   UNL A   1      28.738  30.528  21.600  1.00  0.00     0.111 A 
ATOM     17  C   UNL A   1      27.582  28.950  22.799  1.00  0.00     0.111 A 
ATOM     18  N   UNL A   1      27.554  30.082  22.060  1.00  0.00    -0.265 NA
ENDBRANCH  10  13
BRANCH  11  19
ATOM     19  N   UNL A   1      32.860  24.937  22.944  1.00  0.00    -0.323 N 
ATOM     20  H   UNL A   1      33.246  24.704  22.069  1.00  0.00     0.170 HD
BRANCH  19  21
ATOM     21  C   UNL A   1      32.592  23.892  23.849  1.00  0.00     0.055 A 
ATOM     22  C   UNL A   1      31.333  23.829  24.458  1.00  0.00     0.027 A 
ATOM     23  C   UNL A   1      33.549  22.920  24.194  1.00  0.00     0.041 A 
ATOM     24  C   UNL A   1      31.006  22.777  25.320  1.00  0.00     0.002 A 
ATOM     25  C   UNL A   1      33.224  21.865  25.052  1.00  0.00     0.018 A 
ATOM     26  Br  UNL A   1      35.319  23.011  23.516  1.00  0.00    -0.049 Br
ATOM     27  C   UNL A   1      31.946  21.788  25.604  1.00  0.00     0.001 A 
ENDBRANCH  19  21
ENDBRANCH  11  19
ENDBRANCH   6   7
ENDBRANCH   5   6
ENDBRANCH   3   5
ENDBRANCH   2   3
ENDBRANCH   1   2
BRANCH   1  28
ATOM     28  C   UNL A   1      31.815  32.978  27.103  1.00  0.00     0.275 C 
BRANCH  28  29
ATOM     29  O   UNL A   1      33.229  33.218  26.967  1.00  0.00    -0.458 OA
BRANCH  29  30
ATOM     30  C   UNL A   1      33.823  33.843  28.018  1.00  0.00     0.338 C 
ATOM     31  O   UNL A   1      33.390  34.809  28.621  1.00  0.00    -0.246 OA
BRANCH  30  32
ATOM     32  C   UNL A   1      34.994  33.047  28.450  1.00  0.00     0.060 A 
ATOM     33  C   UNL A   1      34.777  31.756  28.949  1.00  0.00     0.016 A 
ATOM     34  C   UNL A   1      36.294  33.555  28.364  1.00  0.00     0.016 A 
ATOM     35  C   UNL A   1      35.855  30.984  29.390  1.00  0.00     0.010 A 
ATOM     36  C   UNL A   1      37.370  32.784  28.811  1.00  0.00     0.010 A 
ATOM     37  C   UNL A   1      37.156  31.505  29.352  1.00  0.00    -0.014 A 
BRANCH  37  38
ATOM     38  C   UNL A   1      38.276  30.783  30.009  1.00  0.00     0.031 A 
ATOM     39  C   UNL A   1      38.639  31.142  31.422  1.00  0.00     0.074 A 
ATOM     40  C   UNL A   1      38.968  29.826  29.365  1.00  0.00     0.049 A 
ATOM     41  N   UNL A   1      39.603  30.678  32.173  1.00  0.00    -0.248 NA
ATOM     42  C   UNL A   1      37.807  32.168  32.064  1.00  0.00     0.031 C 
ATOM     43  C   UNL A   1      38.693  29.364  28.010  1.00  0.00     0.029 A 
ATOM     44  N   UNL A   1      40.048  29.076  29.764  1.00  0.00    -0.354 N 
ATOM     45  C   UNL A   1      39.487  31.344  33.386  1.00  0.00     0.074 A 
ATOM     46  C   UNL A   1      38.391  32.282  33.248  1.00  0.00     0.031 C 
ATOM     47  C   UNL A   1      39.587  28.414  27.686  1.00  0.00     0.029 A 
ATOM     48  C   UNL A   1      40.517  28.223  28.793  1.00  0.00     0.049 A 
ATOM     49  H   UNL A   1      40.448  29.142  30.661  1.00  0.00     0.167 HD
ATOM     50  C   UNL A   1      40.217  31.179  34.517  1.00  0.00     0.034 A 
ATOM     51  C   UNL A   1      41.584  27.396  28.781  1.00  0.00     0.034 A 
ATOM     52  C   UNL A   1      41.325  30.264  34.637  1.00  0.00     0.049 A 
ATOM     53  C   UNL A   1      42.446  27.305  30.015  1.00  0.00     0.074 A 
ATOM     54  C   UNL A   1      42.127  30.021  35.738  1.00  0.00     0.029 A 
ATOM     55  N   UNL A   1      41.802  29.453  33.615  1.00  0.00    -0.354 N 
ATOM     56  N   UNL A   1      42.316  27.929  31.163  1.00  0.00    -0.248 NA
ATOM     57  C   UNL A   1      43.596  26.391  29.955  1.00  0.00     0.031 C 
ATOM     58  C   UNL A   1      43.127  29.116  35.364  1.00  0.00     0.029 A 
ATOM     59  C   UNL A   1      42.906  28.735  34.051  1.00  0.00     0.049 A 
ATOM     60  H   UNL A   1      41.412  29.395  32.713  1.00  0.00     0.167 HD
ATOM     61  C   UNL A   1      43.344  27.455  31.971  1.00  0.00     0.074 A 
ATOM     62  C   UNL A   1      44.081  26.488  31.184  1.00  0.00     0.031 C 
ATOM     63  C   UNL A   1      43.645  27.783  33.255  1.00  0.00     0.034 A 
BRANCH  50  64
ATOM     64  C   UNL A   1      39.856  32.053  35.692  1.00  0.00     0.023 A 
ATOM     65  C   UNL A   1      38.945  31.624  36.674  1.00  0.00     0.031 A 
ATOM     66  C   UNL A   1      40.389  33.348  35.805  1.00  0.00     0.131 A 
ATOM     67  C   UNL A   1      38.537  32.510  37.682  1.00  0.00     0.055 A 
ATOM     68  C   UNL A   1      40.038  34.196  36.857  1.00  0.00     0.041 A 
ATOM     69  F   UNL A   1      41.243  33.819  34.883  1.00  0.00    -0.206 F 
ATOM     70  C   UNL A   1      39.096  33.784  37.794  1.00  0.00     0.022 A 
BRANCH  67  71
ATOM     71  S   UNL A   1      37.156  32.025  38.753  1.00  0.00     0.124 S 
ATOM     72  O   UNL A   1      37.009  30.610  38.421  1.00  0.00    -0.237 OA
ATOM     73  O   UNL A   1      37.670  32.320  40.085  1.00  0.00    -0.237 OA
ATOM     74  O   UNL A   1      36.058  32.879  38.304  1.00  0.00    -0.744 OA
ENDBRANCH  67  71
ENDBRANCH  50  64
BRANCH  51  75
ATOM     75  C   UNL A   1      41.924  26.610  27.559  1.00  0.00     0.023 A 
ATOM     76  C   UNL A   1      41.629  25.241  27.469  1.00  0.00     0.031 A 
ATOM     77  C   UNL A   1      42.607  27.208  26.483  1.00  0.00     0.131 A 
ATOM     78  C   UNL A   1      42.058  24.504  26.353  1.00  0.00     0.055 A 
ATOM     79  C   UNL A   1      42.986  26.482  25.353  1.00  0.00     0.041 A 
ATOM     80  F   UNL A   1      42.912  28.516  26.514  1.00  0.00    -0.206 F 
ATOM     81  C   UNL A   1      42.724  25.117  25.291  1.00  0.00     0.022 A 
BRANCH  78  82
ATOM     82  S   UNL A   1      41.814  22.705  26.352  1.00  0.00     0.124 S 
ATOM     83  O   UNL A   1      42.484  22.314  25.117  1.00  0.00    -0.237 OA
ATOM     84  O   UNL A   1      42.471  22.310  27.594  1.00  0.00    -0.237 OA
ATOM     85  O   UNL A   1      40.360  22.560  26.347  1.00  0.00    -0.744 OA
ENDBRANCH  78  82
ENDBRANCH  51  75
BRANCH  63  86
ATOM     86  C   UNL A   1      44.795  27.049  33.898  1.00  0.00     0.023 A 
ATOM     87  C   UNL A   1      44.610  25.835  34.585  1.00  0.00     0.031 A 
ATOM     88  C   UNL A   1      46.095  27.580  33.832  1.00  0.00     0.131 A 
ATOM     89  C   UNL A   1      45.699  25.221  35.223  1.00  0.00     0.055 A 
ATOM     90  C   UNL A   1      47.184  26.934  34.419  1.00  0.00     0.041 A 
ATOM     91  F   UNL A   1      46.329  28.736  33.191  1.00  0.00    -0.206 F 
ATOM     92  C   UNL A   1      46.987  25.755  35.131  1.00  0.00     0.022 A 
BRANCH  89  93
ATOM     93  S   UNL A   1      45.397  23.755  36.249  1.00  0.00     0.124 S 
ATOM     94  O   UNL A   1      44.311  23.098  35.527  1.00  0.00    -0.237 OA
ATOM     95  O   UNL A   1      46.688  23.076  36.212  1.00  0.00    -0.237 OA
ATOM     96  O   UNL A   1      45.029  24.315  37.548  1.00  0.00    -0.744 OA
ENDBRANCH  89  93
ENDBRANCH  63  86
ENDBRANCH  37  38
ENDBRANCH  30  32
ENDBRANCH  29  30
ENDBRANCH  28  29
ENDBRANCH   1  28
TORSDOF 19
ENDMDL
MODEL 3
REMARK VINA RESULT:     -11.7      5.310      8.467
REMARK SMILES O=C(COc1cc(-c2ccncc2)nc(Nc2ccccc2Br)n1)OCCOC(=O)c1ccc(-c2c3nc(c(-c4cc(S(=O)(=O)[O-])ccc4F)c4ccc([nH]4)c(-c4cc(S(=O)(=O)[O-])ccc4F)c4nc(c(-c5cc(S(=O)(=O)[O-])ccc5F)c5ccc2[nH]5)C=C4)C=C3)cc1
REMARK SMILES IDX 26 1 25 2 2 3 1 4 3 5 4 6 5 7 6 8 24 9 7 10 15 11 14 12 8 13
REMARK SMILES IDX 9 14 13 15 10 16 12 17 11 18 16 19 17 21 18 22 22 23 19 24
REMARK SMILES IDX 21 25 23 26 20 27 27 28 28 29 29 30 30 31 31 32 32 33 93 34
REMARK SMILES IDX 33 35 92 36 34 37 35 38 36 39 86 40 37 41 91 42 85 43 87 44
REMARK SMILES IDX 38 45 90 46 84 47 83 48 39 50 71 51 51 52 70 53 52 54 55 55
REMARK SMILES IDX 69 56 88 57 53 58 54 59 68 61 89 62 56 63 40 64 41 65 49 66
REMARK SMILES IDX 42 67 48 68 50 69 47 70 43 71 44 72 45 73 46 74 72 75 73 76
REMARK SMILES IDX 81 77 74 78 80 79 82 80 79 81 75 82 76 83 77 84 78 85 57 86
REMARK SMILES IDX 58 87 66 88 59 89 65 90 67 91 64 92 60 93 61 94 62 95 63 96
REMARK H PARENT 16 20 87 49 55 60
REMARK Flexibility Score: inf
ROOT
ATOM      1  C   UNL A   1      35.995  22.042  23.899  1.00  0.00     0.274 C 
ENDROOT
BRANCH   1   2
ATOM      2  O   UNL A   1      34.618  22.056  24.327  1.00  0.00    -0.460 OA
BRANCH   2   3
ATOM      3  C   UNL A   1      34.178  22.788  25.380  1.00  0.00     0.344 C 
ATOM      4  O   UNL A   1      33.958  22.250  26.463  1.00  0.00    -0.248 OA
BRANCH   3   5
ATOM      5  C   UNL A   1      34.100  24.300  25.215  1.00  0.00     0.353 C 
BRANCH   5   6
ATOM      6  O   UNL A   1      33.616  24.652  23.919  1.00  0.00    -0.466 OA
BRANCH   6   7
ATOM      7  C   UNL A   1      33.221  25.964  23.924  1.00  0.00     0.219 A 
ATOM      8  C   UNL A   1      33.651  26.816  24.899  1.00  0.00     0.097 A 
ATOM      9  N   UNL A   1      32.379  26.311  22.956  1.00  0.00    -0.177 NA
ATOM     10  C   UNL A   1      33.066  28.061  24.907  1.00  0.00     0.080 A 
ATOM     11  C   UNL A   1      31.863  27.547  23.013  1.00  0.00     0.231 A 
ATOM     12  N   UNL A   1      32.165  28.442  23.974  1.00  0.00    -0.212 NA
BRANCH  10  13
ATOM     13  C   UNL A   1      33.372  28.984  26.007  1.00  0.00     0.004 A 
ATOM     14  C   UNL A   1      32.512  30.054  26.303  1.00  0.00     0.030 A 
ATOM     15  C   UNL A   1      34.582  28.914  26.702  1.00  0.00     0.030 A 
ATOM     16  C   UNL A   1      32.903  31.000  27.234  1.00  0.00     0.111 A 
ATOM     17  C   UNL A   1      34.887  29.912  27.616  1.00  0.00     0.111 A 
ATOM     18  N   UNL A   1      34.072  30.953  27.900  1.00  0.00    -0.265 NA
ENDBRANCH  10  13
BRANCH  11  19
ATOM     19  N   UNL A   1      30.922  27.911  22.045  1.00  0.00    -0.323 N 
ATOM     20  H   UNL A   1      31.027  27.542  21.138  1.00  0.00     0.170 HD
BRANCH  19  21
ATOM     21  C   UNL A   1      29.834  28.772  22.286  1.00  0.00     0.055 A 
ATOM     22  C   UNL A   1      29.877  30.077  21.780  1.00  0.00     0.027 A 
ATOM     23  C   UNL A   1      28.712  28.388  23.043  1.00  0.00     0.041 A 
ATOM     24  C   UNL A   1      28.796  30.947  21.948  1.00  0.00     0.002 A 
ATOM     25  C   UNL A   1      27.626  29.255  23.210  1.00  0.00     0.018 A 
ATOM     26  Br  UNL A   1      28.634  26.684  23.876  1.00  0.00    -0.049 Br
ATOM     27  C   UNL A   1      27.665  30.530  22.649  1.00  0.00     0.001 A 
ENDBRANCH  19  21
ENDBRANCH  11  19
ENDBRANCH   6   7
ENDBRANCH   5   6
ENDBRANCH   3   5
ENDBRANCH   2   3
ENDBRANCH   1   2
BRANCH   1  28
ATOM     28  C   UNL A   1      36.760  20.902  24.572  1.00  0.00     0.275 C 
BRANCH  28  29
ATOM     29  O   UNL A   1      37.335  21.358  25.811  1.00  0.00    -0.458 OA
BRANCH  29  30
ATOM     30  C   UNL A   1      38.661  21.107  25.973  1.00  0.00     0.338 C 
ATOM     31  O   UNL A   1      39.258  20.114  25.596  1.00  0.00    -0.246 OA
BRANCH  30  32
ATOM     32  C   UNL A   1      39.317  22.322  26.507  1.00  0.00     0.060 A 
ATOM     33  C   UNL A   1      38.820  23.575  26.124  1.00  0.00     0.016 A 
ATOM     34  C   UNL A   1      40.405  22.239  27.382  1.00  0.00     0.016 A 
ATOM     35  C   UNL A   1      39.429  24.743  26.588  1.00  0.00     0.010 A 
ATOM     36  C   UNL A   1      41.017  23.408  27.840  1.00  0.00     0.010 A 
ATOM     37  C   UNL A   1      40.551  24.668  27.426  1.00  0.00    -0.014 A 
BRANCH  37  38
ATOM     38  C   UNL A   1      41.330  25.889  27.753  1.00  0.00     0.031 A 
ATOM     39  C   UNL A   1      40.663  26.986  28.533  1.00  0.00     0.074 A 
ATOM     40  C   UNL A   1      42.609  26.032  27.362  1.00  0.00     0.049 A 
ATOM     41  N   UNL A   1      41.133  28.152  28.890  1.00  0.00    -0.248 NA
ATOM     42  C   UNL A   1      39.279  26.732  28.956  1.00  0.00     0.031 C 
ATOM     43  C   UNL A   1      43.377  25.029  26.632  1.00  0.00     0.029 A 
ATOM     44  N   UNL A   1      43.485  27.078  27.518  1.00  0.00    -0.354 N 
ATOM     45  C   UNL A   1      40.108  28.770  29.595  1.00  0.00     0.074 A 
ATOM     46  C   UNL A   1      38.975  27.868  29.566  1.00  0.00     0.031 C 
ATOM     47  C   UNL A   1      44.608  25.514  26.396  1.00  0.00     0.029 A 
ATOM     48  C   UNL A   1      44.708  26.868  26.925  1.00  0.00     0.049 A 
ATOM     49  H   UNL A   1      43.259  27.902  28.008  1.00  0.00     0.167 HD
ATOM     50  C   UNL A   1      40.114  29.973  30.222  1.00  0.00     0.034 A 
ATOM     51  C   UNL A   1      45.782  27.677  26.802  1.00  0.00     0.034 A 
ATOM     52  C   UNL A   1      41.237  30.878  30.220  1.00  0.00     0.049 A 
ATOM     53  C   UNL A   1      45.731  29.053  27.416  1.00  0.00     0.074 A 
ATOM     54  C   UNL A   1      41.346  32.118  30.825  1.00  0.00     0.029 A 
ATOM     55  N   UNL A   1      42.443  30.651  29.567  1.00  0.00    -0.354 N 
ATOM     56  N   UNL A   1      44.759  29.619  28.095  1.00  0.00    -0.248 NA
ATOM     57  C   UNL A   1      46.923  29.896  27.256  1.00  0.00     0.031 C 
ATOM     58  C   UNL A   1      42.587  32.668  30.483  1.00  0.00     0.029 A 
ATOM     59  C   UNL A   1      43.285  31.742  29.726  1.00  0.00     0.049 A 
ATOM     60  H   UNL A   1      42.666  29.835  29.064  1.00  0.00     0.167 HD
ATOM     61  C   UNL A   1      45.240  30.870  28.473  1.00  0.00     0.074 A 
ATOM     62  C   UNL A   1      46.588  30.971  27.953  1.00  0.00     0.031 C 
ATOM     63  C   UNL A   1      44.623  31.842  29.193  1.00  0.00     0.034 A 
BRANCH  50  64
ATOM     64  C   UNL A   1      38.841  30.385  30.915  1.00  0.00     0.023 A 
ATOM     65  C   UNL A   1      37.952  31.305  30.332  1.00  0.00     0.031 A 
ATOM     66  C   UNL A   1      38.537  29.891  32.195  1.00  0.00     0.131 A 
ATOM     67  C   UNL A   1      36.843  31.761  31.059  1.00  0.00     0.055 A 
ATOM     68  C   UNL A   1      37.388  30.289  32.881  1.00  0.00     0.041 A 
ATOM     69  F   UNL A   1      39.363  29.030  32.810  1.00  0.00    -0.206 F 
ATOM     70  C   UNL A   1      36.541  31.241  32.320  1.00  0.00     0.022 A 
BRANCH  67  71
ATOM     71  S   UNL A   1      35.885  33.151  30.397  1.00  0.00     0.124 S 
ATOM     72  O   UNL A   1      34.515  32.698  30.621  1.00  0.00    -0.237 OA
ATOM     73  O   UNL A   1      36.335  34.266  31.222  1.00  0.00    -0.237 OA
ATOM     74  O   UNL A   1      36.292  33.210  28.994  1.00  0.00    -0.744 OA
ENDBRANCH  67  71
ENDBRANCH  50  64
BRANCH  51  75
ATOM     75  C   UNL A   1      46.986  27.231  26.042  1.00  0.00     0.023 A 
ATOM     76  C   UNL A   1      48.057  26.591  26.687  1.00  0.00     0.031 A 
ATOM     77  C   UNL A   1      47.110  27.494  24.664  1.00  0.00     0.131 A 
ATOM     78  C   UNL A   1      49.223  26.280  25.967  1.00  0.00     0.055 A 
ATOM     79  C   UNL A   1      48.250  27.136  23.943  1.00  0.00     0.041 A 
ATOM     80  F   UNL A   1      46.115  28.101  23.997  1.00  0.00    -0.206 F 
ATOM     81  C   UNL A   1      49.322  26.539  24.599  1.00  0.00     0.022 A 
BRANCH  78  82
ATOM     82  S   UNL A   1      50.650  25.615  26.869  1.00  0.00     0.124 S 
ATOM     83  O   UNL A   1      51.574  25.311  25.782  1.00  0.00    -0.237 OA
ATOM     84  O   UNL A   1      51.015  26.737  27.728  1.00  0.00    -0.237 OA
ATOM     85  O   UNL A   1      50.101  24.453  27.565  1.00  0.00    -0.744 OA
ENDBRANCH  78  82
ENDBRANCH  51  75
BRANCH  63  86
ATOM     86  C   UNL A   1      45.428  33.081  29.502  1.00  0.00     0.023 A 
ATOM     87  C   UNL A   1      45.425  34.199  28.649  1.00  0.00     0.031 A 
ATOM     88  C   UNL A   1      46.220  33.136  30.663  1.00  0.00     0.131 A 
ATOM     89  C   UNL A   1      46.239  35.305  28.944  1.00  0.00     0.055 A 
ATOM     90  C   UNL A   1      46.982  34.260  30.980  1.00  0.00     0.041 A 
ATOM     91  F   UNL A   1      46.262  32.096  31.511  1.00  0.00    -0.206 F 
ATOM     92  C   UNL A   1      47.005  35.348  30.112  1.00  0.00     0.022 A 
BRANCH  89  93
ATOM     93  S   UNL A   1      46.349  36.654  27.737  1.00  0.00     0.124 S 
ATOM     94  O   UNL A   1      45.241  36.349  26.838  1.00  0.00    -0.237 OA
ATOM     95  O   UNL A   1      46.182  37.837  28.575  1.00  0.00    -0.237 OA
ATOM     96  O   UNL A   1      47.681  36.490  27.158  1.00  0.00    -0.744 OA
ENDBRANCH  89  93
ENDBRANCH  63  86
ENDBRANCH  37  38
ENDBRANCH  30  32
ENDBRANCH  29  30
ENDBRANCH  28  29
ENDBRANCH   1  28
TORSDOF 19
ENDMDL
