MODEL 1
REMARK VINA RESULT:     -11.6      0.000      0.000
REMARK SMILES Cc1ccc(C#N)cc1S(=O)(=O)Nc1cccc(C(=O)OCCOC(=O)c2ccc(-c3c4nc(c(-c5cc(S(=O)(=O)[O-])ccc5F)c5ccc([nH]5)c(-c5cc(S(=O)(=O)[O-])ccc5F)c5nc(c(-c6cc(S(=O)(=O)[O-])ccc6F)c6ccc3[nH]6)C=C5)C=C4)cc2)c1
REMARK SMILES IDX 22 1 21 2 19 3 20 4 18 5 14 6 15 7 90 8 16 9 17 10 13 11
REMARK SMILES IDX 10 13 11 14 12 15 9 16 1 17 2 18 3 19 4 20 8 21 5 22 6 23
REMARK SMILES IDX 7 24 23 25 24 26 25 27 26 28 27 29 28 30 89 31 29 32 88 33
REMARK SMILES IDX 30 34 31 35 32 36 82 37 33 38 87 39 81 40 83 41 34 42 86 43
REMARK SMILES IDX 80 44 79 45 35 47 67 48 47 49 66 50 48 51 51 52 65 53 84 54
REMARK SMILES IDX 49 55 50 56 64 58 85 59 52 60 36 61 37 62 45 63 38 64 44 65
REMARK SMILES IDX 46 66 43 67 39 68 40 69 41 70 42 71 68 72 69 73 77 74 70 75
REMARK SMILES IDX 76 76 78 77 75 78 71 79 72 80 73 81 74 82 53 83 54 84 62 85
REMARK SMILES IDX 55 86 61 87 63 88 60 89 56 90 57 91 58 92 59 93
REMARK H PARENT 13 12 83 46 51 57
REMARK Flexibility Score: inf
ROOT
ATOM      1  C   UNL A   1      34.876  20.696  25.392  1.00  0.00     0.275 C 
ENDROOT
BRANCH   1   2
ATOM      2  O   UNL A   1      33.996  20.536  24.259  1.00  0.00    -0.458 OA
BRANCH   2   3
ATOM      3  C   UNL A   1      32.679  20.326  24.528  1.00  0.00     0.338 C 
ATOM      4  O   UNL A   1      32.169  19.257  24.815  1.00  0.00    -0.246 OA
BRANCH   3   5
ATOM      5  C   UNL A   1      31.918  21.609  24.518  1.00  0.00     0.062 A 
ATOM      6  C   UNL A   1      31.309  23.689  23.429  1.00  0.00     0.050 A 
ATOM      7  C   UNL A   1      30.742  24.165  24.608  1.00  0.00     0.027 A 
ATOM      8  C   UNL A   1      31.819  22.384  23.364  1.00  0.00     0.042 A 
ATOM      9  C   UNL A   1      30.791  23.371  25.758  1.00  0.00     0.003 A 
ATOM     10  C   UNL A   1      31.389  22.105  25.717  1.00  0.00     0.016 A 
BRANCH   6  11
ATOM     11  N   UNL A   1      31.570  24.481  22.287  1.00  0.00    -0.280 N 
ATOM     12  H   UNL A   1      31.197  24.153  21.437  1.00  0.00     0.180 HD
BRANCH  11  13
ATOM     13  S   UNL A   1      32.429  25.895  22.209  1.00  0.00     0.262 S 
ATOM     14  O   UNL A   1      31.545  26.917  21.686  1.00  0.00    -0.201 OA
ATOM     15  O   UNL A   1      33.630  25.534  21.477  1.00  0.00    -0.201 OA
BRANCH  13  16
ATOM     16  C   UNL A   1      32.997  26.491  23.799  1.00  0.00     0.092 A 
ATOM     17  C   UNL A   1      34.732  24.694  24.520  1.00  0.00     0.046 C 
ATOM     18  C   UNL A   1      33.831  25.867  24.738  1.00  0.00    -0.030 A 
ATOM     19  C   UNL A   1      33.899  26.414  26.041  1.00  0.00     0.006 A 
ATOM     20  C   UNL A   1      33.302  27.632  26.360  1.00  0.00     0.020 A 
ATOM     21  C   UNL A   1      32.443  27.753  24.119  1.00  0.00     0.042 A 
ATOM     22  C   UNL A   1      32.622  28.336  25.376  1.00  0.00     0.053 A 
BRANCH  22  23
ATOM     23  C   UNL A   1      32.120  29.655  25.635  1.00  0.00     0.099 C 
ATOM     24  N   UNL A   1      31.696  30.703  25.885  1.00  0.00    -0.192 NA
ENDBRANCH  22  23
ENDBRANCH  13  16
ENDBRANCH  11  13
ENDBRANCH   6  11
ENDBRANCH   3   5
ENDBRANCH   2   3
ENDBRANCH   1   2
BRANCH   1  25
ATOM     25  C   UNL A   1      36.347  20.477  25.022  1.00  0.00     0.275 C 
BRANCH  25  26
ATOM     26  O   UNL A   1      37.186  21.513  25.554  1.00  0.00    -0.458 OA
BRANCH  26  27
ATOM     27  C   UNL A   1      38.472  21.151  25.768  1.00  0.00     0.338 C 
ATOM     28  O   UNL A   1      38.989  20.076  25.523  1.00  0.00    -0.246 OA
BRANCH  27  29
ATOM     29  C   UNL A   1      39.220  22.333  26.214  1.00  0.00     0.060 A 
ATOM     30  C   UNL A   1      40.485  22.226  26.789  1.00  0.00     0.016 A 
ATOM     31  C   UNL A   1      38.633  23.582  26.012  1.00  0.00     0.016 A 
ATOM     32  C   UNL A   1      41.143  23.390  27.201  1.00  0.00     0.010 A 
ATOM     33  C   UNL A   1      39.308  24.740  26.382  1.00  0.00     0.010 A 
ATOM     34  C   UNL A   1      40.559  24.658  27.003  1.00  0.00    -0.014 A 
BRANCH  34  35
ATOM     35  C   UNL A   1      41.249  25.908  27.418  1.00  0.00     0.031 A 
ATOM     36  C   UNL A   1      40.530  26.935  28.255  1.00  0.00     0.074 A 
ATOM     37  C   UNL A   1      42.503  26.146  26.986  1.00  0.00     0.049 A 
ATOM     38  N   UNL A   1      40.961  28.094  28.682  1.00  0.00    -0.248 NA
ATOM     39  C   UNL A   1      39.141  26.636  28.644  1.00  0.00     0.031 C 
ATOM     40  C   UNL A   1      43.269  25.249  26.123  1.00  0.00     0.029 A 
ATOM     41  N   UNL A   1      43.351  27.203  27.205  1.00  0.00    -0.354 N 
ATOM     42  C   UNL A   1      39.899  28.663  29.377  1.00  0.00     0.074 A 
ATOM     43  C   UNL A   1      38.783  27.753  29.261  1.00  0.00     0.031 C 
ATOM     44  C   UNL A   1      44.488  25.769  25.920  1.00  0.00     0.029 A 
ATOM     45  C   UNL A   1      44.574  27.068  26.586  1.00  0.00     0.049 A 
ATOM     46  H   UNL A   1      43.109  27.985  27.752  1.00  0.00     0.167 HD
ATOM     47  C   UNL A   1      39.873  29.824  30.075  1.00  0.00     0.034 A 
ATOM     48  C   UNL A   1      45.641  27.893  26.549  1.00  0.00     0.034 A 
ATOM     49  C   UNL A   1      41.012  30.697  30.203  1.00  0.00     0.049 A 
ATOM     50  C   UNL A   1      45.586  29.186  27.323  1.00  0.00     0.074 A 
ATOM     51  C   UNL A   1      41.113  31.855  30.954  1.00  0.00     0.029 A 
ATOM     52  N   UNL A   1      42.235  30.521  29.572  1.00  0.00    -0.354 N 
ATOM     53  N   UNL A   1      44.616  29.651  28.073  1.00  0.00    -0.248 NA
ATOM     54  C   UNL A   1      46.762  30.064  27.258  1.00  0.00     0.031 C 
ATOM     55  C   UNL A   1      42.359  32.424  30.706  1.00  0.00     0.029 A 
ATOM     56  C   UNL A   1      43.079  31.574  29.881  1.00  0.00     0.049 A 
ATOM     57  H   UNL A   1      42.468  29.760  28.992  1.00  0.00     0.167 HD
ATOM     58  C   UNL A   1      45.072  30.860  28.589  1.00  0.00     0.074 A 
ATOM     59  C   UNL A   1      46.417  31.044  28.085  1.00  0.00     0.031 C 
ATOM     60  C   UNL A   1      44.430  31.738  29.398  1.00  0.00     0.034 A 
BRANCH  47  61
ATOM     61  C   UNL A   1      38.607  30.227  30.797  1.00  0.00     0.023 A 
ATOM     62  C   UNL A   1      37.649  31.024  30.141  1.00  0.00     0.031 A 
ATOM     63  C   UNL A   1      38.434  29.980  32.171  1.00  0.00     0.131 A 
ATOM     64  C   UNL A   1      36.596  31.592  30.870  1.00  0.00     0.055 A 
ATOM     65  C   UNL A   1      37.350  30.499  32.880  1.00  0.00     0.041 A 
ATOM     66  F   UNL A   1      39.323  29.235  32.848  1.00  0.00    -0.206 F 
ATOM     67  C   UNL A   1      36.436  31.325  32.234  1.00  0.00     0.022 A 
BRANCH  64  68
ATOM     68  S   UNL A   1      35.457  32.777  30.104  1.00  0.00     0.124 S 
ATOM     69  O   UNL A   1      34.376  32.832  31.087  1.00  0.00    -0.237 OA
ATOM     70  O   UNL A   1      36.281  33.979  30.018  1.00  0.00    -0.237 OA
ATOM     71  O   UNL A   1      35.106  32.156  28.832  1.00  0.00    -0.744 OA
ENDBRANCH  64  68
ENDBRANCH  47  61
BRANCH  48  72
ATOM     72  C   UNL A   1      46.858  27.469  25.795  1.00  0.00     0.023 A 
ATOM     73  C   UNL A   1      47.110  27.955  24.498  1.00  0.00     0.031 A 
ATOM     74  C   UNL A   1      47.711  26.475  26.302  1.00  0.00     0.131 A 
ATOM     75  C   UNL A   1      48.123  27.380  23.722  1.00  0.00     0.055 A 
ATOM     76  C   UNL A   1      48.776  25.966  25.557  1.00  0.00     0.041 A 
ATOM     77  F   UNL A   1      47.506  25.968  27.529  1.00  0.00    -0.206 F 
ATOM     78  C   UNL A   1      48.972  26.403  24.250  1.00  0.00     0.022 A 
BRANCH  75  79
ATOM     79  S   UNL A   1      48.264  27.762  21.953  1.00  0.00     0.124 S 
ATOM     80  O   UNL A   1      46.962  28.352  21.664  1.00  0.00    -0.237 OA
ATOM     81  O   UNL A   1      49.396  28.686  21.940  1.00  0.00    -0.237 OA
ATOM     82  O   UNL A   1      48.521  26.463  21.340  1.00  0.00    -0.744 OA
ENDBRANCH  75  79
ENDBRANCH  48  72
BRANCH  60  83
ATOM     83  C   UNL A   1      45.139  33.002  29.824  1.00  0.00     0.023 A 
ATOM     84  C   UNL A   1      45.805  33.042  31.065  1.00  0.00     0.031 A 
ATOM     85  C   UNL A   1      44.962  34.207  29.124  1.00  0.00     0.131 A 
ATOM     86  C   UNL A   1      46.190  34.274  31.608  1.00  0.00     0.055 A 
ATOM     87  C   UNL A   1      45.408  35.424  29.640  1.00  0.00     0.041 A 
ATOM     88  F   UNL A   1      44.325  34.222  27.942  1.00  0.00    -0.206 F 
ATOM     89  C   UNL A   1      46.003  35.464  30.899  1.00  0.00     0.022 A 
BRANCH  86  90
ATOM     90  S   UNL A   1      46.828  34.387  33.304  1.00  0.00     0.124 S 
ATOM     91  O   UNL A   1      48.264  34.213  33.101  1.00  0.00    -0.237 OA
ATOM     92  O   UNL A   1      46.411  35.730  33.697  1.00  0.00    -0.237 OA
ATOM     93  O   UNL A   1      46.164  33.292  34.004  1.00  0.00    -0.744 OA
ENDBRANCH  86  90
ENDBRANCH  60  83
ENDBRANCH  34  35
ENDBRANCH  27  29
ENDBRANCH  26  27
ENDBRANCH  25  26
ENDBRANCH   1  25
TORSDOF 18
ENDMDL
MODEL 2
REMARK VINA RESULT:     -11.6      4.655      7.448
REMARK SMILES Cc1ccc(C#N)cc1S(=O)(=O)Nc1cccc(C(=O)OCCOC(=O)c2ccc(-c3c4nc(c(-c5cc(S(=O)(=O)[O-])ccc5F)c5ccc([nH]5)c(-c5cc(S(=O)(=O)[O-])ccc5F)c5nc(c(-c6cc(S(=O)(=O)[O-])ccc6F)c6ccc3[nH]6)C=C5)C=C4)cc2)c1
REMARK SMILES IDX 22 1 21 2 19 3 20 4 18 5 14 6 15 7 90 8 16 9 17 10 13 11
REMARK SMILES IDX 10 13 11 14 12 15 9 16 1 17 2 18 3 19 4 20 8 21 5 22 6 23
REMARK SMILES IDX 7 24 23 25 24 26 25 27 26 28 27 29 28 30 89 31 29 32 88 33
REMARK SMILES IDX 30 34 31 35 32 36 82 37 33 38 87 39 81 40 83 41 34 42 86 43
REMARK SMILES IDX 80 44 79 45 35 47 67 48 47 49 66 50 48 51 51 52 65 53 84 54
REMARK SMILES IDX 49 55 50 56 64 58 85 59 52 60 36 61 37 62 45 63 38 64 44 65
REMARK SMILES IDX 46 66 43 67 39 68 40 69 41 70 42 71 68 72 69 73 77 74 70 75
REMARK SMILES IDX 76 76 78 77 75 78 71 79 72 80 73 81 74 82 53 83 54 84 62 85
REMARK SMILES IDX 55 86 61 87 63 88 60 89 56 90 57 91 58 92 59 93
REMARK H PARENT 13 12 83 46 51 57
REMARK Flexibility Score: inf
ROOT
ATOM      1  C   UNL A   1      31.866  30.453  25.552  1.00  0.00     0.275 C 
ENDROOT
BRANCH   1   2
ATOM      2  O   UNL A   1      32.795  29.426  25.144  1.00  0.00    -0.458 OA
BRANCH   2   3
ATOM      3  C   UNL A   1      32.429  28.651  24.088  1.00  0.00     0.338 C 
ATOM      4  O   UNL A   1      32.944  28.659  22.983  1.00  0.00    -0.246 OA
BRANCH   3   5
ATOM      5  C   UNL A   1      31.348  27.697  24.470  1.00  0.00     0.062 A 
ATOM      6  C   UNL A   1      30.566  25.818  25.790  1.00  0.00     0.050 A 
ATOM      7  C   UNL A   1      29.435  25.698  24.987  1.00  0.00     0.027 A 
ATOM      8  C   UNL A   1      31.475  26.866  25.582  1.00  0.00     0.042 A 
ATOM      9  C   UNL A   1      29.274  26.564  23.901  1.00  0.00     0.003 A 
ATOM     10  C   UNL A   1      30.233  27.549  23.636  1.00  0.00     0.016 A 
BRANCH   6  11
ATOM     11  N   UNL A   1      30.985  24.854  26.736  1.00  0.00    -0.280 N 
ATOM     12  H   UNL A   1      30.785  25.056  27.679  1.00  0.00     0.180 HD
BRANCH  11  13
ATOM     13  S   UNL A   1      31.773  23.426  26.447  1.00  0.00     0.262 S 
ATOM     14  O   UNL A   1      30.815  22.507  25.866  1.00  0.00    -0.201 OA
ATOM     15  O   UNL A   1      32.400  23.110  27.718  1.00  0.00    -0.201 OA
BRANCH  13  16
ATOM     16  C   UNL A   1      33.115  23.559  25.270  1.00  0.00     0.092 A 
ATOM     17  C   UNL A   1      31.886  23.692  22.983  1.00  0.00     0.046 C 
ATOM     18  C   UNL A   1      33.079  23.519  23.869  1.00  0.00    -0.030 A 
ATOM     19  C   UNL A   1      34.298  23.353  23.172  1.00  0.00     0.006 A 
ATOM     20  C   UNL A   1      35.530  23.398  23.822  1.00  0.00     0.020 A 
ATOM     21  C   UNL A   1      34.372  23.659  25.911  1.00  0.00     0.042 A 
ATOM     22  C   UNL A   1      35.569  23.616  25.192  1.00  0.00     0.053 A 
BRANCH  22  23
ATOM     23  C   UNL A   1      36.821  23.808  25.866  1.00  0.00     0.099 C 
ATOM     24  N   UNL A   1      37.838  24.001  26.383  1.00  0.00    -0.192 NA
ENDBRANCH  22  23
ENDBRANCH  13  16
ENDBRANCH  11  13
ENDBRANCH   6  11
ENDBRANCH   3   5
ENDBRANCH   2   3
ENDBRANCH   1   2
BRANCH   1  25
ATOM     25  C   UNL A   1      32.127  30.940  26.981  1.00  0.00     0.275 C 
BRANCH  25  26
ATOM     26  O   UNL A   1      33.447  30.593  27.425  1.00  0.00    -0.458 OA
BRANCH  26  27
ATOM     27  C   UNL A   1      34.227  31.644  27.770  1.00  0.00     0.338 C 
ATOM     28  O   UNL A   1      33.918  32.822  27.784  1.00  0.00    -0.246 OA
BRANCH  27  29
ATOM     29  C   UNL A   1      35.500  31.127  28.290  1.00  0.00     0.060 A 
ATOM     30  C   UNL A   1      36.682  31.859  28.193  1.00  0.00     0.016 A 
ATOM     31  C   UNL A   1      35.483  29.884  28.919  1.00  0.00     0.016 A 
ATOM     32  C   UNL A   1      37.864  31.309  28.700  1.00  0.00     0.010 A 
ATOM     33  C   UNL A   1      36.649  29.358  29.462  1.00  0.00     0.010 A 
ATOM     34  C   UNL A   1      37.859  30.052  29.338  1.00  0.00    -0.014 A 
BRANCH  34  35
ATOM     35  C   UNL A   1      39.101  29.456  29.899  1.00  0.00     0.031 A 
ATOM     36  C   UNL A   1      39.716  30.015  31.156  1.00  0.00     0.074 A 
ATOM     37  C   UNL A   1      39.708  28.451  29.238  1.00  0.00     0.049 A 
ATOM     38  N   UNL A   1      40.810  29.645  31.769  1.00  0.00    -0.248 NA
ATOM     39  C   UNL A   1      39.030  31.151  31.795  1.00  0.00     0.031 C 
ATOM     40  C   UNL A   1      39.232  27.875  27.981  1.00  0.00     0.029 A 
ATOM     41  N   UNL A   1      40.849  27.741  29.519  1.00  0.00    -0.354 N 
ATOM     42  C   UNL A   1      40.948  30.504  32.854  1.00  0.00     0.074 A 
ATOM     43  C   UNL A   1      39.864  31.454  32.781  1.00  0.00     0.031 C 
ATOM     44  C   UNL A   1      40.046  26.873  27.622  1.00  0.00     0.029 A 
ATOM     45  C   UNL A   1      41.139  26.771  28.586  1.00  0.00     0.049 A 
ATOM     46  H   UNL A   1      41.407  27.909  30.312  1.00  0.00     0.167 HD
ATOM     47  C   UNL A   1      41.879  30.477  33.839  1.00  0.00     0.034 A 
ATOM     48  C   UNL A   1      42.169  25.902  28.508  1.00  0.00     0.034 A 
ATOM     49  C   UNL A   1      42.932  29.496  33.907  1.00  0.00     0.049 A 
ATOM     50  C   UNL A   1      43.200  25.897  29.608  1.00  0.00     0.074 A 
ATOM     51  C   UNL A   1      43.876  29.331  34.905  1.00  0.00     0.029 A 
ATOM     52  N   UNL A   1      43.187  28.523  32.951  1.00  0.00    -0.354 N 
ATOM     53  N   UNL A   1      43.247  26.637  30.690  1.00  0.00    -0.248 NA
ATOM     54  C   UNL A   1      44.311  24.942  29.490  1.00  0.00     0.031 C 
ATOM     55  C   UNL A   1      44.752  28.324  34.511  1.00  0.00     0.029 A 
ATOM     56  C   UNL A   1      44.302  27.787  33.316  1.00  0.00     0.049 A 
ATOM     57  H   UNL A   1      42.654  28.377  32.136  1.00  0.00     0.167 HD
ATOM     58  C   UNL A   1      44.375  26.222  31.392  1.00  0.00     0.074 A 
ATOM     59  C   UNL A   1      44.969  25.147  30.625  1.00  0.00     0.031 C 
ATOM     60  C   UNL A   1      44.874  26.696  32.561  1.00  0.00     0.034 A 
BRANCH  47  61
ATOM     61  C   UNL A   1      41.808  31.494  34.955  1.00  0.00     0.023 A 
ATOM     62  C   UNL A   1      40.722  31.477  35.851  1.00  0.00     0.031 A 
ATOM     63  C   UNL A   1      42.706  32.574  35.023  1.00  0.00     0.131 A 
ATOM     64  C   UNL A   1      40.529  32.548  36.734  1.00  0.00     0.055 A 
ATOM     65  C   UNL A   1      42.542  33.609  35.945  1.00  0.00     0.041 A 
ATOM     66  F   UNL A   1      43.753  32.646  34.185  1.00  0.00    -0.206 F 
ATOM     67  C   UNL A   1      41.439  33.608  36.793  1.00  0.00     0.022 A 
BRANCH  64  68
ATOM     68  S   UNL A   1      39.040  32.657  37.765  1.00  0.00     0.124 S 
ATOM     69  O   UNL A   1      38.310  31.455  37.366  1.00  0.00    -0.237 OA
ATOM     70  O   UNL A   1      39.602  32.626  39.113  1.00  0.00    -0.237 OA
ATOM     71  O   UNL A   1      38.426  33.917  37.363  1.00  0.00    -0.744 OA
ENDBRANCH  64  68
ENDBRANCH  47  61
BRANCH  48  72
ATOM     72  C   UNL A   1      42.217  24.937  27.369  1.00  0.00     0.023 A 
ATOM     73  C   UNL A   1      41.464  23.748  27.399  1.00  0.00     0.031 A 
ATOM     74  C   UNL A   1      43.113  25.122  26.303  1.00  0.00     0.131 A 
ATOM     75  C   UNL A   1      41.692  22.754  26.439  1.00  0.00     0.055 A 
ATOM     76  C   UNL A   1      43.273  24.166  25.299  1.00  0.00     0.041 A 
ATOM     77  F   UNL A   1      43.865  26.233  26.236  1.00  0.00    -0.206 F 
ATOM     78  C   UNL A   1      42.576  22.964  25.377  1.00  0.00     0.022 A 
BRANCH  75  79
ATOM     79  S   UNL A   1      40.973  21.099  26.633  1.00  0.00     0.124 S 
ATOM     80  O   UNL A   1      39.730  21.215  25.880  1.00  0.00    -0.237 OA
ATOM     81  O   UNL A   1      42.004  20.257  26.030  1.00  0.00    -0.237 OA
ATOM     82  O   UNL A   1      40.828  20.954  28.078  1.00  0.00    -0.744 OA
ENDBRANCH  75  79
ENDBRANCH  48  72
BRANCH  60  83
ATOM     83  C   UNL A   1      46.130  26.081  33.129  1.00  0.00     0.023 A 
ATOM     84  C   UNL A   1      46.030  25.004  34.033  1.00  0.00     0.031 A 
ATOM     85  C   UNL A   1      47.382  26.696  32.961  1.00  0.00     0.131 A 
ATOM     86  C   UNL A   1      47.143  24.634  34.798  1.00  0.00     0.055 A 
ATOM     87  C   UNL A   1      48.503  26.278  33.679  1.00  0.00     0.041 A 
ATOM     88  F   UNL A   1      47.525  27.732  32.119  1.00  0.00    -0.206 F 
ATOM     89  C   UNL A   1      48.381  25.259  34.620  1.00  0.00     0.022 A 
BRANCH  86  90
ATOM     90  S   UNL A   1      46.989  23.419  36.138  1.00  0.00     0.124 S 
ATOM     91  O   UNL A   1      45.540  23.270  36.248  1.00  0.00    -0.237 OA
ATOM     92  O   UNL A   1      47.696  22.266  35.586  1.00  0.00    -0.237 OA
ATOM     93  O   UNL A   1      47.634  24.067  37.276  1.00  0.00    -0.744 OA
ENDBRANCH  86  90
ENDBRANCH  60  83
ENDBRANCH  34  35
ENDBRANCH  27  29
ENDBRANCH  26  27
ENDBRANCH  25  26
ENDBRANCH   1  25
TORSDOF 18
ENDMDL
MODEL 3
REMARK VINA RESULT:     -11.6      4.374      9.506
REMARK SMILES Cc1ccc(C#N)cc1S(=O)(=O)Nc1cccc(C(=O)OCCOC(=O)c2ccc(-c3c4nc(c(-c5cc(S(=O)(=O)[O-])ccc5F)c5ccc([nH]5)c(-c5cc(S(=O)(=O)[O-])ccc5F)c5nc(c(-c6cc(S(=O)(=O)[O-])ccc6F)c6ccc3[nH]6)C=C5)C=C4)cc2)c1
REMARK SMILES IDX 22 1 21 2 19 3 20 4 18 5 14 6 15 7 90 8 16 9 17 10 13 11
REMARK SMILES IDX 10 13 11 14 12 15 9 16 1 17 2 18 3 19 4 20 8 21 5 22 6 23
REMARK SMILES IDX 7 24 23 25 24 26 25 27 26 28 27 29 28 30 89 31 29 32 88 33
REMARK SMILES IDX 30 34 31 35 32 36 82 37 33 38 87 39 81 40 83 41 34 42 86 43
REMARK SMILES IDX 80 44 79 45 35 47 67 48 47 49 66 50 48 51 51 52 65 53 84 54
REMARK SMILES IDX 49 55 50 56 64 58 85 59 52 60 36 61 37 62 45 63 38 64 44 65
REMARK SMILES IDX 46 66 43 67 39 68 40 69 41 70 42 71 68 72 69 73 77 74 70 75
REMARK SMILES IDX 76 76 78 77 75 78 71 79 72 80 73 81 74 82 53 83 54 84 62 85
REMARK SMILES IDX 55 86 61 87 63 88 60 89 56 90 57 91 58 92 59 93
REMARK H PARENT 13 12 83 46 51 57
REMARK Flexibility Score: inf
ROOT
ATOM      1  C   UNL A   1      31.600  29.424  26.111  1.00  0.00     0.275 C 
ENDROOT
BRANCH   1   2
ATOM      2  O   UNL A   1      31.940  29.229  24.722  1.00  0.00    -0.458 OA
BRANCH   2   3
ATOM      3  C   UNL A   1      30.921  28.916  23.878  1.00  0.00     0.338 C 
ATOM      4  O   UNL A   1      30.134  29.705  23.384  1.00  0.00    -0.246 OA
BRANCH   3   5
ATOM      5  C   UNL A   1      30.928  27.463  23.543  1.00  0.00     0.062 A 
ATOM      6  C   UNL A   1      30.593  25.150  24.192  1.00  0.00     0.050 A 
ATOM      7  C   UNL A   1      31.227  24.710  23.032  1.00  0.00     0.027 A 
ATOM      8  C   UNL A   1      30.371  26.518  24.403  1.00  0.00     0.042 A 
ATOM      9  C   UNL A   1      31.742  25.654  22.137  1.00  0.00     0.003 A 
ATOM     10  C   UNL A   1      31.606  27.022  22.399  1.00  0.00     0.016 A 
BRANCH   6  11
ATOM     11  N   UNL A   1      30.275  24.324  25.295  1.00  0.00    -0.280 N 
ATOM     12  H   UNL A   1      29.344  24.361  25.611  1.00  0.00     0.180 HD
BRANCH  11  13
ATOM     13  S   UNL A   1      31.285  23.301  26.119  1.00  0.00     0.262 S 
ATOM     14  O   UNL A   1      31.041  21.958  25.633  1.00  0.00    -0.201 OA
ATOM     15  O   UNL A   1      31.041  23.620  27.514  1.00  0.00    -0.201 OA
BRANCH  13  16
ATOM     16  C   UNL A   1      33.025  23.622  25.850  1.00  0.00     0.092 A 
ATOM     17  C   UNL A   1      33.225  26.182  26.256  1.00  0.00     0.046 C 
ATOM     18  C   UNL A   1      33.706  24.847  25.786  1.00  0.00    -0.030 A 
ATOM     19  C   UNL A   1      35.025  24.853  25.275  1.00  0.00     0.006 A 
ATOM     20  C   UNL A   1      35.714  23.673  24.998  1.00  0.00     0.020 A 
ATOM     21  C   UNL A   1      33.752  22.431  25.619  1.00  0.00     0.042 A 
ATOM     22  C   UNL A   1      35.094  22.453  25.231  1.00  0.00     0.053 A 
BRANCH  22  23
ATOM     23  C   UNL A   1      35.823  21.225  25.091  1.00  0.00     0.099 C 
ATOM     24  N   UNL A   1      36.451  20.260  24.970  1.00  0.00    -0.192 NA
ENDBRANCH  22  23
ENDBRANCH  13  16
ENDBRANCH  11  13
ENDBRANCH   6  11
ENDBRANCH   3   5
ENDBRANCH   2   3
ENDBRANCH   1   2
BRANCH   1  25
ATOM     25  C   UNL A   1      32.126  30.755  26.658  1.00  0.00     0.275 C 
BRANCH  25  26
ATOM     26  O   UNL A   1      33.557  30.753  26.770  1.00  0.00    -0.458 OA
BRANCH  26  27
ATOM     27  C   UNL A   1      34.071  31.743  27.535  1.00  0.00     0.338 C 
ATOM     28  O   UNL A   1      33.544  32.801  27.827  1.00  0.00    -0.246 OA
BRANCH  27  29
ATOM     29  C   UNL A   1      35.340  31.276  28.109  1.00  0.00     0.060 A 
ATOM     30  C   UNL A   1      36.475  32.085  28.132  1.00  0.00     0.016 A 
ATOM     31  C   UNL A   1      35.365  29.999  28.666  1.00  0.00     0.016 A 
ATOM     32  C   UNL A   1      37.656  31.580  28.686  1.00  0.00     0.010 A 
ATOM     33  C   UNL A   1      36.527  29.515  29.255  1.00  0.00     0.010 A 
ATOM     34  C   UNL A   1      37.693  30.289  29.252  1.00  0.00    -0.014 A 
BRANCH  34  35
ATOM     35  C   UNL A   1      38.934  29.739  29.860  1.00  0.00     0.031 A 
ATOM     36  C   UNL A   1      39.671  28.604  29.198  1.00  0.00     0.074 A 
ATOM     37  C   UNL A   1      39.359  30.221  31.044  1.00  0.00     0.049 A 
ATOM     38  N   UNL A   1      40.748  27.979  29.599  1.00  0.00    -0.248 NA
ATOM     39  C   UNL A   1      39.119  28.087  27.934  1.00  0.00     0.031 C 
ATOM     40  C   UNL A   1      38.687  31.277  31.802  1.00  0.00     0.029 A 
ATOM     41  N   UNL A   1      40.444  29.894  31.820  1.00  0.00    -0.354 N 
ATOM     42  C   UNL A   1      40.994  26.994  28.648  1.00  0.00     0.074 A 
ATOM     43  C   UNL A   1      39.920  27.061  27.684  1.00  0.00     0.031 C 
ATOM     44  C   UNL A   1      39.396  31.541  32.909  1.00  0.00     0.029 A 
ATOM     45  C   UNL A   1      40.540  30.634  32.977  1.00  0.00     0.049 A 
ATOM     46  H   UNL A   1      41.092  29.195  31.572  1.00  0.00     0.167 HD
ATOM     47  C   UNL A   1      42.040  26.136  28.573  1.00  0.00     0.034 A 
ATOM     48  C   UNL A   1      41.438  30.586  33.983  1.00  0.00     0.034 A 
ATOM     49  C   UNL A   1      43.116  26.113  29.531  1.00  0.00     0.049 A 
ATOM     50  C   UNL A   1      42.587  29.616  33.885  1.00  0.00     0.074 A 
ATOM     51  C   UNL A   1      44.263  25.339  29.501  1.00  0.00     0.029 A 
ATOM     52  N   UNL A   1      43.184  26.884  30.682  1.00  0.00    -0.354 N 
ATOM     53  N   UNL A   1      42.870  28.775  32.918  1.00  0.00    -0.248 NA
ATOM     54  C   UNL A   1      43.545  29.586  34.999  1.00  0.00     0.031 C 
ATOM     55  C   UNL A   1      44.975  25.575  30.673  1.00  0.00     0.029 A 
ATOM     56  C   UNL A   1      44.330  26.569  31.392  1.00  0.00     0.049 A 
ATOM     57  H   UNL A   1      42.518  27.556  30.953  1.00  0.00     0.167 HD
ATOM     58  C   UNL A   1      44.047  28.136  33.294  1.00  0.00     0.074 A 
ATOM     59  C   UNL A   1      44.439  28.705  34.567  1.00  0.00     0.031 C 
ATOM     60  C   UNL A   1      44.732  27.161  32.647  1.00  0.00     0.034 A 
BRANCH  47  61
ATOM     61  C   UNL A   1      42.125  25.170  27.414  1.00  0.00     0.023 A 
ATOM     62  C   UNL A   1      41.392  23.967  27.448  1.00  0.00     0.031 A 
ATOM     63  C   UNL A   1      43.055  25.348  26.374  1.00  0.00     0.131 A 
ATOM     64  C   UNL A   1      41.643  22.969  26.498  1.00  0.00     0.055 A 
ATOM     65  C   UNL A   1      43.258  24.375  25.395  1.00  0.00     0.041 A 
ATOM     66  F   UNL A   1      43.788  26.471  26.299  1.00  0.00    -0.206 F 
ATOM     67  C   UNL A   1      42.565  23.171  25.466  1.00  0.00     0.022 A 
BRANCH  64  68
ATOM     68  S   UNL A   1      40.863  21.336  26.623  1.00  0.00     0.124 S 
ATOM     69  O   UNL A   1      39.577  21.567  25.967  1.00  0.00    -0.237 OA
ATOM     70  O   UNL A   1      41.798  20.495  25.881  1.00  0.00    -0.237 OA
ATOM     71  O   UNL A   1      40.791  21.090  28.058  1.00  0.00    -0.744 OA
ENDBRANCH  64  68
ENDBRANCH  47  61
BRANCH  48  72
ATOM     72  C   UNL A   1      41.296  31.538  35.125  1.00  0.00     0.023 A 
ATOM     73  C   UNL A   1      40.210  31.440  36.015  1.00  0.00     0.031 A 
ATOM     74  C   UNL A   1      42.164  32.633  35.264  1.00  0.00     0.131 A 
ATOM     75  C   UNL A   1      39.968  32.468  36.935  1.00  0.00     0.055 A 
ATOM     76  C   UNL A   1      41.969  33.610  36.242  1.00  0.00     0.041 A 
ATOM     77  F   UNL A   1      43.208  32.780  34.431  1.00  0.00    -0.206 F 
ATOM     78  C   UNL A   1      40.852  33.542  37.069  1.00  0.00     0.022 A 
BRANCH  75  79
ATOM     79  S   UNL A   1      38.412  32.525  37.869  1.00  0.00     0.124 S 
ATOM     80  O   UNL A   1      37.599  31.538  37.170  1.00  0.00    -0.237 OA
ATOM     81  O   UNL A   1      38.858  32.146  39.208  1.00  0.00    -0.237 OA
ATOM     82  O   UNL A   1      37.981  33.913  37.733  1.00  0.00    -0.744 OA
ENDBRANCH  75  79
ENDBRANCH  48  72
BRANCH  60  83
ATOM     83  C   UNL A   1      45.996  26.613  33.265  1.00  0.00     0.023 A 
ATOM     84  C   UNL A   1      47.249  27.066  32.806  1.00  0.00     0.031 A 
ATOM     85  C   UNL A   1      45.963  25.501  34.124  1.00  0.00     0.131 A 
ATOM     86  C   UNL A   1      48.409  26.356  33.138  1.00  0.00     0.055 A 
ATOM     87  C   UNL A   1      47.130  24.838  34.505  1.00  0.00     0.041 A 
ATOM     88  F   UNL A   1      44.793  25.027  34.581  1.00  0.00    -0.206 F 
ATOM     89  C   UNL A   1      48.358  25.249  33.991  1.00  0.00     0.022 A 
BRANCH  86  90
ATOM     90  S   UNL A   1      50.003  26.764  32.371  1.00  0.00     0.124 S 
ATOM     91  O   UNL A   1      49.674  26.724  30.948  1.00  0.00    -0.237 OA
ATOM     92  O   UNL A   1      50.270  28.094  32.913  1.00  0.00    -0.237 OA
ATOM     93  O   UNL A   1      50.896  25.706  32.831  1.00  0.00    -0.744 OA
ENDBRANCH  86  90
ENDBRANCH  60  83
ENDBRANCH  34  35
ENDBRANCH  27  29
ENDBRANCH  26  27
ENDBRANCH  25  26
ENDBRANCH   1  25
TORSDOF 18
ENDMDL
