MODEL 1
REMARK VINA RESULT:     -11.3      0.000      0.000
REMARK SMILES CCCc1nn2c(=O)cc(CSc3ccccc3C(=O)OCCOC(=O)c3ccc(-c4c5nc(c(-c6cc(S(=O)(=O)[O-])ccc6F)c6ccc([nH]6)c(-c6cc(S(=O)(=O)[O-])ccc6F)c6nc(c(-c7cc(S(=O)(=O)[O-])ccc7F)c7ccc4[nH]7)C=C6)C=C5)cc3)nc2s1
REMARK SMILES IDX 22 1 21 2 19 3 20 4 18 5 13 6 14 7 15 8 17 9 16 10 12 11
REMARK SMILES IDX 11 12 10 13 4 14 5 15 92 16 6 17 91 18 7 19 90 20 8 21 9 22
REMARK SMILES IDX 3 23 2 24 1 25 23 26 24 27 25 28 26 29 27 30 28 31 89 32
REMARK SMILES IDX 29 33 88 34 30 35 31 36 32 37 82 38 33 39 87 40 81 41 83 42
REMARK SMILES IDX 34 43 86 44 80 45 79 46 35 48 67 49 47 50 66 51 48 52 51 53
REMARK SMILES IDX 65 54 84 55 49 56 50 57 64 59 85 60 52 61 36 62 37 63 45 64
REMARK SMILES IDX 38 65 44 66 46 67 43 68 39 69 40 70 41 71 42 72 68 73 69 74
REMARK SMILES IDX 77 75 70 76 76 77 78 78 75 79 71 80 72 81 73 82 74 83 53 84
REMARK SMILES IDX 54 85 62 86 55 87 61 88 63 89 60 90 56 91 57 92 58 93 59 94
REMARK H PARENT 83 47 51 58
REMARK Flexibility Score: inf
ROOT
ATOM      1  C   UNL A   1      31.854  28.844  26.632  1.00  0.00     0.275 C 
ENDROOT
BRANCH   1   2
ATOM      2  O   UNL A   1      31.212  28.144  25.546  1.00  0.00    -0.458 OA
BRANCH   2   3
ATOM      3  C   UNL A   1      31.282  26.789  25.589  1.00  0.00     0.339 C 
ATOM      4  O   UNL A   1      30.760  26.077  26.434  1.00  0.00    -0.246 OA
BRANCH   3   5
ATOM      5  C   UNL A   1      31.946  26.224  24.386  1.00  0.00     0.073 A 
ATOM      6  C   UNL A   1      33.260  25.732  24.341  1.00  0.00     0.022 A 
ATOM      7  C   UNL A   1      33.734  25.197  23.125  1.00  0.00     0.016 A 
ATOM      8  C   UNL A   1      32.929  25.147  21.984  1.00  0.00     0.001 A 
ATOM      9  C   UNL A   1      31.129  26.114  23.240  1.00  0.00     0.017 A 
ATOM     10  C   UNL A   1      31.619  25.596  22.044  1.00  0.00     0.001 A 
BRANCH   6  11
ATOM     11  S   UNL A   1      34.244  25.339  25.778  1.00  0.00    -0.119 SA
BRANCH  11  12
ATOM     12  C   UNL A   1      33.715  23.708  26.353  1.00  0.00     0.131 C 
BRANCH  12  13
ATOM     13  C   UNL A   1      34.144  22.439  25.658  1.00  0.00     0.060 A 
ATOM     14  C   UNL A   1      34.043  18.081  24.285  1.00  0.00     0.117 A 
ATOM     15  N   UNL A   1      35.173  18.678  24.487  1.00  0.00    -0.156 NA
ATOM     16  S   UNL A   1      32.592  19.048  24.435  1.00  0.00    -0.079 S 
ATOM     17  N   UNL A   1      34.928  19.995  24.803  1.00  0.00    -0.167 N 
ATOM     18  C   UNL A   1      33.614  20.378  24.887  1.00  0.00     0.215 A 
ATOM     19  C   UNL A   1      35.945  20.843  25.171  1.00  0.00     0.275 A 
ATOM     20  N   UNL A   1      33.173  21.523  25.300  1.00  0.00    -0.223 NA
ATOM     21  O   UNL A   1      37.140  20.575  25.272  1.00  0.00    -0.267 OA
ATOM     22  C   UNL A   1      35.461  22.170  25.606  1.00  0.00     0.098 A 
BRANCH  14  23
ATOM     23  C   UNL A   1      33.937  16.609  24.010  1.00  0.00     0.069 C 
BRANCH  23  24
ATOM     24  C   UNL A   1      33.872  15.798  25.307  1.00  0.00     0.004 C 
ATOM     25  C   UNL A   1      32.585  14.996  25.445  1.00  0.00     0.004 C 
ENDBRANCH  23  24
ENDBRANCH  14  23
ENDBRANCH  12  13
ENDBRANCH  11  12
ENDBRANCH   6  11
ENDBRANCH   3   5
ENDBRANCH   2   3
ENDBRANCH   1   2
BRANCH   1  26
ATOM     26  C   UNL A   1      31.996  30.339  26.338  1.00  0.00     0.275 C 
BRANCH  26  27
ATOM     27  O   UNL A   1      33.373  30.741  26.271  1.00  0.00    -0.458 OA
BRANCH  27  28
ATOM     28  C   UNL A   1      33.748  31.627  27.221  1.00  0.00     0.338 C 
ATOM     29  O   UNL A   1      33.139  32.604  27.615  1.00  0.00    -0.246 OA
BRANCH  28  30
ATOM     30  C   UNL A   1      34.996  31.196  27.842  1.00  0.00     0.060 A 
ATOM     31  C   UNL A   1      35.028  29.915  28.383  1.00  0.00     0.016 A 
ATOM     32  C   UNL A   1      36.063  32.076  28.010  1.00  0.00     0.016 A 
ATOM     33  C   UNL A   1      36.118  29.511  29.138  1.00  0.00     0.010 A 
ATOM     34  C   UNL A   1      37.197  31.639  28.701  1.00  0.00     0.010 A 
ATOM     35  C   UNL A   1      37.231  30.355  29.273  1.00  0.00    -0.014 A 
BRANCH  35  36
ATOM     36  C   UNL A   1      38.447  29.856  29.963  1.00  0.00     0.031 A 
ATOM     37  C   UNL A   1      38.798  30.334  31.341  1.00  0.00     0.074 A 
ATOM     38  C   UNL A   1      39.229  28.964  29.325  1.00  0.00     0.049 A 
ATOM     39  N   UNL A   1      39.882  30.118  32.039  1.00  0.00    -0.248 NA
ATOM     40  C   UNL A   1      37.804  31.181  32.018  1.00  0.00     0.031 C 
ATOM     41  C   UNL A   1      38.962  28.415  27.991  1.00  0.00     0.029 A 
ATOM     42  N   UNL A   1      40.395  28.353  29.704  1.00  0.00    -0.354 N 
ATOM     43  C   UNL A   1      39.726  30.835  33.221  1.00  0.00     0.074 A 
ATOM     44  C   UNL A   1      38.440  31.498  33.138  1.00  0.00     0.031 C 
ATOM     45  C   UNL A   1      39.913  27.522  27.683  1.00  0.00     0.029 A 
ATOM     46  C   UNL A   1      40.904  27.502  28.750  1.00  0.00     0.049 A 
ATOM     47  H   UNL A   1      40.828  28.509  30.574  1.00  0.00     0.167 HD
ATOM     48  C   UNL A   1      40.586  30.932  34.266  1.00  0.00     0.034 A 
ATOM     49  C   UNL A   1      42.061  26.817  28.716  1.00  0.00     0.034 A 
ATOM     50  C   UNL A   1      41.857  30.245  34.320  1.00  0.00     0.049 A 
ATOM     51  C   UNL A   1      43.007  26.959  29.875  1.00  0.00     0.074 A 
ATOM     52  C   UNL A   1      42.813  30.266  35.321  1.00  0.00     0.029 A 
ATOM     53  N   UNL A   1      42.352  29.410  33.322  1.00  0.00    -0.354 N 
ATOM     54  N   UNL A   1      42.870  27.683  30.962  1.00  0.00    -0.248 NA
ATOM     55  C   UNL A   1      44.262  26.207  29.796  1.00  0.00     0.031 C 
ATOM     56  C   UNL A   1      43.903  29.489  34.907  1.00  0.00     0.029 A 
ATOM     57  C   UNL A   1      43.604  28.929  33.675  1.00  0.00     0.049 A 
ATOM     58  H   UNL A   1      41.880  29.192  32.487  1.00  0.00     0.167 HD
ATOM     59  C   UNL A   1      44.029  27.474  31.700  1.00  0.00     0.074 A 
ATOM     60  C   UNL A   1      44.835  26.532  30.946  1.00  0.00     0.031 C 
ATOM     61  C   UNL A   1      44.399  28.014  32.889  1.00  0.00     0.034 A 
BRANCH  48  62
ATOM     62  C   UNL A   1      40.207  31.867  35.392  1.00  0.00     0.023 A 
ATOM     63  C   UNL A   1      39.302  31.497  36.403  1.00  0.00     0.031 A 
ATOM     64  C   UNL A   1      40.730  33.173  35.428  1.00  0.00     0.131 A 
ATOM     65  C   UNL A   1      38.895  32.440  37.360  1.00  0.00     0.055 A 
ATOM     66  C   UNL A   1      40.379  34.084  36.428  1.00  0.00     0.041 A 
ATOM     67  F   UNL A   1      41.580  33.595  34.479  1.00  0.00    -0.206 F 
ATOM     68  C   UNL A   1      39.445  33.724  37.393  1.00  0.00     0.022 A 
BRANCH  65  69
ATOM     69  S   UNL A   1      37.530  32.013  38.478  1.00  0.00     0.124 S 
ATOM     70  O   UNL A   1      37.286  30.615  38.129  1.00  0.00    -0.237 OA
ATOM     71  O   UNL A   1      38.112  32.251  39.793  1.00  0.00    -0.237 OA
ATOM     72  O   UNL A   1      36.466  32.937  38.091  1.00  0.00    -0.744 OA
ENDBRANCH  65  69
ENDBRANCH  48  62
BRANCH  49  73
ATOM     73  C   UNL A   1      42.408  25.998  27.521  1.00  0.00     0.023 A 
ATOM     74  C   UNL A   1      42.058  24.641  27.444  1.00  0.00     0.031 A 
ATOM     75  C   UNL A   1      43.089  26.568  26.429  1.00  0.00     0.131 A 
ATOM     76  C   UNL A   1      42.406  23.895  26.306  1.00  0.00     0.055 A 
ATOM     77  C   UNL A   1      43.388  25.836  25.281  1.00  0.00     0.041 A 
ATOM     78  F   UNL A   1      43.442  27.863  26.452  1.00  0.00    -0.206 F 
ATOM     79  C   UNL A   1      43.053  24.487  25.218  1.00  0.00     0.022 A 
BRANCH  76  80
ATOM     80  S   UNL A   1      42.046  22.119  26.288  1.00  0.00     0.124 S 
ATOM     81  O   UNL A   1      42.874  21.657  25.179  1.00  0.00    -0.237 OA
ATOM     82  O   UNL A   1      42.474  21.709  27.622  1.00  0.00    -0.237 OA
ATOM     83  O   UNL A   1      40.604  22.065  26.055  1.00  0.00    -0.744 OA
ENDBRANCH  76  80
ENDBRANCH  49  73
BRANCH  61  84
ATOM     84  C   UNL A   1      45.731  27.569  33.434  1.00  0.00     0.023 A 
ATOM     85  C   UNL A   1      45.841  26.446  34.271  1.00  0.00     0.031 A 
ATOM     86  C   UNL A   1      46.893  28.307  33.150  1.00  0.00     0.131 A 
ATOM     87  C   UNL A   1      47.079  26.126  34.846  1.00  0.00     0.055 A 
ATOM     88  C   UNL A   1      48.132  27.951  33.683  1.00  0.00     0.041 A 
ATOM     89  F   UNL A   1      46.838  29.390  32.360  1.00  0.00    -0.206 F 
ATOM     90  C   UNL A   1      48.227  26.863  34.547  1.00  0.00     0.022 A 
BRANCH  87  91
ATOM     91  S   UNL A   1      47.150  24.786  36.067  1.00  0.00     0.124 S 
ATOM     92  O   UNL A   1      46.435  25.369  37.198  1.00  0.00    -0.237 OA
ATOM     93  O   UNL A   1      46.470  23.696  35.375  1.00  0.00    -0.237 OA
ATOM     94  O   UNL A   1      48.583  24.588  36.275  1.00  0.00    -0.744 OA
ENDBRANCH  87  91
ENDBRANCH  61  84
ENDBRANCH  35  36
ENDBRANCH  28  30
ENDBRANCH  27  28
ENDBRANCH  26  27
ENDBRANCH   1  26
TORSDOF 19
ENDMDL
MODEL 2
REMARK VINA RESULT:     -11.1      1.415      7.583
REMARK SMILES CCCc1nn2c(=O)cc(CSc3ccccc3C(=O)OCCOC(=O)c3ccc(-c4c5nc(c(-c6cc(S(=O)(=O)[O-])ccc6F)c6ccc([nH]6)c(-c6cc(S(=O)(=O)[O-])ccc6F)c6nc(c(-c7cc(S(=O)(=O)[O-])ccc7F)c7ccc4[nH]7)C=C6)C=C5)cc3)nc2s1
REMARK SMILES IDX 22 1 21 2 19 3 20 4 18 5 13 6 14 7 15 8 17 9 16 10 12 11
REMARK SMILES IDX 11 12 10 13 4 14 5 15 92 16 6 17 91 18 7 19 90 20 8 21 9 22
REMARK SMILES IDX 3 23 2 24 1 25 23 26 24 27 25 28 26 29 27 30 28 31 89 32
REMARK SMILES IDX 29 33 88 34 30 35 31 36 32 37 82 38 33 39 87 40 81 41 83 42
REMARK SMILES IDX 34 43 86 44 80 45 79 46 35 48 67 49 47 50 66 51 48 52 51 53
REMARK SMILES IDX 65 54 84 55 49 56 50 57 64 59 85 60 52 61 36 62 37 63 45 64
REMARK SMILES IDX 38 65 44 66 46 67 43 68 39 69 40 70 41 71 42 72 68 73 69 74
REMARK SMILES IDX 77 75 70 76 76 77 78 78 75 79 71 80 72 81 73 82 74 83 53 84
REMARK SMILES IDX 54 85 62 86 55 87 61 88 63 89 60 90 56 91 57 92 58 93 59 94
REMARK H PARENT 83 47 51 58
REMARK Flexibility Score: inf
ROOT
ATOM      1  C   UNL A   1      31.769  28.879  26.468  1.00  0.00     0.275 C 
ENDROOT
BRANCH   1   2
ATOM      2  O   UNL A   1      31.250  28.466  25.187  1.00  0.00    -0.458 OA
BRANCH   2   3
ATOM      3  C   UNL A   1      31.042  27.133  25.031  1.00  0.00     0.339 C 
ATOM      4  O   UNL A   1      30.250  26.458  25.671  1.00  0.00    -0.246 OA
BRANCH   3   5
ATOM      5  C   UNL A   1      31.782  26.584  23.866  1.00  0.00     0.073 A 
ATOM      6  C   UNL A   1      33.105  26.115  23.894  1.00  0.00     0.022 A 
ATOM      7  C   UNL A   1      33.656  25.593  22.706  1.00  0.00     0.016 A 
ATOM      8  C   UNL A   1      32.918  25.531  21.521  1.00  0.00     0.001 A 
ATOM      9  C   UNL A   1      31.034  26.463  22.676  1.00  0.00     0.017 A 
ATOM     10  C   UNL A   1      31.599  25.958  21.508  1.00  0.00     0.001 A 
BRANCH   6  11
ATOM     11  S   UNL A   1      34.015  25.736  25.384  1.00  0.00    -0.119 SA
BRANCH  11  12
ATOM     12  C   UNL A   1      33.407  24.142  25.983  1.00  0.00     0.131 C 
BRANCH  12  13
ATOM     13  C   UNL A   1      33.922  22.834  25.432  1.00  0.00     0.060 A 
ATOM     14  C   UNL A   1      33.937  18.433  24.199  1.00  0.00     0.117 A 
ATOM     15  N   UNL A   1      35.022  19.000  24.618  1.00  0.00    -0.156 NA
ATOM     16  S   UNL A   1      32.527  19.452  24.009  1.00  0.00    -0.079 S 
ATOM     17  N   UNL A   1      34.769  20.334  24.836  1.00  0.00    -0.167 N 
ATOM     18  C   UNL A   1      33.483  20.764  24.628  1.00  0.00     0.215 A 
ATOM     19  C   UNL A   1      35.719  21.162  25.386  1.00  0.00     0.275 A 
ATOM     20  N   UNL A   1      33.012  21.938  24.904  1.00  0.00    -0.223 NA
ATOM     21  O   UNL A   1      36.854  20.858  25.746  1.00  0.00    -0.267 OA
ATOM     22  C   UNL A   1      35.208  22.519  25.669  1.00  0.00     0.098 A 
BRANCH  14  23
ATOM     23  C   UNL A   1      33.832  16.956  23.951  1.00  0.00     0.069 C 
BRANCH  23  24
ATOM     24  C   UNL A   1      34.097  16.152  25.227  1.00  0.00     0.004 C 
ATOM     25  C   UNL A   1      32.856  15.441  25.752  1.00  0.00     0.004 C 
ENDBRANCH  23  24
ENDBRANCH  14  23
ENDBRANCH  12  13
ENDBRANCH  11  12
ENDBRANCH   6  11
ENDBRANCH   3   5
ENDBRANCH   2   3
ENDBRANCH   1   2
BRANCH   1  26
ATOM     26  C   UNL A   1      31.788  30.402  26.608  1.00  0.00     0.275 C 
BRANCH  26  27
ATOM     27  O   UNL A   1      33.095  30.946  26.367  1.00  0.00    -0.458 OA
BRANCH  27  28
ATOM     28  C   UNL A   1      33.481  31.897  27.248  1.00  0.00     0.338 C 
ATOM     29  O   UNL A   1      32.928  32.951  27.501  1.00  0.00    -0.246 OA
BRANCH  28  30
ATOM     30  C   UNL A   1      34.653  31.444  27.990  1.00  0.00     0.060 A 
ATOM     31  C   UNL A   1      35.682  32.362  28.176  1.00  0.00     0.016 A 
ATOM     32  C   UNL A   1      34.797  30.113  28.373  1.00  0.00     0.016 A 
ATOM     33  C   UNL A   1      36.889  31.946  28.714  1.00  0.00     0.010 A 
ATOM     34  C   UNL A   1      35.985  29.713  28.993  1.00  0.00     0.010 A 
ATOM     35  C   UNL A   1      37.040  30.626  29.164  1.00  0.00    -0.014 A 
BRANCH  35  36
ATOM     36  C   UNL A   1      38.287  30.232  29.867  1.00  0.00     0.031 A 
ATOM     37  C   UNL A   1      39.265  29.290  29.228  1.00  0.00     0.074 A 
ATOM     38  C   UNL A   1      38.522  30.739  31.093  1.00  0.00     0.049 A 
ATOM     39  N   UNL A   1      40.328  28.730  29.742  1.00  0.00    -0.248 NA
ATOM     40  C   UNL A   1      39.003  28.918  27.830  1.00  0.00     0.031 C 
ATOM     41  C   UNL A   1      37.646  31.683  31.795  1.00  0.00     0.029 A 
ATOM     42  N   UNL A   1      39.561  30.545  31.965  1.00  0.00    -0.354 N 
ATOM     43  C   UNL A   1      40.843  27.903  28.748  1.00  0.00     0.074 A 
ATOM     44  C   UNL A   1      39.965  28.034  27.603  1.00  0.00     0.031 C 
ATOM     45  C   UNL A   1      38.204  32.016  32.967  1.00  0.00     0.029 A 
ATOM     46  C   UNL A   1      39.425  31.242  33.144  1.00  0.00     0.049 A 
ATOM     47  H   UNL A   1      40.330  29.963  31.768  1.00  0.00     0.167 HD
ATOM     48  C   UNL A   1      41.939  27.105  28.801  1.00  0.00     0.034 A 
ATOM     49  C   UNL A   1      40.173  31.225  34.262  1.00  0.00     0.034 A 
ATOM     50  C   UNL A   1      42.800  27.009  29.959  1.00  0.00     0.049 A 
ATOM     51  C   UNL A   1      41.369  30.317  34.305  1.00  0.00     0.074 A 
ATOM     52  C   UNL A   1      43.937  26.237  30.134  1.00  0.00     0.029 A 
ATOM     53  N   UNL A   1      42.616  27.712  31.146  1.00  0.00    -0.354 N 
ATOM     54  N   UNL A   1      41.814  29.500  33.378  1.00  0.00    -0.248 NA
ATOM     55  C   UNL A   1      42.153  30.319  35.543  1.00  0.00     0.031 C 
ATOM     56  C   UNL A   1      44.407  26.433  31.439  1.00  0.00     0.029 A 
ATOM     57  C   UNL A   1      43.604  27.376  32.061  1.00  0.00     0.049 A 
ATOM     58  H   UNL A   1      41.891  28.355  31.313  1.00  0.00     0.167 HD
ATOM     59  C   UNL A   1      42.933  28.885  33.925  1.00  0.00     0.074 A 
ATOM     60  C   UNL A   1      43.110  29.452  35.248  1.00  0.00     0.031 C 
ATOM     61  C   UNL A   1      43.738  27.934  33.386  1.00  0.00     0.034 A 
BRANCH  48  62
ATOM     62  C   UNL A   1      42.218  26.228  27.603  1.00  0.00     0.023 A 
ATOM     63  C   UNL A   1      41.744  24.907  27.512  1.00  0.00     0.031 A 
ATOM     64  C   UNL A   1      43.013  26.712  26.547  1.00  0.00     0.131 A 
ATOM     65  C   UNL A   1      42.126  24.096  26.431  1.00  0.00     0.055 A 
ATOM     66  C   UNL A   1      43.327  25.924  25.436  1.00  0.00     0.041 A 
ATOM     67  F   UNL A   1      43.514  27.956  26.583  1.00  0.00    -0.206 F 
ATOM     68  C   UNL A   1      42.896  24.603  25.381  1.00  0.00     0.022 A 
BRANCH  65  69
ATOM     69  S   UNL A   1      41.724  22.327  26.485  1.00  0.00     0.124 S 
ATOM     70  O   UNL A   1      42.198  21.954  27.815  1.00  0.00    -0.237 OA
ATOM     71  O   UNL A   1      40.279  22.326  26.297  1.00  0.00    -0.237 OA
ATOM     72  O   UNL A   1      42.497  21.764  25.378  1.00  0.00    -0.744 OA
ENDBRANCH  65  69
ENDBRANCH  48  62
BRANCH  49  73
ATOM     73  C   UNL A   1      39.771  32.043  35.440  1.00  0.00     0.023 A 
ATOM     74  C   UNL A   1      40.339  33.304  35.678  1.00  0.00     0.031 A 
ATOM     75  C   UNL A   1      38.798  31.576  36.344  1.00  0.00     0.131 A 
ATOM     76  C   UNL A   1      39.943  34.046  36.803  1.00  0.00     0.055 A 
ATOM     77  C   UNL A   1      38.372  32.338  37.431  1.00  0.00     0.041 A 
ATOM     78  F   UNL A   1      38.220  30.378  36.159  1.00  0.00    -0.206 F 
ATOM     79  C   UNL A   1      38.952  33.579  37.670  1.00  0.00     0.022 A 
BRANCH  76  80
ATOM     80  S   UNL A   1      40.782  35.616  37.147  1.00  0.00     0.124 S 
ATOM     81  O   UNL A   1      39.655  36.526  37.321  1.00  0.00    -0.237 OA
ATOM     82  O   UNL A   1      41.539  35.296  38.354  1.00  0.00    -0.237 OA
ATOM     83  O   UNL A   1      41.589  35.841  35.950  1.00  0.00    -0.744 OA
ENDBRANCH  76  80
ENDBRANCH  49  73
BRANCH  61  84
ATOM     84  C   UNL A   1      44.888  27.477  34.245  1.00  0.00     0.023 A 
ATOM     85  C   UNL A   1      44.765  26.371  35.105  1.00  0.00     0.031 A 
ATOM     86  C   UNL A   1      46.102  28.185  34.239  1.00  0.00     0.131 A 
ATOM     87  C   UNL A   1      45.819  26.040  35.968  1.00  0.00     0.055 A 
ATOM     88  C   UNL A   1      47.166  27.818  35.062  1.00  0.00     0.041 A 
ATOM     89  F   UNL A   1      46.266  29.250  33.439  1.00  0.00    -0.206 F 
ATOM     90  C   UNL A   1      47.023  26.748  35.943  1.00  0.00     0.022 A 
BRANCH  87  91
ATOM     91  S   UNL A   1      45.560  24.729  37.193  1.00  0.00     0.124 S 
ATOM     92  O   UNL A   1      44.152  24.904  37.532  1.00  0.00    -0.237 OA
ATOM     93  O   UNL A   1      45.889  23.524  36.437  1.00  0.00    -0.237 OA
ATOM     94  O   UNL A   1      46.501  25.066  38.260  1.00  0.00    -0.744 OA
ENDBRANCH  87  91
ENDBRANCH  61  84
ENDBRANCH  35  36
ENDBRANCH  28  30
ENDBRANCH  27  28
ENDBRANCH  26  27
ENDBRANCH   1  26
TORSDOF 19
ENDMDL
MODEL 3
REMARK VINA RESULT:     -10.9      2.729      8.240
REMARK SMILES CCCc1nn2c(=O)cc(CSc3ccccc3C(=O)OCCOC(=O)c3ccc(-c4c5nc(c(-c6cc(S(=O)(=O)[O-])ccc6F)c6ccc([nH]6)c(-c6cc(S(=O)(=O)[O-])ccc6F)c6nc(c(-c7cc(S(=O)(=O)[O-])ccc7F)c7ccc4[nH]7)C=C6)C=C5)cc3)nc2s1
REMARK SMILES IDX 22 1 21 2 19 3 20 4 18 5 13 6 14 7 15 8 17 9 16 10 12 11
REMARK SMILES IDX 11 12 10 13 4 14 5 15 92 16 6 17 91 18 7 19 90 20 8 21 9 22
REMARK SMILES IDX 3 23 2 24 1 25 23 26 24 27 25 28 26 29 27 30 28 31 89 32
REMARK SMILES IDX 29 33 88 34 30 35 31 36 32 37 82 38 33 39 87 40 81 41 83 42
REMARK SMILES IDX 34 43 86 44 80 45 79 46 35 48 67 49 47 50 66 51 48 52 51 53
REMARK SMILES IDX 65 54 84 55 49 56 50 57 64 59 85 60 52 61 36 62 37 63 45 64
REMARK SMILES IDX 38 65 44 66 46 67 43 68 39 69 40 70 41 71 42 72 68 73 69 74
REMARK SMILES IDX 77 75 70 76 76 77 78 78 75 79 71 80 72 81 73 82 74 83 53 84
REMARK SMILES IDX 54 85 62 86 55 87 61 88 63 89 60 90 56 91 57 92 58 93 59 94
REMARK H PARENT 83 47 51 58
REMARK Flexibility Score: inf
ROOT
ATOM      1  C   UNL A   1      32.517  31.461  27.075  1.00  0.00     0.275 C 
ENDROOT
BRANCH   1   2
ATOM      2  O   UNL A   1      31.685  30.822  26.085  1.00  0.00    -0.458 OA
BRANCH   2   3
ATOM      3  C   UNL A   1      32.225  29.744  25.461  1.00  0.00     0.339 C 
ATOM      4  O   UNL A   1      33.377  29.356  25.582  1.00  0.00    -0.246 OA
BRANCH   3   5
ATOM      5  C   UNL A   1      31.208  28.965  24.709  1.00  0.00     0.073 A 
ATOM      6  C   UNL A   1      30.913  27.608  24.912  1.00  0.00     0.022 A 
ATOM      7  C   UNL A   1      29.894  27.019  24.136  1.00  0.00     0.016 A 
ATOM      8  C   UNL A   1      29.180  27.754  23.186  1.00  0.00     0.001 A 
ATOM      9  C   UNL A   1      30.440  29.705  23.786  1.00  0.00     0.017 A 
ATOM     10  C   UNL A   1      29.446  29.104  23.017  1.00  0.00     0.001 A 
BRANCH   6  11
ATOM     11  S   UNL A   1      31.420  26.664  26.342  1.00  0.00    -0.119 SA
BRANCH  11  12
ATOM     12  C   UNL A   1      30.938  24.947  26.041  1.00  0.00     0.131 C 
BRANCH  12  13
ATOM     13  C   UNL A   1      31.943  23.821  26.064  1.00  0.00     0.060 A 
ATOM     14  C   UNL A   1      35.916  21.634  25.494  1.00  0.00     0.117 A 
ATOM     15  N   UNL A   1      34.795  20.999  25.376  1.00  0.00    -0.156 NA
ATOM     16  S   UNL A   1      35.834  23.307  26.002  1.00  0.00    -0.079 S 
ATOM     17  N   UNL A   1      33.764  21.857  25.681  1.00  0.00    -0.167 N 
ATOM     18  C   UNL A   1      34.104  23.152  25.983  1.00  0.00     0.215 A 
ATOM     19  C   UNL A   1      32.451  21.478  25.538  1.00  0.00     0.275 A 
ATOM     20  N   UNL A   1      33.285  24.138  26.163  1.00  0.00    -0.223 NA
ATOM     21  O   UNL A   1      32.027  20.395  25.139  1.00  0.00    -0.267 OA
ATOM     22  C   UNL A   1      31.501  22.583  25.780  1.00  0.00     0.098 A 
BRANCH  14  23
ATOM     23  C   UNL A   1      37.241  21.022  25.146  1.00  0.00     0.069 C 
BRANCH  23  24
ATOM     24  C   UNL A   1      38.405  21.873  25.659  1.00  0.00     0.004 C 
ATOM     25  C   UNL A   1      39.611  21.044  26.082  1.00  0.00     0.004 C 
ENDBRANCH  23  24
ENDBRANCH  14  23
ENDBRANCH  12  13
ENDBRANCH  11  12
ENDBRANCH   6  11
ENDBRANCH   3   5
ENDBRANCH   2   3
ENDBRANCH   1   2
BRANCH   1  26
ATOM     26  C   UNL A   1      32.110  32.918  27.305  1.00  0.00     0.275 C 
BRANCH  26  27
ATOM     27  O   UNL A   1      33.252  33.771  27.481  1.00  0.00    -0.458 OA
BRANCH  27  28
ATOM     28  C   UNL A   1      33.340  34.349  28.700  1.00  0.00     0.338 C 
ATOM     29  O   UNL A   1      32.575  35.150  29.205  1.00  0.00    -0.246 OA
BRANCH  28  30
ATOM     30  C   UNL A   1      34.468  33.790  29.438  1.00  0.00     0.060 A 
ATOM     31  C   UNL A   1      35.744  34.116  28.991  1.00  0.00     0.016 A 
ATOM     32  C   UNL A   1      34.277  32.859  30.456  1.00  0.00     0.016 A 
ATOM     33  C   UNL A   1      36.849  33.481  29.535  1.00  0.00     0.010 A 
ATOM     34  C   UNL A   1      35.396  32.280  31.061  1.00  0.00     0.010 A 
ATOM     35  C   UNL A   1      36.690  32.584  30.602  1.00  0.00    -0.014 A 
BRANCH  35  36
ATOM     36  C   UNL A   1      37.891  32.019  31.267  1.00  0.00     0.031 A 
ATOM     37  C   UNL A   1      38.689  30.930  30.615  1.00  0.00     0.074 A 
ATOM     38  C   UNL A   1      38.248  32.508  32.471  1.00  0.00     0.049 A 
ATOM     39  N   UNL A   1      39.677  30.225  31.103  1.00  0.00    -0.248 NA
ATOM     40  C   UNL A   1      38.318  30.576  29.237  1.00  0.00     0.031 C 
ATOM     41  C   UNL A   1      37.553  33.586  33.182  1.00  0.00     0.029 A 
ATOM     42  N   UNL A   1      39.281  32.175  33.309  1.00  0.00    -0.354 N 
ATOM     43  C   UNL A   1      40.021  29.312  30.111  1.00  0.00     0.074 A 
ATOM     44  C   UNL A   1      39.127  29.553  28.997  1.00  0.00     0.031 C 
ATOM     45  C   UNL A   1      38.201  33.852  34.324  1.00  0.00     0.029 A 
ATOM     46  C   UNL A   1      39.299  32.906  34.474  1.00  0.00     0.049 A 
ATOM     47  H   UNL A   1      39.945  31.481  33.097  1.00  0.00     0.167 HD
ATOM     48  C   UNL A   1      40.986  28.359  30.143  1.00  0.00     0.034 A 
ATOM     49  C   UNL A   1      40.080  32.798  35.564  1.00  0.00     0.034 A 
ATOM     50  C   UNL A   1      41.869  28.155  31.270  1.00  0.00     0.049 A 
ATOM     51  C   UNL A   1      41.127  31.721  35.584  1.00  0.00     0.074 A 
ATOM     52  C   UNL A   1      42.883  27.224  31.421  1.00  0.00     0.029 A 
ATOM     53  N   UNL A   1      41.841  28.899  32.446  1.00  0.00    -0.354 N 
ATOM     54  N   UNL A   1      41.406  30.829  34.661  1.00  0.00    -0.248 NA
ATOM     55  C   UNL A   1      41.951  31.626  36.792  1.00  0.00     0.031 C 
ATOM     56  C   UNL A   1      43.429  27.371  32.703  1.00  0.00     0.029 A 
ATOM     57  C   UNL A   1      42.802  28.435  33.331  1.00  0.00     0.049 A 
ATOM     58  H   UNL A   1      41.227  29.647  32.623  1.00  0.00     0.167 HD
ATOM     59  C   UNL A   1      42.442  30.062  35.181  1.00  0.00     0.074 A 
ATOM     60  C   UNL A   1      42.755  30.619  36.483  1.00  0.00     0.031 C 
ATOM     61  C   UNL A   1      43.073  28.991  34.636  1.00  0.00     0.034 A 
BRANCH  48  62
ATOM     62  C   UNL A   1      41.081  27.428  28.956  1.00  0.00     0.023 A 
ATOM     63  C   UNL A   1      42.063  27.579  27.960  1.00  0.00     0.031 A 
ATOM     64  C   UNL A   1      40.141  26.392  28.797  1.00  0.00     0.131 A 
ATOM     65  C   UNL A   1      42.037  26.759  26.820  1.00  0.00     0.055 A 
ATOM     66  C   UNL A   1      40.168  25.531  27.697  1.00  0.00     0.041 A 
ATOM     67  F   UNL A   1      39.166  26.210  29.701  1.00  0.00    -0.206 F 
ATOM     68  C   UNL A   1      41.111  25.722  26.693  1.00  0.00     0.022 A 
BRANCH  65  69
ATOM     69  S   UNL A   1      43.143  27.158  25.436  1.00  0.00     0.124 S 
ATOM     70  O   UNL A   1      44.329  27.648  26.135  1.00  0.00    -0.237 OA
ATOM     71  O   UNL A   1      43.284  25.873  24.763  1.00  0.00    -0.237 OA
ATOM     72  O   UNL A   1      42.406  28.176  24.689  1.00  0.00    -0.744 OA
ENDBRANCH  65  69
ENDBRANCH  48  62
BRANCH  49  73
ATOM     73  C   UNL A   1      39.853  33.689  36.736  1.00  0.00     0.023 A 
ATOM     74  C   UNL A   1      39.179  33.230  37.878  1.00  0.00     0.031 A 
ATOM     75  C   UNL A   1      40.320  35.017  36.733  1.00  0.00     0.131 A 
ATOM     76  C   UNL A   1      38.976  34.098  38.963  1.00  0.00     0.055 A 
ATOM     77  C   UNL A   1      40.159  35.859  37.832  1.00  0.00     0.041 A 
ATOM     78  F   UNL A   1      40.974  35.503  35.666  1.00  0.00    -0.206 F 
ATOM     79  C   UNL A   1      39.476  35.403  38.954  1.00  0.00     0.022 A 
BRANCH  76  80
ATOM     80  S   UNL A   1      37.998  33.513  40.373  1.00  0.00     0.124 S 
ATOM     81  O   UNL A   1      37.781  34.747  41.120  1.00  0.00    -0.237 OA
ATOM     82  O   UNL A   1      36.826  32.946  39.715  1.00  0.00    -0.237 OA
ATOM     83  O   UNL A   1      38.878  32.540  41.018  1.00  0.00    -0.744 OA
ENDBRANCH  76  80
ENDBRANCH  49  73
BRANCH  61  84
ATOM     84  C   UNL A   1      44.175  28.381  35.463  1.00  0.00     0.023 A 
ATOM     85  C   UNL A   1      45.510  28.800  35.327  1.00  0.00     0.031 A 
ATOM     86  C   UNL A   1      43.891  27.336  36.359  1.00  0.00     0.131 A 
ATOM     87  C   UNL A   1      46.523  28.135  36.033  1.00  0.00     0.055 A 
ATOM     88  C   UNL A   1      44.897  26.715  37.099  1.00  0.00     0.041 A 
ATOM     89  F   UNL A   1      42.633  26.898  36.521  1.00  0.00    -0.206 F 
ATOM     90  C   UNL A   1      46.224  27.105  36.928  1.00  0.00     0.022 A 
BRANCH  87  91
ATOM     91  S   UNL A   1      48.249  28.574  35.694  1.00  0.00     0.124 S 
ATOM     92  O   UNL A   1      48.153  29.187  34.373  1.00  0.00    -0.237 OA
ATOM     93  O   UNL A   1      48.565  29.478  36.796  1.00  0.00    -0.237 OA
ATOM     94  O   UNL A   1      48.943  27.288  35.732  1.00  0.00    -0.744 OA
ENDBRANCH  87  91
ENDBRANCH  61  84
ENDBRANCH  35  36
ENDBRANCH  28  30
ENDBRANCH  27  28
ENDBRANCH  26  27
ENDBRANCH   1  26
TORSDOF 19
ENDMDL
