MODEL 1
REMARK VINA RESULT:     -13.5      0.000      0.000
REMARK SMILES C[C@]1(C(=O)OCCOC(=O)c2ccc(-c3c4nc(c(-c5cc(S(=O)(=O)[O-])ccc5F)c5ccc([nH]5)c(-c5cc(S(=O)(=O)[O-])ccc5F)c5nc(c(-c6cc(S(=O)(=O)[O-])ccc6F)c6ccc3[nH]6)C=C5)C=C4)cc2)[NH2+]C2(C(=O)c3ccccc3C2=O)[C@@H]2C(=O)N(c3ccccc3)C(=O)[C@H]21
REMARK SMILES IDX 7 1 6 2 5 3 3 4 4 5 2 6 1 7 74 8 98 9 75 10 86 13 96 14
REMARK SMILES IDX 76 15 84 16 87 17 89 18 97 19 77 20 78 21 83 22 85 23 88 24
REMARK SMILES IDX 79 25 82 26 80 27 81 28 90 29 91 30 95 31 92 32 94 33 93 34
REMARK SMILES IDX 8 35 9 36 10 37 11 38 12 39 73 40 13 41 72 42 14 43 15 44
REMARK SMILES IDX 16 45 66 46 17 47 71 48 65 49 67 50 18 51 70 52 64 53 63 54
REMARK SMILES IDX 19 56 51 57 31 58 50 59 32 60 35 61 49 62 68 63 33 64 34 65
REMARK SMILES IDX 48 67 69 68 36 69 20 70 21 71 29 72 22 73 28 74 30 75 27 76
REMARK SMILES IDX 23 77 24 78 25 79 26 80 52 81 53 82 61 83 54 84 60 85 62 86
REMARK SMILES IDX 59 87 55 88 56 89 57 90 58 91 37 92 38 93 46 94 39 95 45 96
REMARK SMILES IDX 47 97 44 98 40 99 41 100 42 101 43 102
REMARK H PARENT 74 11 74 12 67 55 35 66
REMARK Flexibility Score: inf
ROOT
ATOM      1  C   UNL A   1      39.003  20.792  26.067  1.00  0.00     0.275 C 
ENDROOT
BRANCH   1   2
ATOM      2  C   UNL A   1      38.095  21.037  24.862  1.00  0.00     0.274 C 
BRANCH   2   3
ATOM      3  O   UNL A   1      37.823  22.442  24.701  1.00  0.00    -0.457 OA
BRANCH   3   4
ATOM      4  C   UNL A   1      36.663  22.803  24.082  1.00  0.00     0.368 C 
ATOM      5  O   UNL A   1      36.502  22.766  22.870  1.00  0.00    -0.245 OA
BRANCH   4   6
ATOM      6  C   UNL A   1      35.611  23.378  25.088  1.00  0.00     0.205 C 
ATOM      7  C   UNL A   1      36.224  23.742  26.440  1.00  0.00     0.093 C 
ATOM      8  N   UNL A   1      34.872  24.570  24.519  1.00  0.00    -0.313 N 
ATOM      9  C   UNL A   1      34.490  22.396  25.274  1.00  0.00     0.172 C 
ATOM     10  C   UNL A   1      33.509  24.095  24.062  1.00  0.00     0.237 C 
ATOM     11  H   UNL A   1      35.389  24.953  23.727  1.00  0.00     0.348 HD
ATOM     12  H   UNL A   1      34.777  25.300  25.225  1.00  0.00     0.348 HD
ATOM     13  C   UNL A   1      33.679  22.610  24.016  1.00  0.00     0.177 C 
ATOM     14  C   UNL A   1      34.621  20.922  25.303  1.00  0.00     0.244 C 
ATOM     15  C   UNL A   1      32.435  24.660  24.989  1.00  0.00     0.232 C 
ATOM     16  C   UNL A   1      33.173  24.732  22.713  1.00  0.00     0.232 C 
ATOM     17  C   UNL A   1      32.704  21.495  24.154  1.00  0.00     0.245 C 
ATOM     18  N   UNL A   1      33.446  20.456  24.722  1.00  0.00    -0.250 N 
ATOM     19  O   UNL A   1      35.544  20.312  25.814  1.00  0.00    -0.273 OA
ATOM     20  O   UNL A   1      32.264  24.407  26.168  1.00  0.00    -0.286 OA
ATOM     21  C   UNL A   1      31.680  25.669  24.252  1.00  0.00     0.036 A 
ATOM     22  C   UNL A   1      32.110  25.716  22.933  1.00  0.00     0.036 A 
ATOM     23  O   UNL A   1      33.648  24.486  21.619  1.00  0.00    -0.286 OA
ATOM     24  O   UNL A   1      31.563  21.513  23.724  1.00  0.00    -0.273 OA
ATOM     25  C   UNL A   1      30.693  26.512  24.731  1.00  0.00     0.013 A 
ATOM     26  C   UNL A   1      31.558  26.600  22.025  1.00  0.00     0.013 A 
ATOM     27  C   UNL A   1      30.124  27.412  23.828  1.00  0.00     0.001 A 
ATOM     28  C   UNL A   1      30.552  27.455  22.486  1.00  0.00     0.001 A 
BRANCH  18  29
ATOM     29  C   UNL A   1      33.156  19.080  24.628  1.00  0.00     0.052 A 
ATOM     30  C   UNL A   1      32.677  18.378  25.745  1.00  0.00     0.027 A 
ATOM     31  C   UNL A   1      33.474  18.368  23.466  1.00  0.00     0.027 A 
ATOM     32  C   UNL A   1      32.539  16.992  25.712  1.00  0.00     0.002 A 
ATOM     33  C   UNL A   1      33.376  16.974  23.450  1.00  0.00     0.002 A 
ATOM     34  C   UNL A   1      32.908  16.288  24.571  1.00  0.00     0.000 A 
ENDBRANCH  18  29
ENDBRANCH   4   6
ENDBRANCH   3   4
ENDBRANCH   2   3
ENDBRANCH   1   2
BRANCH   1  35
ATOM     35  O   UNL A   1      39.995  19.799  25.758  1.00  0.00    -0.458 OA
BRANCH  35  36
ATOM     36  C   UNL A   1      41.104  19.837  26.533  1.00  0.00     0.338 C 
ATOM     37  O   UNL A   1      41.841  18.915  26.831  1.00  0.00    -0.246 OA
BRANCH  36  38
ATOM     38  C   UNL A   1      41.406  21.242  26.831  1.00  0.00     0.060 A 
ATOM     39  C   UNL A   1      41.596  21.703  28.125  1.00  0.00     0.016 A 
ATOM     40  C   UNL A   1      41.547  22.105  25.750  1.00  0.00     0.016 A 
ATOM     41  C   UNL A   1      41.902  23.055  28.316  1.00  0.00     0.010 A 
ATOM     42  C   UNL A   1      41.914  23.428  25.926  1.00  0.00     0.010 A 
ATOM     43  C   UNL A   1      42.065  23.925  27.217  1.00  0.00    -0.014 A 
BRANCH  43  44
ATOM     44  C   UNL A   1      42.438  25.345  27.399  1.00  0.00     0.031 A 
ATOM     45  C   UNL A   1      41.473  26.327  28.005  1.00  0.00     0.074 A 
ATOM     46  C   UNL A   1      43.636  25.752  26.941  1.00  0.00     0.049 A 
ATOM     47  N   UNL A   1      41.673  27.581  28.315  1.00  0.00    -0.248 NA
ATOM     48  C   UNL A   1      40.103  25.858  28.273  1.00  0.00     0.031 C 
ATOM     49  C   UNL A   1      44.582  24.901  26.217  1.00  0.00     0.029 A 
ATOM     50  N   UNL A   1      44.267  26.966  27.017  1.00  0.00    -0.354 N 
ATOM     51  C   UNL A   1      40.463  28.045  28.821  1.00  0.00     0.074 A 
ATOM     52  C   UNL A   1      39.512  26.965  28.701  1.00  0.00     0.031 C 
ATOM     53  C   UNL A   1      45.697  25.600  25.968  1.00  0.00     0.029 A 
ATOM     54  C   UNL A   1      45.534  26.957  26.483  1.00  0.00     0.049 A 
ATOM     55  H   UNL A   1      43.854  27.766  27.413  1.00  0.00     0.167 HD
ATOM     56  C   UNL A   1      40.192  29.251  29.374  1.00  0.00     0.034 A 
ATOM     57  C   UNL A   1      46.470  27.928  26.436  1.00  0.00     0.034 A 
ATOM     58  C   UNL A   1      41.174  30.299  29.493  1.00  0.00     0.049 A 
ATOM     59  C   UNL A   1      46.167  29.245  27.103  1.00  0.00     0.074 A 
ATOM     60  C   UNL A   1      41.041  31.525  30.116  1.00  0.00     0.029 A 
ATOM     61  N   UNL A   1      42.463  30.247  28.978  1.00  0.00    -0.354 N 
ATOM     62  N   UNL A   1      45.071  29.620  27.722  1.00  0.00    -0.248 NA
ATOM     63  C   UNL A   1      47.224  30.263  27.090  1.00  0.00     0.031 C 
ATOM     64  C   UNL A   1      42.219  32.243  29.915  1.00  0.00     0.029 A 
ATOM     65  C   UNL A   1      43.124  31.434  29.242  1.00  0.00     0.049 A 
ATOM     66  H   UNL A   1      42.849  29.480  28.496  1.00  0.00     0.167 HD
ATOM     67  C   UNL A   1      45.313  30.906  28.191  1.00  0.00     0.074 A 
ATOM     68  C   UNL A   1      46.672  31.234  27.809  1.00  0.00     0.031 C 
ATOM     69  C   UNL A   1      44.485  31.742  28.867  1.00  0.00     0.034 A 
BRANCH  56  70
ATOM     70  C   UNL A   1      38.817  29.507  29.945  1.00  0.00     0.023 A 
ATOM     71  C   UNL A   1      37.879  30.272  29.225  1.00  0.00     0.031 A 
ATOM     72  C   UNL A   1      38.491  29.133  31.262  1.00  0.00     0.131 A 
ATOM     73  C   UNL A   1      36.686  30.675  29.840  1.00  0.00     0.055 A 
ATOM     74  C   UNL A   1      37.279  29.493  31.852  1.00  0.00     0.041 A 
ATOM     75  F   UNL A   1      39.353  28.414  32.001  1.00  0.00    -0.206 F 
ATOM     76  C   UNL A   1      36.378  30.282  31.146  1.00  0.00     0.022 A 
BRANCH  73  77
ATOM     77  S   UNL A   1      35.530  31.797  29.006  1.00  0.00     0.124 S 
ATOM     78  O   UNL A   1      34.805  30.882  28.126  1.00  0.00    -0.237 OA
ATOM     79  O   UNL A   1      34.757  32.325  30.127  1.00  0.00    -0.237 OA
ATOM     80  O   UNL A   1      36.395  32.754  28.327  1.00  0.00    -0.744 OA
ENDBRANCH  73  77
ENDBRANCH  56  70
BRANCH  57  81
ATOM     81  C   UNL A   1      47.797  27.617  25.829  1.00  0.00     0.023 A 
ATOM     82  C   UNL A   1      48.027  27.816  24.455  1.00  0.00     0.031 A 
ATOM     83  C   UNL A   1      48.797  26.976  26.579  1.00  0.00     0.131 A 
ATOM     84  C   UNL A   1      49.190  27.308  23.861  1.00  0.00     0.055 A 
ATOM     85  C   UNL A   1      49.990  26.539  25.997  1.00  0.00     0.041 A 
ATOM     86  F   UNL A   1      48.617  26.741  27.888  1.00  0.00    -0.206 F 
ATOM     87  C   UNL A   1      50.181  26.686  24.627  1.00  0.00     0.022 A 
BRANCH  84  88
ATOM     88  S   UNL A   1      49.380  27.291  22.057  1.00  0.00     0.124 S 
ATOM     89  O   UNL A   1      50.831  27.226  21.903  1.00  0.00    -0.237 OA
ATOM     90  O   UNL A   1      48.652  26.078  21.690  1.00  0.00    -0.237 OA
ATOM     91  O   UNL A   1      48.756  28.539  21.632  1.00  0.00    -0.744 OA
ENDBRANCH  84  88
ENDBRANCH  57  81
BRANCH  69  92
ATOM     92  C   UNL A   1      44.994  33.109  29.255  1.00  0.00     0.023 A 
ATOM     93  C   UNL A   1      44.840  34.192  28.369  1.00  0.00     0.031 A 
ATOM     94  C   UNL A   1      45.787  33.295  30.401  1.00  0.00     0.131 A 
ATOM     95  C   UNL A   1      45.518  35.393  28.611  1.00  0.00     0.055 A 
ATOM     96  C   UNL A   1      46.412  34.513  30.669  1.00  0.00     0.041 A 
ATOM     97  F   UNL A   1      45.977  32.288  31.269  1.00  0.00    -0.206 F 
ATOM     98  C   UNL A   1      46.294  35.562  29.762  1.00  0.00     0.022 A 
BRANCH  95  99
ATOM     99  S   UNL A   1      45.505  36.736  27.391  1.00  0.00     0.124 S 
ATOM    100  O   UNL A   1      46.585  36.335  26.491  1.00  0.00    -0.237 OA
ATOM    101  O   UNL A   1      44.159  36.633  26.836  1.00  0.00    -0.237 OA
ATOM    102  O   UNL A   1      45.769  37.934  28.182  1.00  0.00    -0.744 OA
ENDBRANCH  95  99
ENDBRANCH  69  92
ENDBRANCH  43  44
ENDBRANCH  36  38
ENDBRANCH  35  36
ENDBRANCH   1  35
TORSDOF 15
ENDMDL
MODEL 2
REMARK VINA RESULT:     -13.5      5.017      9.101
REMARK SMILES C[C@]1(C(=O)OCCOC(=O)c2ccc(-c3c4nc(c(-c5cc(S(=O)(=O)[O-])ccc5F)c5ccc([nH]5)c(-c5cc(S(=O)(=O)[O-])ccc5F)c5nc(c(-c6cc(S(=O)(=O)[O-])ccc6F)c6ccc3[nH]6)C=C5)C=C4)cc2)[NH2+]C2(C(=O)c3ccccc3C2=O)[C@@H]2C(=O)N(c3ccccc3)C(=O)[C@H]21
REMARK SMILES IDX 7 1 6 2 5 3 3 4 4 5 2 6 1 7 74 8 98 9 75 10 86 13 96 14
REMARK SMILES IDX 76 15 84 16 87 17 89 18 97 19 77 20 78 21 83 22 85 23 88 24
REMARK SMILES IDX 79 25 82 26 80 27 81 28 90 29 91 30 95 31 92 32 94 33 93 34
REMARK SMILES IDX 8 35 9 36 10 37 11 38 12 39 73 40 13 41 72 42 14 43 15 44
REMARK SMILES IDX 16 45 66 46 17 47 71 48 65 49 67 50 18 51 70 52 64 53 63 54
REMARK SMILES IDX 19 56 51 57 31 58 50 59 32 60 35 61 49 62 68 63 33 64 34 65
REMARK SMILES IDX 48 67 69 68 36 69 20 70 21 71 29 72 22 73 28 74 30 75 27 76
REMARK SMILES IDX 23 77 24 78 25 79 26 80 52 81 53 82 61 83 54 84 60 85 62 86
REMARK SMILES IDX 59 87 55 88 56 89 57 90 58 91 37 92 38 93 46 94 39 95 45 96
REMARK SMILES IDX 47 97 44 98 40 99 41 100 42 101 43 102
REMARK H PARENT 74 11 74 12 67 55 35 66
REMARK Flexibility Score: inf
ROOT
ATOM      1  C   UNL A   1      33.035  31.721  27.240  1.00  0.00     0.275 C 
ENDROOT
BRANCH   1   2
ATOM      2  C   UNL A   1      32.049  30.555  27.279  1.00  0.00     0.274 C 
BRANCH   2   3
ATOM      3  O   UNL A   1      32.707  29.339  27.684  1.00  0.00    -0.457 OA
BRANCH   3   4
ATOM      4  C   UNL A   1      32.187  28.155  27.251  1.00  0.00     0.368 C 
ATOM      5  O   UNL A   1      31.197  27.630  27.741  1.00  0.00    -0.245 OA
BRANCH   4   6
ATOM      6  C   UNL A   1      33.069  27.494  26.140  1.00  0.00     0.205 C 
ATOM      7  C   UNL A   1      34.466  28.109  26.050  1.00  0.00     0.093 C 
ATOM      8  N   UNL A   1      33.176  25.994  26.316  1.00  0.00    -0.313 N 
ATOM      9  C   UNL A   1      32.375  27.587  24.811  1.00  0.00     0.172 C 
ATOM     10  C   UNL A   1      32.235  25.343  25.325  1.00  0.00     0.237 C 
ATOM     11  H   UNL A   1      32.911  25.736  27.266  1.00  0.00     0.348 HD
ATOM     12  H   UNL A   1      34.134  25.684  26.154  1.00  0.00     0.348 HD
ATOM     13  C   UNL A   1      31.351  26.479  24.919  1.00  0.00     0.177 C 
ATOM     14  C   UNL A   1      31.547  28.720  24.340  1.00  0.00     0.244 C 
ATOM     15  C   UNL A   1      33.045  24.646  24.234  1.00  0.00     0.232 C 
ATOM     16  C   UNL A   1      31.501  24.187  26.003  1.00  0.00     0.232 C 
ATOM     17  C   UNL A   1      30.574  26.736  23.676  1.00  0.00     0.245 C 
ATOM     18  N   UNL A   1      30.558  28.128  23.561  1.00  0.00    -0.250 N 
ATOM     19  O   UNL A   1      31.784  29.896  24.556  1.00  0.00    -0.273 OA
ATOM     20  O   UNL A   1      33.764  25.164  23.398  1.00  0.00    -0.286 OA
ATOM     21  C   UNL A   1      32.910  23.204  24.415  1.00  0.00     0.036 A 
ATOM     22  C   UNL A   1      32.019  22.935  25.445  1.00  0.00     0.036 A 
ATOM     23  O   UNL A   1      30.617  24.236  26.841  1.00  0.00    -0.286 OA
ATOM     24  O   UNL A   1      29.997  25.879  23.029  1.00  0.00    -0.273 OA
ATOM     25  C   UNL A   1      33.561  22.196  23.727  1.00  0.00     0.013 A 
ATOM     26  C   UNL A   1      31.723  21.639  25.823  1.00  0.00     0.013 A 
ATOM     27  C   UNL A   1      33.275  20.879  24.096  1.00  0.00     0.001 A 
ATOM     28  C   UNL A   1      32.363  20.603  25.134  1.00  0.00     0.001 A 
BRANCH  18  29
ATOM     29  C   UNL A   1      29.599  28.894  22.867  1.00  0.00     0.052 A 
ATOM     30  C   UNL A   1      29.998  29.786  21.860  1.00  0.00     0.027 A 
ATOM     31  C   UNL A   1      28.259  28.880  23.268  1.00  0.00     0.027 A 
ATOM     32  C   UNL A   1      29.083  30.662  21.278  1.00  0.00     0.002 A 
ATOM     33  C   UNL A   1      27.353  29.790  22.715  1.00  0.00     0.002 A 
ATOM     34  C   UNL A   1      27.765  30.678  21.721  1.00  0.00     0.000 A 
ENDBRANCH  18  29
ENDBRANCH   4   6
ENDBRANCH   3   4
ENDBRANCH   2   3
ENDBRANCH   1   2
BRANCH   1  35
ATOM     35  O   UNL A   1      34.054  31.555  28.240  1.00  0.00    -0.458 OA
BRANCH  35  36
ATOM     36  C   UNL A   1      35.190  32.259  28.023  1.00  0.00     0.338 C 
ATOM     37  O   UNL A   1      35.298  33.379  27.558  1.00  0.00    -0.246 OA
BRANCH  36  38
ATOM     38  C   UNL A   1      36.308  31.518  28.618  1.00  0.00     0.060 A 
ATOM     39  C   UNL A   1      36.183  30.208  29.055  1.00  0.00     0.016 A 
ATOM     40  C   UNL A   1      37.536  32.168  28.688  1.00  0.00     0.016 A 
ATOM     41  C   UNL A   1      37.307  29.570  29.591  1.00  0.00     0.010 A 
ATOM     42  C   UNL A   1      38.668  31.523  29.154  1.00  0.00     0.010 A 
ATOM     43  C   UNL A   1      38.557  30.224  29.642  1.00  0.00    -0.014 A 
BRANCH  43  44
ATOM     44  C   UNL A   1      39.767  29.547  30.158  1.00  0.00     0.031 A 
ATOM     45  C   UNL A   1      40.427  30.005  31.429  1.00  0.00     0.074 A 
ATOM     46  C   UNL A   1      40.306  28.557  29.422  1.00  0.00     0.049 A 
ATOM     47  N   UNL A   1      41.436  29.469  32.063  1.00  0.00    -0.248 NA
ATOM     48  C   UNL A   1      39.914  31.235  32.058  1.00  0.00     0.031 C 
ATOM     49  C   UNL A   1      39.814  28.136  28.109  1.00  0.00     0.029 A 
ATOM     50  N   UNL A   1      41.367  27.727  29.665  1.00  0.00    -0.354 N 
ATOM     51  C   UNL A   1      41.671  30.285  33.165  1.00  0.00     0.074 A 
ATOM     52  C   UNL A   1      40.755  31.397  33.070  1.00  0.00     0.031 C 
ATOM     53  C   UNL A   1      40.533  27.087  27.689  1.00  0.00     0.029 A 
ATOM     54  C   UNL A   1      41.558  26.781  28.684  1.00  0.00     0.049 A 
ATOM     55  H   UNL A   1      41.939  27.799  30.463  1.00  0.00     0.167 HD
ATOM     56  C   UNL A   1      42.544  30.093  34.182  1.00  0.00     0.034 A 
ATOM     57  C   UNL A   1      42.443  25.767  28.607  1.00  0.00     0.034 A 
ATOM     58  C   UNL A   1      43.430  28.959  34.251  1.00  0.00     0.049 A 
ATOM     59  C   UNL A   1      43.371  25.539  29.773  1.00  0.00     0.074 A 
ATOM     60  C   UNL A   1      44.291  28.610  35.275  1.00  0.00     0.029 A 
ATOM     61  N   UNL A   1      43.573  27.995  33.260  1.00  0.00    -0.354 N 
ATOM     62  N   UNL A   1      43.475  26.227  30.887  1.00  0.00    -0.248 NA
ATOM     63  C   UNL A   1      44.284  24.392  29.690  1.00  0.00     0.031 C 
ATOM     64  C   UNL A   1      45.006  27.482  34.875  1.00  0.00     0.029 A 
ATOM     65  C   UNL A   1      44.532  27.071  33.638  1.00  0.00     0.049 A 
ATOM     66  H   UNL A   1      43.068  27.974  32.416  1.00  0.00     0.167 HD
ATOM     67  C   UNL A   1      44.448  25.585  31.646  1.00  0.00     0.074 A 
ATOM     68  C   UNL A   1      44.879  24.436  30.876  1.00  0.00     0.031 C 
ATOM     69  C   UNL A   1      44.943  25.921  32.865  1.00  0.00     0.034 A 
BRANCH  56  70
ATOM     70  C   UNL A   1      42.565  31.074  35.330  1.00  0.00     0.023 A 
ATOM     71  C   UNL A   1      41.415  31.270  36.119  1.00  0.00     0.031 A 
ATOM     72  C   UNL A   1      43.664  31.928  35.542  1.00  0.00     0.131 A 
ATOM     73  C   UNL A   1      41.375  32.319  37.048  1.00  0.00     0.055 A 
ATOM     74  C   UNL A   1      43.639  32.937  36.505  1.00  0.00     0.041 A 
ATOM     75  F   UNL A   1      44.783  31.796  34.809  1.00  0.00    -0.206 F 
ATOM     76  C   UNL A   1      42.484  33.147  37.251  1.00  0.00     0.022 A 
BRANCH  73  77
ATOM     77  S   UNL A   1      39.859  32.707  37.964  1.00  0.00     0.124 S 
ATOM     78  O   UNL A   1      38.964  31.636  37.533  1.00  0.00    -0.237 OA
ATOM     79  O   UNL A   1      40.310  32.621  39.350  1.00  0.00    -0.237 OA
ATOM     80  O   UNL A   1      39.498  34.041  37.499  1.00  0.00    -0.744 OA
ENDBRANCH  73  77
ENDBRANCH  56  70
BRANCH  57  81
ATOM     81  C   UNL A   1      42.387  24.853  27.429  1.00  0.00     0.023 A 
ATOM     82  C   UNL A   1      41.528  23.738  27.421  1.00  0.00     0.031 A 
ATOM     83  C   UNL A   1      43.296  24.993  26.367  1.00  0.00     0.131 A 
ATOM     84  C   UNL A   1      41.654  22.768  26.418  1.00  0.00     0.055 A 
ATOM     85  C   UNL A   1      43.364  24.064  25.327  1.00  0.00     0.041 A 
ATOM     86  F   UNL A   1      44.152  26.027  26.340  1.00  0.00    -0.206 F 
ATOM     87  C   UNL A   1      42.554  22.933  25.360  1.00  0.00     0.022 A 
BRANCH  84  88
ATOM     88  S   UNL A   1      40.770  21.188  26.538  1.00  0.00     0.124 S 
ATOM     89  O   UNL A   1      40.744  20.962  27.980  1.00  0.00    -0.237 OA
ATOM     90  O   UNL A   1      39.484  21.516  25.927  1.00  0.00    -0.237 OA
ATOM     91  O   UNL A   1      41.603  20.268  25.770  1.00  0.00    -0.744 OA
ENDBRANCH  84  88
ENDBRANCH  57  81
BRANCH  69  92
ATOM     92  C   UNL A   1      46.017  25.053  33.474  1.00  0.00     0.023 A 
ATOM     93  C   UNL A   1      45.663  24.025  34.370  1.00  0.00     0.031 A 
ATOM     94  C   UNL A   1      47.379  25.360  33.319  1.00  0.00     0.131 A 
ATOM     95  C   UNL A   1      46.655  23.382  35.120  1.00  0.00     0.055 A 
ATOM     96  C   UNL A   1      48.369  24.675  34.025  1.00  0.00     0.041 A 
ATOM     97  F   UNL A   1      47.767  26.342  32.488  1.00  0.00    -0.206 F 
ATOM     98  C   UNL A   1      48.007  23.695  34.944  1.00  0.00     0.022 A 
BRANCH  95  99
ATOM     99  S   UNL A   1      46.221  22.199  36.426  1.00  0.00     0.124 S 
ATOM    100  O   UNL A   1      47.537  21.744  36.869  1.00  0.00    -0.237 OA
ATOM    101  O   UNL A   1      45.501  23.042  37.375  1.00  0.00    -0.237 OA
ATOM    102  O   UNL A   1      45.416  21.194  35.739  1.00  0.00    -0.744 OA
ENDBRANCH  95  99
ENDBRANCH  69  92
ENDBRANCH  43  44
ENDBRANCH  36  38
ENDBRANCH  35  36
ENDBRANCH   1  35
TORSDOF 15
ENDMDL
MODEL 3
REMARK VINA RESULT:     -13.5      1.681      7.389
REMARK SMILES C[C@]1(C(=O)OCCOC(=O)c2ccc(-c3c4nc(c(-c5cc(S(=O)(=O)[O-])ccc5F)c5ccc([nH]5)c(-c5cc(S(=O)(=O)[O-])ccc5F)c5nc(c(-c6cc(S(=O)(=O)[O-])ccc6F)c6ccc3[nH]6)C=C5)C=C4)cc2)[NH2+]C2(C(=O)c3ccccc3C2=O)[C@@H]2C(=O)N(c3ccccc3)C(=O)[C@H]21
REMARK SMILES IDX 7 1 6 2 5 3 3 4 4 5 2 6 1 7 74 8 98 9 75 10 86 13 96 14
REMARK SMILES IDX 76 15 84 16 87 17 89 18 97 19 77 20 78 21 83 22 85 23 88 24
REMARK SMILES IDX 79 25 82 26 80 27 81 28 90 29 91 30 95 31 92 32 94 33 93 34
REMARK SMILES IDX 8 35 9 36 10 37 11 38 12 39 73 40 13 41 72 42 14 43 15 44
REMARK SMILES IDX 16 45 66 46 17 47 71 48 65 49 67 50 18 51 70 52 64 53 63 54
REMARK SMILES IDX 19 56 51 57 31 58 50 59 32 60 35 61 49 62 68 63 33 64 34 65
REMARK SMILES IDX 48 67 69 68 36 69 20 70 21 71 29 72 22 73 28 74 30 75 27 76
REMARK SMILES IDX 23 77 24 78 25 79 26 80 52 81 53 82 61 83 54 84 60 85 62 86
REMARK SMILES IDX 59 87 55 88 56 89 57 90 58 91 37 92 38 93 46 94 39 95 45 96
REMARK SMILES IDX 47 97 44 98 40 99 41 100 42 101 43 102
REMARK H PARENT 74 11 74 12 67 55 35 66
REMARK Flexibility Score: inf
ROOT
ATOM      1  C   UNL A   1      38.918  20.673  25.737  1.00  0.00     0.275 C 
ENDROOT
BRANCH   1   2
ATOM      2  C   UNL A   1      37.951  21.049  24.615  1.00  0.00     0.274 C 
BRANCH   2   3
ATOM      3  O   UNL A   1      37.720  22.471  24.590  1.00  0.00    -0.457 OA
BRANCH   3   4
ATOM      4  C   UNL A   1      36.592  22.925  23.973  1.00  0.00     0.368 C 
ATOM      5  O   UNL A   1      36.454  22.969  22.759  1.00  0.00    -0.245 OA
BRANCH   4   6
ATOM      6  C   UNL A   1      35.548  23.490  24.993  1.00  0.00     0.205 C 
ATOM      7  C   UNL A   1      36.174  23.849  26.341  1.00  0.00     0.093 C 
ATOM      8  N   UNL A   1      34.798  24.682  24.439  1.00  0.00    -0.313 N 
ATOM      9  C   UNL A   1      34.434  22.502  25.187  1.00  0.00     0.172 C 
ATOM     10  C   UNL A   1      33.432  24.203  23.994  1.00  0.00     0.237 C 
ATOM     11  H   UNL A   1      35.304  25.071  23.643  1.00  0.00     0.348 HD
ATOM     12  H   UNL A   1      34.707  25.407  25.149  1.00  0.00     0.348 HD
ATOM     13  C   UNL A   1      33.608  22.719  23.938  1.00  0.00     0.177 C 
ATOM     14  C   UNL A   1      34.572  21.028  25.207  1.00  0.00     0.244 C 
ATOM     15  C   UNL A   1      32.365  24.758  24.935  1.00  0.00     0.232 C 
ATOM     16  C   UNL A   1      33.079  24.845  22.653  1.00  0.00     0.232 C 
ATOM     17  C   UNL A   1      32.639  21.598  24.081  1.00  0.00     0.245 C 
ATOM     18  N   UNL A   1      33.393  20.560  24.636  1.00  0.00    -0.250 N 
ATOM     19  O   UNL A   1      35.503  20.420  25.704  1.00  0.00    -0.273 OA
ATOM     20  O   UNL A   1      32.208  24.498  26.114  1.00  0.00    -0.286 OA
ATOM     21  C   UNL A   1      31.598  25.767  24.212  1.00  0.00     0.036 A 
ATOM     22  C   UNL A   1      32.014  25.823  22.888  1.00  0.00     0.036 A 
ATOM     23  O   UNL A   1      33.543  24.607  21.551  1.00  0.00    -0.286 OA
ATOM     24  O   UNL A   1      31.495  21.613  23.663  1.00  0.00    -0.273 OA
ATOM     25  C   UNL A   1      30.613  26.603  24.706  1.00  0.00     0.013 A 
ATOM     26  C   UNL A   1      31.448  26.710  21.991  1.00  0.00     0.013 A 
ATOM     27  C   UNL A   1      30.030  27.506  23.813  1.00  0.00     0.001 A 
ATOM     28  C   UNL A   1      30.442  27.558  22.467  1.00  0.00     0.001 A 
BRANCH  18  29
ATOM     29  C   UNL A   1      33.108  19.183  24.538  1.00  0.00     0.052 A 
ATOM     30  C   UNL A   1      32.688  18.464  25.667  1.00  0.00     0.027 A 
ATOM     31  C   UNL A   1      33.375  18.489  23.352  1.00  0.00     0.027 A 
ATOM     32  C   UNL A   1      32.558  17.077  25.622  1.00  0.00     0.002 A 
ATOM     33  C   UNL A   1      33.286  17.095  23.323  1.00  0.00     0.002 A 
ATOM     34  C   UNL A   1      32.877  16.391  24.455  1.00  0.00     0.000 A 
ENDBRANCH  18  29
ENDBRANCH   4   6
ENDBRANCH   3   4
ENDBRANCH   2   3
ENDBRANCH   1   2
BRANCH   1  35
ATOM     35  O   UNL A   1      39.892  21.712  25.934  1.00  0.00    -0.458 OA
BRANCH  35  36
ATOM     36  C   UNL A   1      40.409  21.783  27.182  1.00  0.00     0.338 C 
ATOM     37  O   UNL A   1      40.704  20.864  27.923  1.00  0.00    -0.246 OA
BRANCH  36  38
ATOM     38  C   UNL A   1      40.746  23.185  27.459  1.00  0.00     0.060 A 
ATOM     39  C   UNL A   1      40.156  24.239  26.778  1.00  0.00     0.016 A 
ATOM     40  C   UNL A   1      41.658  23.431  28.480  1.00  0.00     0.016 A 
ATOM     41  C   UNL A   1      40.520  25.546  27.121  1.00  0.00     0.010 A 
ATOM     42  C   UNL A   1      41.974  24.720  28.870  1.00  0.00     0.010 A 
ATOM     43  C   UNL A   1      41.430  25.793  28.172  1.00  0.00    -0.014 A 
BRANCH  43  44
ATOM     44  C   UNL A   1      41.787  27.169  28.582  1.00  0.00     0.031 A 
ATOM     45  C   UNL A   1      43.214  27.642  28.544  1.00  0.00     0.074 A 
ATOM     46  C   UNL A   1      40.812  27.965  29.059  1.00  0.00     0.049 A 
ATOM     47  N   UNL A   1      43.684  28.838  28.784  1.00  0.00    -0.248 NA
ATOM     48  C   UNL A   1      44.253  26.647  28.227  1.00  0.00     0.031 C 
ATOM     49  C   UNL A   1      39.423  27.548  29.260  1.00  0.00     0.029 A 
ATOM     50  N   UNL A   1      40.829  29.277  29.453  1.00  0.00    -0.354 N 
ATOM     51  C   UNL A   1      45.064  28.742  28.636  1.00  0.00     0.074 A 
ATOM     52  C   UNL A   1      45.365  27.355  28.369  1.00  0.00     0.031 C 
ATOM     53  C   UNL A   1      38.709  28.599  29.682  1.00  0.00     0.029 A 
ATOM     54  C   UNL A   1      39.591  29.755  29.814  1.00  0.00     0.049 A 
ATOM     55  H   UNL A   1      41.646  29.824  29.476  1.00  0.00     0.167 HD
ATOM     56  C   UNL A   1      45.984  29.733  28.680  1.00  0.00     0.034 A 
ATOM     57  C   UNL A   1      39.206  30.993  30.187  1.00  0.00     0.034 A 
ATOM     58  C   UNL A   1      45.643  31.111  28.932  1.00  0.00     0.049 A 
ATOM     59  C   UNL A   1      40.236  32.094  30.177  1.00  0.00     0.074 A 
ATOM     60  C   UNL A   1      46.475  32.214  28.908  1.00  0.00     0.029 A 
ATOM     61  N   UNL A   1      44.373  31.572  29.256  1.00  0.00    -0.354 N 
ATOM     62  N   UNL A   1      41.513  32.022  29.881  1.00  0.00    -0.248 NA
ATOM     63  C   UNL A   1      39.779  33.444  30.529  1.00  0.00     0.031 C 
ATOM     64  C   UNL A   1      45.728  33.328  29.289  1.00  0.00     0.029 A 
ATOM     65  C   UNL A   1      44.408  32.940  29.466  1.00  0.00     0.049 A 
ATOM     66  H   UNL A   1      43.568  31.009  29.326  1.00  0.00     0.167 HD
ATOM     67  C   UNL A   1      42.007  33.317  29.987  1.00  0.00     0.074 A 
ATOM     68  C   UNL A   1      40.883  34.158  30.348  1.00  0.00     0.031 C 
ATOM     69  C   UNL A   1      43.276  33.768  29.811  1.00  0.00     0.034 A 
BRANCH  56  70
ATOM     70  C   UNL A   1      47.433  29.408  28.400  1.00  0.00     0.023 A 
ATOM     71  C   UNL A   1      47.845  29.060  27.099  1.00  0.00     0.031 A 
ATOM     72  C   UNL A   1      48.369  29.284  29.445  1.00  0.00     0.131 A 
ATOM     73  C   UNL A   1      49.139  28.566  26.885  1.00  0.00     0.055 A 
ATOM     74  C   UNL A   1      49.672  28.841  29.217  1.00  0.00     0.041 A 
ATOM     75  F   UNL A   1      48.027  29.589  30.708  1.00  0.00    -0.206 F 
ATOM     76  C   UNL A   1      50.057  28.463  27.935  1.00  0.00     0.022 A 
BRANCH  73  77
ATOM     77  S   UNL A   1      49.654  27.953  25.257  1.00  0.00     0.124 S 
ATOM     78  O   UNL A   1      50.178  26.629  25.586  1.00  0.00    -0.237 OA
ATOM     79  O   UNL A   1      48.395  27.958  24.517  1.00  0.00    -0.237 OA
ATOM     80  O   UNL A   1      50.652  28.921  24.816  1.00  0.00    -0.744 OA
ENDBRANCH  73  77
ENDBRANCH  56  70
BRANCH  57  81
ATOM     81  C   UNL A   1      37.764  31.239  30.479  1.00  0.00     0.023 A 
ATOM     82  C   UNL A   1      36.872  31.606  29.453  1.00  0.00     0.031 A 
ATOM     83  C   UNL A   1      37.292  31.261  31.802  1.00  0.00     0.131 A 
ATOM     84  C   UNL A   1      35.585  32.055  29.776  1.00  0.00     0.055 A 
ATOM     85  C   UNL A   1      35.983  31.636  32.112  1.00  0.00     0.041 A 
ATOM     86  F   UNL A   1      38.110  30.942  32.818  1.00  0.00    -0.206 F 
ATOM     87  C   UNL A   1      35.129  32.055  31.097  1.00  0.00     0.022 A 
BRANCH  84  88
ATOM     88  S   UNL A   1      34.520  32.805  28.513  1.00  0.00     0.124 S 
ATOM     89  O   UNL A   1      35.495  33.417  27.615  1.00  0.00    -0.237 OA
ATOM     90  O   UNL A   1      33.818  31.639  27.982  1.00  0.00    -0.237 OA
ATOM     91  O   UNL A   1      33.689  33.735  29.270  1.00  0.00    -0.744 OA
ENDBRANCH  84  88
ENDBRANCH  57  81
BRANCH  69  92
ATOM     92  C   UNL A   1      43.555  35.239  30.001  1.00  0.00     0.023 A 
ATOM     93  C   UNL A   1      43.628  36.089  28.880  1.00  0.00     0.031 A 
ATOM     94  C   UNL A   1      43.929  35.756  31.253  1.00  0.00     0.131 A 
ATOM     95  C   UNL A   1      44.123  37.391  29.024  1.00  0.00     0.055 A 
ATOM     96  C   UNL A   1      44.364  37.073  31.401  1.00  0.00     0.041 A 
ATOM     97  F   UNL A   1      43.890  34.982  32.350  1.00  0.00    -0.206 F 
ATOM     98  C   UNL A   1      44.480  37.891  30.280  1.00  0.00     0.022 A 
BRANCH  95  99
ATOM     99  S   UNL A   1      44.422  38.443  27.576  1.00  0.00     0.124 S 
ATOM    100  O   UNL A   1      45.005  39.636  28.187  1.00  0.00    -0.237 OA
ATOM    101  O   UNL A   1      45.346  37.629  26.793  1.00  0.00    -0.237 OA
ATOM    102  O   UNL A   1      43.097  38.628  26.994  1.00  0.00    -0.744 OA
ENDBRANCH  95  99
ENDBRANCH  69  92
ENDBRANCH  43  44
ENDBRANCH  36  38
ENDBRANCH  35  36
ENDBRANCH   1  35
TORSDOF 15
ENDMDL
