MODEL 1
REMARK VINA RESULT:     -13.8      0.000      0.000
REMARK SMILES CS(=O)(=O)c1ccc(-c2cc(Cl)cc3c2O[C@H](C(F)(F)F)C(C(=O)OCCOC(=O)c2ccc(-c4c5nc(c(-c6cc(S(=O)(=O)[O-])ccc6F)c6ccc([nH]6)c(-c6cc(S(=O)(=O)[O-])ccc6F)c6nc(c(-c7cc(S(=O)(=O)[O-])ccc7F)c7ccc4[nH]7)C=C6)C=C5)cc2)=C3)cc1
REMARK SMILES IDX 27 1 26 2 25 3 23 4 24 5 22 6 9 7 10 8 15 9 11 10 14 11
REMARK SMILES IDX 16 12 12 13 13 14 94 15 17 16 8 17 5 18 6 19 96 20 7 21
REMARK SMILES IDX 95 22 2 23 1 24 3 25 4 26 18 27 19 28 20 29 21 30 28 31
REMARK SMILES IDX 29 32 30 33 31 34 32 35 93 36 33 37 92 38 34 39 35 40 36 41
REMARK SMILES IDX 86 42 37 43 91 44 85 45 87 46 38 47 90 48 84 49 83 50 39 52
REMARK SMILES IDX 71 53 51 54 70 55 52 56 55 57 69 58 88 59 53 60 54 61 68 63
REMARK SMILES IDX 89 64 56 65 40 66 41 67 49 68 42 69 48 70 50 71 47 72 43 73
REMARK SMILES IDX 44 74 45 75 46 76 72 77 73 78 81 79 74 80 80 81 82 82 79 83
REMARK SMILES IDX 75 84 76 85 77 86 78 87 57 88 58 89 66 90 59 91 65 92 67 93
REMARK SMILES IDX 64 94 60 95 61 96 62 97 63 98
REMARK H PARENT 87 51 55 62
REMARK Flexibility Score: inf
ROOT
ATOM      1  C   UNL A   1      31.243  30.126  25.240  1.00  0.00     0.275 C 
ENDROOT
BRANCH   1   2
ATOM      2  C   UNL A   1      31.020  28.905  24.338  1.00  0.00     0.275 C 
BRANCH   2   3
ATOM      3  O   UNL A   1      30.365  27.786  24.990  1.00  0.00    -0.459 OA
BRANCH   3   4
ATOM      4  C   UNL A   1      30.383  26.637  24.268  1.00  0.00     0.338 C 
ATOM      5  O   UNL A   1      29.377  26.002  23.970  1.00  0.00    -0.246 OA
BRANCH   4   6
ATOM      6  C   UNL A   1      31.753  26.152  23.930  1.00  0.00     0.087 C 
ATOM      7  C   UNL A   1      32.155  22.172  24.545  1.00  0.00     0.026 A 
ATOM      8  C   UNL A   1      31.189  22.013  25.575  1.00  0.00     0.033 A 
ATOM      9  C   UNL A   1      32.466  23.516  24.271  1.00  0.00     0.135 A 
ATOM     10  C   UNL A   1      30.739  23.060  26.389  1.00  0.00     0.042 A 
ATOM     11  C   UNL A   1      32.216  24.496  25.272  1.00  0.00     0.019 A 
ATOM     12  O   UNL A   1      32.798  24.021  23.014  1.00  0.00    -0.475 OA
ATOM     13  Cl  UNL A   1      29.356  23.009  27.401  1.00  0.00    -0.084 Cl
ATOM     14  C   UNL A   1      31.381  24.264  26.344  1.00  0.00     0.032 A 
ATOM     15  C   UNL A   1      32.535  25.908  24.997  1.00  0.00     0.027 C 
ATOM     16  C   UNL A   1      32.089  25.332  22.696  1.00  0.00     0.316 C 
BRANCH   7  17
ATOM     17  C   UNL A   1      32.790  20.872  24.102  1.00  0.00    -0.015 A 
ATOM     18  C   UNL A   1      33.634  18.112  24.234  1.00  0.00     0.067 A 
ATOM     19  C   UNL A   1      32.538  18.488  23.455  1.00  0.00     0.021 A 
ATOM     20  C   UNL A   1      34.373  19.111  24.866  1.00  0.00     0.021 A 
ATOM     21  C   UNL A   1      32.154  19.857  23.361  1.00  0.00     0.010 A 
ATOM     22  C   UNL A   1      33.950  20.457  24.803  1.00  0.00     0.010 A 
BRANCH  18  23
ATOM     23  S   UNL A   1      34.228  16.416  24.245  1.00  0.00     0.175 S 
ATOM     24  C   UNL A   1      32.989  15.405  25.006  1.00  0.00     0.163 C 
ATOM     25  O   UNL A   1      35.403  16.385  25.101  1.00  0.00    -0.224 OA
ATOM     26  O   UNL A   1      34.345  16.023  22.853  1.00  0.00    -0.224 OA
ENDBRANCH  18  23
ENDBRANCH   7  17
BRANCH  16  27
ATOM     27  C   UNL A   1      32.975  26.255  21.842  1.00  0.00     0.430 C 
ATOM     28  F   UNL A   1      32.609  27.557  21.958  1.00  0.00    -0.167 F 
ATOM     29  F   UNL A   1      34.283  26.168  22.155  1.00  0.00    -0.167 F 
ATOM     30  F   UNL A   1      32.867  25.947  20.519  1.00  0.00    -0.167 F 
ENDBRANCH  16  27
ENDBRANCH   4   6
ENDBRANCH   3   4
ENDBRANCH   2   3
ENDBRANCH   1   2
BRANCH   1  31
ATOM     31  O   UNL A   1      32.457  30.053  26.007  1.00  0.00    -0.458 OA
BRANCH  31  32
ATOM     32  C   UNL A   1      32.699  31.170  26.742  1.00  0.00     0.338 C 
ATOM     33  O   UNL A   1      31.999  32.164  26.772  1.00  0.00    -0.246 OA
BRANCH  32  34
ATOM     34  C   UNL A   1      33.878  30.992  27.631  1.00  0.00     0.060 A 
ATOM     35  C   UNL A   1      34.440  29.723  27.646  1.00  0.00     0.016 A 
ATOM     36  C   UNL A   1      34.422  31.982  28.463  1.00  0.00     0.016 A 
ATOM     37  C   UNL A   1      35.556  29.474  28.445  1.00  0.00     0.010 A 
ATOM     38  C   UNL A   1      35.561  31.708  29.267  1.00  0.00     0.010 A 
ATOM     39  C   UNL A   1      36.166  30.447  29.250  1.00  0.00    -0.014 A 
BRANCH  39  40
ATOM     40  C   UNL A   1      37.373  30.028  30.060  1.00  0.00     0.031 A 
ATOM     41  C   UNL A   1      38.504  29.323  29.368  1.00  0.00     0.074 A 
ATOM     42  C   UNL A   1      37.600  30.442  31.329  1.00  0.00     0.049 A 
ATOM     43  N   UNL A   1      39.636  28.909  29.876  1.00  0.00    -0.248 NA
ATOM     44  C   UNL A   1      38.347  29.054  27.932  1.00  0.00     0.031 C 
ATOM     45  C   UNL A   1      36.647  31.202  32.107  1.00  0.00     0.029 A 
ATOM     46  N   UNL A   1      38.690  30.370  32.175  1.00  0.00    -0.354 N 
ATOM     47  C   UNL A   1      40.321  28.317  28.827  1.00  0.00     0.074 A 
ATOM     48  C   UNL A   1      39.494  28.459  27.647  1.00  0.00     0.031 C 
ATOM     49  C   UNL A   1      37.226  31.694  33.211  1.00  0.00     0.029 A 
ATOM     50  C   UNL A   1      38.529  31.064  33.367  1.00  0.00     0.049 A 
ATOM     51  H   UNL A   1      39.509  29.871  31.952  1.00  0.00     0.167 HD
ATOM     52  C   UNL A   1      41.516  27.683  28.853  1.00  0.00     0.034 A 
ATOM     53  C   UNL A   1      39.272  31.112  34.499  1.00  0.00     0.034 A 
ATOM     54  C   UNL A   1      42.296  27.477  30.045  1.00  0.00     0.049 A 
ATOM     55  C   UNL A   1      40.491  30.222  34.563  1.00  0.00     0.074 A 
ATOM     56  C   UNL A   1      43.501  26.810  30.172  1.00  0.00     0.029 A 
ATOM     57  N   UNL A   1      41.947  27.912  31.316  1.00  0.00    -0.354 N 
ATOM     58  N   UNL A   1      41.010  29.483  33.609  1.00  0.00    -0.248 NA
ATOM     59  C   UNL A   1      41.189  30.115  35.851  1.00  0.00     0.031 C 
ATOM     60  C   UNL A   1      43.869  26.822  31.521  1.00  0.00     0.029 A 
ATOM     61  C   UNL A   1      42.945  27.583  32.219  1.00  0.00     0.049 A 
ATOM     62  H   UNL A   1      41.113  28.382  31.543  1.00  0.00     0.167 HD
ATOM     63  C   UNL A   1      42.103  28.841  34.180  1.00  0.00     0.074 A 
ATOM     64  C   UNL A   1      42.174  29.278  35.558  1.00  0.00     0.031 C 
ATOM     65  C   UNL A   1      42.980  27.982  33.605  1.00  0.00     0.034 A 
BRANCH  52  66
ATOM     66  C   UNL A   1      41.991  27.095  27.555  1.00  0.00     0.023 A 
ATOM     67  C   UNL A   1      41.901  25.718  27.299  1.00  0.00     0.031 A 
ATOM     68  C   UNL A   1      42.604  27.916  26.595  1.00  0.00     0.131 A 
ATOM     69  C   UNL A   1      42.488  25.191  26.140  1.00  0.00     0.055 A 
ATOM     70  C   UNL A   1      43.108  27.397  25.403  1.00  0.00     0.041 A 
ATOM     71  F   UNL A   1      42.747  29.233  26.812  1.00  0.00    -0.206 F 
ATOM     72  C   UNL A   1      43.066  26.024  25.178  1.00  0.00     0.022 A 
BRANCH  69  73
ATOM     73  S   UNL A   1      42.650  23.391  26.000  1.00  0.00     0.124 S 
ATOM     74  O   UNL A   1      43.700  23.113  26.979  1.00  0.00    -0.237 OA
ATOM     75  O   UNL A   1      41.312  22.928  26.346  1.00  0.00    -0.237 OA
ATOM     76  O   UNL A   1      43.042  23.192  24.607  1.00  0.00    -0.744 OA
ENDBRANCH  69  73
ENDBRANCH  52  66
BRANCH  53  77
ATOM     77  C   UNL A   1      38.818  31.857  35.730  1.00  0.00     0.023 A 
ATOM     78  C   UNL A   1      38.213  31.209  36.825  1.00  0.00     0.031 A 
ATOM     79  C   UNL A   1      38.885  33.265  35.782  1.00  0.00     0.131 A 
ATOM     80  C   UNL A   1      37.674  31.966  37.889  1.00  0.00     0.055 A 
ATOM     81  C   UNL A   1      38.431  34.002  36.878  1.00  0.00     0.041 A 
ATOM     82  F   UNL A   1      39.390  33.962  34.752  1.00  0.00    -0.206 F 
ATOM     83  C   UNL A   1      37.806  33.353  37.933  1.00  0.00     0.022 A 
BRANCH  80  84
ATOM     84  S   UNL A   1      36.660  31.135  39.151  1.00  0.00     0.124 S 
ATOM     85  O   UNL A   1      36.401  29.847  38.518  1.00  0.00    -0.237 OA
ATOM     86  O   UNL A   1      37.559  31.121  40.299  1.00  0.00    -0.237 OA
ATOM     87  O   UNL A   1      35.496  32.010  39.282  1.00  0.00    -0.744 OA
ENDBRANCH  80  84
ENDBRANCH  53  77
BRANCH  65  88
ATOM     88  C   UNL A   1      44.139  27.519  34.447  1.00  0.00     0.023 A 
ATOM     89  C   UNL A   1      44.131  26.288  35.121  1.00  0.00     0.031 A 
ATOM     90  C   UNL A   1      45.280  28.334  34.559  1.00  0.00     0.131 A 
ATOM     91  C   UNL A   1      45.237  25.918  35.900  1.00  0.00     0.055 A 
ATOM     92  C   UNL A   1      46.398  27.936  35.288  1.00  0.00     0.041 A 
ATOM     93  F   UNL A   1      45.327  29.528  33.943  1.00  0.00    -0.206 F 
ATOM     94  C   UNL A   1      46.379  26.723  35.969  1.00  0.00     0.022 A 
BRANCH  91  95
ATOM     95  S   UNL A   1      45.151  24.386  36.868  1.00  0.00     0.124 S 
ATOM     96  O   UNL A   1      44.683  24.874  38.162  1.00  0.00    -0.237 OA
ATOM     97  O   UNL A   1      44.197  23.587  36.107  1.00  0.00    -0.237 OA
ATOM     98  O   UNL A   1      46.526  23.891  36.850  1.00  0.00    -0.744 OA
ENDBRANCH  91  95
ENDBRANCH  65  88
ENDBRANCH  39  40
ENDBRANCH  32  34
ENDBRANCH  31  32
ENDBRANCH   1  31
TORSDOF 17
ENDMDL
MODEL 2
REMARK VINA RESULT:     -13.6      5.385     10.765
REMARK SMILES CS(=O)(=O)c1ccc(-c2cc(Cl)cc3c2O[C@H](C(F)(F)F)C(C(=O)OCCOC(=O)c2ccc(-c4c5nc(c(-c6cc(S(=O)(=O)[O-])ccc6F)c6ccc([nH]6)c(-c6cc(S(=O)(=O)[O-])ccc6F)c6nc(c(-c7cc(S(=O)(=O)[O-])ccc7F)c7ccc4[nH]7)C=C6)C=C5)cc2)=C3)cc1
REMARK SMILES IDX 27 1 26 2 25 3 23 4 24 5 22 6 9 7 10 8 15 9 11 10 14 11
REMARK SMILES IDX 16 12 12 13 13 14 94 15 17 16 8 17 5 18 6 19 96 20 7 21
REMARK SMILES IDX 95 22 2 23 1 24 3 25 4 26 18 27 19 28 20 29 21 30 28 31
REMARK SMILES IDX 29 32 30 33 31 34 32 35 93 36 33 37 92 38 34 39 35 40 36 41
REMARK SMILES IDX 86 42 37 43 91 44 85 45 87 46 38 47 90 48 84 49 83 50 39 52
REMARK SMILES IDX 71 53 51 54 70 55 52 56 55 57 69 58 88 59 53 60 54 61 68 63
REMARK SMILES IDX 89 64 56 65 40 66 41 67 49 68 42 69 48 70 50 71 47 72 43 73
REMARK SMILES IDX 44 74 45 75 46 76 72 77 73 78 81 79 74 80 80 81 82 82 79 83
REMARK SMILES IDX 75 84 76 85 77 86 78 87 57 88 58 89 66 90 59 91 65 92 67 93
REMARK SMILES IDX 64 94 60 95 61 96 62 97 63 98
REMARK H PARENT 87 51 55 62
REMARK Flexibility Score: inf
ROOT
ATOM      1  C   UNL A   1      35.880  20.583  25.036  1.00  0.00     0.275 C 
ENDROOT
BRANCH   1   2
ATOM      2  C   UNL A   1      34.413  21.027  24.981  1.00  0.00     0.275 C 
BRANCH   2   3
ATOM      3  O   UNL A   1      33.997  21.577  23.704  1.00  0.00    -0.459 OA
BRANCH   3   4
ATOM      4  C   UNL A   1      32.765  22.147  23.722  1.00  0.00     0.338 C 
ATOM      5  O   UNL A   1      31.879  21.885  22.916  1.00  0.00    -0.246 OA
BRANCH   4   6
ATOM      6  C   UNL A   1      32.599  23.202  24.765  1.00  0.00     0.087 C 
ATOM      7  C   UNL A   1      30.932  26.574  23.272  1.00  0.00     0.026 A 
ATOM      8  C   UNL A   1      31.383  26.462  21.929  1.00  0.00     0.033 A 
ATOM      9  C   UNL A   1      31.564  25.677  24.152  1.00  0.00     0.135 A 
ATOM     10  C   UNL A   1      32.488  25.695  21.540  1.00  0.00     0.042 A 
ATOM     11  C   UNL A   1      32.831  25.138  23.790  1.00  0.00     0.019 A 
ATOM     12  O   UNL A   1      30.962  25.084  25.261  1.00  0.00    -0.475 OA
ATOM     13  Cl  UNL A   1      32.872  25.251  19.928  1.00  0.00    -0.084 Cl
ATOM     14  C   UNL A   1      33.308  25.172  22.497  1.00  0.00     0.032 A 
ATOM     15  C   UNL A   1      33.503  24.195  24.702  1.00  0.00     0.027 C 
ATOM     16  C   UNL A   1      31.264  23.595  25.377  1.00  0.00     0.316 C 
BRANCH   7  17
ATOM     17  C   UNL A   1      30.023  27.759  23.511  1.00  0.00    -0.015 A 
ATOM     18  C   UNL A   1      28.739  30.302  23.026  1.00  0.00     0.067 A 
ATOM     19  C   UNL A   1      28.049  29.104  22.831  1.00  0.00     0.021 A 
ATOM     20  C   UNL A   1      30.027  30.247  23.555  1.00  0.00     0.021 A 
ATOM     21  C   UNL A   1      28.675  27.855  23.113  1.00  0.00     0.010 A 
ATOM     22  C   UNL A   1      30.651  29.000  23.783  1.00  0.00     0.010 A 
BRANCH  18  23
ATOM     23  S   UNL A   1      27.921  31.889  22.823  1.00  0.00     0.175 S 
ATOM     24  C   UNL A   1      29.092  33.163  23.198  1.00  0.00     0.163 C 
ATOM     25  O   UNL A   1      26.869  31.953  23.825  1.00  0.00    -0.224 OA
ATOM     26  O   UNL A   1      27.577  31.986  21.416  1.00  0.00    -0.224 OA
ENDBRANCH  18  23
ENDBRANCH   7  17
BRANCH  16  27
ATOM     27  C   UNL A   1      31.362  23.155  26.848  1.00  0.00     0.430 C 
ATOM     28  F   UNL A   1      31.844  24.146  27.640  1.00  0.00    -0.167 F 
ATOM     29  F   UNL A   1      30.180  22.759  27.359  1.00  0.00    -0.167 F 
ATOM     30  F   UNL A   1      32.221  22.107  26.986  1.00  0.00    -0.167 F 
ENDBRANCH  16  27
ENDBRANCH   4   6
ENDBRANCH   3   4
ENDBRANCH   2   3
ENDBRANCH   1   2
BRANCH   1  31
ATOM     31  O   UNL A   1      36.729  21.506  25.739  1.00  0.00    -0.458 OA
BRANCH  31  32
ATOM     32  C   UNL A   1      38.038  21.144  25.738  1.00  0.00     0.338 C 
ATOM     33  O   UNL A   1      38.480  20.083  25.342  1.00  0.00    -0.246 OA
BRANCH  32  34
ATOM     34  C   UNL A   1      38.915  22.268  26.163  1.00  0.00     0.060 A 
ATOM     35  C   UNL A   1      38.494  23.538  25.792  1.00  0.00     0.016 A 
ATOM     36  C   UNL A   1      40.123  22.134  26.862  1.00  0.00     0.016 A 
ATOM     37  C   UNL A   1      39.253  24.649  26.161  1.00  0.00     0.010 A 
ATOM     38  C   UNL A   1      40.880  23.278  27.230  1.00  0.00     0.010 A 
ATOM     39  C   UNL A   1      40.438  24.566  26.906  1.00  0.00    -0.014 A 
BRANCH  39  40
ATOM     40  C   UNL A   1      41.150  25.860  27.234  1.00  0.00     0.031 A 
ATOM     41  C   UNL A   1      40.506  26.823  28.189  1.00  0.00     0.074 A 
ATOM     42  C   UNL A   1      42.437  26.110  26.893  1.00  0.00     0.049 A 
ATOM     43  N   UNL A   1      40.965  27.969  28.621  1.00  0.00    -0.248 NA
ATOM     44  C   UNL A   1      39.189  26.454  28.726  1.00  0.00     0.031 C 
ATOM     45  C   UNL A   1      43.226  25.242  26.048  1.00  0.00     0.029 A 
ATOM     46  N   UNL A   1      43.343  27.092  27.244  1.00  0.00    -0.354 N 
ATOM     47  C   UNL A   1      39.988  28.465  29.469  1.00  0.00     0.074 A 
ATOM     48  C   UNL A   1      38.930  27.480  29.520  1.00  0.00     0.031 C 
ATOM     49  C   UNL A   1      44.520  25.591  26.091  1.00  0.00     0.029 A 
ATOM     50  C   UNL A   1      44.625  26.881  26.757  1.00  0.00     0.049 A 
ATOM     51  H   UNL A   1      43.100  27.873  27.794  1.00  0.00     0.167 HD
ATOM     52  C   UNL A   1      39.963  29.651  30.120  1.00  0.00     0.034 A 
ATOM     53  C   UNL A   1      45.732  27.663  26.740  1.00  0.00     0.034 A 
ATOM     54  C   UNL A   1      40.983  30.660  30.004  1.00  0.00     0.049 A 
ATOM     55  C   UNL A   1      45.597  29.062  27.291  1.00  0.00     0.074 A 
ATOM     56  C   UNL A   1      41.020  31.910  30.596  1.00  0.00     0.029 A 
ATOM     57  N   UNL A   1      42.132  30.552  29.232  1.00  0.00    -0.354 N 
ATOM     58  N   UNL A   1      44.569  29.599  27.908  1.00  0.00    -0.248 NA
ATOM     59  C   UNL A   1      46.727  29.982  27.099  1.00  0.00     0.031 C 
ATOM     60  C   UNL A   1      42.178  32.564  30.167  1.00  0.00     0.029 A 
ATOM     61  C   UNL A   1      42.913  31.686  29.386  1.00  0.00     0.049 A 
ATOM     62  H   UNL A   1      42.358  29.785  28.659  1.00  0.00     0.167 HD
ATOM     63  C   UNL A   1      44.938  30.909  28.190  1.00  0.00     0.074 A 
ATOM     64  C   UNL A   1      46.282  31.085  27.682  1.00  0.00     0.031 C 
ATOM     65  C   UNL A   1      44.232  31.871  28.832  1.00  0.00     0.034 A 
BRANCH  52  66
ATOM     66  C   UNL A   1      38.739  29.937  30.943  1.00  0.00     0.023 A 
ATOM     67  C   UNL A   1      37.670  30.688  30.429  1.00  0.00     0.031 A 
ATOM     68  C   UNL A   1      38.677  29.513  32.281  1.00  0.00     0.131 A 
ATOM     69  C   UNL A   1      36.614  31.056  31.274  1.00  0.00     0.055 A 
ATOM     70  C   UNL A   1      37.582  29.809  33.091  1.00  0.00     0.041 A 
ATOM     71  F   UNL A   1      39.692  28.826  32.827  1.00  0.00    -0.206 F 
ATOM     72  C   UNL A   1      36.550  30.599  32.593  1.00  0.00     0.022 A 
BRANCH  69  73
ATOM     73  S   UNL A   1      35.428  32.292  30.680  1.00  0.00     0.124 S 
ATOM     74  O   UNL A   1      35.015  31.714  29.402  1.00  0.00    -0.237 OA
ATOM     75  O   UNL A   1      34.425  32.296  31.737  1.00  0.00    -0.237 OA
ATOM     76  O   UNL A   1      36.231  33.508  30.572  1.00  0.00    -0.744 OA
ENDBRANCH  69  73
ENDBRANCH  52  66
BRANCH  53  77
ATOM     77  C   UNL A   1      46.998  27.252  26.029  1.00  0.00     0.023 A 
ATOM     78  C   UNL A   1      47.308  27.688  24.725  1.00  0.00     0.031 A 
ATOM     79  C   UNL A   1      47.876  26.314  26.610  1.00  0.00     0.131 A 
ATOM     80  C   UNL A   1      48.429  27.161  24.047  1.00  0.00     0.055 A 
ATOM     81  C   UNL A   1      49.033  25.865  25.970  1.00  0.00     0.041 A 
ATOM     82  F   UNL A   1      47.619  25.801  27.825  1.00  0.00    -0.206 F 
ATOM     83  C   UNL A   1      49.306  26.276  24.674  1.00  0.00     0.022 A 
BRANCH  80  84
ATOM     84  S   UNL A   1      48.656  27.525  22.280  1.00  0.00     0.124 S 
ATOM     85  O   UNL A   1      47.440  28.271  21.975  1.00  0.00    -0.237 OA
ATOM     86  O   UNL A   1      49.898  28.289  22.285  1.00  0.00    -0.237 OA
ATOM     87  O   UNL A   1      48.743  26.200  21.668  1.00  0.00    -0.744 OA
ENDBRANCH  80  84
ENDBRANCH  53  77
BRANCH  65  88
ATOM     88  C   UNL A   1      44.932  33.179  29.090  1.00  0.00     0.023 A 
ATOM     89  C   UNL A   1      44.826  34.271  28.214  1.00  0.00     0.031 A 
ATOM     90  C   UNL A   1      45.712  33.328  30.251  1.00  0.00     0.131 A 
ATOM     91  C   UNL A   1      45.512  35.460  28.503  1.00  0.00     0.055 A 
ATOM     92  C   UNL A   1      46.344  34.530  30.562  1.00  0.00     0.041 A 
ATOM     93  F   UNL A   1      45.854  32.306  31.112  1.00  0.00    -0.206 F 
ATOM     94  C   UNL A   1      46.251  35.603  29.682  1.00  0.00     0.022 A 
BRANCH  91  95
ATOM     95  S   UNL A   1      45.469  36.810  27.292  1.00  0.00     0.124 S 
ATOM     96  O   UNL A   1      46.152  37.881  28.011  1.00  0.00    -0.237 OA
ATOM     97  O   UNL A   1      46.192  36.240  26.161  1.00  0.00    -0.237 OA
ATOM     98  O   UNL A   1      44.040  37.024  27.069  1.00  0.00    -0.744 OA
ENDBRANCH  91  95
ENDBRANCH  65  88
ENDBRANCH  39  40
ENDBRANCH  32  34
ENDBRANCH  31  32
ENDBRANCH   1  31
TORSDOF 17
ENDMDL
MODEL 3
REMARK VINA RESULT:     -13.2      5.207     10.464
REMARK SMILES CS(=O)(=O)c1ccc(-c2cc(Cl)cc3c2O[C@H](C(F)(F)F)C(C(=O)OCCOC(=O)c2ccc(-c4c5nc(c(-c6cc(S(=O)(=O)[O-])ccc6F)c6ccc([nH]6)c(-c6cc(S(=O)(=O)[O-])ccc6F)c6nc(c(-c7cc(S(=O)(=O)[O-])ccc7F)c7ccc4[nH]7)C=C6)C=C5)cc2)=C3)cc1
REMARK SMILES IDX 27 1 26 2 25 3 23 4 24 5 22 6 9 7 10 8 15 9 11 10 14 11
REMARK SMILES IDX 16 12 12 13 13 14 94 15 17 16 8 17 5 18 6 19 96 20 7 21
REMARK SMILES IDX 95 22 2 23 1 24 3 25 4 26 18 27 19 28 20 29 21 30 28 31
REMARK SMILES IDX 29 32 30 33 31 34 32 35 93 36 33 37 92 38 34 39 35 40 36 41
REMARK SMILES IDX 86 42 37 43 91 44 85 45 87 46 38 47 90 48 84 49 83 50 39 52
REMARK SMILES IDX 71 53 51 54 70 55 52 56 55 57 69 58 88 59 53 60 54 61 68 63
REMARK SMILES IDX 89 64 56 65 40 66 41 67 49 68 42 69 48 70 50 71 47 72 43 73
REMARK SMILES IDX 44 74 45 75 46 76 72 77 73 78 81 79 74 80 80 81 82 82 79 83
REMARK SMILES IDX 75 84 76 85 77 86 78 87 57 88 58 89 66 90 59 91 65 92 67 93
REMARK SMILES IDX 64 94 60 95 61 96 62 97 63 98
REMARK H PARENT 87 51 55 62
REMARK Flexibility Score: inf
ROOT
ATOM      1  C   UNL A   1      35.851  20.436  24.962  1.00  0.00     0.275 C 
ENDROOT
BRANCH   1   2
ATOM      2  C   UNL A   1      34.391  20.901  24.878  1.00  0.00     0.275 C 
BRANCH   2   3
ATOM      3  O   UNL A   1      34.062  21.635  23.670  1.00  0.00    -0.459 OA
BRANCH   3   4
ATOM      4  C   UNL A   1      32.830  22.205  23.688  1.00  0.00     0.338 C 
ATOM      5  O   UNL A   1      31.943  21.939  22.882  1.00  0.00    -0.246 OA
BRANCH   4   6
ATOM      6  C   UNL A   1      32.663  23.261  24.729  1.00  0.00     0.087 C 
ATOM      7  C   UNL A   1      30.950  26.611  23.240  1.00  0.00     0.026 A 
ATOM      8  C   UNL A   1      31.389  26.499  21.893  1.00  0.00     0.033 A 
ATOM      9  C   UNL A   1      31.598  25.723  24.117  1.00  0.00     0.135 A 
ATOM     10  C   UNL A   1      32.497  25.741  21.496  1.00  0.00     0.042 A 
ATOM     11  C   UNL A   1      32.867  25.196  23.745  1.00  0.00     0.019 A 
ATOM     12  O   UNL A   1      31.012  25.129  25.234  1.00  0.00    -0.475 OA
ATOM     13  Cl  UNL A   1      32.871  25.296  19.883  1.00  0.00    -0.084 Cl
ATOM     14  C   UNL A   1      33.332  25.230  22.447  1.00  0.00     0.032 A 
ATOM     15  C   UNL A   1      33.556  24.263  24.653  1.00  0.00     0.027 C 
ATOM     16  C   UNL A   1      31.330  23.643  25.351  1.00  0.00     0.316 C 
BRANCH   7  17
ATOM     17  C   UNL A   1      30.031  27.789  23.483  1.00  0.00    -0.015 A 
ATOM     18  C   UNL A   1      28.747  30.336  23.021  1.00  0.00     0.067 A 
ATOM     19  C   UNL A   1      28.066  29.139  22.790  1.00  0.00     0.021 A 
ATOM     20  C   UNL A   1      30.025  30.276  23.576  1.00  0.00     0.021 A 
ATOM     21  C   UNL A   1      28.691  27.887  23.060  1.00  0.00     0.010 A 
ATOM     22  C   UNL A   1      30.649  29.027  23.792  1.00  0.00     0.010 A 
BRANCH  18  23
ATOM     23  S   UNL A   1      27.927  31.923  22.833  1.00  0.00     0.175 S 
ATOM     24  C   UNL A   1      29.090  33.195  23.243  1.00  0.00     0.163 C 
ATOM     25  O   UNL A   1      26.862  31.969  23.822  1.00  0.00    -0.224 OA
ATOM     26  O   UNL A   1      27.601  32.042  21.424  1.00  0.00    -0.224 OA
ENDBRANCH  18  23
ENDBRANCH   7  17
BRANCH  16  27
ATOM     27  C   UNL A   1      31.446  23.210  26.823  1.00  0.00     0.430 C 
ATOM     28  F   UNL A   1      30.235  22.921  27.361  1.00  0.00    -0.167 F 
ATOM     29  F   UNL A   1      32.239  22.133  26.994  1.00  0.00    -0.167 F 
ATOM     30  F   UNL A   1      31.971  24.209  27.585  1.00  0.00    -0.167 F 
ENDBRANCH  16  27
ENDBRANCH   4   6
ENDBRANCH   3   4
ENDBRANCH   2   3
ENDBRANCH   1   2
BRANCH   1  31
ATOM     31  O   UNL A   1      36.707  21.368  25.645  1.00  0.00    -0.458 OA
BRANCH  31  32
ATOM     32  C   UNL A   1      38.006  20.971  25.696  1.00  0.00     0.338 C 
ATOM     33  O   UNL A   1      38.429  19.885  25.346  1.00  0.00    -0.246 OA
BRANCH  32  34
ATOM     34  C   UNL A   1      38.900  22.083  26.114  1.00  0.00     0.060 A 
ATOM     35  C   UNL A   1      38.501  23.357  25.732  1.00  0.00     0.016 A 
ATOM     36  C   UNL A   1      40.105  21.934  26.816  1.00  0.00     0.016 A 
ATOM     37  C   UNL A   1      39.278  24.458  26.093  1.00  0.00     0.010 A 
ATOM     38  C   UNL A   1      40.880  23.068  27.177  1.00  0.00     0.010 A 
ATOM     39  C   UNL A   1      40.460  24.361  26.842  1.00  0.00    -0.014 A 
BRANCH  39  40
ATOM     40  C   UNL A   1      41.193  25.645  27.160  1.00  0.00     0.031 A 
ATOM     41  C   UNL A   1      40.561  26.629  28.101  1.00  0.00     0.074 A 
ATOM     42  C   UNL A   1      42.487  25.868  26.825  1.00  0.00     0.049 A 
ATOM     43  N   UNL A   1      41.037  27.771  28.524  1.00  0.00    -0.248 NA
ATOM     44  C   UNL A   1      39.234  26.289  28.634  1.00  0.00     0.031 C 
ATOM     45  C   UNL A   1      43.266  24.977  25.996  1.00  0.00     0.029 A 
ATOM     46  N   UNL A   1      43.408  26.837  27.173  1.00  0.00    -0.354 N 
ATOM     47  C   UNL A   1      40.064  28.294  29.361  1.00  0.00     0.074 A 
ATOM     48  C   UNL A   1      38.989  27.329  29.415  1.00  0.00     0.031 C 
ATOM     49  C   UNL A   1      44.565  25.303  26.043  1.00  0.00     0.029 A 
ATOM     50  C   UNL A   1      44.689  26.598  26.696  1.00  0.00     0.049 A 
ATOM     51  H   UNL A   1      43.176  27.628  27.713  1.00  0.00     0.167 HD
ATOM     52  C   UNL A   1      40.057  29.487  30.000  1.00  0.00     0.034 A 
ATOM     53  C   UNL A   1      45.811  27.360  26.679  1.00  0.00     0.034 A 
ATOM     54  C   UNL A   1      41.095  30.476  29.879  1.00  0.00     0.049 A 
ATOM     55  C   UNL A   1      45.697  28.767  27.214  1.00  0.00     0.074 A 
ATOM     56  C   UNL A   1      41.151  31.731  30.459  1.00  0.00     0.029 A 
ATOM     57  N   UNL A   1      42.247  30.340  29.116  1.00  0.00    -0.354 N 
ATOM     58  N   UNL A   1      44.675  29.328  27.818  1.00  0.00    -0.248 NA
ATOM     59  C   UNL A   1      46.845  29.664  27.020  1.00  0.00     0.031 C 
ATOM     60  C   UNL A   1      42.324  32.360  30.030  1.00  0.00     0.029 A 
ATOM     61  C   UNL A   1      43.048  31.461  29.264  1.00  0.00     0.049 A 
ATOM     62  H   UNL A   1      42.463  29.562  28.553  1.00  0.00     0.167 HD
ATOM     63  C   UNL A   1      45.066  30.635  28.090  1.00  0.00     0.074 A 
ATOM     64  C   UNL A   1      46.416  30.781  27.588  1.00  0.00     0.031 C 
ATOM     65  C   UNL A   1      44.374  31.616  28.717  1.00  0.00     0.034 A 
BRANCH  52  66
ATOM     66  C   UNL A   1      38.833  29.804  30.811  1.00  0.00     0.023 A 
ATOM     67  C   UNL A   1      37.896  30.757  30.382  1.00  0.00     0.031 A 
ATOM     68  C   UNL A   1      38.642  29.194  32.062  1.00  0.00     0.131 A 
ATOM     69  C   UNL A   1      36.848  31.129  31.234  1.00  0.00     0.055 A 
ATOM     70  C   UNL A   1      37.548  29.506  32.867  1.00  0.00     0.041 A 
ATOM     71  F   UNL A   1      39.531  28.305  32.531  1.00  0.00    -0.206 F 
ATOM     72  C   UNL A   1      36.652  30.491  32.462  1.00  0.00     0.022 A 
BRANCH  69  73
ATOM     73  S   UNL A   1      35.860  32.586  30.799  1.00  0.00     0.124 S 
ATOM     74  O   UNL A   1      35.564  33.146  32.117  1.00  0.00    -0.237 OA
ATOM     75  O   UNL A   1      36.781  33.351  29.969  1.00  0.00    -0.237 OA
ATOM     76  O   UNL A   1      34.709  32.019  30.101  1.00  0.00    -0.744 OA
ENDBRANCH  69  73
ENDBRANCH  52  66
BRANCH  53  77
ATOM     77  C   UNL A   1      47.074  26.919  25.980  1.00  0.00     0.023 A 
ATOM     78  C   UNL A   1      48.124  26.267  26.657  1.00  0.00     0.031 A 
ATOM     79  C   UNL A   1      47.298  27.249  24.627  1.00  0.00     0.131 A 
ATOM     80  C   UNL A   1      49.342  26.006  25.993  1.00  0.00     0.055 A 
ATOM     81  C   UNL A   1      48.471  26.907  23.951  1.00  0.00     0.041 A 
ATOM     82  F   UNL A   1      46.372  27.925  23.928  1.00  0.00    -0.206 F 
ATOM     83  C   UNL A   1      49.509  26.296  24.639  1.00  0.00     0.022 A 
BRANCH  80  84
ATOM     84  S   UNL A   1      50.772  25.417  26.952  1.00  0.00     0.124 S 
ATOM     85  O   UNL A   1      50.198  24.282  27.668  1.00  0.00    -0.237 OA
ATOM     86  O   UNL A   1      51.730  25.098  25.900  1.00  0.00    -0.237 OA
ATOM     87  O   UNL A   1      51.120  26.567  27.785  1.00  0.00    -0.744 OA
ENDBRANCH  80  84
ENDBRANCH  53  77
BRANCH  65  88
ATOM     88  C   UNL A   1      45.095  32.914  28.965  1.00  0.00     0.023 A 
ATOM     89  C   UNL A   1      45.926  33.107  30.080  1.00  0.00     0.031 A 
ATOM     90  C   UNL A   1      44.949  33.971  28.050  1.00  0.00     0.131 A 
ATOM     91  C   UNL A   1      46.562  34.345  30.263  1.00  0.00     0.055 A 
ATOM     92  C   UNL A   1      45.628  35.178  28.207  1.00  0.00     0.041 A 
ATOM     93  F   UNL A   1      44.152  33.837  26.976  1.00  0.00    -0.206 F 
ATOM     94  C   UNL A   1      46.436  35.372  29.322  1.00  0.00     0.022 A 
BRANCH  91  95
ATOM     95  S   UNL A   1      47.523  34.618  31.777  1.00  0.00     0.124 S 
ATOM     96  O   UNL A   1      48.706  33.798  31.535  1.00  0.00    -0.237 OA
ATOM     97  O   UNL A   1      47.734  36.061  31.760  1.00  0.00    -0.237 OA
ATOM     98  O   UNL A   1      46.639  34.135  32.836  1.00  0.00    -0.744 OA
ENDBRANCH  91  95
ENDBRANCH  65  88
ENDBRANCH  39  40
ENDBRANCH  32  34
ENDBRANCH  31  32
ENDBRANCH   1  31
TORSDOF 17
ENDMDL
