MODEL 1
REMARK VINA RESULT:     -11.4      0.000      0.000
REMARK SMILES C[NH2+][C@]1(C(=O)OCCOC(=O)c2ccc(-c3c4nc(c(-c5cc(S(=O)(=O)[O-])ccc5F)c5ccc([nH]5)c(-c5cc(S(=O)(=O)[O-])ccc5F)c5nc(c(-c6cc(S(=O)(=O)[O-])ccc6F)c6ccc3[nH]6)C=C5)C=C4)cc2)CCC[C@@H]([N@H+]2CC[C@@H](C)C2)C1
REMARK SMILES IDX 8 1 7 2 6 3 4 4 5 5 3 6 75 7 85 8 76 9 78 10 77 11 2 12 1 13
REMARK SMILES IDX 79 16 80 17 84 18 81 20 82 21 83 22 9 23 10 24 11 25 12 26
REMARK SMILES IDX 13 27 74 28 14 29 73 30 15 31 16 32 17 33 67 34 18 35 72 36
REMARK SMILES IDX 66 37 68 38 19 39 71 40 65 41 64 42 20 44 52 45 32 46 51 47
REMARK SMILES IDX 33 48 36 49 50 50 69 51 34 52 35 53 49 55 70 56 37 57 21 58
REMARK SMILES IDX 22 59 30 60 23 61 29 62 31 63 28 64 24 65 25 66 26 67 27 68
REMARK SMILES IDX 53 69 54 70 62 71 55 72 61 73 63 74 60 75 56 76 57 77 58 78
REMARK SMILES IDX 59 79 38 80 39 81 47 82 40 83 46 84 48 85 45 86 41 87 42 88
REMARK SMILES IDX 43 89 44 90
REMARK H PARENT 2 14 2 15 79 19 68 43 36 54
REMARK Flexibility Score: inf
ROOT
ATOM      1  C   UNL A   1      38.876  19.573  25.725  1.00  0.00     0.275 C 
ENDROOT
BRANCH   1   2
ATOM      2  C   UNL A   1      37.862  20.208  24.769  1.00  0.00     0.274 C 
BRANCH   2   3
ATOM      3  O   UNL A   1      36.649  20.594  25.441  1.00  0.00    -0.457 OA
BRANCH   3   4
ATOM      4  C   UNL A   1      36.344  21.925  25.373  1.00  0.00     0.368 C 
ATOM      5  O   UNL A   1      37.134  22.798  25.720  1.00  0.00    -0.245 OA
BRANCH   4   6
ATOM      6  C   UNL A   1      34.844  22.174  25.002  1.00  0.00     0.199 C 
ATOM      7  C   UNL A   1      34.667  22.937  23.663  1.00  0.00     0.081 C 
ATOM      8  C   UNL A   1      34.266  20.773  24.806  1.00  0.00     0.146 C 
ATOM      9  C   UNL A   1      33.216  22.954  23.161  1.00  0.00     0.013 C 
ATOM     10  C   UNL A   1      32.800  20.742  24.365  1.00  0.00     0.190 C 
ATOM     11  C   UNL A   1      32.620  21.543  23.059  1.00  0.00     0.065 C 
BRANCH   6  12
ATOM     12  N   UNL A   1      34.120  22.931  26.067  1.00  0.00    -0.334 N 
ATOM     13  C   UNL A   1      34.067  22.336  27.400  1.00  0.00     0.331 C 
ATOM     14  H   UNL A   1      34.572  23.840  26.156  1.00  0.00     0.347 HD
ATOM     15  H   UNL A   1      33.149  22.954  25.755  1.00  0.00     0.347 HD
ENDBRANCH   6  12
BRANCH  10  16
ATOM     16  N   UNL A   1      32.264  19.368  24.298  1.00  0.00    -0.332 N 
ATOM     17  C   UNL A   1      32.359  18.694  23.002  1.00  0.00     0.262 C 
ATOM     18  C   UNL A   1      32.825  18.473  25.324  1.00  0.00     0.265 C 
ATOM     19  H   UNL A   1      31.274  19.537  24.473  1.00  0.00     0.348 HD
ATOM     20  C   UNL A   1      32.905  17.293  23.262  1.00  0.00     0.070 C 
ATOM     21  C   UNL A   1      33.616  17.379  24.605  1.00  0.00     0.047 C 
ATOM     22  C   UNL A   1      35.114  17.646  24.440  1.00  0.00     0.014 C 
ENDBRANCH  10  16
ENDBRANCH   4   6
ENDBRANCH   3   4
ENDBRANCH   2   3
ENDBRANCH   1   2
BRANCH   1  23
ATOM     23  O   UNL A   1      40.122  20.290  25.756  1.00  0.00    -0.458 OA
BRANCH  23  24
ATOM     24  C   UNL A   1      40.712  20.348  26.978  1.00  0.00     0.338 C 
ATOM     25  O   UNL A   1      41.078  19.394  27.649  1.00  0.00    -0.246 OA
BRANCH  24  26
ATOM     26  C   UNL A   1      41.039  21.747  27.317  1.00  0.00     0.060 A 
ATOM     27  C   UNL A   1      40.540  22.739  26.472  1.00  0.00     0.016 A 
ATOM     28  C   UNL A   1      41.825  22.103  28.413  1.00  0.00     0.016 A 
ATOM     29  C   UNL A   1      40.743  24.085  26.746  1.00  0.00     0.010 A 
ATOM     30  C   UNL A   1      42.092  23.458  28.654  1.00  0.00     0.010 A 
ATOM     31  C   UNL A   1      41.543  24.454  27.827  1.00  0.00    -0.014 A 
BRANCH  31  32
ATOM     32  C   UNL A   1      41.909  25.880  27.975  1.00  0.00     0.031 A 
ATOM     33  C   UNL A   1      43.220  26.344  27.410  1.00  0.00     0.074 A 
ATOM     34  C   UNL A   1      41.056  26.757  28.532  1.00  0.00     0.049 A 
ATOM     35  N   UNL A   1      43.778  27.524  27.469  1.00  0.00    -0.248 NA
ATOM     36  C   UNL A   1      43.996  25.342  26.665  1.00  0.00     0.031 C 
ATOM     37  C   UNL A   1      39.706  26.441  28.998  1.00  0.00     0.029 A 
ATOM     38  N   UNL A   1      41.199  28.096  28.797  1.00  0.00    -0.354 N 
ATOM     39  C   UNL A   1      44.972  27.410  26.767  1.00  0.00     0.074 A 
ATOM     40  C   UNL A   1      45.062  26.039  26.307  1.00  0.00     0.031 C 
ATOM     41  C   UNL A   1      39.157  27.551  29.522  1.00  0.00     0.029 A 
ATOM     42  C   UNL A   1      40.131  28.641  29.471  1.00  0.00     0.049 A 
ATOM     43  H   UNL A   1      41.992  28.617  28.531  1.00  0.00     0.167 HD
ATOM     44  C   UNL A   1      45.908  28.362  26.533  1.00  0.00     0.034 A 
ATOM     45  C   UNL A   1      39.981  29.865  30.019  1.00  0.00     0.034 A 
ATOM     46  C   UNL A   1      45.819  29.708  27.042  1.00  0.00     0.049 A 
ATOM     47  C   UNL A   1      41.108  30.864  29.884  1.00  0.00     0.074 A 
ATOM     48  C   UNL A   1      46.730  30.742  26.910  1.00  0.00     0.029 A 
ATOM     49  N   UNL A   1      44.765  30.204  27.799  1.00  0.00    -0.354 N 
ATOM     50  N   UNL A   1      42.256  30.739  29.256  1.00  0.00    -0.248 NA
ATOM     51  C   UNL A   1      40.921  32.169  30.533  1.00  0.00     0.031 C 
ATOM     52  C   UNL A   1      46.264  31.832  27.653  1.00  0.00     0.029 A 
ATOM     53  C   UNL A   1      45.019  31.514  28.173  1.00  0.00     0.049 A 
ATOM     54  H   UNL A   1      43.953  29.698  28.036  1.00  0.00     0.167 HD
ATOM     55  C   UNL A   1      42.910  31.961  29.407  1.00  0.00     0.074 A 
ATOM     56  C   UNL A   1      42.023  32.811  30.174  1.00  0.00     0.031 C 
ATOM     57  C   UNL A   1      44.128  32.348  28.948  1.00  0.00     0.034 A 
BRANCH  44  58
ATOM     58  C   UNL A   1      47.140  27.939  25.773  1.00  0.00     0.023 A 
ATOM     59  C   UNL A   1      47.274  28.164  24.390  1.00  0.00     0.031 A 
ATOM     60  C   UNL A   1      48.174  27.249  26.431  1.00  0.00     0.131 A 
ATOM     61  C   UNL A   1      48.378  27.639  23.701  1.00  0.00     0.055 A 
ATOM     62  C   UNL A   1      49.308  26.802  25.753  1.00  0.00     0.041 A 
ATOM     63  F   UNL A   1      48.086  26.978  27.743  1.00  0.00    -0.206 F 
ATOM     64  C   UNL A   1      49.409  26.982  24.377  1.00  0.00     0.022 A 
BRANCH  61  65
ATOM     65  S   UNL A   1      48.376  27.693  21.887  1.00  0.00     0.124 S 
ATOM     66  O   UNL A   1      48.626  26.293  21.551  1.00  0.00    -0.237 OA
ATOM     67  O   UNL A   1      47.040  28.194  21.587  1.00  0.00    -0.237 OA
ATOM     68  O   UNL A   1      49.471  28.607  21.570  1.00  0.00    -0.744 OA
ENDBRANCH  61  65
ENDBRANCH  44  58
BRANCH  45  69
ATOM     69  C   UNL A   1      38.762  30.198  30.814  1.00  0.00     0.023 A 
ATOM     70  C   UNL A   1      37.698  30.925  30.256  1.00  0.00     0.031 A 
ATOM     71  C   UNL A   1      38.682  29.860  32.178  1.00  0.00     0.131 A 
ATOM     72  C   UNL A   1      36.626  31.332  31.068  1.00  0.00     0.055 A 
ATOM     73  C   UNL A   1      37.584  30.214  32.966  1.00  0.00     0.041 A 
ATOM     74  F   UNL A   1      39.675  29.177  32.770  1.00  0.00    -0.206 F 
ATOM     75  C   UNL A   1      36.555  30.968  32.414  1.00  0.00     0.022 A 
BRANCH  72  76
ATOM     76  S   UNL A   1      35.367  32.432  30.362  1.00  0.00     0.124 S 
ATOM     77  O   UNL A   1      36.112  33.676  30.209  1.00  0.00    -0.237 OA
ATOM     78  O   UNL A   1      35.014  31.738  29.128  1.00  0.00    -0.237 OA
ATOM     79  O   UNL A   1      34.321  32.452  31.383  1.00  0.00    -0.744 OA
ENDBRANCH  72  76
ENDBRANCH  45  69
BRANCH  57  80
ATOM     80  C   UNL A   1      44.547  33.774  29.218  1.00  0.00     0.023 A 
ATOM     81  C   UNL A   1      44.031  34.856  28.482  1.00  0.00     0.031 A 
ATOM     82  C   UNL A   1      45.480  34.053  30.233  1.00  0.00     0.131 A 
ATOM     83  C   UNL A   1      44.490  36.158  28.737  1.00  0.00     0.055 A 
ATOM     84  C   UNL A   1      45.885  35.357  30.525  1.00  0.00     0.041 A 
ATOM     85  F   UNL A   1      46.010  33.061  30.967  1.00  0.00    -0.206 F 
ATOM     86  C   UNL A   1      45.399  36.417  29.766  1.00  0.00     0.022 A 
BRANCH  83  87
ATOM     87  S   UNL A   1      43.957  37.503  27.642  1.00  0.00     0.124 S 
ATOM     88  O   UNL A   1      43.104  38.293  28.525  1.00  0.00    -0.237 OA
ATOM     89  O   UNL A   1      45.225  38.118  27.262  1.00  0.00    -0.237 OA
ATOM     90  O   UNL A   1      43.256  36.810  26.562  1.00  0.00    -0.744 OA
ENDBRANCH  83  87
ENDBRANCH  57  80
ENDBRANCH  31  32
ENDBRANCH  24  26
ENDBRANCH  23  24
ENDBRANCH   1  23
TORSDOF 16
ENDMDL
MODEL 2
REMARK VINA RESULT:     -11.2      1.811      8.270
REMARK SMILES C[NH2+][C@]1(C(=O)OCCOC(=O)c2ccc(-c3c4nc(c(-c5cc(S(=O)(=O)[O-])ccc5F)c5ccc([nH]5)c(-c5cc(S(=O)(=O)[O-])ccc5F)c5nc(c(-c6cc(S(=O)(=O)[O-])ccc6F)c6ccc3[nH]6)C=C5)C=C4)cc2)CCC[C@@H]([N@H+]2CC[C@@H](C)C2)C1
REMARK SMILES IDX 8 1 7 2 6 3 4 4 5 5 3 6 75 7 85 8 76 9 78 10 77 11 2 12 1 13
REMARK SMILES IDX 79 16 80 17 84 18 81 20 82 21 83 22 9 23 10 24 11 25 12 26
REMARK SMILES IDX 13 27 74 28 14 29 73 30 15 31 16 32 17 33 67 34 18 35 72 36
REMARK SMILES IDX 66 37 68 38 19 39 71 40 65 41 64 42 20 44 52 45 32 46 51 47
REMARK SMILES IDX 33 48 36 49 50 50 69 51 34 52 35 53 49 55 70 56 37 57 21 58
REMARK SMILES IDX 22 59 30 60 23 61 29 62 31 63 28 64 24 65 25 66 26 67 27 68
REMARK SMILES IDX 53 69 54 70 62 71 55 72 61 73 63 74 60 75 56 76 57 77 58 78
REMARK SMILES IDX 59 79 38 80 39 81 47 82 40 83 46 84 48 85 45 86 41 87 42 88
REMARK SMILES IDX 43 89 44 90
REMARK H PARENT 2 14 2 15 79 19 68 43 36 54
REMARK Flexibility Score: inf
ROOT
ATOM      1  C   UNL A   1      37.454  20.343  24.903  1.00  0.00     0.275 C 
ENDROOT
BRANCH   1   2
ATOM      2  C   UNL A   1      35.934  20.502  25.003  1.00  0.00     0.274 C 
BRANCH   2   3
ATOM      3  O   UNL A   1      35.541  21.878  25.158  1.00  0.00    -0.457 OA
BRANCH   3   4
ATOM      4  C   UNL A   1      34.668  22.122  26.182  1.00  0.00     0.368 C 
ATOM      5  O   UNL A   1      34.737  21.532  27.258  1.00  0.00    -0.245 OA
BRANCH   4   6
ATOM      6  C   UNL A   1      33.493  23.063  25.753  1.00  0.00     0.199 C 
ATOM      7  C   UNL A   1      32.504  23.366  26.908  1.00  0.00     0.081 C 
ATOM      8  C   UNL A   1      34.179  24.378  25.385  1.00  0.00     0.146 C 
ATOM      9  C   UNL A   1      31.508  24.487  26.576  1.00  0.00     0.013 C 
ATOM     10  C   UNL A   1      33.224  25.507  24.986  1.00  0.00     0.190 C 
ATOM     11  C   UNL A   1      32.211  25.772  26.118  1.00  0.00     0.065 C 
BRANCH   6  12
ATOM     12  N   UNL A   1      32.714  22.502  24.608  1.00  0.00    -0.334 N 
ATOM     13  C   UNL A   1      32.119  21.180  24.779  1.00  0.00     0.331 C 
ATOM     14  H   UNL A   1      31.957  23.154  24.405  1.00  0.00     0.347 HD
ATOM     15  H   UNL A   1      33.400  22.383  23.862  1.00  0.00     0.347 HD
ENDBRANCH   6  12
BRANCH  10  16
ATOM     16  N   UNL A   1      33.943  26.716  24.537  1.00  0.00    -0.332 N 
ATOM     17  C   UNL A   1      33.705  27.142  23.157  1.00  0.00     0.262 C 
ATOM     18  C   UNL A   1      33.737  27.877  25.419  1.00  0.00     0.265 C 
ATOM     19  H   UNL A   1      34.910  26.396  24.586  1.00  0.00     0.348 HD
ATOM     20  C   UNL A   1      33.444  28.645  23.190  1.00  0.00     0.070 C 
ATOM     21  C   UNL A   1      33.002  28.949  24.614  1.00  0.00     0.047 C 
ATOM     22  C   UNL A   1      31.478  28.948  24.748  1.00  0.00     0.014 C 
ENDBRANCH  10  16
ENDBRANCH   4   6
ENDBRANCH   3   4
ENDBRANCH   2   3
ENDBRANCH   1   2
BRANCH   1  23
ATOM     23  O   UNL A   1      38.159  21.474  25.441  1.00  0.00    -0.458 OA
BRANCH  23  24
ATOM     24  C   UNL A   1      39.279  21.163  26.142  1.00  0.00     0.338 C 
ATOM     25  O   UNL A   1      39.802  20.059  26.216  1.00  0.00    -0.246 OA
BRANCH  24  26
ATOM     26  C   UNL A   1      39.911  22.392  26.661  1.00  0.00     0.060 A 
ATOM     27  C   UNL A   1      39.520  23.600  26.082  1.00  0.00     0.016 A 
ATOM     28  C   UNL A   1      40.872  22.388  27.671  1.00  0.00     0.016 A 
ATOM     29  C   UNL A   1      40.013  24.812  26.547  1.00  0.00     0.010 A 
ATOM     30  C   UNL A   1      41.426  23.604  28.096  1.00  0.00     0.010 A 
ATOM     31  C   UNL A   1      40.990  24.821  27.542  1.00  0.00    -0.014 A 
BRANCH  31  32
ATOM     32  C   UNL A   1      41.643  26.107  27.873  1.00  0.00     0.031 A 
ATOM     33  C   UNL A   1      40.852  27.138  28.625  1.00  0.00     0.074 A 
ATOM     34  C   UNL A   1      42.937  26.320  27.579  1.00  0.00     0.049 A 
ATOM     35  N   UNL A   1      41.188  28.352  28.972  1.00  0.00    -0.248 NA
ATOM     36  C   UNL A   1      39.504  26.735  29.053  1.00  0.00     0.031 C 
ATOM     37  C   UNL A   1      43.835  25.342  26.966  1.00  0.00     0.029 A 
ATOM     38  N   UNL A   1      43.723  27.431  27.760  1.00  0.00    -0.354 N 
ATOM     39  C   UNL A   1      40.095  28.859  29.664  1.00  0.00     0.074 A 
ATOM     40  C   UNL A   1      39.080  27.826  29.669  1.00  0.00     0.031 C 
ATOM     41  C   UNL A   1      45.042  25.909  26.793  1.00  0.00     0.029 A 
ATOM     42  C   UNL A   1      44.989  27.301  27.239  1.00  0.00     0.049 A 
ATOM     43  H   UNL A   1      43.409  28.244  28.219  1.00  0.00     0.167 HD
ATOM     44  C   UNL A   1      39.951  30.080  30.236  1.00  0.00     0.034 A 
ATOM     45  C   UNL A   1      45.970  28.216  27.099  1.00  0.00     0.034 A 
ATOM     46  C   UNL A   1      40.958  31.111  30.177  1.00  0.00     0.049 A 
ATOM     47  C   UNL A   1      45.730  29.621  27.603  1.00  0.00     0.074 A 
ATOM     48  C   UNL A   1      40.904  32.400  30.677  1.00  0.00     0.029 A 
ATOM     49  N   UNL A   1      42.197  30.978  29.561  1.00  0.00    -0.354 N 
ATOM     50  N   UNL A   1      44.677  30.113  28.220  1.00  0.00    -0.248 NA
ATOM     51  C   UNL A   1      46.808  30.596  27.393  1.00  0.00     0.031 C 
ATOM     52  C   UNL A   1      42.072  33.067  30.295  1.00  0.00     0.029 A 
ATOM     53  C   UNL A   1      42.899  32.171  29.636  1.00  0.00     0.049 A 
ATOM     54  H   UNL A   1      42.529  30.155  29.134  1.00  0.00     0.167 HD
ATOM     55  C   UNL A   1      44.984  31.443  28.499  1.00  0.00     0.074 A 
ATOM     56  C   UNL A   1      46.323  31.673  27.995  1.00  0.00     0.031 C 
ATOM     57  C   UNL A   1      44.232  32.388  29.120  1.00  0.00     0.034 A 
BRANCH  44  58
ATOM     58  C   UNL A   1      38.624  30.380  30.887  1.00  0.00     0.023 A 
ATOM     59  C   UNL A   1      37.594  31.050  30.202  1.00  0.00     0.031 A 
ATOM     60  C   UNL A   1      38.407  30.040  32.234  1.00  0.00     0.131 A 
ATOM     61  C   UNL A   1      36.427  31.422  30.886  1.00  0.00     0.055 A 
ATOM     62  C   UNL A   1      37.210  30.341  32.886  1.00  0.00     0.041 A 
ATOM     63  F   UNL A   1      39.366  29.428  32.947  1.00  0.00    -0.206 F 
ATOM     64  C   UNL A   1      36.217  31.049  32.216  1.00  0.00     0.022 A 
BRANCH  61  65
ATOM     65  S   UNL A   1      35.251  32.532  30.062  1.00  0.00     0.124 S 
ATOM     66  O   UNL A   1      34.790  31.701  28.952  1.00  0.00    -0.237 OA
ATOM     67  O   UNL A   1      34.275  32.794  31.113  1.00  0.00    -0.237 OA
ATOM     68  O   UNL A   1      36.074  33.676  29.674  1.00  0.00    -0.744 OA
ENDBRANCH  61  65
ENDBRANCH  44  58
BRANCH  45  69
ATOM     69  C   UNL A   1      47.237  27.871  26.388  1.00  0.00     0.023 A 
ATOM     70  C   UNL A   1      47.362  28.023  24.997  1.00  0.00     0.031 A 
ATOM     71  C   UNL A   1      48.320  27.306  27.086  1.00  0.00     0.131 A 
ATOM     72  C   UNL A   1      48.521  27.569  24.345  1.00  0.00     0.055 A 
ATOM     73  C   UNL A   1      49.494  26.913  26.440  1.00  0.00     0.041 A 
ATOM     74  F   UNL A   1      48.253  27.125  28.415  1.00  0.00    -0.206 F 
ATOM     75  C   UNL A   1      49.592  27.030  25.059  1.00  0.00     0.022 A 
BRANCH  72  76
ATOM     76  S   UNL A   1      48.568  27.601  22.531  1.00  0.00     0.124 S 
ATOM     77  O   UNL A   1      48.610  26.179  22.210  1.00  0.00    -0.237 OA
ATOM     78  O   UNL A   1      47.328  28.298  22.207  1.00  0.00    -0.237 OA
ATOM     79  O   UNL A   1      49.792  28.344  22.236  1.00  0.00    -0.744 OA
ENDBRANCH  72  76
ENDBRANCH  45  69
BRANCH  57  80
ATOM     80  C   UNL A   1      44.865  33.742  29.339  1.00  0.00     0.023 A 
ATOM     81  C   UNL A   1      44.749  34.781  28.399  1.00  0.00     0.031 A 
ATOM     82  C   UNL A   1      45.597  33.995  30.514  1.00  0.00     0.131 A 
ATOM     83  C   UNL A   1      45.399  36.005  28.625  1.00  0.00     0.055 A 
ATOM     84  C   UNL A   1      46.186  35.236  30.764  1.00  0.00     0.041 A 
ATOM     85  F   UNL A   1      45.744  33.040  31.448  1.00  0.00    -0.206 F 
ATOM     86  C   UNL A   1      46.100  36.245  29.810  1.00  0.00     0.022 A 
BRANCH  83  87
ATOM     87  S   UNL A   1      45.397  37.252  27.308  1.00  0.00     0.124 S 
ATOM     88  O   UNL A   1      46.166  36.588  26.259  1.00  0.00    -0.237 OA
ATOM     89  O   UNL A   1      43.972  37.423  27.042  1.00  0.00    -0.237 OA
ATOM     90  O   UNL A   1      46.055  38.404  27.922  1.00  0.00    -0.744 OA
ENDBRANCH  83  87
ENDBRANCH  57  80
ENDBRANCH  31  32
ENDBRANCH  24  26
ENDBRANCH  23  24
ENDBRANCH   1  23
TORSDOF 16
ENDMDL
MODEL 3
REMARK VINA RESULT:     -11.2      5.850     11.423
REMARK SMILES C[NH2+][C@]1(C(=O)OCCOC(=O)c2ccc(-c3c4nc(c(-c5cc(S(=O)(=O)[O-])ccc5F)c5ccc([nH]5)c(-c5cc(S(=O)(=O)[O-])ccc5F)c5nc(c(-c6cc(S(=O)(=O)[O-])ccc6F)c6ccc3[nH]6)C=C5)C=C4)cc2)CCC[C@@H]([N@H+]2CC[C@@H](C)C2)C1
REMARK SMILES IDX 8 1 7 2 6 3 4 4 5 5 3 6 75 7 85 8 76 9 78 10 77 11 2 12 1 13
REMARK SMILES IDX 79 16 80 17 84 18 81 20 82 21 83 22 9 23 10 24 11 25 12 26
REMARK SMILES IDX 13 27 74 28 14 29 73 30 15 31 16 32 17 33 67 34 18 35 72 36
REMARK SMILES IDX 66 37 68 38 19 39 71 40 65 41 64 42 20 44 52 45 32 46 51 47
REMARK SMILES IDX 33 48 36 49 50 50 69 51 34 52 35 53 49 55 70 56 37 57 21 58
REMARK SMILES IDX 22 59 30 60 23 61 29 62 31 63 28 64 24 65 25 66 26 67 27 68
REMARK SMILES IDX 53 69 54 70 62 71 55 72 61 73 63 74 60 75 56 76 57 77 58 78
REMARK SMILES IDX 59 79 38 80 39 81 47 82 40 83 46 84 48 85 45 86 41 87 42 88
REMARK SMILES IDX 43 89 44 90
REMARK H PARENT 2 14 2 15 79 19 68 43 36 54
REMARK Flexibility Score: inf
ROOT
ATOM      1  C   UNL A   1      31.698  32.638  26.826  1.00  0.00     0.275 C 
ENDROOT
BRANCH   1   2
ATOM      2  C   UNL A   1      31.771  31.111  26.923  1.00  0.00     0.274 C 
BRANCH   2   3
ATOM      3  O   UNL A   1      31.977  30.494  25.638  1.00  0.00    -0.457 OA
BRANCH   3   4
ATOM      4  C   UNL A   1      32.737  29.357  25.655  1.00  0.00     0.368 C 
ATOM      5  O   UNL A   1      33.835  29.309  26.203  1.00  0.00    -0.245 OA
BRANCH   4   6
ATOM      6  C   UNL A   1      32.143  28.230  24.746  1.00  0.00     0.199 C 
ATOM      7  C   UNL A   1      31.605  27.019  25.551  1.00  0.00     0.081 C 
ATOM      8  C   UNL A   1      30.945  28.889  24.062  1.00  0.00     0.146 C 
ATOM      9  C   UNL A   1      30.789  26.037  24.698  1.00  0.00     0.013 C 
ATOM     10  C   UNL A   1      30.138  27.960  23.151  1.00  0.00     0.190 C 
ATOM     11  C   UNL A   1      29.646  26.733  23.945  1.00  0.00     0.065 C 
BRANCH   6  12
ATOM     12  N   UNL A   1      33.140  27.724  23.755  1.00  0.00    -0.334 N 
ATOM     13  C   UNL A   1      33.746  28.696  22.849  1.00  0.00     0.331 C 
ATOM     14  H   UNL A   1      33.895  27.283  24.279  1.00  0.00     0.347 HD
ATOM     15  H   UNL A   1      32.608  27.101  23.147  1.00  0.00     0.347 HD
ENDBRANCH   6  12
BRANCH  10  16
ATOM     16  N   UNL A   1      29.063  28.674  22.435  1.00  0.00    -0.332 N 
ATOM     17  C   UNL A   1      27.772  28.764  23.119  1.00  0.00     0.262 C 
ATOM     18  C   UNL A   1      29.449  30.028  22.002  1.00  0.00     0.265 C 
ATOM     19  H   UNL A   1      28.929  28.065  21.628  1.00  0.00     0.348 HD
ATOM     20  C   UNL A   1      27.305  30.213  23.010  1.00  0.00     0.070 C 
ATOM     21  C   UNL A   1      28.565  31.026  22.750  1.00  0.00     0.047 C 
ATOM     22  C   UNL A   1      29.154  31.590  24.045  1.00  0.00     0.014 C 
ENDBRANCH  10  16
ENDBRANCH   4   6
ENDBRANCH   3   4
ENDBRANCH   2   3
ENDBRANCH   1   2
BRANCH   1  23
ATOM     23  O   UNL A   1      33.001  33.248  26.821  1.00  0.00    -0.458 OA
BRANCH  23  24
ATOM     24  C   UNL A   1      33.382  33.779  28.011  1.00  0.00     0.338 C 
ATOM     25  O   UNL A   1      32.746  34.581  28.681  1.00  0.00    -0.246 OA
BRANCH  24  26
ATOM     26  C   UNL A   1      34.602  33.105  28.499  1.00  0.00     0.060 A 
ATOM     27  C   UNL A   1      34.435  31.880  29.144  1.00  0.00     0.016 A 
ATOM     28  C   UNL A   1      35.880  33.645  28.357  1.00  0.00     0.016 A 
ATOM     29  C   UNL A   1      35.529  31.143  29.580  1.00  0.00     0.010 A 
ATOM     30  C   UNL A   1      36.982  32.938  28.859  1.00  0.00     0.010 A 
ATOM     31  C   UNL A   1      36.810  31.680  29.464  1.00  0.00    -0.014 A 
BRANCH  31  32
ATOM     32  C   UNL A   1      37.931  30.970  30.118  1.00  0.00     0.031 A 
ATOM     33  C   UNL A   1      38.257  31.307  31.544  1.00  0.00     0.074 A 
ATOM     34  C   UNL A   1      38.593  29.989  29.479  1.00  0.00     0.049 A 
ATOM     35  N   UNL A   1      39.224  30.863  32.302  1.00  0.00    -0.248 NA
ATOM     36  C   UNL A   1      37.358  32.266  32.204  1.00  0.00     0.031 C 
ATOM     37  C   UNL A   1      38.279  29.492  28.140  1.00  0.00     0.029 A 
ATOM     38  N   UNL A   1      39.669  29.234  29.874  1.00  0.00    -0.354 N 
ATOM     39  C   UNL A   1      39.051  31.484  33.532  1.00  0.00     0.074 A 
ATOM     40  C   UNL A   1      37.896  32.350  33.411  1.00  0.00     0.031 C 
ATOM     41  C   UNL A   1      39.164  28.534  27.813  1.00  0.00     0.029 A 
ATOM     42  C   UNL A   1      40.134  28.384  28.898  1.00  0.00     0.049 A 
ATOM     43  H   UNL A   1      40.070  29.295  30.772  1.00  0.00     0.167 HD
ATOM     44  C   UNL A   1      39.794  31.349  34.658  1.00  0.00     0.034 A 
ATOM     45  C   UNL A   1      41.240  27.612  28.871  1.00  0.00     0.034 A 
ATOM     46  C   UNL A   1      40.969  30.517  34.742  1.00  0.00     0.049 A 
ATOM     47  C   UNL A   1      42.144  27.597  30.083  1.00  0.00     0.074 A 
ATOM     48  C   UNL A   1      41.826  30.339  35.814  1.00  0.00     0.029 A 
ATOM     49  N   UNL A   1      41.466  29.737  33.704  1.00  0.00    -0.354 N 
ATOM     50  N   UNL A   1      42.001  28.220  31.232  1.00  0.00    -0.248 NA
ATOM     51  C   UNL A   1      43.359  26.776  29.995  1.00  0.00     0.031 C 
ATOM     52  C   UNL A   1      42.881  29.520  35.399  1.00  0.00     0.029 A 
ATOM     53  C   UNL A   1      42.637  29.107  34.098  1.00  0.00     0.049 A 
ATOM     54  H   UNL A   1      41.047  29.644  32.818  1.00  0.00     0.167 HD
ATOM     55  C   UNL A   1      43.091  27.837  32.012  1.00  0.00     0.074 A 
ATOM     56  C   UNL A   1      43.873  26.921  31.208  1.00  0.00     0.031 C 
ATOM     57  C   UNL A   1      43.413  28.203  33.281  1.00  0.00     0.034 A 
BRANCH  44  58
ATOM     58  C   UNL A   1      39.398  32.190  35.846  1.00  0.00     0.023 A 
ATOM     59  C   UNL A   1      38.578  31.689  36.873  1.00  0.00     0.031 A 
ATOM     60  C   UNL A   1      39.803  33.535  35.923  1.00  0.00     0.131 A 
ATOM     61  C   UNL A   1      38.131  32.545  37.890  1.00  0.00     0.055 A 
ATOM     62  C   UNL A   1      39.421  34.359  36.982  1.00  0.00     0.041 A 
ATOM     63  F   UNL A   1      40.560  34.077  34.957  1.00  0.00    -0.206 F 
ATOM     64  C   UNL A   1      38.567  33.870  37.967  1.00  0.00     0.022 A 
BRANCH  61  65
ATOM     65  S   UNL A   1      36.849  31.948  39.028  1.00  0.00     0.124 S 
ATOM     66  O   UNL A   1      35.679  32.695  38.572  1.00  0.00    -0.237 OA
ATOM     67  O   UNL A   1      36.835  30.514  38.764  1.00  0.00    -0.237 OA
ATOM     68  O   UNL A   1      37.352  32.335  40.345  1.00  0.00    -0.744 OA
ENDBRANCH  61  65
ENDBRANCH  44  58
BRANCH  45  69
ATOM     69  C   UNL A   1      41.608  26.852  27.640  1.00  0.00     0.023 A 
ATOM     70  C   UNL A   1      41.459  25.457  27.567  1.00  0.00     0.031 A 
ATOM     71  C   UNL A   1      42.193  27.507  26.541  1.00  0.00     0.131 A 
ATOM     72  C   UNL A   1      41.934  24.760  26.443  1.00  0.00     0.055 A 
ATOM     73  C   UNL A   1      42.607  26.816  25.401  1.00  0.00     0.041 A 
ATOM     74  F   UNL A   1      42.372  28.838  26.559  1.00  0.00    -0.206 F 
ATOM     75  C   UNL A   1      42.492  25.432  25.354  1.00  0.00     0.022 A 
BRANCH  72  76
ATOM     76  S   UNL A   1      41.903  22.945  26.466  1.00  0.00     0.124 S 
ATOM     77  O   UNL A   1      42.556  22.621  25.204  1.00  0.00    -0.237 OA
ATOM     78  O   UNL A   1      42.659  22.644  27.677  1.00  0.00    -0.237 OA
ATOM     79  O   UNL A   1      40.477  22.630  26.531  1.00  0.00    -0.744 OA
ENDBRANCH  72  76
ENDBRANCH  45  69
BRANCH  57  80
ATOM     80  C   UNL A   1      44.637  27.565  33.894  1.00  0.00     0.023 A 
ATOM     81  C   UNL A   1      44.581  26.326  34.556  1.00  0.00     0.031 A 
ATOM     82  C   UNL A   1      45.884  28.212  33.811  1.00  0.00     0.131 A 
ATOM     83  C   UNL A   1      45.737  25.800  35.155  1.00  0.00     0.055 A 
ATOM     84  C   UNL A   1      47.043  27.653  34.352  1.00  0.00     0.041 A 
ATOM     85  F   UNL A   1      45.999  29.399  33.194  1.00  0.00    -0.206 F 
ATOM     86  C   UNL A   1      46.971  26.445  35.039  1.00  0.00     0.022 A 
BRANCH  83  87
ATOM     87  S   UNL A   1      45.592  24.303  36.169  1.00  0.00     0.124 S 
ATOM     88  O   UNL A   1      46.262  24.705  37.402  1.00  0.00    -0.237 OA
ATOM     89  O   UNL A   1      44.146  24.125  36.259  1.00  0.00    -0.237 OA
ATOM     90  O   UNL A   1      46.293  23.287  35.386  1.00  0.00    -0.744 OA
ENDBRANCH  83  87
ENDBRANCH  57  80
ENDBRANCH  31  32
ENDBRANCH  24  26
ENDBRANCH  23  24
ENDBRANCH   1  23
TORSDOF 16
ENDMDL
