MODEL 1
REMARK VINA RESULT:     -10.4      0.000      0.000
REMARK SMILES O=C(OCCOC(=O)[C@H](Cc1ccc(O)cc1)NC(=O)c1ccc(Cl)s1)c1ccc(-c2c3nc(c(-c4cc(S(=O)(=O)[O-])ccc4F)c4ccc([nH]4)c(-c4cc(S(=O)(=O)[O-])ccc4F)c4nc(c(-c5cc(S(=O)(=O)[O-])ccc5F)c5ccc2[nH]5)C=C4)C=C3)cc1
REMARK SMILES IDX 4 1 3 2 2 3 1 4 27 5 28 6 89 7 29 8 88 9 30 10 31 11 32 12
REMARK SMILES IDX 82 13 33 14 87 15 81 16 83 17 34 18 86 19 80 20 79 21 35 23
REMARK SMILES IDX 67 24 47 25 66 26 48 27 51 28 65 29 84 30 49 31 50 32 64 34
REMARK SMILES IDX 85 35 52 36 36 37 37 38 45 39 38 40 44 41 46 42 43 43 39 44
REMARK SMILES IDX 40 45 41 46 42 47 68 48 69 49 77 50 70 51 76 52 78 53 75 54
REMARK SMILES IDX 71 55 72 56 73 57 74 58 53 59 54 60 62 61 55 62 61 63 63 64
REMARK SMILES IDX 60 65 56 66 57 67 58 68 59 69 5 70 6 71 7 72 8 73 9 74 18 75
REMARK SMILES IDX 19 76 20 78 21 79 22 80 26 81 23 82 24 83 25 84 10 85 11 86
REMARK SMILES IDX 12 87 17 88 13 89 16 90 14 91 15 92
REMARK H PARENT 83 22 51 33 18 77 15 93
REMARK Flexibility Score: inf
ROOT
ATOM      1  C   UNL A   1      50.141  26.790  34.765  1.00  0.00     0.275 C 
ENDROOT
BRANCH   1   2
ATOM      2  O   UNL A   1      49.452  26.303  35.952  1.00  0.00    -0.458 OA
BRANCH   2   3
ATOM      3  C   UNL A   1      48.528  26.988  36.684  1.00  0.00     0.338 C 
ATOM      4  O   UNL A   1      48.607  27.130  37.895  1.00  0.00    -0.246 OA
BRANCH   3   5
ATOM      5  C   UNL A   1      47.250  27.280  36.001  1.00  0.00     0.060 A 
ATOM      6  C   UNL A   1      47.117  28.704  34.904  1.00  0.00     0.016 A 
ATOM      7  C   UNL A   1      45.820  26.185  36.148  1.00  0.00     0.016 A 
ATOM      8  C   UNL A   1      45.714  28.947  33.849  1.00  0.00     0.010 A 
ATOM      9  C   UNL A   1      44.340  26.487  35.086  1.00  0.00     0.010 A 
ATOM     10  C   UNL A   1      44.278  27.901  33.969  1.00  0.00    -0.014 A 
BRANCH  10  11
ATOM     11  C   UNL A   1      43.083  28.352  33.177  1.00  0.00     0.031 A 
ATOM     12  C   UNL A   1      42.137  29.429  33.685  1.00  0.00     0.074 A 
ATOM     13  C   UNL A   1      42.902  27.968  31.901  1.00  0.00     0.049 A 
ATOM     14  N   UNL A   1      40.915  29.707  33.293  1.00  0.00    -0.248 NA
ATOM     15  C   UNL A   1      42.600  30.287  34.781  1.00  0.00     0.031 C 
ATOM     16  C   UNL A   1      43.831  27.163  31.124  1.00  0.00     0.029 A 
ATOM     17  N   UNL A   1      41.894  28.257  31.011  1.00  0.00    -0.354 N 
ATOM     18  C   UNL A   1      40.433  30.674  34.174  1.00  0.00     0.074 A 
ATOM     19  C   UNL A   1      41.507  30.967  35.091  1.00  0.00     0.031 C 
ATOM     20  C   UNL A   1      43.348  26.997  29.881  1.00  0.00     0.029 A 
ATOM     21  C   UNL A   1      42.063  27.677  29.775  1.00  0.00     0.049 A 
ATOM     22  H   UNL A   1      41.123  28.826  31.236  1.00  0.00     0.167 HD
ATOM     23  C   UNL A   1      39.204  31.247  34.233  1.00  0.00     0.034 A 
ATOM     24  C   UNL A   1      41.283  27.686  28.678  1.00  0.00     0.034 A 
ATOM     25  C   UNL A   1      38.187  31.059  33.232  1.00  0.00     0.049 A 
ATOM     26  C   UNL A   1      39.998  28.464  28.674  1.00  0.00     0.074 A 
ATOM     27  C   UNL A   1      36.843  31.397  33.253  1.00  0.00     0.029 A 
ATOM     28  N   UNL A   1      38.447  30.562  31.966  1.00  0.00    -0.354 N 
ATOM     29  N   UNL A   1      39.416  29.087  29.669  1.00  0.00    -0.248 NA
ATOM     30  C   UNL A   1      39.278  28.562  27.395  1.00  0.00     0.031 C 
ATOM     31  C   UNL A   1      36.303  31.143  31.982  1.00  0.00     0.029 A 
ATOM     32  C   UNL A   1      37.319  30.665  31.173  1.00  0.00     0.049 A 
ATOM     33  H   UNL A   1      39.310  30.190  31.673  1.00  0.00     0.167 HD
ATOM     34  C   UNL A   1      38.262  29.649  29.135  1.00  0.00     0.074 A 
ATOM     35  C   UNL A   1      38.238  29.315  27.728  1.00  0.00     0.031 C 
ATOM     36  C   UNL A   1      37.303  30.367  29.768  1.00  0.00     0.034 A 
BRANCH  23  37
ATOM     37  C   UNL A   1      38.885  32.041  35.472  1.00  0.00     0.023 A 
ATOM     38  C   UNL A   1      38.412  31.440  36.648  1.00  0.00     0.031 A 
ATOM     39  C   UNL A   1      38.947  33.446  35.425  1.00  0.00     0.131 A 
ATOM     40  C   UNL A   1      37.929  32.243  37.693  1.00  0.00     0.055 A 
ATOM     41  C   UNL A   1      38.546  34.238  36.502  1.00  0.00     0.041 A 
ATOM     42  F   UNL A   1      39.362  34.075  34.313  1.00  0.00    -0.206 F 
ATOM     43  C   UNL A   1      38.013  33.637  37.637  1.00  0.00     0.022 A 
BRANCH  40  44
ATOM     44  S   UNL A   1      37.009  31.446  39.039  1.00  0.00     0.124 S 
ATOM     45  O   UNL A   1      37.934  31.604  40.160  1.00  0.00    -0.237 OA
ATOM     46  O   UNL A   1      35.789  32.242  39.099  1.00  0.00    -0.237 OA
ATOM     47  O   UNL A   1      36.840  30.072  38.573  1.00  0.00    -0.744 OA
ENDBRANCH  40  44
ENDBRANCH  23  37
BRANCH  24  48
ATOM     48  C   UNL A   1      41.694  26.925  27.472  1.00  0.00     0.023 A 
ATOM     49  C   UNL A   1      41.574  25.529  27.430  1.00  0.00     0.031 A 
ATOM     50  C   UNL A   1      42.234  27.587  26.358  1.00  0.00     0.131 A 
ATOM     51  C   UNL A   1      42.025  24.829  26.304  1.00  0.00     0.055 A 
ATOM     52  C   UNL A   1      42.665  26.887  25.232  1.00  0.00     0.041 A 
ATOM     53  F   UNL A   1      42.341  28.925  26.351  1.00  0.00    -0.206 F 
ATOM     54  C   UNL A   1      42.569  25.498  25.204  1.00  0.00     0.022 A 
BRANCH  51  55
ATOM     55  S   UNL A   1      41.931  23.019  26.319  1.00  0.00     0.124 S 
ATOM     56  O   UNL A   1      40.490  22.793  26.334  1.00  0.00    -0.237 OA
ATOM     57  O   UNL A   1      42.622  22.675  25.081  1.00  0.00    -0.237 OA
ATOM     58  O   UNL A   1      42.634  22.653  27.547  1.00  0.00    -0.744 OA
ENDBRANCH  51  55
ENDBRANCH  24  48
BRANCH  36  59
ATOM     59  C   UNL A   1      36.175  30.892  28.933  1.00  0.00     0.023 A 
ATOM     60  C   UNL A   1      35.263  30.025  28.310  1.00  0.00     0.031 A 
ATOM     61  C   UNL A   1      36.025  32.275  28.747  1.00  0.00     0.131 A 
ATOM     62  C   UNL A   1      34.244  30.555  27.506  1.00  0.00     0.055 A 
ATOM     63  C   UNL A   1      35.001  32.797  27.957  1.00  0.00     0.041 A 
ATOM     64  F   UNL A   1      36.882  33.136  29.318  1.00  0.00    -0.206 F 
ATOM     65  C   UNL A   1      34.106  31.935  27.327  1.00  0.00     0.022 A 
BRANCH  62  66
ATOM     66  S   UNL A   1      33.117  29.411  26.662  1.00  0.00     0.124 S 
ATOM     67  O   UNL A   1      32.665  28.560  27.758  1.00  0.00    -0.237 OA
ATOM     68  O   UNL A   1      32.118  30.317  26.103  1.00  0.00    -0.237 OA
ATOM     69  O   UNL A   1      33.972  28.750  25.677  1.00  0.00    -0.744 OA
ENDBRANCH  62  66
ENDBRANCH  36  59
ENDBRANCH  10  11
ENDBRANCH   3   5
ENDBRANCH   2   3
ENDBRANCH   1   2
BRANCH   1  70
ATOM     70  C   UNL A   1      49.912  25.966  33.465  1.00  0.00     0.274 C 
BRANCH  70  71
ATOM     71  O   UNL A   1      48.606  26.174  32.884  1.00  0.00    -0.461 OA
BRANCH  71  72
ATOM     72  C   UNL A   1      48.577  25.774  31.585  1.00  0.00     0.329 C 
ATOM     73  O   UNL A   1      49.515  25.110  31.129  1.00  0.00    -0.250 OA
BRANCH  72  74
ATOM     74  C   UNL A   1      47.082  26.074  30.660  1.00  0.00     0.197 C 
BRANCH  74  75
ATOM     75  N   UNL A   1      47.905  27.568  30.282  1.00  0.00    -0.338 N 
ATOM     76  C   UNL A   1      47.889  28.813  29.743  1.00  0.00     0.262 C 
ATOM     77  H   UNL A   1      48.820  27.450  30.626  1.00  0.00     0.164 HD
ATOM     78  O   UNL A   1      48.970  29.411  29.792  1.00  0.00    -0.268 OA
BRANCH  76  79
ATOM     79  C   UNL A   1      46.740  29.440  29.156  1.00  0.00     0.093 A 
ATOM     80  C   UNL A   1      46.191  29.205  27.910  1.00  0.00     0.027 A 
ATOM     81  S   UNL A   1      45.633  30.264  30.179  1.00  0.00    -0.118 S 
ATOM     82  C   UNL A   1      44.902  29.804  27.765  1.00  0.00     0.033 A 
ATOM     83  C   UNL A   1      44.503  30.401  28.931  1.00  0.00     0.094 A 
ATOM     84  Cl  UNL A   1      43.000  31.177  29.226  1.00  0.00    -0.072 Cl
ENDBRANCH  76  79
ENDBRANCH  74  75
BRANCH  74  85
ATOM     85  C   UNL A   1      45.976  24.818  29.227  1.00  0.00     0.072 C 
BRANCH  85  86
ATOM     86  C   UNL A   1      46.080  24.403  27.542  1.00  0.00    -0.045 A 
ATOM     87  C   UNL A   1      46.237  25.405  26.566  1.00  0.00     0.007 A 
ATOM     88  C   UNL A   1      45.891  23.074  27.104  1.00  0.00     0.007 A 
ATOM     89  C   UNL A   1      46.267  25.094  25.206  1.00  0.00     0.046 A 
ATOM     90  C   UNL A   1      45.959  22.762  25.742  1.00  0.00     0.046 A 
ATOM     91  C   UNL A   1      46.145  23.771  24.805  1.00  0.00     0.115 A 
BRANCH  91  92
ATOM     92  O   UNL A   1      46.193  23.429  23.486  1.00  0.00    -0.508 OA
ATOM     93  H   UNL A   1      46.923  23.691  22.960  1.00  0.00     0.293 HD
ENDBRANCH  91  92
ENDBRANCH  85  86
ENDBRANCH  74  85
ENDBRANCH  72  74
ENDBRANCH  71  72
ENDBRANCH  70  71
ENDBRANCH   1  70
TORSDOF 19
ENDMDL
MODEL 2
REMARK VINA RESULT:     -10.3      5.835     11.882
REMARK SMILES O=C(OCCOC(=O)[C@H](Cc1ccc(O)cc1)NC(=O)c1ccc(Cl)s1)c1ccc(-c2c3nc(c(-c4cc(S(=O)(=O)[O-])ccc4F)c4ccc([nH]4)c(-c4cc(S(=O)(=O)[O-])ccc4F)c4nc(c(-c5cc(S(=O)(=O)[O-])ccc5F)c5ccc2[nH]5)C=C4)C=C3)cc1
REMARK SMILES IDX 4 1 3 2 2 3 1 4 27 5 28 6 89 7 29 8 88 9 30 10 31 11 32 12
REMARK SMILES IDX 82 13 33 14 87 15 81 16 83 17 34 18 86 19 80 20 79 21 35 23
REMARK SMILES IDX 67 24 47 25 66 26 48 27 51 28 65 29 84 30 49 31 50 32 64 34
REMARK SMILES IDX 85 35 52 36 36 37 37 38 45 39 38 40 44 41 46 42 43 43 39 44
REMARK SMILES IDX 40 45 41 46 42 47 68 48 69 49 77 50 70 51 76 52 78 53 75 54
REMARK SMILES IDX 71 55 72 56 73 57 74 58 53 59 54 60 62 61 55 62 61 63 63 64
REMARK SMILES IDX 60 65 56 66 57 67 58 68 59 69 5 70 6 71 7 72 8 73 9 74 18 75
REMARK SMILES IDX 19 76 20 78 21 79 22 80 26 81 23 82 24 83 25 84 10 85 11 86
REMARK SMILES IDX 12 87 17 88 13 89 16 90 14 91 15 92
REMARK H PARENT 83 22 51 33 18 77 15 93
REMARK Flexibility Score: inf
ROOT
ATOM      1  C   UNL A   1      39.872  21.448  26.548  1.00  0.00     0.275 C 
ENDROOT
BRANCH   1   2
ATOM      2  O   UNL A   1      41.078  20.720  26.176  1.00  0.00    -0.458 OA
BRANCH   2   3
ATOM      3  C   UNL A   1      42.337  21.239  26.092  1.00  0.00     0.338 C 
ATOM      4  O   UNL A   1      43.318  20.569  25.807  1.00  0.00    -0.246 OA
BRANCH   3   5
ATOM      5  C   UNL A   1      42.522  22.583  26.678  1.00  0.00     0.060 A 
ATOM      6  C   UNL A   1      42.335  24.051  25.649  1.00  0.00     0.016 A 
ATOM      7  C   UNL A   1      42.834  22.818  28.443  1.00  0.00     0.016 A 
ATOM      8  C   UNL A   1      42.268  25.680  26.341  1.00  0.00     0.010 A 
ATOM      9  C   UNL A   1      42.822  24.527  29.141  1.00  0.00     0.010 A 
ATOM     10  C   UNL A   1      42.583  25.960  28.072  1.00  0.00    -0.014 A 
BRANCH  10  11
ATOM     11  C   UNL A   1      42.712  27.400  28.480  1.00  0.00     0.031 A 
ATOM     12  C   UNL A   1      44.001  28.183  28.282  1.00  0.00     0.074 A 
ATOM     13  C   UNL A   1      41.641  28.121  28.859  1.00  0.00     0.049 A 
ATOM     14  N   UNL A   1      44.382  29.304  28.849  1.00  0.00    -0.248 NA
ATOM     15  C   UNL A   1      44.999  27.638  27.355  1.00  0.00     0.031 C 
ATOM     16  C   UNL A   1      40.265  27.650  28.853  1.00  0.00     0.029 A 
ATOM     17  N   UNL A   1      41.539  29.430  29.267  1.00  0.00    -0.354 N 
ATOM     18  C   UNL A   1      45.698  29.519  28.444  1.00  0.00     0.074 A 
ATOM     19  C   UNL A   1      46.035  28.439  27.550  1.00  0.00     0.031 C 
ATOM     20  C   UNL A   1      39.453  28.640  29.262  1.00  0.00     0.029 A 
ATOM     21  C   UNL A   1      40.255  29.817  29.571  1.00  0.00     0.049 A 
ATOM     22  H   UNL A   1      42.313  30.035  29.336  1.00  0.00     0.167 HD
ATOM     23  C   UNL A   1      46.557  30.507  28.802  1.00  0.00     0.034 A 
ATOM     24  C   UNL A   1      39.767  30.981  30.040  1.00  0.00     0.034 A 
ATOM     25  C   UNL A   1      46.173  31.657  29.578  1.00  0.00     0.049 A 
ATOM     26  C   UNL A   1      40.690  32.143  30.276  1.00  0.00     0.074 A 
ATOM     27  C   UNL A   1      46.958  32.623  30.188  1.00  0.00     0.029 A 
ATOM     28  N   UNL A   1      44.857  32.049  29.757  1.00  0.00    -0.354 N 
ATOM     29  N   UNL A   1      41.998  32.178  30.201  1.00  0.00    -0.248 NA
ATOM     30  C   UNL A   1      40.070  33.428  30.635  1.00  0.00     0.031 C 
ATOM     31  C   UNL A   1      46.112  33.621  30.700  1.00  0.00     0.029 A 
ATOM     32  C   UNL A   1      44.809  33.278  30.388  1.00  0.00     0.049 A 
ATOM     33  H   UNL A   1      44.070  31.528  29.477  1.00  0.00     0.167 HD
ATOM     34  C   UNL A   1      42.355  33.486  30.504  1.00  0.00     0.074 A 
ATOM     35  C   UNL A   1      41.131  34.218  30.740  1.00  0.00     0.031 C 
ATOM     36  C   UNL A   1      43.597  34.023  30.591  1.00  0.00     0.034 A 
BRANCH  23  37
ATOM     37  C   UNL A   1      48.004  30.314  28.433  1.00  0.00     0.023 A 
ATOM     38  C   UNL A   1      48.884  29.552  29.216  1.00  0.00     0.031 A 
ATOM     39  C   UNL A   1      48.533  31.010  27.330  1.00  0.00     0.131 A 
ATOM     40  C   UNL A   1      50.261  29.582  28.945  1.00  0.00     0.055 A 
ATOM     41  C   UNL A   1      49.892  30.967  27.013  1.00  0.00     0.041 A 
ATOM     42  F   UNL A   1      47.742  31.779  26.565  1.00  0.00    -0.206 F 
ATOM     43  C   UNL A   1      50.768  30.267  27.836  1.00  0.00     0.022 A 
BRANCH  40  44
ATOM     44  S   UNL A   1      51.399  28.881  30.172  1.00  0.00     0.124 S 
ATOM     45  O   UNL A   1      50.505  28.013  30.937  1.00  0.00    -0.237 OA
ATOM     46  O   UNL A   1      52.385  28.207  29.337  1.00  0.00    -0.237 OA
ATOM     47  O   UNL A   1      51.886  30.052  30.897  1.00  0.00    -0.744 OA
ENDBRANCH  40  44
ENDBRANCH  23  37
BRANCH  24  48
ATOM     48  C   UNL A   1      38.317  31.114  30.326  1.00  0.00     0.023 A 
ATOM     49  C   UNL A   1      37.434  31.582  29.344  1.00  0.00     0.031 A 
ATOM     50  C   UNL A   1      37.806  30.798  31.594  1.00  0.00     0.131 A 
ATOM     51  C   UNL A   1      36.080  31.756  29.657  1.00  0.00     0.055 A 
ATOM     52  C   UNL A   1      36.454  30.955  31.896  1.00  0.00     0.041 A 
ATOM     53  F   UNL A   1      38.617  30.323  32.553  1.00  0.00    -0.206 F 
ATOM     54  C   UNL A   1      35.583  31.445  30.927  1.00  0.00     0.022 A 
BRANCH  51  55
ATOM     55  S   UNL A   1      34.982  32.441  28.387  1.00  0.00     0.124 S 
ATOM     56  O   UNL A   1      35.914  33.203  27.563  1.00  0.00    -0.237 OA
ATOM     57  O   UNL A   1      34.433  31.231  27.784  1.00  0.00    -0.237 OA
ATOM     58  O   UNL A   1      34.030  33.240  29.157  1.00  0.00    -0.744 OA
ENDBRANCH  51  55
ENDBRANCH  24  48
BRANCH  36  59
ATOM     59  C   UNL A   1      43.692  35.485  30.898  1.00  0.00     0.023 A 
ATOM     60  C   UNL A   1      43.740  36.445  29.875  1.00  0.00     0.031 A 
ATOM     61  C   UNL A   1      43.752  35.919  32.232  1.00  0.00     0.131 A 
ATOM     62  C   UNL A   1      43.868  37.801  30.204  1.00  0.00     0.055 A 
ATOM     63  C   UNL A   1      43.865  37.272  32.554  1.00  0.00     0.041 A 
ATOM     64  F   UNL A   1      43.718  35.033  33.240  1.00  0.00    -0.206 F 
ATOM     65  C   UNL A   1      43.929  38.221  31.536  1.00  0.00     0.022 A 
BRANCH  62  66
ATOM     66  S   UNL A   1      43.992  39.016  28.861  1.00  0.00     0.124 S 
ATOM     67  O   UNL A   1      44.576  38.223  27.784  1.00  0.00    -0.237 OA
ATOM     68  O   UNL A   1      42.600  39.416  28.677  1.00  0.00    -0.237 OA
ATOM     69  O   UNL A   1      44.866  40.050  29.413  1.00  0.00    -0.744 OA
ENDBRANCH  62  66
ENDBRANCH  36  59
ENDBRANCH  10  11
ENDBRANCH   3   5
ENDBRANCH   2   3
ENDBRANCH   1   2
BRANCH   1  70
ATOM     70  C   UNL A   1      38.715  21.413  25.509  1.00  0.00     0.274 C 
BRANCH  70  71
ATOM     71  O   UNL A   1      37.738  22.458  25.713  1.00  0.00    -0.461 OA
BRANCH  71  72
ATOM     72  C   UNL A   1      36.745  22.388  24.787  1.00  0.00     0.329 C 
ATOM     73  O   UNL A   1      37.014  22.530  23.589  1.00  0.00    -0.250 OA
BRANCH  72  74
ATOM     74  C   UNL A   1      35.123  21.901  25.349  1.00  0.00     0.197 C 
BRANCH  74  75
ATOM     75  N   UNL A   1      34.816  23.612  25.175  1.00  0.00    -0.338 N 
ATOM     76  C   UNL A   1      33.979  24.673  25.299  1.00  0.00     0.262 C 
ATOM     77  H   UNL A   1      35.652  23.986  24.814  1.00  0.00     0.164 HD
ATOM     78  O   UNL A   1      34.450  25.749  24.913  1.00  0.00    -0.268 OA
BRANCH  76  79
ATOM     79  C   UNL A   1      32.650  24.613  25.833  1.00  0.00     0.093 A 
ATOM     80  C   UNL A   1      31.568  25.407  25.504  1.00  0.00     0.027 A 
ATOM     81  S   UNL A   1      32.150  23.189  26.655  1.00  0.00    -0.118 S 
ATOM     82  C   UNL A   1      30.341  24.894  26.028  1.00  0.00     0.033 A 
ATOM     83  C   UNL A   1      30.540  23.699  26.666  1.00  0.00     0.094 A 
ATOM     84  Cl  UNL A   1      29.338  22.703  27.380  1.00  0.00    -0.072 Cl
ENDBRANCH  76  79
ENDBRANCH  74  75
BRANCH  74  85
ATOM     85  C   UNL A   1      33.779  20.281  24.699  1.00  0.00     0.072 C 
BRANCH  85  86
ATOM     86  C   UNL A   1      33.698  18.550  24.841  1.00  0.00    -0.045 A 
ATOM     87  C   UNL A   1      32.628  17.936  25.519  1.00  0.00     0.007 A 
ATOM     88  C   UNL A   1      34.755  17.730  24.390  1.00  0.00     0.007 A 
ATOM     89  C   UNL A   1      32.577  16.552  25.690  1.00  0.00     0.046 A 
ATOM     90  C   UNL A   1      34.682  16.340  24.531  1.00  0.00     0.046 A 
ATOM     91  C   UNL A   1      33.597  15.763  25.179  1.00  0.00     0.115 A 
BRANCH  91  92
ATOM     92  O   UNL A   1      33.567  14.405  25.307  1.00  0.00    -0.508 OA
ATOM     93  H   UNL A   1      32.808  13.984  25.660  1.00  0.00     0.293 HD
ENDBRANCH  91  92
ENDBRANCH  85  86
ENDBRANCH  74  85
ENDBRANCH  72  74
ENDBRANCH  71  72
ENDBRANCH  70  71
ENDBRANCH   1  70
TORSDOF 19
ENDMDL
MODEL 3
REMARK VINA RESULT:     -10.3      5.734     12.034
REMARK SMILES O=C(OCCOC(=O)[C@H](Cc1ccc(O)cc1)NC(=O)c1ccc(Cl)s1)c1ccc(-c2c3nc(c(-c4cc(S(=O)(=O)[O-])ccc4F)c4ccc([nH]4)c(-c4cc(S(=O)(=O)[O-])ccc4F)c4nc(c(-c5cc(S(=O)(=O)[O-])ccc5F)c5ccc2[nH]5)C=C4)C=C3)cc1
REMARK SMILES IDX 4 1 3 2 2 3 1 4 27 5 28 6 89 7 29 8 88 9 30 10 31 11 32 12
REMARK SMILES IDX 82 13 33 14 87 15 81 16 83 17 34 18 86 19 80 20 79 21 35 23
REMARK SMILES IDX 67 24 47 25 66 26 48 27 51 28 65 29 84 30 49 31 50 32 64 34
REMARK SMILES IDX 85 35 52 36 36 37 37 38 45 39 38 40 44 41 46 42 43 43 39 44
REMARK SMILES IDX 40 45 41 46 42 47 68 48 69 49 77 50 70 51 76 52 78 53 75 54
REMARK SMILES IDX 71 55 72 56 73 57 74 58 53 59 54 60 62 61 55 62 61 63 63 64
REMARK SMILES IDX 60 65 56 66 57 67 58 68 59 69 5 70 6 71 7 72 8 73 9 74 18 75
REMARK SMILES IDX 19 76 20 78 21 79 22 80 26 81 23 82 24 83 25 84 10 85 11 86
REMARK SMILES IDX 12 87 17 88 13 89 16 90 14 91 15 92
REMARK H PARENT 83 22 51 33 18 77 15 93
REMARK Flexibility Score: inf
ROOT
ATOM      1  C   UNL A   1      39.220  22.285  26.383  1.00  0.00     0.275 C 
ENDROOT
BRANCH   1   2
ATOM      2  O   UNL A   1      40.524  21.699  26.101  1.00  0.00    -0.458 OA
BRANCH   2   3
ATOM      3  C   UNL A   1      41.684  22.384  25.887  1.00  0.00     0.338 C 
ATOM      4  O   UNL A   1      42.718  21.847  25.519  1.00  0.00    -0.246 OA
BRANCH   3   5
ATOM      5  C   UNL A   1      41.733  23.757  26.431  1.00  0.00     0.060 A 
ATOM      6  C   UNL A   1      42.096  24.026  28.177  1.00  0.00     0.016 A 
ATOM      7  C   UNL A   1      41.540  25.209  25.371  1.00  0.00     0.016 A 
ATOM      8  C   UNL A   1      42.442  25.637  28.826  1.00  0.00     0.010 A 
ATOM      9  C   UNL A   1      41.844  26.888  26.078  1.00  0.00     0.010 A 
ATOM     10  C   UNL A   1      42.251  27.096  27.822  1.00  0.00    -0.014 A 
BRANCH  10  11
ATOM     11  C   UNL A   1      42.363  28.403  28.555  1.00  0.00     0.031 A 
ATOM     12  C   UNL A   1      43.677  29.161  28.658  1.00  0.00     0.074 A 
ATOM     13  C   UNL A   1      41.272  29.060  28.987  1.00  0.00     0.049 A 
ATOM     14  N   UNL A   1      44.019  30.112  29.495  1.00  0.00    -0.248 NA
ATOM     15  C   UNL A   1      44.752  28.800  27.727  1.00  0.00     0.031 C 
ATOM     16  C   UNL A   1      39.896  28.656  28.750  1.00  0.00     0.029 A 
ATOM     17  N   UNL A   1      41.152  30.249  29.670  1.00  0.00    -0.354 N 
ATOM     18  C   UNL A   1      45.372  30.362  29.272  1.00  0.00     0.074 A 
ATOM     19  C   UNL A   1      45.777  29.496  28.191  1.00  0.00     0.031 C 
ATOM     20  C   UNL A   1      39.064  29.559  29.295  1.00  0.00     0.029 A 
ATOM     21  C   UNL A   1      39.851  30.606  29.934  1.00  0.00     0.049 A 
ATOM     22  H   UNL A   1      41.926  30.793  29.944  1.00  0.00     0.167 HD
ATOM     23  C   UNL A   1      46.208  31.212  29.921  1.00  0.00     0.034 A 
ATOM     24  C   UNL A   1      39.339  31.654  30.608  1.00  0.00     0.034 A 
ATOM     25  C   UNL A   1      45.769  32.173  30.897  1.00  0.00     0.049 A 
ATOM     26  C   UNL A   1      40.253  32.697  31.183  1.00  0.00     0.074 A 
ATOM     27  C   UNL A   1      46.507  32.948  31.779  1.00  0.00     0.029 A 
ATOM     28  N   UNL A   1      44.449  32.565  31.040  1.00  0.00    -0.354 N 
ATOM     29  N   UNL A   1      41.562  32.699  31.238  1.00  0.00    -0.248 NA
ATOM     30  C   UNL A   1      39.622  33.893  31.765  1.00  0.00     0.031 C 
ATOM     31  C   UNL A   1      45.631  33.838  32.424  1.00  0.00     0.029 A 
ATOM     32  C   UNL A   1      44.359  33.623  31.925  1.00  0.00     0.049 A 
ATOM     33  H   UNL A   1      43.685  32.149  30.578  1.00  0.00     0.167 HD
ATOM     34  C   UNL A   1      41.910  33.892  31.860  1.00  0.00     0.074 A 
ATOM     35  C   UNL A   1      40.680  34.599  32.143  1.00  0.00     0.031 C 
ATOM     36  C   UNL A   1      43.145  34.348  32.179  1.00  0.00     0.034 A 
BRANCH  23  37
ATOM     37  C   UNL A   1      47.681  31.051  29.650  1.00  0.00     0.023 A 
ATOM     38  C   UNL A   1      48.345  31.779  28.651  1.00  0.00     0.031 A 
ATOM     39  C   UNL A   1      48.404  30.058  30.337  1.00  0.00     0.131 A 
ATOM     40  C   UNL A   1      49.660  31.437  28.299  1.00  0.00     0.055 A 
ATOM     41  C   UNL A   1      49.740  29.781  30.041  1.00  0.00     0.041 A 
ATOM     42  F   UNL A   1      47.810  29.311  31.281  1.00  0.00    -0.206 F 
ATOM     43  C   UNL A   1      50.369  30.458  29.002  1.00  0.00     0.022 A 
BRANCH  40  44
ATOM     44  S   UNL A   1      50.361  32.148  26.784  1.00  0.00     0.124 S 
ATOM     45  O   UNL A   1      50.866  30.955  26.107  1.00  0.00    -0.237 OA
ATOM     46  O   UNL A   1      49.203  32.789  26.173  1.00  0.00    -0.237 OA
ATOM     47  O   UNL A   1      51.392  33.057  27.277  1.00  0.00    -0.744 OA
ENDBRANCH  40  44
ENDBRANCH  23  37
BRANCH  24  48
ATOM     48  C   UNL A   1      37.870  31.774  30.783  1.00  0.00     0.023 A 
ATOM     49  C   UNL A   1      37.053  32.178  29.718  1.00  0.00     0.031 A 
ATOM     50  C   UNL A   1      37.274  31.511  32.026  1.00  0.00     0.131 A 
ATOM     51  C   UNL A   1      35.677  32.342  29.925  1.00  0.00     0.055 A 
ATOM     52  C   UNL A   1      35.901  31.658  32.223  1.00  0.00     0.041 A 
ATOM     53  F   UNL A   1      38.020  31.098  33.062  1.00  0.00    -0.206 F 
ATOM     54  C   UNL A   1      35.095  32.085  31.170  1.00  0.00     0.022 A 
BRANCH  51  55
ATOM     55  S   UNL A   1      34.664  32.945  28.548  1.00  0.00     0.124 S 
ATOM     56  O   UNL A   1      33.965  31.733  28.137  1.00  0.00    -0.237 OA
ATOM     57  O   UNL A   1      33.851  33.966  29.202  1.00  0.00    -0.237 OA
ATOM     58  O   UNL A   1      35.651  33.451  27.597  1.00  0.00    -0.744 OA
ENDBRANCH  51  55
ENDBRANCH  24  48
BRANCH  36  59
ATOM     59  C   UNL A   1      43.234  35.701  32.816  1.00  0.00     0.023 A 
ATOM     60  C   UNL A   1      43.633  36.829  32.083  1.00  0.00     0.031 A 
ATOM     61  C   UNL A   1      42.931  35.856  34.178  1.00  0.00     0.131 A 
ATOM     62  C   UNL A   1      43.740  38.070  32.725  1.00  0.00     0.055 A 
ATOM     63  C   UNL A   1      43.025  37.096  34.810  1.00  0.00     0.041 A 
ATOM     64  F   UNL A   1      42.554  34.800  34.917  1.00  0.00    -0.206 F 
ATOM     65  C   UNL A   1      43.437  38.211  34.083  1.00  0.00     0.022 A 
BRANCH  62  66
ATOM     66  S   UNL A   1      44.319  39.499  31.769  1.00  0.00     0.124 S 
ATOM     67  O   UNL A   1      44.672  40.449  32.820  1.00  0.00    -0.237 OA
ATOM     68  O   UNL A   1      45.436  38.936  31.017  1.00  0.00    -0.237 OA
ATOM     69  O   UNL A   1      43.156  39.869  30.965  1.00  0.00    -0.744 OA
ENDBRANCH  62  66
ENDBRANCH  36  59
ENDBRANCH  10  11
ENDBRANCH   3   5
ENDBRANCH   2   3
ENDBRANCH   1   2
BRANCH   1  70
ATOM     70  C   UNL A   1      38.048  21.785  25.491  1.00  0.00     0.274 C 
BRANCH  70  71
ATOM     71  O   UNL A   1      36.946  22.716  25.427  1.00  0.00    -0.461 OA
BRANCH  71  72
ATOM     72  C   UNL A   1      36.176  22.491  24.330  1.00  0.00     0.329 C 
ATOM     73  O   UNL A   1      36.709  22.399  23.218  1.00  0.00    -0.250 OA
BRANCH  72  74
ATOM     74  C   UNL A   1      34.444  22.150  24.590  1.00  0.00     0.197 C 
BRANCH  74  75
ATOM     75  N   UNL A   1      34.267  23.642  23.699  1.00  0.00    -0.338 N 
ATOM     76  C   UNL A   1      33.710  24.874  23.571  1.00  0.00     0.262 C 
ATOM     77  H   UNL A   1      34.852  23.543  22.914  1.00  0.00     0.164 HD
ATOM     78  O   UNL A   1      34.038  25.484  22.547  1.00  0.00    -0.268 OA
BRANCH  76  79
ATOM     79  C   UNL A   1      32.814  25.473  24.517  1.00  0.00     0.093 A 
ATOM     80  C   UNL A   1      31.743  24.883  25.159  1.00  0.00     0.027 A 
ATOM     81  S   UNL A   1      33.288  26.926  25.301  1.00  0.00    -0.118 S 
ATOM     82  C   UNL A   1      31.244  25.687  26.230  1.00  0.00     0.033 A 
ATOM     83  C   UNL A   1      32.005  26.814  26.395  1.00  0.00     0.094 A 
ATOM     84  Cl  UNL A   1      31.809  28.019  27.602  1.00  0.00    -0.072 Cl
ENDBRANCH  76  79
ENDBRANCH  74  75
BRANCH  74  85
ATOM     85  C   UNL A   1      33.255  20.321  24.283  1.00  0.00     0.072 C 
BRANCH  85  86
ATOM     86  C   UNL A   1      33.407  18.623  24.626  1.00  0.00    -0.045 A 
ATOM     87  C   UNL A   1      34.282  17.816  23.874  1.00  0.00     0.007 A 
ATOM     88  C   UNL A   1      32.577  17.993  25.578  1.00  0.00     0.007 A 
ATOM     89  C   UNL A   1      34.375  16.442  24.099  1.00  0.00     0.046 A 
ATOM     90  C   UNL A   1      32.700  16.621  25.827  1.00  0.00     0.046 A 
ATOM     91  C   UNL A   1      33.595  15.858  25.087  1.00  0.00     0.115 A 
BRANCH  91  92
ATOM     92  O   UNL A   1      33.677  14.522  25.350  1.00  0.00    -0.508 OA
ATOM     93  H   UNL A   1      33.245  13.906  24.792  1.00  0.00     0.293 HD
ENDBRANCH  91  92
ENDBRANCH  85  86
ENDBRANCH  74  85
ENDBRANCH  72  74
ENDBRANCH  71  72
ENDBRANCH  70  71
ENDBRANCH   1  70
TORSDOF 19
ENDMDL
