MODEL 1
REMARK VINA RESULT:     -12.1      0.000      0.000
REMARK SMILES O=C(OCCOC(=O)c1cccc(Br)c1O[C@@H]1CCOC2(CCC2)C1)c1ccc(-c2c3nc(c(-c4cc(S(=O)(=O)[O-])ccc4F)c4ccc([nH]4)c(-c4cc(S(=O)(=O)[O-])ccc4F)c4nc(c(-c5cc(S(=O)(=O)[O-])ccc5F)c5ccc2[nH]5)C=C4)C=C3)cc1
REMARK SMILES IDX 4 1 3 2 2 3 1 4 26 5 27 6 88 7 28 8 87 9 29 10 30 11 31 12
REMARK SMILES IDX 81 13 32 14 86 15 80 16 82 17 33 18 85 19 79 20 78 21 34 23
REMARK SMILES IDX 66 24 46 25 65 26 47 27 50 28 64 29 83 30 48 31 49 32 63 34
REMARK SMILES IDX 84 35 51 36 35 37 36 38 44 39 37 40 43 41 45 42 42 43 38 44
REMARK SMILES IDX 39 45 40 46 41 47 67 48 68 49 76 50 69 51 75 52 77 53 74 54
REMARK SMILES IDX 70 55 71 56 72 57 73 58 52 59 53 60 61 61 54 62 60 63 62 64
REMARK SMILES IDX 59 65 55 66 56 67 57 68 58 69 5 70 6 71 7 72 8 73 9 74 10 75
REMARK SMILES IDX 15 76 11 77 13 78 12 79 14 80 16 81 17 82 18 83 25 84 19 85
REMARK SMILES IDX 21 86 20 87 22 88 24 89 23 90
REMARK H PARENT 82 22 50 33
REMARK Flexibility Score: inf
ROOT
ATOM      1  C   UNL A   1      31.482  31.532  26.658  1.00  0.00     0.275 C 
ENDROOT
BRANCH   1   2
ATOM      2  O   UNL A   1      32.383  32.645  26.622  1.00  0.00    -0.458 OA
BRANCH   2   3
ATOM      3  C   UNL A   1      32.893  33.387  27.626  1.00  0.00     0.338 C 
ATOM      4  O   UNL A   1      32.222  34.345  28.011  1.00  0.00    -0.246 OA
BRANCH   3   5
ATOM      5  C   UNL A   1      34.225  33.152  28.293  1.00  0.00     0.060 A 
ATOM      6  C   UNL A   1      35.370  33.958  28.291  1.00  0.00     0.016 A 
ATOM      7  C   UNL A   1      34.311  31.955  29.007  1.00  0.00     0.016 A 
ATOM      8  C   UNL A   1      36.536  33.601  29.008  1.00  0.00     0.010 A 
ATOM      9  C   UNL A   1      35.434  31.637  29.774  1.00  0.00     0.010 A 
ATOM     10  C   UNL A   1      36.579  32.436  29.772  1.00  0.00    -0.014 A 
BRANCH  10  11
ATOM     11  C   UNL A   1      37.789  31.928  30.488  1.00  0.00     0.031 A 
ATOM     12  C   UNL A   1      38.611  30.850  29.822  1.00  0.00     0.074 A 
ATOM     13  C   UNL A   1      38.080  32.276  31.756  1.00  0.00     0.049 A 
ATOM     14  N   UNL A   1      39.489  30.026  30.332  1.00  0.00    -0.248 NA
ATOM     15  C   UNL A   1      38.332  30.626  28.396  1.00  0.00     0.031 C 
ATOM     16  C   UNL A   1      37.380  33.286  32.542  1.00  0.00     0.029 A 
ATOM     17  N   UNL A   1      39.012  31.769  32.632  1.00  0.00    -0.354 N 
ATOM     18  C   UNL A   1      39.820  29.154  29.299  1.00  0.00     0.074 A 
ATOM     19  C   UNL A   1      38.942  29.472  28.194  1.00  0.00     0.031 C 
ATOM     20  C   UNL A   1      37.852  33.278  33.799  1.00  0.00     0.029 A 
ATOM     21  C   UNL A   1      38.885  32.256  33.913  1.00  0.00     0.049 A 
ATOM     22  H   UNL A   1      39.705  31.121  32.367  1.00  0.00     0.167 HD
ATOM     23  C   UNL A   1      40.807  28.223  29.243  1.00  0.00     0.034 A 
ATOM     24  C   UNL A   1      39.509  31.906  35.057  1.00  0.00     0.034 A 
ATOM     25  C   UNL A   1      41.720  27.977  30.328  1.00  0.00     0.049 A 
ATOM     26  C   UNL A   1      40.608  30.879  35.004  1.00  0.00     0.074 A 
ATOM     27  C   UNL A   1      42.832  27.155  30.359  1.00  0.00     0.029 A 
ATOM     28  N   UNL A   1      41.625  28.566  31.583  1.00  0.00    -0.354 N 
ATOM     29  N   UNL A   1      40.978  30.123  33.997  1.00  0.00    -0.248 NA
ATOM     30  C   UNL A   1      41.409  30.694  36.222  1.00  0.00     0.031 C 
ATOM     31  C   UNL A   1      43.389  27.221  31.643  1.00  0.00     0.029 A 
ATOM     32  C   UNL A   1      42.655  28.125  32.396  1.00  0.00     0.049 A 
ATOM     33  H   UNL A   1      40.927  29.205  31.855  1.00  0.00     0.167 HD
ATOM     34  C   UNL A   1      42.098  29.425  34.439  1.00  0.00     0.074 A 
ATOM     35  C   UNL A   1      42.322  29.824  35.813  1.00  0.00     0.031 C 
ATOM     36  C   UNL A   1      42.884  28.557  33.754  1.00  0.00     0.034 A 
BRANCH  23  37
ATOM     37  C   UNL A   1      40.932  27.442  27.954  1.00  0.00     0.023 A 
ATOM     38  C   UNL A   1      40.529  26.096  27.880  1.00  0.00     0.031 A 
ATOM     39  C   UNL A   1      41.574  27.993  26.832  1.00  0.00     0.131 A 
ATOM     40  C   UNL A   1      40.935  25.301  26.800  1.00  0.00     0.055 A 
ATOM     41  C   UNL A   1      41.858  27.225  25.699  1.00  0.00     0.041 A 
ATOM     42  F   UNL A   1      41.981  29.271  26.834  1.00  0.00    -0.206 F 
ATOM     43  C   UNL A   1      41.574  25.861  25.693  1.00  0.00     0.022 A 
BRANCH  40  44
ATOM     44  S   UNL A   1      40.848  23.498  26.994  1.00  0.00     0.124 S 
ATOM     45  O   UNL A   1      41.304  23.330  28.373  1.00  0.00    -0.237 OA
ATOM     46  O   UNL A   1      39.438  23.222  26.753  1.00  0.00    -0.237 OA
ATOM     47  O   UNL A   1      41.769  22.998  25.975  1.00  0.00    -0.744 OA
ENDBRANCH  40  44
ENDBRANCH  23  37
BRANCH  24  48
ATOM     48  C   UNL A   1      39.117  32.544  36.345  1.00  0.00     0.023 A 
ATOM     49  C   UNL A   1      38.150  31.967  37.179  1.00  0.00     0.031 A 
ATOM     50  C   UNL A   1      39.714  33.749  36.757  1.00  0.00     0.131 A 
ATOM     51  C   UNL A   1      37.781  32.611  38.372  1.00  0.00     0.055 A 
ATOM     52  C   UNL A   1      39.362  34.374  37.955  1.00  0.00     0.041 A 
ATOM     53  F   UNL A   1      40.668  34.325  36.007  1.00  0.00    -0.206 F 
ATOM     54  C   UNL A   1      38.382  33.809  38.766  1.00  0.00     0.022 A 
BRANCH  51  55
ATOM     55  S   UNL A   1      36.477  31.871  39.392  1.00  0.00     0.124 S 
ATOM     56  O   UNL A   1      36.434  30.506  38.879  1.00  0.00    -0.237 OA
ATOM     57  O   UNL A   1      37.018  32.036  40.737  1.00  0.00    -0.237 OA
ATOM     58  O   UNL A   1      35.303  32.690  39.091  1.00  0.00    -0.744 OA
ENDBRANCH  51  55
ENDBRANCH  24  48
BRANCH  36  59
ATOM     59  C   UNL A   1      44.133  28.065  34.436  1.00  0.00     0.023 A 
ATOM     60  C   UNL A   1      44.169  26.863  35.158  1.00  0.00     0.031 A 
ATOM     61  C   UNL A   1      45.322  28.807  34.311  1.00  0.00     0.131 A 
ATOM     62  C   UNL A   1      45.371  26.446  35.751  1.00  0.00     0.055 A 
ATOM     63  C   UNL A   1      46.524  28.365  34.865  1.00  0.00     0.041 A 
ATOM     64  F   UNL A   1      45.336  29.964  33.631  1.00  0.00    -0.206 F 
ATOM     65  C   UNL A   1      46.551  27.180  35.593  1.00  0.00     0.022 A 
BRANCH  62  66
ATOM     66  S   UNL A   1      45.373  24.940  36.762  1.00  0.00     0.124 S 
ATOM     67  O   UNL A   1      46.408  24.142  36.110  1.00  0.00    -0.237 OA
ATOM     68  O   UNL A   1      45.703  25.452  38.088  1.00  0.00    -0.237 OA
ATOM     69  O   UNL A   1      44.012  24.428  36.618  1.00  0.00    -0.744 OA
ENDBRANCH  62  66
ENDBRANCH  36  59
ENDBRANCH  10  11
ENDBRANCH   3   5
ENDBRANCH   2   3
ENDBRANCH   1   2
BRANCH   1  70
ATOM     70  C   UNL A   1      31.923  30.369  25.773  1.00  0.00     0.275 C 
BRANCH  70  71
ATOM     71  O   UNL A   1      32.577  29.320  26.507  1.00  0.00    -0.458 OA
BRANCH  71  72
ATOM     72  C   UNL A   1      31.866  28.180  26.769  1.00  0.00     0.342 C 
ATOM     73  O   UNL A   1      31.057  28.058  27.669  1.00  0.00    -0.246 OA
BRANCH  72  74
ATOM     74  C   UNL A   1      32.319  27.084  25.847  1.00  0.00     0.103 A 
ATOM     75  C   UNL A   1      33.568  26.486  26.128  1.00  0.00     0.020 A 
ATOM     76  C   UNL A   1      31.483  26.514  24.856  1.00  0.00     0.148 A 
ATOM     77  C   UNL A   1      33.982  25.335  25.468  1.00  0.00     0.002 A 
ATOM     78  C   UNL A   1      31.876  25.281  24.304  1.00  0.00     0.060 A 
ATOM     79  C   UNL A   1      33.138  24.734  24.551  1.00  0.00     0.019 A 
ATOM     80  Br  UNL A   1      30.654  24.110  23.445  1.00  0.00    -0.047 Br
BRANCH  76  81
ATOM     81  O   UNL A   1      30.222  26.979  24.625  1.00  0.00    -0.488 OA
BRANCH  81  82
ATOM     82  C   UNL A   1      29.773  27.403  23.311  1.00  0.00     0.178 C 
ATOM     83  C   UNL A   1      30.979  27.720  22.415  1.00  0.00     0.074 C 
ATOM     84  C   UNL A   1      28.570  28.338  23.113  1.00  0.00     0.080 C 
ATOM     85  C   UNL A   1      31.175  29.192  22.099  1.00  0.00     0.165 C 
ATOM     86  C   UNL A   1      28.889  29.780  22.695  1.00  0.00     0.072 C 
ATOM     87  O   UNL A   1      29.955  29.792  21.719  1.00  0.00    -0.375 OA
ATOM     88  C   UNL A   1      27.652  30.575  22.161  1.00  0.00     0.036 C 
ATOM     89  C   UNL A   1      28.947  30.786  23.875  1.00  0.00     0.036 C 
ATOM     90  C   UNL A   1      27.918  31.682  23.183  1.00  0.00     0.006 C 
ENDBRANCH  81  82
ENDBRANCH  76  81
ENDBRANCH  72  74
ENDBRANCH  71  72
ENDBRANCH  70  71
ENDBRANCH   1  70
TORSDOF 16
ENDMDL
MODEL 2
REMARK VINA RESULT:     -11.8      5.958     11.436
REMARK SMILES O=C(OCCOC(=O)c1cccc(Br)c1O[C@@H]1CCOC2(CCC2)C1)c1ccc(-c2c3nc(c(-c4cc(S(=O)(=O)[O-])ccc4F)c4ccc([nH]4)c(-c4cc(S(=O)(=O)[O-])ccc4F)c4nc(c(-c5cc(S(=O)(=O)[O-])ccc5F)c5ccc2[nH]5)C=C4)C=C3)cc1
REMARK SMILES IDX 4 1 3 2 2 3 1 4 26 5 27 6 88 7 28 8 87 9 29 10 30 11 31 12
REMARK SMILES IDX 81 13 32 14 86 15 80 16 82 17 33 18 85 19 79 20 78 21 34 23
REMARK SMILES IDX 66 24 46 25 65 26 47 27 50 28 64 29 83 30 48 31 49 32 63 34
REMARK SMILES IDX 84 35 51 36 35 37 36 38 44 39 37 40 43 41 45 42 42 43 38 44
REMARK SMILES IDX 39 45 40 46 41 47 67 48 68 49 76 50 69 51 75 52 77 53 74 54
REMARK SMILES IDX 70 55 71 56 72 57 73 58 52 59 53 60 61 61 54 62 60 63 62 64
REMARK SMILES IDX 59 65 55 66 56 67 57 68 58 69 5 70 6 71 7 72 8 73 9 74 10 75
REMARK SMILES IDX 15 76 11 77 13 78 12 79 14 80 16 81 17 82 18 83 25 84 19 85
REMARK SMILES IDX 21 86 20 87 22 88 24 89 23 90
REMARK H PARENT 82 22 50 33
REMARK Flexibility Score: inf
ROOT
ATOM      1  C   UNL A   1      38.282  19.953  24.891  1.00  0.00     0.275 C 
ENDROOT
BRANCH   1   2
ATOM      2  O   UNL A   1      39.179  19.495  25.908  1.00  0.00    -0.458 OA
BRANCH   2   3
ATOM      3  C   UNL A   1      40.509  19.677  26.045  1.00  0.00     0.338 C 
ATOM      4  O   UNL A   1      41.240  18.753  25.685  1.00  0.00    -0.246 OA
BRANCH   3   5
ATOM      5  C   UNL A   1      41.166  20.904  26.625  1.00  0.00     0.060 A 
ATOM      6  C   UNL A   1      41.738  21.088  27.890  1.00  0.00     0.016 A 
ATOM      7  C   UNL A   1      41.196  22.004  25.765  1.00  0.00     0.016 A 
ATOM      8  C   UNL A   1      42.351  22.307  28.262  1.00  0.00     0.010 A 
ATOM      9  C   UNL A   1      41.866  23.182  26.105  1.00  0.00     0.010 A 
ATOM     10  C   UNL A   1      42.434  23.371  27.367  1.00  0.00    -0.014 A 
BRANCH  10  11
ATOM     11  C   UNL A   1      42.978  24.724  27.694  1.00  0.00     0.031 A 
ATOM     12  C   UNL A   1      42.036  25.750  28.278  1.00  0.00     0.074 A 
ATOM     13  C   UNL A   1      44.221  25.109  27.346  1.00  0.00     0.049 A 
ATOM     14  N   UNL A   1      42.149  27.050  28.353  1.00  0.00    -0.248 NA
ATOM     15  C   UNL A   1      40.751  25.227  28.768  1.00  0.00     0.031 C 
ATOM     16  C   UNL A   1      45.245  24.248  26.764  1.00  0.00     0.029 A 
ATOM     17  N   UNL A   1      44.816  26.349  27.378  1.00  0.00    -0.354 N 
ATOM     18  C   UNL A   1      40.927  27.499  28.845  1.00  0.00     0.074 A 
ATOM     19  C   UNL A   1      40.059  26.344  28.909  1.00  0.00     0.031 C 
ATOM     20  C   UNL A   1      46.311  24.991  26.426  1.00  0.00     0.029 A 
ATOM     21  C   UNL A   1      46.046  26.385  26.760  1.00  0.00     0.049 A 
ATOM     22  H   UNL A   1      44.403  27.135  27.804  1.00  0.00     0.167 HD
ATOM     23  C   UNL A   1      40.577  28.739  29.273  1.00  0.00     0.034 A 
ATOM     24  C   UNL A   1      46.859  27.422  26.473  1.00  0.00     0.034 A 
ATOM     25  C   UNL A   1      41.482  29.858  29.272  1.00  0.00     0.049 A 
ATOM     26  C   UNL A   1      46.482  28.800  26.947  1.00  0.00     0.074 A 
ATOM     27  C   UNL A   1      41.295  31.129  29.786  1.00  0.00     0.029 A 
ATOM     28  N   UNL A   1      42.762  29.833  28.730  1.00  0.00    -0.354 N 
ATOM     29  N   UNL A   1      45.359  29.200  27.497  1.00  0.00    -0.248 NA
ATOM     30  C   UNL A   1      47.496  29.854  26.811  1.00  0.00     0.031 C 
ATOM     31  C   UNL A   1      42.447  31.880  29.524  1.00  0.00     0.029 A 
ATOM     32  C   UNL A   1      43.374  31.063  28.895  1.00  0.00     0.049 A 
ATOM     33  H   UNL A   1      43.173  29.052  28.294  1.00  0.00     0.167 HD
ATOM     34  C   UNL A   1      45.559  30.534  27.837  1.00  0.00     0.074 A 
ATOM     35  C   UNL A   1      46.896  30.880  27.400  1.00  0.00     0.031 C 
ATOM     36  C   UNL A   1      44.719  31.383  28.482  1.00  0.00     0.034 A 
BRANCH  23  37
ATOM     37  C   UNL A   1      39.163  28.907  29.785  1.00  0.00     0.023 A 
ATOM     38  C   UNL A   1      38.162  29.475  28.975  1.00  0.00     0.031 A 
ATOM     39  C   UNL A   1      38.839  28.626  31.122  1.00  0.00     0.131 A 
ATOM     40  C   UNL A   1      36.961  29.914  29.550  1.00  0.00     0.055 A 
ATOM     41  C   UNL A   1      37.587  28.946  31.656  1.00  0.00     0.041 A 
ATOM     42  F   UNL A   1      39.745  28.081  31.948  1.00  0.00    -0.206 F 
ATOM     43  C   UNL A   1      36.653  29.629  30.880  1.00  0.00     0.022 A 
BRANCH  40  44
ATOM     44  S   UNL A   1      35.945  31.082  28.602  1.00  0.00     0.124 S 
ATOM     45  O   UNL A   1      35.113  31.665  29.654  1.00  0.00    -0.237 OA
ATOM     46  O   UNL A   1      36.944  31.969  28.018  1.00  0.00    -0.237 OA
ATOM     47  O   UNL A   1      35.233  30.228  27.654  1.00  0.00    -0.744 OA
ENDBRANCH  40  44
ENDBRANCH  23  37
BRANCH  24  48
ATOM     48  C   UNL A   1      48.117  27.192  25.708  1.00  0.00     0.023 A 
ATOM     49  C   UNL A   1      48.171  27.381  24.320  1.00  0.00     0.031 A 
ATOM     50  C   UNL A   1      49.289  26.780  26.367  1.00  0.00     0.131 A 
ATOM     51  C   UNL A   1      49.365  27.125  23.626  1.00  0.00     0.055 A 
ATOM     52  C   UNL A   1      50.481  26.549  25.676  1.00  0.00     0.041 A 
ATOM     53  F   UNL A   1      49.297  26.615  27.700  1.00  0.00    -0.206 F 
ATOM     54  C   UNL A   1      50.520  26.713  24.294  1.00  0.00     0.022 A 
BRANCH  51  55
ATOM     55  S   UNL A   1      49.379  27.311  21.822  1.00  0.00     0.124 S 
ATOM     56  O   UNL A   1      48.644  26.127  21.394  1.00  0.00    -0.237 OA
ATOM     57  O   UNL A   1      48.696  28.590  21.647  1.00  0.00    -0.237 OA
ATOM     58  O   UNL A   1      50.803  27.319  21.490  1.00  0.00    -0.744 OA
ENDBRANCH  51  55
ENDBRANCH  24  48
BRANCH  36  59
ATOM     59  C   UNL A   1      45.258  32.736  28.864  1.00  0.00     0.023 A 
ATOM     60  C   UNL A   1      45.070  33.871  28.061  1.00  0.00     0.031 A 
ATOM     61  C   UNL A   1      45.934  32.887  30.088  1.00  0.00     0.131 A 
ATOM     62  C   UNL A   1      45.576  35.110  28.484  1.00  0.00     0.055 A 
ATOM     63  C   UNL A   1      46.395  34.128  30.524  1.00  0.00     0.041 A 
ATOM     64  F   UNL A   1      46.139  31.828  30.889  1.00  0.00    -0.206 F 
ATOM     65  C   UNL A   1      46.220  35.248  29.718  1.00  0.00     0.022 A 
BRANCH  62  66
ATOM     66  S   UNL A   1      45.409  36.545  27.387  1.00  0.00     0.124 S 
ATOM     67  O   UNL A   1      44.385  36.090  26.452  1.00  0.00    -0.237 OA
ATOM     68  O   UNL A   1      45.006  37.601  28.310  1.00  0.00    -0.237 OA
ATOM     69  O   UNL A   1      46.746  36.699  26.817  1.00  0.00    -0.744 OA
ENDBRANCH  62  66
ENDBRANCH  36  59
ENDBRANCH  10  11
ENDBRANCH   3   5
ENDBRANCH   2   3
ENDBRANCH   1   2
BRANCH   1  70
ATOM     70  C   UNL A   1      37.625  21.290  25.221  1.00  0.00     0.275 C 
BRANCH  70  71
ATOM     71  O   UNL A   1      36.285  21.400  24.712  1.00  0.00    -0.458 OA
BRANCH  71  72
ATOM     72  C   UNL A   1      36.011  22.418  23.839  1.00  0.00     0.342 C 
ATOM     73  O   UNL A   1      36.656  22.669  22.840  1.00  0.00    -0.246 OA
BRANCH  72  74
ATOM     74  C   UNL A   1      34.865  23.234  24.366  1.00  0.00     0.103 A 
ATOM     75  C   UNL A   1      35.188  24.444  25.022  1.00  0.00     0.020 A 
ATOM     76  C   UNL A   1      33.511  22.944  24.071  1.00  0.00     0.148 A 
ATOM     77  C   UNL A   1      34.205  25.366  25.361  1.00  0.00     0.002 A 
ATOM     78  C   UNL A   1      32.562  23.955  24.311  1.00  0.00     0.060 A 
ATOM     79  C   UNL A   1      32.889  25.120  25.010  1.00  0.00     0.019 A 
ATOM     80  Br  UNL A   1      30.865  23.986  23.461  1.00  0.00    -0.047 Br
BRANCH  76  81
ATOM     81  O   UNL A   1      33.153  21.851  23.339  1.00  0.00    -0.488 OA
BRANCH  81  82
ATOM     82  C   UNL A   1      32.354  20.769  23.888  1.00  0.00     0.178 C 
ATOM     83  C   UNL A   1      32.172  20.959  25.401  1.00  0.00     0.074 C 
ATOM     84  C   UNL A   1      32.530  19.308  23.446  1.00  0.00     0.080 C 
ATOM     85  C   UNL A   1      32.923  19.964  26.268  1.00  0.00     0.165 C 
ATOM     86  C   UNL A   1      33.213  18.371  24.450  1.00  0.00     0.072 C 
ATOM     87  O   UNL A   1      32.747  18.647  25.790  1.00  0.00    -0.375 OA
ATOM     88  C   UNL A   1      33.045  16.852  24.117  1.00  0.00     0.036 C 
ATOM     89  C   UNL A   1      34.737  18.189  24.214  1.00  0.00     0.036 C 
ATOM     90  C   UNL A   1      34.563  16.670  24.160  1.00  0.00     0.006 C 
ENDBRANCH  81  82
ENDBRANCH  76  81
ENDBRANCH  72  74
ENDBRANCH  71  72
ENDBRANCH  70  71
ENDBRANCH   1  70
TORSDOF 16
ENDMDL
MODEL 3
REMARK VINA RESULT:     -11.8      1.281      2.809
REMARK SMILES O=C(OCCOC(=O)c1cccc(Br)c1O[C@@H]1CCOC2(CCC2)C1)c1ccc(-c2c3nc(c(-c4cc(S(=O)(=O)[O-])ccc4F)c4ccc([nH]4)c(-c4cc(S(=O)(=O)[O-])ccc4F)c4nc(c(-c5cc(S(=O)(=O)[O-])ccc5F)c5ccc2[nH]5)C=C4)C=C3)cc1
REMARK SMILES IDX 4 1 3 2 2 3 1 4 26 5 27 6 88 7 28 8 87 9 29 10 30 11 31 12
REMARK SMILES IDX 81 13 32 14 86 15 80 16 82 17 33 18 85 19 79 20 78 21 34 23
REMARK SMILES IDX 66 24 46 25 65 26 47 27 50 28 64 29 83 30 48 31 49 32 63 34
REMARK SMILES IDX 84 35 51 36 35 37 36 38 44 39 37 40 43 41 45 42 42 43 38 44
REMARK SMILES IDX 39 45 40 46 41 47 67 48 68 49 76 50 69 51 75 52 77 53 74 54
REMARK SMILES IDX 70 55 71 56 72 57 73 58 52 59 53 60 61 61 54 62 60 63 62 64
REMARK SMILES IDX 59 65 55 66 56 67 57 68 58 69 5 70 6 71 7 72 8 73 9 74 10 75
REMARK SMILES IDX 15 76 11 77 13 78 12 79 14 80 16 81 17 82 18 83 25 84 19 85
REMARK SMILES IDX 21 86 20 87 22 88 24 89 23 90
REMARK H PARENT 82 22 50 33
REMARK Flexibility Score: inf
ROOT
ATOM      1  C   UNL A   1      31.672  31.873  26.944  1.00  0.00     0.275 C 
ENDROOT
BRANCH   1   2
ATOM      2  O   UNL A   1      32.462  33.066  26.937  1.00  0.00    -0.458 OA
BRANCH   2   3
ATOM      3  C   UNL A   1      33.028  33.744  27.957  1.00  0.00     0.338 C 
ATOM      4  O   UNL A   1      32.394  34.696  28.417  1.00  0.00    -0.246 OA
BRANCH   3   5
ATOM      5  C   UNL A   1      34.378  33.447  28.559  1.00  0.00     0.060 A 
ATOM      6  C   UNL A   1      35.603  34.093  28.349  1.00  0.00     0.016 A 
ATOM      7  C   UNL A   1      34.390  32.369  29.447  1.00  0.00     0.016 A 
ATOM      8  C   UNL A   1      36.779  33.704  29.032  1.00  0.00     0.010 A 
ATOM      9  C   UNL A   1      35.533  32.031  30.175  1.00  0.00     0.010 A 
ATOM     10  C   UNL A   1      36.757  32.671  29.966  1.00  0.00    -0.014 A 
BRANCH  10  11
ATOM     11  C   UNL A   1      37.960  32.127  30.668  1.00  0.00     0.031 A 
ATOM     12  C   UNL A   1      38.740  31.024  29.995  1.00  0.00     0.074 A 
ATOM     13  C   UNL A   1      38.277  32.470  31.932  1.00  0.00     0.049 A 
ATOM     14  N   UNL A   1      39.599  30.175  30.496  1.00  0.00    -0.248 NA
ATOM     15  C   UNL A   1      38.436  30.805  28.573  1.00  0.00     0.031 C 
ATOM     16  C   UNL A   1      37.619  33.503  32.723  1.00  0.00     0.029 A 
ATOM     17  N   UNL A   1      39.205  31.937  32.797  1.00  0.00    -0.354 N 
ATOM     18  C   UNL A   1      39.890  29.290  29.461  1.00  0.00     0.074 A 
ATOM     19  C   UNL A   1      39.008  29.632  28.367  1.00  0.00     0.031 C 
ATOM     20  C   UNL A   1      38.106  33.484  33.974  1.00  0.00     0.029 A 
ATOM     21  C   UNL A   1      39.108  32.430  34.079  1.00  0.00     0.049 A 
ATOM     22  H   UNL A   1      39.874  31.267  32.525  1.00  0.00     0.167 HD
ATOM     23  C   UNL A   1      40.847  28.330  29.396  1.00  0.00     0.034 A 
ATOM     24  C   UNL A   1      39.737  32.065  35.215  1.00  0.00     0.034 A 
ATOM     25  C   UNL A   1      41.767  28.058  30.470  1.00  0.00     0.049 A 
ATOM     26  C   UNL A   1      40.803  31.004  35.152  1.00  0.00     0.074 A 
ATOM     27  C   UNL A   1      42.853  27.203  30.489  1.00  0.00     0.029 A 
ATOM     28  N   UNL A   1      41.706  28.653  31.725  1.00  0.00    -0.354 N 
ATOM     29  N   UNL A   1      41.137  30.235  34.142  1.00  0.00    -0.248 NA
ATOM     30  C   UNL A   1      41.613  30.798  36.360  1.00  0.00     0.031 C 
ATOM     31  C   UNL A   1      43.428  27.255  31.766  1.00  0.00     0.029 A 
ATOM     32  C   UNL A   1      42.732  28.183  32.525  1.00  0.00     0.049 A 
ATOM     33  H   UNL A   1      41.031  29.313  32.003  1.00  0.00     0.167 HD
ATOM     34  C   UNL A   1      42.240  29.504  34.571  1.00  0.00     0.074 A 
ATOM     35  C   UNL A   1      42.494  29.899  35.942  1.00  0.00     0.031 C 
ATOM     36  C   UNL A   1      42.991  28.611  33.879  1.00  0.00     0.034 A 
BRANCH  23  37
ATOM     37  C   UNL A   1      40.933  27.542  28.107  1.00  0.00     0.023 A 
ATOM     38  C   UNL A   1      40.544  26.190  28.058  1.00  0.00     0.031 A 
ATOM     39  C   UNL A   1      41.523  28.094  26.958  1.00  0.00     0.131 A 
ATOM     40  C   UNL A   1      40.918  25.394  26.967  1.00  0.00     0.055 A 
ATOM     41  C   UNL A   1      41.772  27.322  25.820  1.00  0.00     0.041 A 
ATOM     42  F   UNL A   1      41.913  29.377  26.937  1.00  0.00    -0.206 F 
ATOM     43  C   UNL A   1      41.506  25.955  25.833  1.00  0.00     0.022 A 
BRANCH  40  44
ATOM     44  S   UNL A   1      40.863  23.591  27.175  1.00  0.00     0.124 S 
ATOM     45  O   UNL A   1      41.575  23.137  25.981  1.00  0.00    -0.237 OA
ATOM     46  O   UNL A   1      41.557  23.398  28.442  1.00  0.00    -0.237 OA
ATOM     47  O   UNL A   1      39.433  23.291  27.190  1.00  0.00    -0.744 OA
ENDBRANCH  40  44
ENDBRANCH  23  37
BRANCH  24  48
ATOM     48  C   UNL A   1      39.381  32.717  36.506  1.00  0.00     0.023 A 
ATOM     49  C   UNL A   1      38.442  32.147  37.377  1.00  0.00     0.031 A 
ATOM     50  C   UNL A   1      39.984  33.930  36.885  1.00  0.00     0.131 A 
ATOM     51  C   UNL A   1      38.106  32.804  38.572  1.00  0.00     0.055 A 
ATOM     52  C   UNL A   1      39.665  34.569  38.085  1.00  0.00     0.041 A 
ATOM     53  F   UNL A   1      40.912  34.501  36.099  1.00  0.00    -0.206 F 
ATOM     54  C   UNL A   1      38.713  34.010  38.932  1.00  0.00     0.022 A 
BRANCH  51  55
ATOM     55  S   UNL A   1      36.836  32.072  39.640  1.00  0.00     0.124 S 
ATOM     56  O   UNL A   1      37.180  32.634  40.941  1.00  0.00    -0.237 OA
ATOM     57  O   UNL A   1      35.607  32.569  39.029  1.00  0.00    -0.237 OA
ATOM     58  O   UNL A   1      37.060  30.634  39.500  1.00  0.00    -0.744 OA
ENDBRANCH  51  55
ENDBRANCH  24  48
BRANCH  36  59
ATOM     59  C   UNL A   1      44.233  28.083  34.547  1.00  0.00     0.023 A 
ATOM     60  C   UNL A   1      44.238  26.889  35.284  1.00  0.00     0.031 A 
ATOM     61  C   UNL A   1      45.446  28.779  34.392  1.00  0.00     0.131 A 
ATOM     62  C   UNL A   1      45.435  26.437  35.862  1.00  0.00     0.055 A 
ATOM     63  C   UNL A   1      46.640  28.302  34.931  1.00  0.00     0.041 A 
ATOM     64  F   UNL A   1      45.490  29.927  33.697  1.00  0.00    -0.206 F 
ATOM     65  C   UNL A   1      46.637  27.126  35.675  1.00  0.00     0.022 A 
BRANCH  62  66
ATOM     66  S   UNL A   1      45.400  24.945  36.893  1.00  0.00     0.124 S 
ATOM     67  O   UNL A   1      45.343  23.887  35.889  1.00  0.00    -0.237 OA
ATOM     68  O   UNL A   1      46.649  25.050  37.640  1.00  0.00    -0.237 OA
ATOM     69  O   UNL A   1      44.186  25.108  37.692  1.00  0.00    -0.744 OA
ENDBRANCH  62  66
ENDBRANCH  36  59
ENDBRANCH  10  11
ENDBRANCH   3   5
ENDBRANCH   2   3
ENDBRANCH   1   2
BRANCH   1  70
ATOM     70  C   UNL A   1      32.506  30.595  26.924  1.00  0.00     0.275 C 
BRANCH  70  71
ATOM     71  O   UNL A   1      32.654  30.041  25.606  1.00  0.00    -0.458 OA
BRANCH  71  72
ATOM     72  C   UNL A   1      33.101  28.751  25.499  1.00  0.00     0.342 C 
ATOM     73  O   UNL A   1      34.099  28.315  26.037  1.00  0.00    -0.246 OA
BRANCH  72  74
ATOM     74  C   UNL A   1      32.230  27.999  24.533  1.00  0.00     0.103 A 
ATOM     75  C   UNL A   1      30.954  28.545  24.261  1.00  0.00     0.020 A 
ATOM     76  C   UNL A   1      32.696  26.906  23.763  1.00  0.00     0.148 A 
ATOM     77  C   UNL A   1      30.159  28.045  23.236  1.00  0.00     0.002 A 
ATOM     78  C   UNL A   1      31.923  26.514  22.655  1.00  0.00     0.060 A 
ATOM     79  C   UNL A   1      30.641  27.025  22.435  1.00  0.00     0.019 A 
ATOM     80  Br  UNL A   1      32.641  25.515  21.209  1.00  0.00    -0.047 Br
BRANCH  76  81
ATOM     81  O   UNL A   1      33.961  26.416  23.903  1.00  0.00    -0.488 OA
BRANCH  81  82
ATOM     82  C   UNL A   1      34.267  25.270  24.741  1.00  0.00     0.178 C 
ATOM     83  C   UNL A   1      34.808  24.116  23.885  1.00  0.00     0.074 C 
ATOM     84  C   UNL A   1      33.361  24.831  25.902  1.00  0.00     0.080 C 
ATOM     85  C   UNL A   1      33.872  22.929  23.742  1.00  0.00     0.165 C 
ATOM     86  C   UNL A   1      32.536  23.557  25.678  1.00  0.00     0.072 C 
ATOM     87  O   UNL A   1      33.329  22.562  24.992  1.00  0.00    -0.375 OA
ATOM     88  C   UNL A   1      31.923  22.959  26.986  1.00  0.00     0.036 C 
ATOM     89  C   UNL A   1      31.084  23.818  25.192  1.00  0.00     0.036 C 
ATOM     90  C   UNL A   1      30.531  22.989  26.353  1.00  0.00     0.006 C 
ENDBRANCH  81  82
ENDBRANCH  76  81
ENDBRANCH  72  74
ENDBRANCH  71  72
ENDBRANCH  70  71
ENDBRANCH   1  70
TORSDOF 16
ENDMDL
