MODEL 1
REMARK VINA RESULT:     -13.4      0.000      0.000
REMARK SMILES C[C@@](NC(=O)[C@H]1COc2ccccc21)(C(=O)OCCOC(=O)c1ccc(-c2c3nc(c(-c4cc(S(=O)(=O)[O-])ccc4F)c4ccc([nH]4)c(-c4cc(S(=O)(=O)[O-])ccc4F)c4nc(c(-c5cc(S(=O)(=O)[O-])ccc5F)c5ccc2[nH]5)C=C4)C=C3)cc1)C(F)(F)F
REMARK SMILES IDX 19 1 18 2 17 3 15 4 16 5 2 6 1 7 3 8 4 9 5 11 6 12 7 13
REMARK SMILES IDX 14 14 8 15 9 16 13 17 10 18 12 19 11 20 86 21 87 22 88 23
REMARK SMILES IDX 89 24 20 25 21 26 22 27 23 28 24 29 85 30 25 31 84 32 26 33
REMARK SMILES IDX 27 34 28 35 78 36 29 37 83 38 77 39 79 40 30 41 82 42 76 43
REMARK SMILES IDX 75 44 31 46 63 47 43 48 62 49 44 50 47 51 61 52 80 53 45 54
REMARK SMILES IDX 46 55 60 57 81 58 48 59 32 60 33 61 41 62 34 63 40 64 42 65
REMARK SMILES IDX 39 66 35 67 36 68 37 69 38 70 64 71 65 72 73 73 66 74 72 75
REMARK SMILES IDX 74 76 71 77 67 78 68 79 69 80 70 81 49 82 50 83 58 84 51 85
REMARK SMILES IDX 57 86 59 87 56 88 52 89 53 90 54 91 55 92
REMARK H PARENT 3 10 79 45 47 56
REMARK Flexibility Score: inf
ROOT
ATOM      1  C   UNL A   1      31.902  29.821  26.977  1.00  0.00     0.275 C 
ENDROOT
BRANCH   1   2
ATOM      2  C   UNL A   1      31.509  28.250  27.684  1.00  0.00     0.274 C 
BRANCH   2   3
ATOM      3  O   UNL A   1      30.563  26.679  26.797  1.00  0.00    -0.460 OA
BRANCH   3   4
ATOM      4  C   UNL A   1      30.576  25.250  26.410  1.00  0.00     0.341 C 
ATOM      5  O   UNL A   1      29.880  24.352  26.893  1.00  0.00    -0.249 OA
BRANCH   4   6
ATOM      6  C   UNL A   1      31.648  24.889  25.454  1.00  0.00     0.231 C 
ATOM      7  C   UNL A   1      32.557  26.114  25.307  1.00  0.00     0.058 C 
BRANCH   6   8
ATOM      8  N   UNL A   1      32.348  23.662  25.944  1.00  0.00    -0.332 N 
ATOM      9  C   UNL A   1      33.719  23.552  26.118  1.00  0.00     0.232 C 
ATOM     10  H   UNL A   1      31.795  22.875  26.158  1.00  0.00     0.164 HD
ATOM     11  O   UNL A   1      34.093  23.318  27.274  1.00  0.00    -0.274 OA
BRANCH   9  12
ATOM     12  C   UNL A   1      34.728  23.340  24.941  1.00  0.00     0.150 C 
ATOM     13  C   UNL A   1      35.868  22.505  25.602  1.00  0.00     0.248 C 
ATOM     14  C   UNL A   1      34.412  22.363  23.835  1.00  0.00     0.010 A 
ATOM     15  O   UNL A   1      35.459  21.105  25.810  1.00  0.00    -0.492 OA
ATOM     16  C   UNL A   1      34.622  20.866  24.742  1.00  0.00     0.123 A 
ATOM     17  C   UNL A   1      33.201  22.445  22.518  1.00  0.00     0.008 A 
ATOM     18  C   UNL A   1      33.571  19.479  24.534  1.00  0.00     0.047 A 
ATOM     19  C   UNL A   1      32.035  21.001  22.300  1.00  0.00     0.001 A 
ATOM     20  C   UNL A   1      32.265  19.521  23.310  1.00  0.00     0.004 A 
ENDBRANCH   9  12
ENDBRANCH   6   8
BRANCH   6  21
ATOM     21  C   UNL A   1      30.901  24.702  24.097  1.00  0.00     0.422 C 
ATOM     22  F   UNL A   1      30.461  23.435  23.903  1.00  0.00    -0.168 F 
ATOM     23  F   UNL A   1      29.787  25.483  24.074  1.00  0.00    -0.168 F 
ATOM     24  F   UNL A   1      31.645  25.067  23.031  1.00  0.00    -0.168 F 
ENDBRANCH   6  21
ENDBRANCH   4   6
ENDBRANCH   3   4
ENDBRANCH   2   3
ENDBRANCH   1   2
BRANCH   1  25
ATOM     25  O   UNL A   1      33.313  30.155  26.702  1.00  0.00    -0.458 OA
BRANCH  25  26
ATOM     26  C   UNL A   1      33.864  31.212  27.380  1.00  0.00     0.338 C 
ATOM     27  O   UNL A   1      33.273  32.243  27.668  1.00  0.00    -0.246 OA
BRANCH  26  28
ATOM     28  C   UNL A   1      35.260  30.941  27.877  1.00  0.00     0.060 A 
ATOM     29  C   UNL A   1      35.665  29.693  28.376  1.00  0.00     0.016 A 
ATOM     30  C   UNL A   1      36.150  32.000  28.023  1.00  0.00     0.016 A 
ATOM     31  C   UNL A   1      36.935  29.455  28.911  1.00  0.00     0.010 A 
ATOM     32  C   UNL A   1      37.431  31.775  28.556  1.00  0.00     0.010 A 
ATOM     33  C   UNL A   1      37.845  30.497  28.980  1.00  0.00    -0.014 A 
BRANCH  33  34
ATOM     34  C   UNL A   1      39.216  30.321  29.521  1.00  0.00     0.031 A 
ATOM     35  C   UNL A   1      40.105  29.292  28.901  1.00  0.00     0.074 A 
ATOM     36  C   UNL A   1      39.598  30.963  30.640  1.00  0.00     0.049 A 
ATOM     37  N   UNL A   1      41.073  28.599  29.433  1.00  0.00    -0.248 NA
ATOM     38  C   UNL A   1      39.830  28.986  27.492  1.00  0.00     0.031 C 
ATOM     39  C   UNL A   1      38.885  32.073  31.269  1.00  0.00     0.029 A 
ATOM     40  N   UNL A   1      40.648  30.710  31.491  1.00  0.00    -0.354 N 
ATOM     41  C   UNL A   1      41.479  27.709  28.445  1.00  0.00     0.074 A 
ATOM     42  C   UNL A   1      40.657  27.973  27.280  1.00  0.00     0.031 C 
ATOM     43  C   UNL A   1      39.468  32.353  32.447  1.00  0.00     0.029 A 
ATOM     44  C   UNL A   1      40.534  31.384  32.687  1.00  0.00     0.049 A 
ATOM     45  H   UNL A   1      41.399  30.112  31.271  1.00  0.00     0.167 HD
ATOM     46  C   UNL A   1      42.429  26.743  28.534  1.00  0.00     0.034 A 
ATOM     47  C   UNL A   1      41.141  31.176  33.873  1.00  0.00     0.034 A 
ATOM     48  C   UNL A   1      43.222  26.527  29.722  1.00  0.00     0.049 A 
ATOM     49  C   UNL A   1      42.137  30.050  33.994  1.00  0.00     0.074 A 
ATOM     50  C   UNL A   1      44.224  25.598  29.940  1.00  0.00     0.029 A 
ATOM     51  N   UNL A   1      43.094  27.251  30.905  1.00  0.00    -0.354 N 
ATOM     52  N   UNL A   1      42.483  29.155  33.097  1.00  0.00    -0.248 NA
ATOM     53  C   UNL A   1      42.817  29.900  35.287  1.00  0.00     0.031 C 
ATOM     54  C   UNL A   1      44.645  25.709  31.271  1.00  0.00     0.029 A 
ATOM     55  C   UNL A   1      43.972  26.767  31.863  1.00  0.00     0.049 A 
ATOM     56  H   UNL A   1      42.468  27.999  31.041  1.00  0.00     0.167 HD
ATOM     57  C   UNL A   1      43.445  28.354  33.707  1.00  0.00     0.074 A 
ATOM     58  C   UNL A   1      43.620  28.873  35.049  1.00  0.00     0.031 C 
ATOM     59  C   UNL A   1      44.129  27.296  33.200  1.00  0.00     0.034 A 
BRANCH  46  60
ATOM     60  C   UNL A   1      42.573  25.802  27.359  1.00  0.00     0.023 A 
ATOM     61  C   UNL A   1      41.924  24.556  27.310  1.00  0.00     0.031 A 
ATOM     62  C   UNL A   1      43.442  26.128  26.300  1.00  0.00     0.131 A 
ATOM     63  C   UNL A   1      42.230  23.646  26.285  1.00  0.00     0.055 A 
ATOM     64  C   UNL A   1      43.667  25.257  25.232  1.00  0.00     0.041 A 
ATOM     65  F   UNL A   1      44.111  27.291  26.296  1.00  0.00    -0.206 F 
ATOM     66  C   UNL A   1      43.078  23.997  25.232  1.00  0.00     0.022 A 
BRANCH  63  67
ATOM     67  S   UNL A   1      41.658  21.932  26.451  1.00  0.00     0.124 S 
ATOM     68  O   UNL A   1      40.239  22.060  26.123  1.00  0.00    -0.237 OA
ATOM     69  O   UNL A   1      42.479  21.229  25.473  1.00  0.00    -0.237 OA
ATOM     70  O   UNL A   1      41.937  21.610  27.849  1.00  0.00    -0.744 OA
ENDBRANCH  63  67
ENDBRANCH  46  60
BRANCH  47  71
ATOM     71  C   UNL A   1      40.744  31.989  35.058  1.00  0.00     0.023 A 
ATOM     72  C   UNL A   1      39.638  31.638  35.846  1.00  0.00     0.031 A 
ATOM     73  C   UNL A   1      41.485  33.127  35.432  1.00  0.00     0.131 A 
ATOM     74  C   UNL A   1      39.297  32.420  36.962  1.00  0.00     0.055 A 
ATOM     75  C   UNL A   1      41.169  33.874  36.568  1.00  0.00     0.041 A 
ATOM     76  F   UNL A   1      42.553  33.509  34.713  1.00  0.00    -0.206 F 
ATOM     77  C   UNL A   1      40.066  33.524  37.338  1.00  0.00     0.022 A 
BRANCH  74  78
ATOM     78  S   UNL A   1      37.806  31.994  37.902  1.00  0.00     0.124 S 
ATOM     79  O   UNL A   1      38.275  32.123  39.277  1.00  0.00    -0.237 OA
ATOM     80  O   UNL A   1      36.861  33.008  37.448  1.00  0.00    -0.237 OA
ATOM     81  O   UNL A   1      37.507  30.630  37.470  1.00  0.00    -0.744 OA
ENDBRANCH  74  78
ENDBRANCH  47  71
BRANCH  59  82
ATOM     82  C   UNL A   1      45.186  26.673  34.078  1.00  0.00     0.023 A 
ATOM     83  C   UNL A   1      44.877  25.709  35.054  1.00  0.00     0.031 A 
ATOM     84  C   UNL A   1      46.534  27.045  33.917  1.00  0.00     0.131 A 
ATOM     85  C   UNL A   1      45.900  25.177  35.855  1.00  0.00     0.055 A 
ATOM     86  C   UNL A   1      47.552  26.472  34.678  1.00  0.00     0.041 A 
ATOM     87  F   UNL A   1      46.882  27.965  33.002  1.00  0.00    -0.206 F 
ATOM     88  C   UNL A   1      47.237  25.538  35.661  1.00  0.00     0.022 A 
BRANCH  85  89
ATOM     89  S   UNL A   1      45.459  24.051  37.208  1.00  0.00     0.124 S 
ATOM     90  O   UNL A   1      46.589  24.212  38.116  1.00  0.00    -0.237 OA
ATOM     91  O   UNL A   1      44.186  24.597  37.668  1.00  0.00    -0.237 OA
ATOM     92  O   UNL A   1      45.371  22.747  36.553  1.00  0.00    -0.744 OA
ENDBRANCH  85  89
ENDBRANCH  59  82
ENDBRANCH  33  34
ENDBRANCH  26  28
ENDBRANCH  25  26
ENDBRANCH   1  25
TORSDOF 17
ENDMDL
MODEL 2
REMARK VINA RESULT:     -13.3      1.926      2.586
REMARK SMILES C[C@@](NC(=O)[C@H]1COc2ccccc21)(C(=O)OCCOC(=O)c1ccc(-c2c3nc(c(-c4cc(S(=O)(=O)[O-])ccc4F)c4ccc([nH]4)c(-c4cc(S(=O)(=O)[O-])ccc4F)c4nc(c(-c5cc(S(=O)(=O)[O-])ccc5F)c5ccc2[nH]5)C=C4)C=C3)cc1)C(F)(F)F
REMARK SMILES IDX 19 1 18 2 17 3 15 4 16 5 2 6 1 7 3 8 4 9 5 11 6 12 7 13
REMARK SMILES IDX 14 14 8 15 9 16 13 17 10 18 12 19 11 20 86 21 87 22 88 23
REMARK SMILES IDX 89 24 20 25 21 26 22 27 23 28 24 29 85 30 25 31 84 32 26 33
REMARK SMILES IDX 27 34 28 35 78 36 29 37 83 38 77 39 79 40 30 41 82 42 76 43
REMARK SMILES IDX 75 44 31 46 63 47 43 48 62 49 44 50 47 51 61 52 80 53 45 54
REMARK SMILES IDX 46 55 60 57 81 58 48 59 32 60 33 61 41 62 34 63 40 64 42 65
REMARK SMILES IDX 39 66 35 67 36 68 37 69 38 70 64 71 65 72 73 73 66 74 72 75
REMARK SMILES IDX 74 76 71 77 67 78 68 79 69 80 70 81 49 82 50 83 58 84 51 85
REMARK SMILES IDX 57 86 59 87 56 88 52 89 53 90 54 91 55 92
REMARK H PARENT 3 10 79 45 47 56
REMARK Flexibility Score: inf
ROOT
ATOM      1  C   UNL A   1      32.471  29.596  25.067  1.00  0.00     0.275 C 
ENDROOT
BRANCH   1   2
ATOM      2  C   UNL A   1      31.145  28.620  24.425  1.00  0.00     0.274 C 
BRANCH   2   3
ATOM      3  O   UNL A   1      31.245  26.760  23.599  1.00  0.00    -0.460 OA
BRANCH   3   4
ATOM      4  C   UNL A   1      32.076  25.634  23.118  1.00  0.00     0.341 C 
ATOM      5  O   UNL A   1      32.154  25.224  21.955  1.00  0.00    -0.249 OA
BRANCH   4   6
ATOM      6  C   UNL A   1      32.742  24.866  24.194  1.00  0.00     0.231 C 
ATOM      7  C   UNL A   1      31.828  24.923  25.424  1.00  0.00     0.058 C 
BRANCH   6   8
ATOM      8  N   UNL A   1      33.024  23.481  23.704  1.00  0.00    -0.332 N 
ATOM      9  C   UNL A   1      32.297  22.355  24.058  1.00  0.00     0.232 C 
ATOM     10  H   UNL A   1      33.782  23.361  23.087  1.00  0.00     0.164 HD
ATOM     11  O   UNL A   1      31.739  21.766  23.124  1.00  0.00    -0.274 OA
BRANCH   9  12
ATOM     12  C   UNL A   1      32.450  21.619  25.430  1.00  0.00     0.150 C 
ATOM     13  C   UNL A   1      32.517  20.116  25.017  1.00  0.00     0.248 C 
ATOM     14  C   UNL A   1      33.764  21.659  26.172  1.00  0.00     0.010 A 
ATOM     15  O   UNL A   1      33.826  19.779  24.428  1.00  0.00    -0.492 OA
ATOM     16  C   UNL A   1      34.693  20.603  25.110  1.00  0.00     0.123 A 
ATOM     17  C   UNL A   1      34.580  23.004  27.028  1.00  0.00     0.008 A 
ATOM     18  C   UNL A   1      36.371  20.907  24.706  1.00  0.00     0.047 A 
ATOM     19  C   UNL A   1      36.355  23.384  26.586  1.00  0.00     0.001 A 
ATOM     20  C   UNL A   1      37.230  22.297  25.438  1.00  0.00     0.004 A 
ENDBRANCH   9  12
ENDBRANCH   6   8
BRANCH   6  21
ATOM     21  C   UNL A   1      34.017  25.701  24.526  1.00  0.00     0.422 C 
ATOM     22  F   UNL A   1      34.145  25.975  25.846  1.00  0.00    -0.168 F 
ATOM     23  F   UNL A   1      35.130  24.992  24.190  1.00  0.00    -0.168 F 
ATOM     24  F   UNL A   1      34.081  26.861  23.837  1.00  0.00    -0.168 F 
ENDBRANCH   6  21
ENDBRANCH   4   6
ENDBRANCH   3   4
ENDBRANCH   2   3
ENDBRANCH   1   2
BRANCH   1  25
ATOM     25  O   UNL A   1      32.660  29.681  26.528  1.00  0.00    -0.458 OA
BRANCH  25  26
ATOM     26  C   UNL A   1      33.156  30.852  27.042  1.00  0.00     0.338 C 
ATOM     27  O   UNL A   1      32.524  31.894  27.147  1.00  0.00    -0.246 OA
BRANCH  26  28
ATOM     28  C   UNL A   1      34.544  30.715  27.610  1.00  0.00     0.060 A 
ATOM     29  C   UNL A   1      35.008  29.539  28.220  1.00  0.00     0.016 A 
ATOM     30  C   UNL A   1      35.356  31.841  27.706  1.00  0.00     0.016 A 
ATOM     31  C   UNL A   1      36.267  29.429  28.819  1.00  0.00     0.010 A 
ATOM     32  C   UNL A   1      36.626  31.744  28.302  1.00  0.00     0.010 A 
ATOM     33  C   UNL A   1      37.103  30.532  28.840  1.00  0.00    -0.014 A 
BRANCH  33  34
ATOM     34  C   UNL A   1      38.459  30.491  29.444  1.00  0.00     0.031 A 
ATOM     35  C   UNL A   1      39.479  29.572  28.854  1.00  0.00     0.074 A 
ATOM     36  C   UNL A   1      38.719  31.150  30.588  1.00  0.00     0.049 A 
ATOM     37  N   UNL A   1      40.489  28.975  29.422  1.00  0.00    -0.248 NA
ATOM     38  C   UNL A   1      39.303  29.264  27.429  1.00  0.00     0.031 C 
ATOM     39  C   UNL A   1      37.865  32.168  31.196  1.00  0.00     0.029 A 
ATOM     40  N   UNL A   1      39.750  30.993  31.485  1.00  0.00    -0.354 N 
ATOM     41  C   UNL A   1      41.032  28.150  28.444  1.00  0.00     0.074 A 
ATOM     42  C   UNL A   1      40.241  28.347  27.244  1.00  0.00     0.031 C 
ATOM     43  C   UNL A   1      38.361  32.486  32.403  1.00  0.00     0.029 A 
ATOM     44  C   UNL A   1      39.510  31.630  32.682  1.00  0.00     0.049 A 
ATOM     45  H   UNL A   1      40.569  30.481  31.292  1.00  0.00     0.167 HD
ATOM     46  C   UNL A   1      42.073  27.287  28.565  1.00  0.00     0.034 A 
ATOM     47  C   UNL A   1      40.081  31.466  33.893  1.00  0.00     0.034 A 
ATOM     48  C   UNL A   1      42.829  27.134  29.788  1.00  0.00     0.049 A 
ATOM     49  C   UNL A   1      41.182  30.448  34.047  1.00  0.00     0.074 A 
ATOM     50  C   UNL A   1      43.912  26.311  30.041  1.00  0.00     0.029 A 
ATOM     51  N   UNL A   1      42.571  27.819  30.971  1.00  0.00    -0.354 N 
ATOM     52  N   UNL A   1      41.663  29.610  33.156  1.00  0.00    -0.248 NA
ATOM     53  C   UNL A   1      41.814  30.347  35.369  1.00  0.00     0.031 C 
ATOM     54  C   UNL A   1      44.257  26.442  31.392  1.00  0.00     0.029 A 
ATOM     55  C   UNL A   1      43.450  27.413  31.964  1.00  0.00     0.049 A 
ATOM     56  H   UNL A   1      41.864  28.495  31.088  1.00  0.00     0.167 HD
ATOM     57  C   UNL A   1      42.674  28.904  33.801  1.00  0.00     0.074 A 
ATOM     58  C   UNL A   1      42.732  29.414  35.157  1.00  0.00     0.031 C 
ATOM     59  C   UNL A   1      43.488  27.931  33.314  1.00  0.00     0.034 A 
BRANCH  46  60
ATOM     60  C   UNL A   1      42.369  26.387  27.387  1.00  0.00     0.023 A 
ATOM     61  C   UNL A   1      41.882  25.071  27.304  1.00  0.00     0.031 A 
ATOM     62  C   UNL A   1      43.224  26.832  26.359  1.00  0.00     0.131 A 
ATOM     63  C   UNL A   1      42.331  24.220  26.282  1.00  0.00     0.055 A 
ATOM     64  C   UNL A   1      43.588  26.010  25.292  1.00  0.00     0.041 A 
ATOM     65  F   UNL A   1      43.743  28.069  26.389  1.00  0.00    -0.206 F 
ATOM     66  C   UNL A   1      43.161  24.687  25.260  1.00  0.00     0.022 A 
BRANCH  63  67
ATOM     67  S   UNL A   1      41.971  22.446  26.412  1.00  0.00     0.124 S 
ATOM     68  O   UNL A   1      42.583  22.114  27.698  1.00  0.00    -0.237 OA
ATOM     69  O   UNL A   1      40.514  22.416  26.371  1.00  0.00    -0.237 OA
ATOM     70  O   UNL A   1      42.641  21.872  25.248  1.00  0.00    -0.744 OA
ENDBRANCH  63  67
ENDBRANCH  46  60
BRANCH  47  71
ATOM     71  C   UNL A   1      39.545  32.211  35.068  1.00  0.00     0.023 A 
ATOM     72  C   UNL A   1      40.025  33.486  35.404  1.00  0.00     0.031 A 
ATOM     73  C   UNL A   1      38.523  31.660  35.866  1.00  0.00     0.131 A 
ATOM     74  C   UNL A   1      39.491  34.165  36.512  1.00  0.00     0.055 A 
ATOM     75  C   UNL A   1      37.965  32.358  36.938  1.00  0.00     0.041 A 
ATOM     76  F   UNL A   1      38.028  30.443  35.589  1.00  0.00    -0.206 F 
ATOM     77  C   UNL A   1      38.453  33.617  37.269  1.00  0.00     0.022 A 
BRANCH  74  78
ATOM     78  S   UNL A   1      40.200  35.769  36.975  1.00  0.00     0.124 S 
ATOM     79  O   UNL A   1      39.641  35.966  38.308  1.00  0.00    -0.237 OA
ATOM     80  O   UNL A   1      41.632  35.497  36.913  1.00  0.00    -0.237 OA
ATOM     81  O   UNL A   1      39.695  36.676  35.946  1.00  0.00    -0.744 OA
ENDBRANCH  74  78
ENDBRANCH  47  71
BRANCH  59  82
ATOM     82  C   UNL A   1      44.563  27.407  34.234  1.00  0.00     0.023 A 
ATOM     83  C   UNL A   1      44.373  26.271  35.038  1.00  0.00     0.031 A 
ATOM     84  C   UNL A   1      45.811  28.056  34.288  1.00  0.00     0.131 A 
ATOM     85  C   UNL A   1      45.403  25.839  35.889  1.00  0.00     0.055 A 
ATOM     86  C   UNL A   1      46.849  27.590  35.093  1.00  0.00     0.041 A 
ATOM     87  F   UNL A   1      46.044  29.149  33.543  1.00  0.00    -0.206 F 
ATOM     88  C   UNL A   1      46.645  26.479  35.907  1.00  0.00     0.022 A 
BRANCH  85  89
ATOM     89  S   UNL A   1      45.081  24.463  37.027  1.00  0.00     0.124 S 
ATOM     90  O   UNL A   1      44.549  23.444  36.127  1.00  0.00    -0.237 OA
ATOM     91  O   UNL A   1      46.404  24.197  37.582  1.00  0.00    -0.237 OA
ATOM     92  O   UNL A   1      44.115  25.019  37.973  1.00  0.00    -0.744 OA
ENDBRANCH  85  89
ENDBRANCH  59  82
ENDBRANCH  33  34
ENDBRANCH  26  28
ENDBRANCH  25  26
ENDBRANCH   1  25
TORSDOF 17
ENDMDL
MODEL 3
REMARK VINA RESULT:     -13.2      4.872      9.843
REMARK SMILES C[C@@](NC(=O)[C@H]1COc2ccccc21)(C(=O)OCCOC(=O)c1ccc(-c2c3nc(c(-c4cc(S(=O)(=O)[O-])ccc4F)c4ccc([nH]4)c(-c4cc(S(=O)(=O)[O-])ccc4F)c4nc(c(-c5cc(S(=O)(=O)[O-])ccc5F)c5ccc2[nH]5)C=C4)C=C3)cc1)C(F)(F)F
REMARK SMILES IDX 19 1 18 2 17 3 15 4 16 5 2 6 1 7 3 8 4 9 5 11 6 12 7 13
REMARK SMILES IDX 14 14 8 15 9 16 13 17 10 18 12 19 11 20 86 21 87 22 88 23
REMARK SMILES IDX 89 24 20 25 21 26 22 27 23 28 24 29 85 30 25 31 84 32 26 33
REMARK SMILES IDX 27 34 28 35 78 36 29 37 83 38 77 39 79 40 30 41 82 42 76 43
REMARK SMILES IDX 75 44 31 46 63 47 43 48 62 49 44 50 47 51 61 52 80 53 45 54
REMARK SMILES IDX 46 55 60 57 81 58 48 59 32 60 33 61 41 62 34 63 40 64 42 65
REMARK SMILES IDX 39 66 35 67 36 68 37 69 38 70 64 71 65 72 73 73 66 74 72 75
REMARK SMILES IDX 74 76 71 77 67 78 68 79 69 80 70 81 49 82 50 83 58 84 51 85
REMARK SMILES IDX 57 86 59 87 56 88 52 89 53 90 54 91 55 92
REMARK H PARENT 3 10 79 45 47 56
REMARK Flexibility Score: inf
ROOT
ATOM      1  C   UNL A   1      35.548  21.357  24.769  1.00  0.00     0.275 C 
ENDROOT
BRANCH   1   2
ATOM      2  C   UNL A   1      34.072  20.960  25.657  1.00  0.00     0.274 C 
BRANCH   2   3
ATOM      3  O   UNL A   1      32.437  22.138  25.957  1.00  0.00    -0.460 OA
BRANCH   3   4
ATOM      4  C   UNL A   1      31.881  23.479  26.247  1.00  0.00     0.341 C 
ATOM      5  O   UNL A   1      31.002  23.747  27.072  1.00  0.00    -0.249 OA
BRANCH   4   6
ATOM      6  C   UNL A   1      32.349  24.542  25.329  1.00  0.00     0.231 C 
ATOM      7  C   UNL A   1      32.556  23.897  23.954  1.00  0.00     0.058 C 
BRANCH   6   8
ATOM      8  N   UNL A   1      31.360  25.665  25.336  1.00  0.00    -0.332 N 
ATOM      9  C   UNL A   1      30.651  26.099  24.227  1.00  0.00     0.232 C 
ATOM     10  H   UNL A   1      31.203  26.130  26.190  1.00  0.00     0.164 HD
ATOM     11  O   UNL A   1      29.420  26.008  24.312  1.00  0.00    -0.274 OA
BRANCH   9  12
ATOM     12  C   UNL A   1      31.265  26.994  23.100  1.00  0.00     0.150 C 
ATOM     13  C   UNL A   1      30.060  27.881  22.660  1.00  0.00     0.248 C 
ATOM     14  C   UNL A   1      32.200  28.126  23.453  1.00  0.00     0.010 A 
ATOM     15  O   UNL A   1      29.772  28.929  23.656  1.00  0.00    -0.492 OA
ATOM     16  C   UNL A   1      31.018  29.226  24.161  1.00  0.00     0.123 A 
ATOM     17  C   UNL A   1      33.880  28.101  24.074  1.00  0.00     0.008 A 
ATOM     18  C   UNL A   1      31.360  30.195  25.581  1.00  0.00     0.047 A 
ATOM     19  C   UNL A   1      34.265  29.087  25.614  1.00  0.00     0.001 A 
ATOM     20  C   UNL A   1      32.987  30.146  26.328  1.00  0.00     0.004 A 
ENDBRANCH   9  12
ENDBRANCH   6   8
BRANCH   6  21
ATOM     21  C   UNL A   1      33.758  24.926  25.877  1.00  0.00     0.422 C 
ATOM     22  F   UNL A   1      34.697  25.029  24.906  1.00  0.00    -0.168 F 
ATOM     23  F   UNL A   1      33.704  26.152  26.465  1.00  0.00    -0.168 F 
ATOM     24  F   UNL A   1      34.208  24.070  26.820  1.00  0.00    -0.168 F 
ENDBRANCH   6  21
ENDBRANCH   4   6
ENDBRANCH   3   4
ENDBRANCH   2   3
ENDBRANCH   1   2
BRANCH   1  25
ATOM     25  O   UNL A   1      36.548  22.243  25.396  1.00  0.00    -0.458 OA
BRANCH  25  26
ATOM     26  C   UNL A   1      37.821  21.759  25.555  1.00  0.00     0.338 C 
ATOM     27  O   UNL A   1      38.221  20.686  25.124  1.00  0.00    -0.246 OA
BRANCH  26  28
ATOM     28  C   UNL A   1      38.759  22.742  26.206  1.00  0.00     0.060 A 
ATOM     29  C   UNL A   1      39.829  22.350  27.025  1.00  0.00     0.016 A 
ATOM     30  C   UNL A   1      38.466  24.101  26.154  1.00  0.00     0.016 A 
ATOM     31  C   UNL A   1      40.656  23.257  27.696  1.00  0.00     0.010 A 
ATOM     32  C   UNL A   1      39.290  25.025  26.820  1.00  0.00     0.010 A 
ATOM     33  C   UNL A   1      40.407  24.614  27.575  1.00  0.00    -0.014 A 
BRANCH  33  34
ATOM     34  C   UNL A   1      41.247  25.640  28.244  1.00  0.00     0.031 A 
ATOM     35  C   UNL A   1      40.572  26.729  29.013  1.00  0.00     0.074 A 
ATOM     36  C   UNL A   1      42.575  25.678  28.035  1.00  0.00     0.049 A 
ATOM     37  N   UNL A   1      40.964  27.951  29.244  1.00  0.00    -0.248 NA
ATOM     38  C   UNL A   1      39.254  26.389  29.565  1.00  0.00     0.031 C 
ATOM     39  C   UNL A   1      43.370  24.619  27.415  1.00  0.00     0.029 A 
ATOM     40  N   UNL A   1      43.477  26.694  28.255  1.00  0.00    -0.354 N 
ATOM     41  C   UNL A   1      39.905  28.563  29.905  1.00  0.00     0.074 A 
ATOM     42  C   UNL A   1      38.867  27.560  30.049  1.00  0.00     0.031 C 
ATOM     43  C   UNL A   1      44.622  25.069  27.228  1.00  0.00     0.029 A 
ATOM     44  C   UNL A   1      44.686  26.470  27.633  1.00  0.00     0.049 A 
ATOM     45  H   UNL A   1      43.280  27.492  28.796  1.00  0.00     0.167 HD
ATOM     46  C   UNL A   1      39.813  29.854  30.314  1.00  0.00     0.034 A 
ATOM     47  C   UNL A   1      45.687  27.322  27.329  1.00  0.00     0.034 A 
ATOM     48  C   UNL A   1      40.884  30.810  30.147  1.00  0.00     0.049 A 
ATOM     49  C   UNL A   1      45.548  28.774  27.711  1.00  0.00     0.074 A 
ATOM     50  C   UNL A   1      40.927  32.139  30.528  1.00  0.00     0.029 A 
ATOM     51  N   UNL A   1      42.104  30.536  29.536  1.00  0.00    -0.354 N 
ATOM     52  N   UNL A   1      44.530  29.387  28.271  1.00  0.00    -0.248 NA
ATOM     53  C   UNL A   1      46.688  29.651  27.414  1.00  0.00     0.031 C 
ATOM     54  C   UNL A   1      42.137  32.685  30.082  1.00  0.00     0.029 A 
ATOM     55  C   UNL A   1      42.891  31.677  29.500  1.00  0.00     0.049 A 
ATOM     56  H   UNL A   1      42.371  29.658  29.180  1.00  0.00     0.167 HD
ATOM     57  C   UNL A   1      44.918  30.715  28.422  1.00  0.00     0.074 A 
ATOM     58  C   UNL A   1      46.264  30.813  27.891  1.00  0.00     0.031 C 
ATOM     59  C   UNL A   1      44.231  31.755  28.961  1.00  0.00     0.034 A 
BRANCH  46  60
ATOM     60  C   UNL A   1      38.485  30.311  30.874  1.00  0.00     0.023 A 
ATOM     61  C   UNL A   1      37.522  30.966  30.087  1.00  0.00     0.031 A 
ATOM     62  C   UNL A   1      38.209  30.154  32.247  1.00  0.00     0.131 A 
ATOM     63  C   UNL A   1      36.387  31.528  30.692  1.00  0.00     0.055 A 
ATOM     64  C   UNL A   1      37.031  30.630  32.824  1.00  0.00     0.041 A 
ATOM     65  F   UNL A   1      39.096  29.558  33.059  1.00  0.00    -0.206 F 
ATOM     66  C   UNL A   1      36.121  31.343  32.051  1.00  0.00     0.022 A 
BRANCH  63  67
ATOM     67  S   UNL A   1      35.362  32.667  29.719  1.00  0.00     0.124 S 
ATOM     68  O   UNL A   1      35.190  31.920  28.475  1.00  0.00    -0.237 OA
ATOM     69  O   UNL A   1      34.172  32.808  30.549  1.00  0.00    -0.237 OA
ATOM     70  O   UNL A   1      36.191  33.865  29.606  1.00  0.00    -0.744 OA
ENDBRANCH  63  67
ENDBRANCH  46  60
BRANCH  47  71
ATOM     71  C   UNL A   1      46.853  26.837  26.537  1.00  0.00     0.023 A 
ATOM     72  C   UNL A   1      48.000  26.328  27.163  1.00  0.00     0.031 A 
ATOM     73  C   UNL A   1      46.825  26.859  25.128  1.00  0.00     0.131 A 
ATOM     74  C   UNL A   1      49.076  25.870  26.385  1.00  0.00     0.055 A 
ATOM     75  C   UNL A   1      47.879  26.361  24.360  1.00  0.00     0.041 A 
ATOM     76  F   UNL A   1      45.752  27.337  24.477  1.00  0.00    -0.206 F 
ATOM     77  C   UNL A   1      49.016  25.867  24.990  1.00  0.00     0.022 A 
BRANCH  74  78
ATOM     78  S   UNL A   1      50.581  25.308  27.227  1.00  0.00     0.124 S 
ATOM     79  O   UNL A   1      50.995  26.515  27.933  1.00  0.00    -0.237 OA
ATOM     80  O   UNL A   1      50.077  24.220  28.056  1.00  0.00    -0.237 OA
ATOM     81  O   UNL A   1      51.454  24.897  26.128  1.00  0.00    -0.744 OA
ENDBRANCH  74  78
ENDBRANCH  47  71
BRANCH  59  82
ATOM     82  C   UNL A   1      44.953  33.076  29.071  1.00  0.00     0.023 A 
ATOM     83  C   UNL A   1      44.872  34.060  28.071  1.00  0.00     0.031 A 
ATOM     84  C   UNL A   1      45.724  33.355  30.215  1.00  0.00     0.131 A 
ATOM     85  C   UNL A   1      45.580  35.263  28.219  1.00  0.00     0.055 A 
ATOM     86  C   UNL A   1      46.379  34.574  30.381  1.00  0.00     0.041 A 
ATOM     87  F   UNL A   1      45.838  32.448  31.199  1.00  0.00    -0.206 F 
ATOM     88  C   UNL A   1      46.317  35.534  29.375  1.00  0.00     0.022 A 
BRANCH  85  89
ATOM     89  S   UNL A   1      45.584  36.453  26.848  1.00  0.00     0.124 S 
ATOM     90  O   UNL A   1      46.051  35.631  25.736  1.00  0.00    -0.237 OA
ATOM     91  O   UNL A   1      44.187  36.871  26.791  1.00  0.00    -0.237 OA
ATOM     92  O   UNL A   1      46.520  37.484  27.291  1.00  0.00    -0.744 OA
ENDBRANCH  85  89
ENDBRANCH  59  82
ENDBRANCH  33  34
ENDBRANCH  26  28
ENDBRANCH  25  26
ENDBRANCH   1  25
TORSDOF 17
ENDMDL
