MODEL 1
REMARK VINA RESULT:     -11.6      0.000      0.000
REMARK SMILES CC1(C)CC[NH+](CC[C@H]2CCC[C@]2([NH3+])C(=O)OCCOC(=O)c2ccc(-c3c4nc(c(-c5cc(S(=O)(=O)[O-])ccc5F)c5ccc([nH]5)c(-c5cc(S(=O)(=O)[O-])ccc5F)c5nc(c(-c6cc(S(=O)(=O)[O-])ccc6F)c6ccc3[nH]6)C=C5)C=C4)cc2)CC1
REMARK SMILES IDX 18 1 17 2 15 3 16 4 13 5 9 6 10 7 11 8 12 9 8 10 7 11 6 12
REMARK SMILES IDX 1 13 2 14 3 15 4 16 87 17 5 18 86 19 14 21 19 25 20 26 21 27
REMARK SMILES IDX 22 28 23 29 24 30 85 31 25 32 84 33 26 34 27 35 28 36 78 37
REMARK SMILES IDX 29 38 83 39 77 40 79 41 30 42 82 43 76 44 75 45 31 47 63 48
REMARK SMILES IDX 43 49 62 50 44 51 47 52 61 53 80 54 45 55 46 56 60 58 81 59
REMARK SMILES IDX 48 60 32 61 33 62 41 63 34 64 40 65 42 66 39 67 35 68 36 69
REMARK SMILES IDX 37 70 38 71 64 72 65 73 73 74 66 75 72 76 74 77 71 78 67 79
REMARK SMILES IDX 68 80 69 81 70 82 49 83 50 84 58 85 51 86 57 87 59 88 56 89
REMARK SMILES IDX 52 90 53 91 54 92 55 93
REMARK H PARENT 6 20 14 22 14 23 14 24 79 46 47 57
REMARK Flexibility Score: inf
ROOT
ATOM      1  C   UNL A   1      34.772  20.621  25.182  1.00  0.00     0.274 C 
ENDROOT
BRANCH   1   2
ATOM      2  O   UNL A   1      33.939  21.422  24.308  1.00  0.00    -0.457 OA
BRANCH   2   3
ATOM      3  C   UNL A   1      32.730  21.821  24.813  1.00  0.00     0.368 C 
ATOM      4  O   UNL A   1      31.930  21.038  25.320  1.00  0.00    -0.245 OA
BRANCH   3   5
ATOM      5  C   UNL A   1      32.437  23.356  24.588  1.00  0.00     0.195 C 
ATOM      6  C   UNL A   1      33.455  24.013  23.593  1.00  0.00     0.068 C 
ATOM      7  C   UNL A   1      34.371  24.879  24.503  1.00  0.00     0.011 C 
ATOM      8  C   UNL A   1      34.076  24.470  25.940  1.00  0.00     0.008 C 
ATOM      9  C   UNL A   1      32.604  24.131  25.899  1.00  0.00     0.081 C 
BRANCH   6  10
ATOM     10  C   UNL A   1      32.891  24.834  22.400  1.00  0.00     0.072 C 
BRANCH  10  11
ATOM     11  C   UNL A   1      33.560  26.210  22.194  1.00  0.00     0.262 C 
BRANCH  11  12
ATOM     12  N   UNL A   1      32.950  27.332  22.878  1.00  0.00    -0.335 N 
ATOM     13  C   UNL A   1      31.355  29.811  25.245  1.00  0.00     0.011 C 
ATOM     14  C   UNL A   1      31.987  28.422  25.424  1.00  0.00    -0.025 C 
ATOM     15  C   UNL A   1      31.863  28.032  26.913  1.00  0.00     0.011 C 
ATOM     16  C   UNL A   1      31.210  27.392  24.581  1.00  0.00     0.068 C 
ATOM     17  C   UNL A   1      33.484  28.437  25.030  1.00  0.00     0.068 C 
ATOM     18  C   UNL A   1      31.527  27.399  23.090  1.00  0.00     0.262 C 
ATOM     19  C   UNL A   1      33.754  28.344  23.525  1.00  0.00     0.262 C 
ATOM     20  H   UNL A   1      33.040  27.566  21.888  1.00  0.00     0.348 HD
ENDBRANCH  11  12
ENDBRANCH  10  11
ENDBRANCH   6  10
BRANCH   5  21
ATOM     21  N   UNL A   1      31.016  23.477  24.217  1.00  0.00    -0.343 N 
ATOM     22  H   UNL A   1      30.752  22.694  23.619  1.00  0.00     0.345 HD
ATOM     23  H   UNL A   1      30.869  24.352  23.714  1.00  0.00     0.345 HD
ATOM     24  H   UNL A   1      30.443  23.469  25.060  1.00  0.00     0.345 HD
ENDBRANCH   5  21
ENDBRANCH   3   5
ENDBRANCH   2   3
ENDBRANCH   1   2
BRANCH   1  25
ATOM     25  C   UNL A   1      35.670  21.496  26.050  1.00  0.00     0.275 C 
BRANCH  25  26
ATOM     26  O   UNL A   1      36.720  21.994  25.217  1.00  0.00    -0.458 OA
BRANCH  26  27
ATOM     27  C   UNL A   1      37.962  21.554  25.516  1.00  0.00     0.338 C 
ATOM     28  O   UNL A   1      38.484  20.515  25.141  1.00  0.00    -0.246 OA
BRANCH  27  29
ATOM     29  C   UNL A   1      38.658  22.600  26.291  1.00  0.00     0.060 A 
ATOM     30  C   UNL A   1      38.277  23.934  26.138  1.00  0.00     0.016 A 
ATOM     31  C   UNL A   1      39.781  22.283  27.047  1.00  0.00     0.016 A 
ATOM     32  C   UNL A   1      39.081  24.955  26.628  1.00  0.00     0.010 A 
ATOM     33  C   UNL A   1      40.513  23.310  27.650  1.00  0.00     0.010 A 
ATOM     34  C   UNL A   1      40.199  24.664  27.412  1.00  0.00    -0.014 A 
BRANCH  34  35
ATOM     35  C   UNL A   1      41.083  25.745  27.930  1.00  0.00     0.031 A 
ATOM     36  C   UNL A   1      40.489  26.802  28.821  1.00  0.00     0.074 A 
ATOM     37  C   UNL A   1      42.394  25.804  27.619  1.00  0.00     0.049 A 
ATOM     38  N   UNL A   1      40.892  28.023  29.045  1.00  0.00    -0.248 NA
ATOM     39  C   UNL A   1      39.247  26.438  29.521  1.00  0.00     0.031 C 
ATOM     40  C   UNL A   1      43.148  24.794  26.872  1.00  0.00     0.029 A 
ATOM     41  N   UNL A   1      43.330  26.773  27.890  1.00  0.00    -0.354 N 
ATOM     42  C   UNL A   1      39.899  28.611  29.825  1.00  0.00     0.074 A 
ATOM     43  C   UNL A   1      38.890  27.599  30.053  1.00  0.00     0.031 C 
ATOM     44  C   UNL A   1      44.429  25.176  26.777  1.00  0.00     0.029 A 
ATOM     45  C   UNL A   1      44.557  26.521  27.317  1.00  0.00     0.049 A 
ATOM     46  H   UNL A   1      43.143  27.569  28.440  1.00  0.00     0.167 HD
ATOM     47  C   UNL A   1      39.840  29.889  30.274  1.00  0.00     0.034 A 
ATOM     48  C   UNL A   1      45.632  27.315  27.154  1.00  0.00     0.034 A 
ATOM     49  C   UNL A   1      40.908  30.842  30.079  1.00  0.00     0.049 A 
ATOM     50  C   UNL A   1      45.541  28.742  27.624  1.00  0.00     0.074 A 
ATOM     51  C   UNL A   1      40.969  32.171  30.459  1.00  0.00     0.029 A 
ATOM     52  N   UNL A   1      42.123  30.548  29.470  1.00  0.00    -0.354 N 
ATOM     53  N   UNL A   1      44.535  29.356  28.204  1.00  0.00    -0.248 NA
ATOM     54  C   UNL A   1      46.714  29.591  27.385  1.00  0.00     0.031 C 
ATOM     55  C   UNL A   1      42.202  32.690  30.042  1.00  0.00     0.029 A 
ATOM     56  C   UNL A   1      42.937  31.670  29.459  1.00  0.00     0.049 A 
ATOM     57  H   UNL A   1      42.371  29.669  29.100  1.00  0.00     0.167 HD
ATOM     58  C   UNL A   1      44.956  30.666  28.402  1.00  0.00     0.074 A 
ATOM     59  C   UNL A   1      46.315  30.744  27.901  1.00  0.00     0.031 C 
ATOM     60  C   UNL A   1      44.283  31.716  28.940  1.00  0.00     0.034 A 
BRANCH  47  61
ATOM     61  C   UNL A   1      38.551  30.342  30.919  1.00  0.00     0.023 A 
ATOM     62  C   UNL A   1      37.528  30.984  30.202  1.00  0.00     0.031 A 
ATOM     63  C   UNL A   1      38.371  30.170  32.305  1.00  0.00     0.131 A 
ATOM     64  C   UNL A   1      36.410  31.496  30.882  1.00  0.00     0.055 A 
ATOM     65  C   UNL A   1      37.220  30.610  32.963  1.00  0.00     0.041 A 
ATOM     66  F   UNL A   1      39.322  29.587  33.052  1.00  0.00    -0.206 F 
ATOM     67  C   UNL A   1      36.238  31.293  32.254  1.00  0.00     0.022 A 
BRANCH  64  68
ATOM     68  S   UNL A   1      35.253  32.561  29.976  1.00  0.00     0.124 S 
ATOM     69  O   UNL A   1      36.128  33.650  29.546  1.00  0.00    -0.237 OA
ATOM     70  O   UNL A   1      34.769  31.677  28.923  1.00  0.00    -0.237 OA
ATOM     71  O   UNL A   1      34.262  32.929  30.985  1.00  0.00    -0.744 OA
ENDBRANCH  64  68
ENDBRANCH  47  61
BRANCH  48  72
ATOM     72  C   UNL A   1      46.827  26.820  26.410  1.00  0.00     0.023 A 
ATOM     73  C   UNL A   1      47.933  26.283  27.086  1.00  0.00     0.031 A 
ATOM     74  C   UNL A   1      46.883  26.885  25.005  1.00  0.00     0.131 A 
ATOM     75  C   UNL A   1      49.054  25.850  26.359  1.00  0.00     0.055 A 
ATOM     76  C   UNL A   1      47.975  26.400  24.284  1.00  0.00     0.041 A 
ATOM     77  F   UNL A   1      45.857  27.397  24.306  1.00  0.00    -0.206 F 
ATOM     78  C   UNL A   1      49.073  25.886  24.963  1.00  0.00     0.022 A 
BRANCH  75  79
ATOM     79  S   UNL A   1      50.522  25.295  27.268  1.00  0.00     0.124 S 
ATOM     80  O   UNL A   1      49.986  24.188  28.053  1.00  0.00    -0.237 OA
ATOM     81  O   UNL A   1      51.431  24.932  26.186  1.00  0.00    -0.237 OA
ATOM     82  O   UNL A   1      50.912  26.475  28.037  1.00  0.00    -0.744 OA
ENDBRANCH  75  79
ENDBRANCH  48  72
BRANCH  60  83
ATOM     83  C   UNL A   1      45.040  33.011  29.048  1.00  0.00     0.023 A 
ATOM     84  C   UNL A   1      45.132  33.901  27.965  1.00  0.00     0.031 A 
ATOM     85  C   UNL A   1      45.698  33.343  30.244  1.00  0.00     0.131 A 
ATOM     86  C   UNL A   1      45.912  35.061  28.083  1.00  0.00     0.055 A 
ATOM     87  C   UNL A   1      46.431  34.522  30.372  1.00  0.00     0.041 A 
ATOM     88  F   UNL A   1      45.641  32.523  31.305  1.00  0.00    -0.206 F 
ATOM     89  C   UNL A   1      46.551  35.382  29.283  1.00  0.00     0.022 A 
BRANCH  86  90
ATOM     90  S   UNL A   1      46.146  36.105  26.619  1.00  0.00     0.124 S 
ATOM     91  O   UNL A   1      47.599  36.226  26.562  1.00  0.00    -0.237 OA
ATOM     92  O   UNL A   1      45.531  35.309  25.563  1.00  0.00    -0.237 OA
ATOM     93  O   UNL A   1      45.435  37.336  26.960  1.00  0.00    -0.744 OA
ENDBRANCH  86  90
ENDBRANCH  60  83
ENDBRANCH  34  35
ENDBRANCH  27  29
ENDBRANCH  26  27
ENDBRANCH  25  26
ENDBRANCH   1  25
TORSDOF 18
ENDMDL
MODEL 2
REMARK VINA RESULT:     -11.6      5.056      9.890
REMARK SMILES CC1(C)CC[NH+](CC[C@H]2CCC[C@]2([NH3+])C(=O)OCCOC(=O)c2ccc(-c3c4nc(c(-c5cc(S(=O)(=O)[O-])ccc5F)c5ccc([nH]5)c(-c5cc(S(=O)(=O)[O-])ccc5F)c5nc(c(-c6cc(S(=O)(=O)[O-])ccc6F)c6ccc3[nH]6)C=C5)C=C4)cc2)CC1
REMARK SMILES IDX 18 1 17 2 15 3 16 4 13 5 9 6 10 7 11 8 12 9 8 10 7 11 6 12
REMARK SMILES IDX 1 13 2 14 3 15 4 16 87 17 5 18 86 19 14 21 19 25 20 26 21 27
REMARK SMILES IDX 22 28 23 29 24 30 85 31 25 32 84 33 26 34 27 35 28 36 78 37
REMARK SMILES IDX 29 38 83 39 77 40 79 41 30 42 82 43 76 44 75 45 31 47 63 48
REMARK SMILES IDX 43 49 62 50 44 51 47 52 61 53 80 54 45 55 46 56 60 58 81 59
REMARK SMILES IDX 48 60 32 61 33 62 41 63 34 64 40 65 42 66 39 67 35 68 36 69
REMARK SMILES IDX 37 70 38 71 64 72 65 73 73 74 66 75 72 76 74 77 71 78 67 79
REMARK SMILES IDX 68 80 69 81 70 82 49 83 50 84 58 85 51 86 57 87 59 88 56 89
REMARK SMILES IDX 52 90 53 91 54 92 55 93
REMARK H PARENT 6 20 14 22 14 23 14 24 79 46 47 57
REMARK Flexibility Score: inf
ROOT
ATOM      1  C   UNL A   1      31.469  29.113  24.144  1.00  0.00     0.274 C 
ENDROOT
BRANCH   1   2
ATOM      2  O   UNL A   1      30.655  27.926  23.981  1.00  0.00    -0.457 OA
BRANCH   2   3
ATOM      3  C   UNL A   1      31.058  27.035  23.021  1.00  0.00     0.368 C 
ATOM      4  O   UNL A   1      30.895  27.233  21.820  1.00  0.00    -0.245 OA
BRANCH   3   5
ATOM      5  C   UNL A   1      31.657  25.703  23.621  1.00  0.00     0.195 C 
ATOM      6  C   UNL A   1      31.506  25.635  25.180  1.00  0.00     0.068 C 
ATOM      7  C   UNL A   1      32.946  25.879  25.712  1.00  0.00     0.011 C 
ATOM      8  C   UNL A   1      33.774  26.368  24.531  1.00  0.00     0.008 C 
ATOM      9  C   UNL A   1      33.165  25.629  23.362  1.00  0.00     0.081 C 
BRANCH   6  10
ATOM     10  C   UNL A   1      30.873  24.359  25.803  1.00  0.00     0.072 C 
BRANCH  10  11
ATOM     11  C   UNL A   1      31.761  23.644  26.843  1.00  0.00     0.262 C 
BRANCH  11  12
ATOM     12  N   UNL A   1      32.501  22.490  26.375  1.00  0.00    -0.335 N 
ATOM     13  C   UNL A   1      34.878  19.979  24.846  1.00  0.00     0.011 C 
ATOM     14  C   UNL A   1      34.894  21.509  24.992  1.00  0.00    -0.025 C 
ATOM     15  C   UNL A   1      36.173  22.038  24.308  1.00  0.00     0.011 C 
ATOM     16  C   UNL A   1      33.669  22.106  24.272  1.00  0.00     0.068 C 
ATOM     17  C   UNL A   1      34.911  21.924  26.484  1.00  0.00     0.068 C 
ATOM     18  C   UNL A   1      32.351  21.997  25.031  1.00  0.00     0.262 C 
ATOM     19  C   UNL A   1      33.545  21.892  27.176  1.00  0.00     0.262 C 
ATOM     20  H   UNL A   1      31.647  22.165  26.829  1.00  0.00     0.348 HD
ENDBRANCH  11  12
ENDBRANCH  10  11
ENDBRANCH   6  10
BRANCH   5  21
ATOM     21  N   UNL A   1      31.056  24.583  22.874  1.00  0.00    -0.343 N 
ATOM     22  H   UNL A   1      31.758  24.162  22.266  1.00  0.00     0.345 HD
ATOM     23  H   UNL A   1      30.281  24.929  22.308  1.00  0.00     0.345 HD
ATOM     24  H   UNL A   1      30.711  23.883  23.531  1.00  0.00     0.345 HD
ENDBRANCH   5  21
ENDBRANCH   3   5
ENDBRANCH   2   3
ENDBRANCH   1   2
BRANCH   1  25
ATOM     25  C   UNL A   1      31.543  29.540  25.606  1.00  0.00     0.275 C 
BRANCH  25  26
ATOM     26  O   UNL A   1      32.913  29.829  25.900  1.00  0.00    -0.458 OA
BRANCH  26  27
ATOM     27  C   UNL A   1      33.121  30.765  26.852  1.00  0.00     0.338 C 
ATOM     28  O   UNL A   1      32.290  31.518  27.337  1.00  0.00    -0.246 OA
BRANCH  27  29
ATOM     29  C   UNL A   1      34.518  30.660  27.316  1.00  0.00     0.060 A 
ATOM     30  C   UNL A   1      35.065  29.400  27.566  1.00  0.00     0.016 A 
ATOM     31  C   UNL A   1      35.234  31.805  27.651  1.00  0.00     0.016 A 
ATOM     32  C   UNL A   1      36.262  29.279  28.260  1.00  0.00     0.010 A 
ATOM     33  C   UNL A   1      36.500  31.675  28.231  1.00  0.00     0.010 A 
ATOM     34  C   UNL A   1      37.013  30.410  28.584  1.00  0.00    -0.014 A 
BRANCH  34  35
ATOM     35  C   UNL A   1      38.289  30.300  29.345  1.00  0.00     0.031 A 
ATOM     36  C   UNL A   1      39.398  29.455  28.780  1.00  0.00     0.074 A 
ATOM     37  C   UNL A   1      38.472  30.931  30.523  1.00  0.00     0.049 A 
ATOM     38  N   UNL A   1      40.387  28.863  29.394  1.00  0.00    -0.248 NA
ATOM     39  C   UNL A   1      39.358  29.217  27.329  1.00  0.00     0.031 C 
ATOM     40  C   UNL A   1      37.548  31.882  31.144  1.00  0.00     0.029 A 
ATOM     41  N   UNL A   1      39.511  30.855  31.421  1.00  0.00    -0.354 N 
ATOM     42  C   UNL A   1      41.025  28.093  28.424  1.00  0.00     0.074 A 
ATOM     43  C   UNL A   1      40.322  28.319  27.178  1.00  0.00     0.031 C 
ATOM     44  C   UNL A   1      38.073  32.325  32.295  1.00  0.00     0.029 A 
ATOM     45  C   UNL A   1      39.292  31.581  32.570  1.00  0.00     0.049 A 
ATOM     46  H   UNL A   1      40.330  30.333  31.257  1.00  0.00     0.167 HD
ATOM     47  C   UNL A   1      42.081  27.258  28.585  1.00  0.00     0.034 A 
ATOM     48  C   UNL A   1      39.939  31.576  33.751  1.00  0.00     0.034 A 
ATOM     49  C   UNL A   1      42.792  27.122  29.835  1.00  0.00     0.049 A 
ATOM     50  C   UNL A   1      41.087  30.619  33.929  1.00  0.00     0.074 A 
ATOM     51  C   UNL A   1      43.859  26.297  30.144  1.00  0.00     0.029 A 
ATOM     52  N   UNL A   1      42.518  27.860  30.981  1.00  0.00    -0.354 N 
ATOM     53  N   UNL A   1      41.583  29.758  33.071  1.00  0.00    -0.248 NA
ATOM     54  C   UNL A   1      41.736  30.607  35.245  1.00  0.00     0.031 C 
ATOM     55  C   UNL A   1      44.202  26.507  31.486  1.00  0.00     0.029 A 
ATOM     56  C   UNL A   1      43.391  27.508  31.998  1.00  0.00     0.049 A 
ATOM     57  H   UNL A   1      41.807  28.537  31.059  1.00  0.00     0.167 HD
ATOM     58  C   UNL A   1      42.607  29.101  33.744  1.00  0.00     0.074 A 
ATOM     59  C   UNL A   1      42.671  29.685  35.070  1.00  0.00     0.031 C 
ATOM     60  C   UNL A   1      43.419  28.102  33.314  1.00  0.00     0.034 A 
BRANCH  47  61
ATOM     61  C   UNL A   1      42.451  26.370  27.420  1.00  0.00     0.023 A 
ATOM     62  C   UNL A   1      41.996  25.046  27.300  1.00  0.00     0.031 A 
ATOM     63  C   UNL A   1      43.330  26.852  26.432  1.00  0.00     0.131 A 
ATOM     64  C   UNL A   1      42.478  24.231  26.263  1.00  0.00     0.055 A 
ATOM     65  C   UNL A   1      43.744  26.062  25.358  1.00  0.00     0.041 A 
ATOM     66  F   UNL A   1      43.822  28.100  26.503  1.00  0.00    -0.206 F 
ATOM     67  C   UNL A   1      43.330  24.736  25.277  1.00  0.00     0.022 A 
BRANCH  64  68
ATOM     68  S   UNL A   1      42.094  22.458  26.300  1.00  0.00     0.124 S 
ATOM     69  O   UNL A   1      40.634  22.470  26.275  1.00  0.00    -0.237 OA
ATOM     70  O   UNL A   1      42.749  21.968  25.093  1.00  0.00    -0.237 OA
ATOM     71  O   UNL A   1      42.685  22.005  27.557  1.00  0.00    -0.744 OA
ENDBRANCH  64  68
ENDBRANCH  47  61
BRANCH  48  72
ATOM     72  C   UNL A   1      39.441  32.408  34.885  1.00  0.00     0.023 A 
ATOM     73  C   UNL A   1      38.809  31.824  35.993  1.00  0.00     0.031 A 
ATOM     74  C   UNL A   1      39.584  33.809  34.871  1.00  0.00     0.131 A 
ATOM     75  C   UNL A   1      38.327  32.637  37.032  1.00  0.00     0.055 A 
ATOM     76  C   UNL A   1      39.156  34.607  35.934  1.00  0.00     0.041 A 
ATOM     77  F   UNL A   1      40.175  34.422  33.834  1.00  0.00    -0.206 F 
ATOM     78  C   UNL A   1      38.515  34.021  37.019  1.00  0.00     0.022 A 
BRANCH  75  79
ATOM     79  S   UNL A   1      37.388  31.866  38.378  1.00  0.00     0.124 S 
ATOM     80  O   UNL A   1      38.302  32.022  39.505  1.00  0.00    -0.237 OA
ATOM     81  O   UNL A   1      36.181  32.684  38.415  1.00  0.00    -0.237 OA
ATOM     82  O   UNL A   1      37.196  30.493  37.917  1.00  0.00    -0.744 OA
ENDBRANCH  75  79
ENDBRANCH  48  72
BRANCH  60  83
ATOM     83  C   UNL A   1      44.466  27.625  34.284  1.00  0.00     0.023 A 
ATOM     84  C   UNL A   1      44.170  26.676  35.276  1.00  0.00     0.031 A 
ATOM     85  C   UNL A   1      45.768  28.150  34.227  1.00  0.00     0.131 A 
ATOM     86  C   UNL A   1      45.154  26.318  36.209  1.00  0.00     0.055 A 
ATOM     87  C   UNL A   1      46.756  27.753  35.126  1.00  0.00     0.041 A 
ATOM     88  F   UNL A   1      46.096  29.062  33.297  1.00  0.00    -0.206 F 
ATOM     89  C   UNL A   1      46.447  26.840  36.132  1.00  0.00     0.022 A 
BRANCH  86  90
ATOM     90  S   UNL A   1      44.698  25.217  37.576  1.00  0.00     0.124 S 
ATOM     91  O   UNL A   1      45.530  25.723  38.663  1.00  0.00    -0.237 OA
ATOM     92  O   UNL A   1      43.265  25.455  37.707  1.00  0.00    -0.237 OA
ATOM     93  O   UNL A   1      45.062  23.890  37.083  1.00  0.00    -0.744 OA
ENDBRANCH  86  90
ENDBRANCH  60  83
ENDBRANCH  34  35
ENDBRANCH  27  29
ENDBRANCH  26  27
ENDBRANCH  25  26
ENDBRANCH   1  25
TORSDOF 18
ENDMDL
MODEL 3
REMARK VINA RESULT:     -11.5      4.694      9.834
REMARK SMILES CC1(C)CC[NH+](CC[C@H]2CCC[C@]2([NH3+])C(=O)OCCOC(=O)c2ccc(-c3c4nc(c(-c5cc(S(=O)(=O)[O-])ccc5F)c5ccc([nH]5)c(-c5cc(S(=O)(=O)[O-])ccc5F)c5nc(c(-c6cc(S(=O)(=O)[O-])ccc6F)c6ccc3[nH]6)C=C5)C=C4)cc2)CC1
REMARK SMILES IDX 18 1 17 2 15 3 16 4 13 5 9 6 10 7 11 8 12 9 8 10 7 11 6 12
REMARK SMILES IDX 1 13 2 14 3 15 4 16 87 17 5 18 86 19 14 21 19 25 20 26 21 27
REMARK SMILES IDX 22 28 23 29 24 30 85 31 25 32 84 33 26 34 27 35 28 36 78 37
REMARK SMILES IDX 29 38 83 39 77 40 79 41 30 42 82 43 76 44 75 45 31 47 63 48
REMARK SMILES IDX 43 49 62 50 44 51 47 52 61 53 80 54 45 55 46 56 60 58 81 59
REMARK SMILES IDX 48 60 32 61 33 62 41 63 34 64 40 65 42 66 39 67 35 68 36 69
REMARK SMILES IDX 37 70 38 71 64 72 65 73 73 74 66 75 72 76 74 77 71 78 67 79
REMARK SMILES IDX 68 80 69 81 70 82 49 83 50 84 58 85 51 86 57 87 59 88 56 89
REMARK SMILES IDX 52 90 53 91 54 92 55 93
REMARK H PARENT 6 20 14 22 14 23 14 24 79 46 47 57
REMARK Flexibility Score: inf
ROOT
ATOM      1  C   UNL A   1      31.084  29.311  24.635  1.00  0.00     0.274 C 
ENDROOT
BRANCH   1   2
ATOM      2  O   UNL A   1      30.770  27.997  24.114  1.00  0.00    -0.457 OA
BRANCH   2   3
ATOM      3  C   UNL A   1      31.738  27.393  23.355  1.00  0.00     0.368 C 
ATOM      4  O   UNL A   1      32.227  27.921  22.359  1.00  0.00    -0.245 OA
BRANCH   3   5
ATOM      5  C   UNL A   1      32.080  25.927  23.832  1.00  0.00     0.195 C 
ATOM      6  C   UNL A   1      31.797  25.722  25.361  1.00  0.00     0.068 C 
ATOM      7  C   UNL A   1      33.211  25.678  26.006  1.00  0.00     0.011 C 
ATOM      8  C   UNL A   1      34.194  26.150  24.943  1.00  0.00     0.008 C 
ATOM      9  C   UNL A   1      33.576  25.643  23.661  1.00  0.00     0.081 C 
BRANCH   6  10
ATOM     10  C   UNL A   1      30.932  24.504  25.791  1.00  0.00     0.072 C 
BRANCH  10  11
ATOM     11  C   UNL A   1      31.574  23.612  26.875  1.00  0.00     0.262 C 
BRANCH  11  12
ATOM     12  N   UNL A   1      32.337  22.474  26.404  1.00  0.00    -0.335 N 
ATOM     13  C   UNL A   1      34.759  20.014  24.861  1.00  0.00     0.011 C 
ATOM     14  C   UNL A   1      34.738  21.545  25.000  1.00  0.00    -0.025 C 
ATOM     15  C   UNL A   1      35.997  22.102  24.300  1.00  0.00     0.011 C 
ATOM     16  C   UNL A   1      33.492  22.108  24.291  1.00  0.00     0.068 C 
ATOM     17  C   UNL A   1      34.761  21.968  26.490  1.00  0.00     0.068 C 
ATOM     18  C   UNL A   1      32.185  21.970  25.064  1.00  0.00     0.262 C 
ATOM     19  C   UNL A   1      33.404  21.905  27.197  1.00  0.00     0.262 C 
ATOM     20  H   UNL A   1      31.496  22.130  26.869  1.00  0.00     0.348 HD
ENDBRANCH  11  12
ENDBRANCH  10  11
ENDBRANCH   6  10
BRANCH   5  21
ATOM     21  N   UNL A   1      31.379  25.001  22.925  1.00  0.00    -0.343 N 
ATOM     22  H   UNL A   1      30.407  24.906  23.219  1.00  0.00     0.345 HD
ATOM     23  H   UNL A   1      31.833  24.088  22.955  1.00  0.00     0.345 HD
ATOM     24  H   UNL A   1      31.412  25.366  21.974  1.00  0.00     0.345 HD
ENDBRANCH   5  21
ENDBRANCH   3   5
ENDBRANCH   2   3
ENDBRANCH   1   2
BRANCH   1  25
ATOM     25  C   UNL A   1      32.558  29.423  25.011  1.00  0.00     0.275 C 
BRANCH  25  26
ATOM     26  O   UNL A   1      32.636  29.476  26.438  1.00  0.00    -0.458 OA
BRANCH  26  27
ATOM     27  C   UNL A   1      32.995  30.669  26.959  1.00  0.00     0.338 C 
ATOM     28  O   UNL A   1      32.276  31.643  27.132  1.00  0.00    -0.246 OA
BRANCH  27  29
ATOM     29  C   UNL A   1      34.397  30.582  27.412  1.00  0.00     0.060 A 
ATOM     30  C   UNL A   1      34.966  29.330  27.645  1.00  0.00     0.016 A 
ATOM     31  C   UNL A   1      35.098  31.735  27.751  1.00  0.00     0.016 A 
ATOM     32  C   UNL A   1      36.170  29.220  28.328  1.00  0.00     0.010 A 
ATOM     33  C   UNL A   1      36.370  31.621  28.320  1.00  0.00     0.010 A 
ATOM     34  C   UNL A   1      36.905  30.361  28.657  1.00  0.00    -0.014 A 
BRANCH  34  35
ATOM     35  C   UNL A   1      38.189  30.264  29.406  1.00  0.00     0.031 A 
ATOM     36  C   UNL A   1      39.310  29.450  28.820  1.00  0.00     0.074 A 
ATOM     37  C   UNL A   1      38.369  30.879  30.593  1.00  0.00     0.049 A 
ATOM     38  N   UNL A   1      40.315  28.868  29.416  1.00  0.00    -0.248 NA
ATOM     39  C   UNL A   1      39.264  29.234  27.365  1.00  0.00     0.031 C 
ATOM     40  C   UNL A   1      37.431  31.802  31.236  1.00  0.00     0.029 A 
ATOM     41  N   UNL A   1      39.416  30.809  31.482  1.00  0.00    -0.354 N 
ATOM     42  C   UNL A   1      40.960  28.126  28.430  1.00  0.00     0.074 A 
ATOM     43  C   UNL A   1      40.244  28.358  27.193  1.00  0.00     0.031 C 
ATOM     44  C   UNL A   1      37.956  32.237  32.390  1.00  0.00     0.029 A 
ATOM     45  C   UNL A   1      39.192  31.512  32.644  1.00  0.00     0.049 A 
ATOM     46  H   UNL A   1      40.244  30.306  31.304  1.00  0.00     0.167 HD
ATOM     47  C   UNL A   1      42.034  27.309  28.570  1.00  0.00     0.034 A 
ATOM     48  C   UNL A   1      39.848  31.502  33.820  1.00  0.00     0.034 A 
ATOM     49  C   UNL A   1      42.757  27.167  29.812  1.00  0.00     0.049 A 
ATOM     50  C   UNL A   1      41.016  30.565  33.975  1.00  0.00     0.074 A 
ATOM     51  C   UNL A   1      43.843  26.359  30.100  1.00  0.00     0.029 A 
ATOM     52  N   UNL A   1      42.478  27.882  30.972  1.00  0.00    -0.354 N 
ATOM     53  N   UNL A   1      41.522  29.727  33.099  1.00  0.00    -0.248 NA
ATOM     54  C   UNL A   1      41.675  30.545  35.285  1.00  0.00     0.031 C 
ATOM     55  C   UNL A   1      44.192  26.555  31.442  1.00  0.00     0.029 A 
ATOM     56  C   UNL A   1      43.365  27.530  31.977  1.00  0.00     0.049 A 
ATOM     57  H   UNL A   1      41.754  28.543  31.066  1.00  0.00     0.167 HD
ATOM     58  C   UNL A   1      42.564  29.081  33.753  1.00  0.00     0.074 A 
ATOM     59  C   UNL A   1      42.627  29.644  35.088  1.00  0.00     0.031 C 
ATOM     60  C   UNL A   1      43.392  28.104  33.301  1.00  0.00     0.034 A 
BRANCH  47  61
ATOM     61  C   UNL A   1      42.413  26.447  27.388  1.00  0.00     0.023 A 
ATOM     62  C   UNL A   1      41.985  25.116  27.252  1.00  0.00     0.031 A 
ATOM     63  C   UNL A   1      43.272  26.964  26.400  1.00  0.00     0.131 A 
ATOM     64  C   UNL A   1      42.475  24.327  26.198  1.00  0.00     0.055 A 
ATOM     65  C   UNL A   1      43.693  26.198  25.310  1.00  0.00     0.041 A 
ATOM     66  F   UNL A   1      43.738  28.220  26.486  1.00  0.00    -0.206 F 
ATOM     67  C   UNL A   1      43.307  24.866  25.213  1.00  0.00     0.022 A 
BRANCH  64  68
ATOM     68  S   UNL A   1      42.129  22.546  26.211  1.00  0.00     0.124 S 
ATOM     69  O   UNL A   1      42.773  22.110  24.974  1.00  0.00    -0.237 OA
ATOM     70  O   UNL A   1      42.765  22.110  27.449  1.00  0.00    -0.237 OA
ATOM     71  O   UNL A   1      40.670  22.479  26.203  1.00  0.00    -0.744 OA
ENDBRANCH  64  68
ENDBRANCH  47  61
BRANCH  48  72
ATOM     72  C   UNL A   1      39.343  32.306  34.971  1.00  0.00     0.023 A 
ATOM     73  C   UNL A   1      39.854  33.584  35.245  1.00  0.00     0.031 A 
ATOM     74  C   UNL A   1      38.341  31.801  35.822  1.00  0.00     0.131 A 
ATOM     75  C   UNL A   1      39.376  34.304  36.352  1.00  0.00     0.055 A 
ATOM     76  C   UNL A   1      37.829  32.545  36.885  1.00  0.00     0.041 A 
ATOM     77  F   UNL A   1      37.821  30.581  35.611  1.00  0.00    -0.206 F 
ATOM     78  C   UNL A   1      38.354  33.802  37.160  1.00  0.00     0.022 A 
BRANCH  75  79
ATOM     79  S   UNL A   1      40.158  35.888  36.764  1.00  0.00     0.124 S 
ATOM     80  O   UNL A   1      41.565  35.513  36.846  1.00  0.00    -0.237 OA
ATOM     81  O   UNL A   1      39.782  36.718  35.624  1.00  0.00    -0.237 OA
ATOM     82  O   UNL A   1      39.534  36.256  38.033  1.00  0.00    -0.744 OA
ENDBRANCH  75  79
ENDBRANCH  48  72
BRANCH  60  83
ATOM     83  C   UNL A   1      44.455  27.633  34.256  1.00  0.00     0.023 A 
ATOM     84  C   UNL A   1      44.240  26.544  35.117  1.00  0.00     0.031 A 
ATOM     85  C   UNL A   1      45.689  28.302  34.319  1.00  0.00     0.131 A 
ATOM     86  C   UNL A   1      45.228  26.188  36.046  1.00  0.00     0.055 A 
ATOM     87  C   UNL A   1      46.688  27.911  35.210  1.00  0.00     0.041 A 
ATOM     88  F   UNL A   1      45.940  29.349  33.516  1.00  0.00    -0.206 F 
ATOM     89  C   UNL A   1      46.455  26.855  36.088  1.00  0.00     0.022 A 
BRANCH  86  90
ATOM     90  S   UNL A   1      44.859  24.887  37.254  1.00  0.00     0.124 S 
ATOM     91  O   UNL A   1      45.894  25.104  38.259  1.00  0.00    -0.237 OA
ATOM     92  O   UNL A   1      43.497  25.214  37.661  1.00  0.00    -0.237 OA
ATOM     93  O   UNL A   1      44.995  23.653  36.482  1.00  0.00    -0.744 OA
ENDBRANCH  86  90
ENDBRANCH  60  83
ENDBRANCH  34  35
ENDBRANCH  27  29
ENDBRANCH  26  27
ENDBRANCH  25  26
ENDBRANCH   1  25
TORSDOF 18
ENDMDL
