MODEL 1
REMARK VINA RESULT:     -11.8      0.000      0.000
REMARK SMILES C[C@@H](C(=O)OCCOC(=O)c1ccc(-c2c3nc(c(-c4cc(S(=O)(=O)[O-])ccc4F)c4ccc([nH]4)c(-c4cc(S(=O)(=O)[O-])ccc4F)c4nc(c(-c5cc(S(=O)(=O)[O-])ccc5F)c5ccc2[nH]5)C=C4)C=C3)cc1)c1ccc(C[C@H]2CCCC2=O)cc1
REMARK SMILES IDX 6 1 5 2 3 3 4 4 2 5 1 6 74 7 75 8 86 9 76 10 85 11 77 12
REMARK SMILES IDX 78 13 79 14 80 15 83 16 81 17 82 18 84 19 7 20 8 21 9 22
REMARK SMILES IDX 10 23 11 24 12 25 73 26 13 27 72 28 14 29 15 30 16 31 66 32
REMARK SMILES IDX 17 33 71 34 65 35 67 36 18 37 70 38 64 39 63 40 19 42 51 43
REMARK SMILES IDX 31 44 50 45 32 46 35 47 49 48 68 49 33 50 34 51 48 53 69 54
REMARK SMILES IDX 36 55 20 56 21 57 29 58 22 59 28 60 30 61 27 62 23 63 24 64
REMARK SMILES IDX 25 65 26 66 52 67 53 68 61 69 54 70 60 71 62 72 59 73 55 74
REMARK SMILES IDX 56 75 57 76 58 77 37 78 38 79 46 80 39 81 45 82 47 83 44 84
REMARK SMILES IDX 40 85 41 86 42 87 43 88
REMARK H PARENT 67 41 35 52
REMARK Flexibility Score: inf
ROOT
ATOM      1  C   UNL A   1      31.527  28.554  24.012  1.00  0.00     0.274 C 
ENDROOT
BRANCH   1   2
ATOM      2  O   UNL A   1      32.556  27.554  24.180  1.00  0.00    -0.462 OA
BRANCH   2   3
ATOM      3  C   UNL A   1      32.343  26.609  25.142  1.00  0.00     0.313 C 
ATOM      4  O   UNL A   1      33.004  26.520  26.171  1.00  0.00    -0.252 OA
BRANCH   3   5
ATOM      5  C   UNL A   1      31.187  25.648  24.790  1.00  0.00     0.126 C 
ATOM      6  C   UNL A   1      30.048  25.659  25.814  1.00  0.00     0.025 C 
BRANCH   5   7
ATOM      7  C   UNL A   1      31.726  24.246  24.564  1.00  0.00    -0.034 A 
ATOM      8  C   UNL A   1      31.626  23.317  25.592  1.00  0.00     0.005 A 
ATOM      9  C   UNL A   1      32.406  23.865  23.397  1.00  0.00     0.005 A 
ATOM     10  C   UNL A   1      32.329  22.122  25.530  1.00  0.00     0.004 A 
ATOM     11  C   UNL A   1      33.136  22.661  23.353  1.00  0.00     0.004 A 
ATOM     12  C   UNL A   1      33.180  21.825  24.468  1.00  0.00    -0.047 A 
BRANCH  12  13
ATOM     13  C   UNL A   1      34.083  20.621  24.592  1.00  0.00     0.047 C 
BRANCH  13  14
ATOM     14  C   UNL A   1      33.438  19.218  24.630  1.00  0.00     0.060 C 
ATOM     15  C   UNL A   1      32.183  19.060  23.753  1.00  0.00     0.012 C 
ATOM     16  C   UNL A   1      34.252  18.010  24.183  1.00  0.00     0.136 C 
ATOM     17  C   UNL A   1      32.543  18.060  22.657  1.00  0.00     0.009 C 
ATOM     18  C   UNL A   1      33.461  17.069  23.330  1.00  0.00     0.076 C 
ATOM     19  O   UNL A   1      35.394  17.749  24.491  1.00  0.00    -0.299 OA
ENDBRANCH  13  14
ENDBRANCH  12  13
ENDBRANCH   5   7
ENDBRANCH   3   5
ENDBRANCH   2   3
ENDBRANCH   1   2
BRANCH   1  20
ATOM     20  C   UNL A   1      31.441  29.423  25.270  1.00  0.00     0.275 C 
BRANCH  20  21
ATOM     21  O   UNL A   1      32.738  29.992  25.552  1.00  0.00    -0.458 OA
BRANCH  21  22
ATOM     22  C   UNL A   1      32.810  30.858  26.594  1.00  0.00     0.338 C 
ATOM     23  O   UNL A   1      31.923  31.598  26.989  1.00  0.00    -0.246 OA
BRANCH  22  24
ATOM     24  C   UNL A   1      34.131  30.748  27.254  1.00  0.00     0.060 A 
ATOM     25  C   UNL A   1      34.579  29.481  27.569  1.00  0.00     0.016 A 
ATOM     26  C   UNL A   1      34.867  31.855  27.699  1.00  0.00     0.016 A 
ATOM     27  C   UNL A   1      35.693  29.325  28.387  1.00  0.00     0.010 A 
ATOM     28  C   UNL A   1      36.066  31.674  28.437  1.00  0.00     0.010 A 
ATOM     29  C   UNL A   1      36.492  30.389  28.791  1.00  0.00    -0.014 A 
BRANCH  29  30
ATOM     30  C   UNL A   1      37.661  29.999  29.641  1.00  0.00     0.031 A 
ATOM     31  C   UNL A   1      38.869  29.398  28.985  1.00  0.00     0.074 A 
ATOM     32  C   UNL A   1      37.793  30.484  30.899  1.00  0.00     0.049 A 
ATOM     33  N   UNL A   1      39.983  28.985  29.531  1.00  0.00    -0.248 NA
ATOM     34  C   UNL A   1      38.826  29.266  27.522  1.00  0.00     0.031 C 
ATOM     35  C   UNL A   1      36.787  31.296  31.579  1.00  0.00     0.029 A 
ATOM     36  N   UNL A   1      38.849  30.473  31.788  1.00  0.00    -0.354 N 
ATOM     37  C   UNL A   1      40.725  28.431  28.496  1.00  0.00     0.074 A 
ATOM     38  C   UNL A   1      39.980  28.662  27.275  1.00  0.00     0.031 C 
ATOM     39  C   UNL A   1      37.313  31.799  32.709  1.00  0.00     0.029 A 
ATOM     40  C   UNL A   1      38.654  31.259  32.911  1.00  0.00     0.049 A 
ATOM     41  H   UNL A   1      39.671  29.951  31.636  1.00  0.00     0.167 HD
ATOM     42  C   UNL A   1      41.877  27.722  28.591  1.00  0.00     0.034 A 
ATOM     43  C   UNL A   1      39.454  31.493  33.982  1.00  0.00     0.034 A 
ATOM     44  C   UNL A   1      42.599  27.540  29.827  1.00  0.00     0.049 A 
ATOM     45  C   UNL A   1      40.732  30.681  34.080  1.00  0.00     0.074 A 
ATOM     46  C   UNL A   1      43.667  26.702  30.098  1.00  0.00     0.029 A 
ATOM     47  N   UNL A   1      42.333  28.229  31.005  1.00  0.00    -0.354 N 
ATOM     48  N   UNL A   1      41.302  29.922  33.173  1.00  0.00    -0.248 NA
ATOM     49  C   UNL A   1      41.435  30.695  35.372  1.00  0.00     0.031 C 
ATOM     50  C   UNL A   1      44.001  26.837  31.451  1.00  0.00     0.029 A 
ATOM     51  C   UNL A   1      43.202  27.824  32.005  1.00  0.00     0.049 A 
ATOM     52  H   UNL A   1      41.628  28.909  31.111  1.00  0.00     0.167 HD
ATOM     53  C   UNL A   1      42.396  29.331  33.803  1.00  0.00     0.074 A 
ATOM     54  C   UNL A   1      42.462  29.893  35.134  1.00  0.00     0.031 C 
ATOM     55  C   UNL A   1      43.240  28.373  33.340  1.00  0.00     0.034 A 
BRANCH  42  56
ATOM     56  C   UNL A   1      42.270  26.921  27.375  1.00  0.00     0.023 A 
ATOM     57  C   UNL A   1      41.948  25.565  27.209  1.00  0.00     0.031 A 
ATOM     58  C   UNL A   1      43.095  27.528  26.408  1.00  0.00     0.131 A 
ATOM     59  C   UNL A   1      42.519  24.845  26.147  1.00  0.00     0.055 A 
ATOM     60  C   UNL A   1      43.586  26.828  25.307  1.00  0.00     0.041 A 
ATOM     61  F   UNL A   1      43.466  28.813  26.536  1.00  0.00    -0.206 F 
ATOM     62  C   UNL A   1      43.313  25.472  25.182  1.00  0.00     0.022 A 
BRANCH  59  63
ATOM     63  S   UNL A   1      42.357  23.037  26.137  1.00  0.00     0.124 S 
ATOM     64  O   UNL A   1      40.905  22.873  26.160  1.00  0.00    -0.237 OA
ATOM     65  O   UNL A   1      43.022  22.667  24.893  1.00  0.00    -0.237 OA
ATOM     66  O   UNL A   1      43.044  22.624  27.359  1.00  0.00    -0.744 OA
ENDBRANCH  59  63
ENDBRANCH  42  56
BRANCH  43  67
ATOM     67  C   UNL A   1      39.062  32.409  35.115  1.00  0.00     0.023 A 
ATOM     68  C   UNL A   1      39.547  33.733  35.197  1.00  0.00     0.031 A 
ATOM     69  C   UNL A   1      38.295  31.950  36.203  1.00  0.00     0.131 A 
ATOM     70  C   UNL A   1      39.296  34.517  36.342  1.00  0.00     0.055 A 
ATOM     71  C   UNL A   1      37.967  32.766  37.291  1.00  0.00     0.041 A 
ATOM     72  F   UNL A   1      37.862  30.682  36.248  1.00  0.00    -0.206 F 
ATOM     73  C   UNL A   1      38.480  34.053  37.372  1.00  0.00     0.022 A 
BRANCH  70  74
ATOM     74  S   UNL A   1      40.176  36.096  36.549  1.00  0.00     0.124 S 
ATOM     75  O   UNL A   1      41.559  35.651  36.668  1.00  0.00    -0.237 OA
ATOM     76  O   UNL A   1      39.829  36.801  35.321  1.00  0.00    -0.237 OA
ATOM     77  O   UNL A   1      39.594  36.653  37.769  1.00  0.00    -0.744 OA
ENDBRANCH  70  74
ENDBRANCH  43  67
BRANCH  55  78
ATOM     78  C   UNL A   1      44.294  27.865  34.295  1.00  0.00     0.023 A 
ATOM     79  C   UNL A   1      44.029  26.814  35.193  1.00  0.00     0.031 A 
ATOM     80  C   UNL A   1      45.582  28.428  34.300  1.00  0.00     0.131 A 
ATOM     81  C   UNL A   1      45.019  26.396  36.095  1.00  0.00     0.055 A 
ATOM     82  C   UNL A   1      46.582  27.968  35.159  1.00  0.00     0.041 A 
ATOM     83  F   UNL A   1      45.891  29.434  33.468  1.00  0.00    -0.206 F 
ATOM     84  C   UNL A   1      46.300  26.954  36.071  1.00  0.00     0.022 A 
BRANCH  81  85
ATOM     85  S   UNL A   1      44.589  25.170  37.363  1.00  0.00     0.124 S 
ATOM     86  O   UNL A   1      44.745  25.937  38.593  1.00  0.00    -0.237 OA
ATOM     87  O   UNL A   1      43.221  24.813  37.001  1.00  0.00    -0.237 OA
ATOM     88  O   UNL A   1      45.577  24.110  37.164  1.00  0.00    -0.744 OA
ENDBRANCH  81  85
ENDBRANCH  55  78
ENDBRANCH  29  30
ENDBRANCH  22  24
ENDBRANCH  21  22
ENDBRANCH  20  21
ENDBRANCH   1  20
TORSDOF 17
ENDMDL
MODEL 2
REMARK VINA RESULT:     -11.8      4.663     10.123
REMARK SMILES C[C@@H](C(=O)OCCOC(=O)c1ccc(-c2c3nc(c(-c4cc(S(=O)(=O)[O-])ccc4F)c4ccc([nH]4)c(-c4cc(S(=O)(=O)[O-])ccc4F)c4nc(c(-c5cc(S(=O)(=O)[O-])ccc5F)c5ccc2[nH]5)C=C4)C=C3)cc1)c1ccc(C[C@H]2CCCC2=O)cc1
REMARK SMILES IDX 6 1 5 2 3 3 4 4 2 5 1 6 74 7 75 8 86 9 76 10 85 11 77 12
REMARK SMILES IDX 78 13 79 14 80 15 83 16 81 17 82 18 84 19 7 20 8 21 9 22
REMARK SMILES IDX 10 23 11 24 12 25 73 26 13 27 72 28 14 29 15 30 16 31 66 32
REMARK SMILES IDX 17 33 71 34 65 35 67 36 18 37 70 38 64 39 63 40 19 42 51 43
REMARK SMILES IDX 31 44 50 45 32 46 35 47 49 48 68 49 33 50 34 51 48 53 69 54
REMARK SMILES IDX 36 55 20 56 21 57 29 58 22 59 28 60 30 61 27 62 23 63 24 64
REMARK SMILES IDX 25 65 26 66 52 67 53 68 61 69 54 70 60 71 62 72 59 73 55 74
REMARK SMILES IDX 56 75 57 76 58 77 37 78 38 79 46 80 39 81 45 82 47 83 44 84
REMARK SMILES IDX 40 85 41 86 42 87 43 88
REMARK H PARENT 67 41 35 52
REMARK Flexibility Score: inf
ROOT
ATOM      1  C   UNL A   1      34.038  21.074  25.313  1.00  0.00     0.274 C 
ENDROOT
BRANCH   1   2
ATOM      2  O   UNL A   1      33.296  22.309  25.208  1.00  0.00    -0.462 OA
BRANCH   2   3
ATOM      3  C   UNL A   1      31.986  22.209  24.838  1.00  0.00     0.313 C 
ATOM      4  O   UNL A   1      31.128  21.644  25.507  1.00  0.00    -0.252 OA
BRANCH   3   5
ATOM      5  C   UNL A   1      31.697  22.873  23.474  1.00  0.00     0.126 C 
ATOM      6  C   UNL A   1      32.879  22.815  22.501  1.00  0.00     0.025 C 
BRANCH   5   7
ATOM      7  C   UNL A   1      31.209  24.297  23.681  1.00  0.00    -0.034 A 
ATOM      8  C   UNL A   1      31.348  25.209  22.642  1.00  0.00     0.005 A 
ATOM      9  C   UNL A   1      30.705  24.765  24.904  1.00  0.00     0.005 A 
ATOM     10  C   UNL A   1      31.163  26.566  22.870  1.00  0.00     0.004 A 
ATOM     11  C   UNL A   1      30.542  26.144  25.132  1.00  0.00     0.004 A 
ATOM     12  C   UNL A   1      30.869  27.065  24.137  1.00  0.00    -0.047 A 
BRANCH  12  13
ATOM     13  C   UNL A   1      30.919  28.559  24.344  1.00  0.00     0.047 C 
BRANCH  13  14
ATOM     14  C   UNL A   1      32.057  29.145  25.208  1.00  0.00     0.060 C 
ATOM     15  C   UNL A   1      31.837  29.035  26.728  1.00  0.00     0.012 C 
ATOM     16  C   UNL A   1      33.462  28.567  25.083  1.00  0.00     0.136 C 
ATOM     17  C   UNL A   1      32.913  28.090  27.257  1.00  0.00     0.009 C 
ATOM     18  C   UNL A   1      34.127  28.383  26.410  1.00  0.00     0.076 C 
ATOM     19  O   UNL A   1      34.055  28.315  24.058  1.00  0.00    -0.299 OA
ENDBRANCH  13  14
ENDBRANCH  12  13
ENDBRANCH   5   7
ENDBRANCH   3   5
ENDBRANCH   2   3
ENDBRANCH   1   2
BRANCH   1  20
ATOM     20  C   UNL A   1      35.432  21.255  24.706  1.00  0.00     0.275 C 
BRANCH  20  21
ATOM     21  O   UNL A   1      36.339  21.741  25.720  1.00  0.00    -0.458 OA
BRANCH  21  22
ATOM     22  C   UNL A   1      37.642  21.384  25.594  1.00  0.00     0.338 C 
ATOM     23  O   UNL A   1      38.072  20.376  25.054  1.00  0.00    -0.246 OA
BRANCH  22  24
ATOM     24  C   UNL A   1      38.514  22.437  26.164  1.00  0.00     0.060 A 
ATOM     25  C   UNL A   1      38.059  23.739  26.102  1.00  0.00     0.016 A 
ATOM     26  C   UNL A   1      39.817  22.198  26.620  1.00  0.00     0.016 A 
ATOM     27  C   UNL A   1      38.921  24.787  26.407  1.00  0.00     0.010 A 
ATOM     28  C   UNL A   1      40.644  23.273  27.037  1.00  0.00     0.010 A 
ATOM     29  C   UNL A   1      40.193  24.594  26.931  1.00  0.00    -0.014 A 
BRANCH  29  30
ATOM     30  C   UNL A   1      40.943  25.857  27.221  1.00  0.00     0.031 A 
ATOM     31  C   UNL A   1      40.455  26.759  28.316  1.00  0.00     0.074 A 
ATOM     32  C   UNL A   1      42.211  26.026  26.773  1.00  0.00     0.049 A 
ATOM     33  N   UNL A   1      40.948  27.898  28.726  1.00  0.00    -0.248 NA
ATOM     34  C   UNL A   1      39.271  26.308  29.060  1.00  0.00     0.031 C 
ATOM     35  C   UNL A   1      42.904  25.094  25.886  1.00  0.00     0.029 A 
ATOM     36  N   UNL A   1      43.182  26.959  27.077  1.00  0.00    -0.354 N 
ATOM     37  C   UNL A   1      40.065  28.362  29.693  1.00  0.00     0.074 A 
ATOM     38  C   UNL A   1      39.070  27.326  29.884  1.00  0.00     0.031 C 
ATOM     39  C   UNL A   1      44.203  25.431  25.817  1.00  0.00     0.029 A 
ATOM     40  C   UNL A   1      44.431  26.671  26.553  1.00  0.00     0.049 A 
ATOM     41  H   UNL A   1      43.002  27.761  27.620  1.00  0.00     0.167 HD
ATOM     42  C   UNL A   1      40.056  29.579  30.290  1.00  0.00     0.034 A 
ATOM     43  C   UNL A   1      45.607  27.341  26.638  1.00  0.00     0.034 A 
ATOM     44  C   UNL A   1      41.085  30.570  30.088  1.00  0.00     0.049 A 
ATOM     45  C   UNL A   1      45.577  28.708  27.296  1.00  0.00     0.074 A 
ATOM     46  C   UNL A   1      41.105  31.898  30.481  1.00  0.00     0.029 A 
ATOM     47  N   UNL A   1      42.296  30.332  29.449  1.00  0.00    -0.354 N 
ATOM     48  N   UNL A   1      44.616  29.270  27.994  1.00  0.00    -0.248 NA
ATOM     49  C   UNL A   1      46.759  29.565  27.112  1.00  0.00     0.031 C 
ATOM     50  C   UNL A   1      42.296  32.475  30.021  1.00  0.00     0.029 A 
ATOM     51  C   UNL A   1      43.060  31.488  29.420  1.00  0.00     0.049 A 
ATOM     52  H   UNL A   1      42.571  29.465  29.071  1.00  0.00     0.167 HD
ATOM     53  C   UNL A   1      45.060  30.559  28.285  1.00  0.00     0.074 A 
ATOM     54  C   UNL A   1      46.409  30.660  27.770  1.00  0.00     0.031 C 
ATOM     55  C   UNL A   1      44.395  31.583  28.878  1.00  0.00     0.034 A 
BRANCH  42  56
ATOM     56  C   UNL A   1      38.788  29.959  31.012  1.00  0.00     0.023 A 
ATOM     57  C   UNL A   1      37.719  30.625  30.393  1.00  0.00     0.031 A 
ATOM     58  C   UNL A   1      38.713  29.735  32.401  1.00  0.00     0.131 A 
ATOM     59  C   UNL A   1      36.664  31.117  31.179  1.00  0.00     0.055 A 
ATOM     60  C   UNL A   1      37.620  30.149  33.160  1.00  0.00     0.041 A 
ATOM     61  F   UNL A   1      39.724  29.136  33.051  1.00  0.00    -0.206 F 
ATOM     62  C   UNL A   1      36.594  30.861  32.552  1.00  0.00     0.022 A 
BRANCH  59  63
ATOM     63  S   UNL A   1      35.468  32.249  30.417  1.00  0.00     0.124 S 
ATOM     64  O   UNL A   1      34.409  32.278  31.423  1.00  0.00    -0.237 OA
ATOM     65  O   UNL A   1      36.243  33.475  30.270  1.00  0.00    -0.237 OA
ATOM     66  O   UNL A   1      35.112  31.582  29.166  1.00  0.00    -0.744 OA
ENDBRANCH  59  63
ENDBRANCH  42  56
BRANCH  43  67
ATOM     67  C   UNL A   1      46.882  26.847  26.000  1.00  0.00     0.023 A 
ATOM     68  C   UNL A   1      47.879  26.188  26.753  1.00  0.00     0.031 A 
ATOM     69  C   UNL A   1      47.191  27.128  24.655  1.00  0.00     0.131 A 
ATOM     70  C   UNL A   1      49.125  25.877  26.172  1.00  0.00     0.055 A 
ATOM     71  C   UNL A   1      48.391  26.729  24.058  1.00  0.00     0.041 A 
ATOM     72  F   UNL A   1      46.337  27.822  23.887  1.00  0.00    -0.206 F 
ATOM     73  C   UNL A   1      49.373  26.112  24.821  1.00  0.00     0.022 A 
BRANCH  70  74
ATOM     74  S   UNL A   1      50.485  25.305  27.237  1.00  0.00     0.124 S 
ATOM     75  O   UNL A   1      51.496  24.937  26.253  1.00  0.00    -0.237 OA
ATOM     76  O   UNL A   1      50.766  26.492  28.036  1.00  0.00    -0.237 OA
ATOM     77  O   UNL A   1      49.896  24.187  27.972  1.00  0.00    -0.744 OA
ENDBRANCH  70  74
ENDBRANCH  43  67
BRANCH  55  78
ATOM     78  C   UNL A   1      45.119  32.905  28.984  1.00  0.00     0.023 A 
ATOM     79  C   UNL A   1      45.221  33.778  27.884  1.00  0.00     0.031 A 
ATOM     80  C   UNL A   1      45.703  33.303  30.198  1.00  0.00     0.131 A 
ATOM     81  C   UNL A   1      45.937  34.979  28.006  1.00  0.00     0.055 A 
ATOM     82  C   UNL A   1      46.364  34.526  30.330  1.00  0.00     0.041 A 
ATOM     83  F   UNL A   1      45.640  32.510  31.279  1.00  0.00    -0.206 F 
ATOM     84  C   UNL A   1      46.494  35.366  29.228  1.00  0.00     0.022 A 
BRANCH  81  85
ATOM     85  S   UNL A   1      46.208  35.991  26.525  1.00  0.00     0.124 S 
ATOM     86  O   UNL A   1      45.490  37.216  26.857  1.00  0.00    -0.237 OA
ATOM     87  O   UNL A   1      47.662  36.096  26.480  1.00  0.00    -0.237 OA
ATOM     88  O   UNL A   1      45.612  35.196  25.451  1.00  0.00    -0.744 OA
ENDBRANCH  81  85
ENDBRANCH  55  78
ENDBRANCH  29  30
ENDBRANCH  22  24
ENDBRANCH  21  22
ENDBRANCH  20  21
ENDBRANCH   1  20
TORSDOF 17
ENDMDL
MODEL 3
REMARK VINA RESULT:     -11.8      1.701      2.082
REMARK SMILES C[C@@H](C(=O)OCCOC(=O)c1ccc(-c2c3nc(c(-c4cc(S(=O)(=O)[O-])ccc4F)c4ccc([nH]4)c(-c4cc(S(=O)(=O)[O-])ccc4F)c4nc(c(-c5cc(S(=O)(=O)[O-])ccc5F)c5ccc2[nH]5)C=C4)C=C3)cc1)c1ccc(C[C@H]2CCCC2=O)cc1
REMARK SMILES IDX 6 1 5 2 3 3 4 4 2 5 1 6 74 7 75 8 86 9 76 10 85 11 77 12
REMARK SMILES IDX 78 13 79 14 80 15 83 16 81 17 82 18 84 19 7 20 8 21 9 22
REMARK SMILES IDX 10 23 11 24 12 25 73 26 13 27 72 28 14 29 15 30 16 31 66 32
REMARK SMILES IDX 17 33 71 34 65 35 67 36 18 37 70 38 64 39 63 40 19 42 51 43
REMARK SMILES IDX 31 44 50 45 32 46 35 47 49 48 68 49 33 50 34 51 48 53 69 54
REMARK SMILES IDX 36 55 20 56 21 57 29 58 22 59 28 60 30 61 27 62 23 63 24 64
REMARK SMILES IDX 25 65 26 66 52 67 53 68 61 69 54 70 60 71 62 72 59 73 55 74
REMARK SMILES IDX 56 75 57 76 58 77 37 78 38 79 46 80 39 81 45 82 47 83 44 84
REMARK SMILES IDX 40 85 41 86 42 87 43 88
REMARK H PARENT 67 41 35 52
REMARK Flexibility Score: inf
ROOT
ATOM      1  C   UNL A   1      31.589  29.188  23.849  1.00  0.00     0.274 C 
ENDROOT
BRANCH   1   2
ATOM      2  O   UNL A   1      32.123  27.846  23.815  1.00  0.00    -0.462 OA
BRANCH   2   3
ATOM      3  C   UNL A   1      33.226  27.645  23.036  1.00  0.00     0.313 C 
ATOM      4  O   UNL A   1      34.089  28.493  22.840  1.00  0.00    -0.252 OA
BRANCH   3   5
ATOM      5  C   UNL A   1      33.267  26.233  22.410  1.00  0.00     0.126 C 
ATOM      6  C   UNL A   1      31.894  25.719  21.966  1.00  0.00     0.025 C 
BRANCH   5   7
ATOM      7  C   UNL A   1      33.951  25.263  23.358  1.00  0.00    -0.034 A 
ATOM      8  C   UNL A   1      34.469  24.080  22.845  1.00  0.00     0.005 A 
ATOM      9  C   UNL A   1      34.008  25.459  24.747  1.00  0.00     0.005 A 
ATOM     10  C   UNL A   1      34.861  23.058  23.698  1.00  0.00     0.004 A 
ATOM     11  C   UNL A   1      34.385  24.408  25.604  1.00  0.00     0.004 A 
ATOM     12  C   UNL A   1      34.722  23.160  25.080  1.00  0.00    -0.047 A 
BRANCH  12  13
ATOM     13  C   UNL A   1      34.948  21.921  25.914  1.00  0.00     0.047 C 
BRANCH  13  14
ATOM     14  C   UNL A   1      33.918  20.774  25.821  1.00  0.00     0.060 C 
ATOM     15  C   UNL A   1      32.500  21.210  25.414  1.00  0.00     0.012 C 
ATOM     16  C   UNL A   1      34.158  19.633  24.839  1.00  0.00     0.136 C 
ATOM     17  C   UNL A   1      32.226  20.582  24.049  1.00  0.00     0.009 C 
ATOM     18  C   UNL A   1      32.916  19.241  24.102  1.00  0.00     0.076 C 
ATOM     19  O   UNL A   1      35.193  19.030  24.664  1.00  0.00    -0.299 OA
ENDBRANCH  13  14
ENDBRANCH  12  13
ENDBRANCH   5   7
ENDBRANCH   3   5
ENDBRANCH   2   3
ENDBRANCH   1   2
BRANCH   1  20
ATOM     20  C   UNL A   1      31.420  29.640  25.302  1.00  0.00     0.275 C 
BRANCH  20  21
ATOM     21  O   UNL A   1      32.713  29.687  25.944  1.00  0.00    -0.458 OA
BRANCH  21  22
ATOM     22  C   UNL A   1      32.974  30.778  26.709  1.00  0.00     0.338 C 
ATOM     23  O   UNL A   1      32.230  31.726  26.904  1.00  0.00    -0.246 OA
BRANCH  22  24
ATOM     24  C   UNL A   1      34.303  30.642  27.348  1.00  0.00     0.060 A 
ATOM     25  C   UNL A   1      34.718  29.369  27.685  1.00  0.00     0.016 A 
ATOM     26  C   UNL A   1      35.081  31.735  27.754  1.00  0.00     0.016 A 
ATOM     27  C   UNL A   1      35.841  29.198  28.487  1.00  0.00     0.010 A 
ATOM     28  C   UNL A   1      36.288  31.534  28.474  1.00  0.00     0.010 A 
ATOM     29  C   UNL A   1      36.680  30.245  28.851  1.00  0.00    -0.014 A 
BRANCH  29  30
ATOM     30  C   UNL A   1      37.852  29.838  29.689  1.00  0.00     0.031 A 
ATOM     31  C   UNL A   1      39.061  29.257  29.018  1.00  0.00     0.074 A 
ATOM     32  C   UNL A   1      37.984  30.294  30.959  1.00  0.00     0.049 A 
ATOM     33  N   UNL A   1      40.177  28.835  29.551  1.00  0.00    -0.248 NA
ATOM     34  C   UNL A   1      39.015  29.160  27.552  1.00  0.00     0.031 C 
ATOM     35  C   UNL A   1      36.978  31.086  31.660  1.00  0.00     0.029 A 
ATOM     36  N   UNL A   1      39.043  30.265  31.845  1.00  0.00    -0.354 N 
ATOM     37  C   UNL A   1      40.919  28.308  28.502  1.00  0.00     0.074 A 
ATOM     38  C   UNL A   1      40.171  28.566  27.288  1.00  0.00     0.031 C 
ATOM     39  C   UNL A   1      37.505  31.564  32.800  1.00  0.00     0.029 A 
ATOM     40  C   UNL A   1      38.848  31.024  32.987  1.00  0.00     0.049 A 
ATOM     41  H   UNL A   1      39.866  29.749  31.679  1.00  0.00     0.167 HD
ATOM     42  C   UNL A   1      42.073  27.601  28.578  1.00  0.00     0.034 A 
ATOM     43  C   UNL A   1      39.648  31.235  34.061  1.00  0.00     0.034 A 
ATOM     44  C   UNL A   1      42.797  27.392  29.808  1.00  0.00     0.049 A 
ATOM     45  C   UNL A   1      40.929  30.425  34.138  1.00  0.00     0.074 A 
ATOM     46  C   UNL A   1      43.869  26.551  30.057  1.00  0.00     0.029 A 
ATOM     47  N   UNL A   1      42.532  28.052  31.002  1.00  0.00    -0.354 N 
ATOM     48  N   UNL A   1      41.500  29.689  33.212  1.00  0.00    -0.248 NA
ATOM     49  C   UNL A   1      41.634  30.410  35.429  1.00  0.00     0.031 C 
ATOM     50  C   UNL A   1      44.205  26.655  31.412  1.00  0.00     0.029 A 
ATOM     51  C   UNL A   1      43.404  27.625  31.991  1.00  0.00     0.049 A 
ATOM     52  H   UNL A   1      41.826  28.727  31.126  1.00  0.00     0.167 HD
ATOM     53  C   UNL A   1      42.597  29.087  33.825  1.00  0.00     0.074 A 
ATOM     54  C   UNL A   1      42.664  29.618  35.170  1.00  0.00     0.031 C 
ATOM     55  C   UNL A   1      43.443  28.143  33.339  1.00  0.00     0.034 A 
BRANCH  42  56
ATOM     56  C   UNL A   1      42.466  26.830  27.343  1.00  0.00     0.023 A 
ATOM     57  C   UNL A   1      42.136  25.481  27.139  1.00  0.00     0.031 A 
ATOM     58  C   UNL A   1      43.298  27.458  26.395  1.00  0.00     0.131 A 
ATOM     59  C   UNL A   1      42.707  24.786  26.060  1.00  0.00     0.055 A 
ATOM     60  C   UNL A   1      43.790  26.784  25.279  1.00  0.00     0.041 A 
ATOM     61  F   UNL A   1      43.677  28.736  26.560  1.00  0.00    -0.206 F 
ATOM     62  C   UNL A   1      43.509  25.434  25.115  1.00  0.00     0.022 A 
BRANCH  59  63
ATOM     63  S   UNL A   1      42.534  22.981  26.001  1.00  0.00     0.124 S 
ATOM     64  O   UNL A   1      42.990  22.686  24.645  1.00  0.00    -0.237 OA
ATOM     65  O   UNL A   1      43.412  22.543  27.079  1.00  0.00    -0.237 OA
ATOM     66  O   UNL A   1      41.107  22.765  26.233  1.00  0.00    -0.744 OA
ENDBRANCH  59  63
ENDBRANCH  42  56
BRANCH  43  67
ATOM     67  C   UNL A   1      39.256  32.123  35.216  1.00  0.00     0.023 A 
ATOM     68  C   UNL A   1      38.668  31.596  36.388  1.00  0.00     0.031 A 
ATOM     69  C   UNL A   1      39.343  33.526  35.131  1.00  0.00     0.131 A 
ATOM     70  C   UNL A   1      38.166  32.457  37.385  1.00  0.00     0.055 A 
ATOM     71  C   UNL A   1      38.933  34.371  36.168  1.00  0.00     0.041 A 
ATOM     72  F   UNL A   1      39.812  34.116  34.022  1.00  0.00    -0.206 F 
ATOM     73  C   UNL A   1      38.327  33.838  37.297  1.00  0.00     0.022 A 
BRANCH  70  74
ATOM     74  S   UNL A   1      37.155  31.765  38.731  1.00  0.00     0.124 S 
ATOM     75  O   UNL A   1      38.037  31.932  39.879  1.00  0.00    -0.237 OA
ATOM     76  O   UNL A   1      35.975  32.622  38.696  1.00  0.00    -0.237 OA
ATOM     77  O   UNL A   1      36.930  30.382  38.313  1.00  0.00    -0.744 OA
ENDBRANCH  70  74
ENDBRANCH  43  67
BRANCH  55  78
ATOM     78  C   UNL A   1      44.501  27.616  34.279  1.00  0.00     0.023 A 
ATOM     79  C   UNL A   1      44.282  26.466  35.063  1.00  0.00     0.031 A 
ATOM     80  C   UNL A   1      45.745  28.261  34.386  1.00  0.00     0.131 A 
ATOM     81  C   UNL A   1      45.272  26.029  35.956  1.00  0.00     0.055 A 
ATOM     82  C   UNL A   1      46.748  27.787  35.234  1.00  0.00     0.041 A 
ATOM     83  F   UNL A   1      46.008  29.362  33.666  1.00  0.00    -0.206 F 
ATOM     84  C   UNL A   1      46.511  26.672  36.034  1.00  0.00     0.022 A 
BRANCH  81  85
ATOM     85  S   UNL A   1      44.890  24.659  37.084  1.00  0.00     0.124 S 
ATOM     86  O   UNL A   1      43.790  25.208  37.869  1.00  0.00    -0.237 OA
ATOM     87  O   UNL A   1      44.542  23.583  36.163  1.00  0.00    -0.237 OA
ATOM     88  O   UNL A   1      46.139  24.463  37.820  1.00  0.00    -0.744 OA
ENDBRANCH  81  85
ENDBRANCH  55  78
ENDBRANCH  29  30
ENDBRANCH  22  24
ENDBRANCH  21  22
ENDBRANCH  20  21
ENDBRANCH   1  20
TORSDOF 17
ENDMDL
