MODEL 1
REMARK VINA RESULT:     -11.5      0.000      0.000
REMARK SMILES COc1ccc(N2C(=O)/C(=C\c3ccc(-c4ccc(Cl)c(C(=O)OCCOC(=O)c5ccc(-c6c7nc(c(-c8cc(S(=O)(=O)[O-])ccc8F)c8ccc([nH]8)c(-c8cc(S(=O)(=O)[O-])ccc8F)c8nc(c(-c9cc(S(=O)(=O)[O-])ccc9F)c9ccc6[nH]9)C=C8)C=C7)cc5)c4)o3)SC2=S)cc1
REMARK SMILES IDX 25 1 24 2 22 3 23 4 21 5 16 6 17 7 93 8 18 9 19 10 20 11
REMARK SMILES IDX 15 12 12 13 13 14 94 15 14 16 11 17 7 18 8 19 96 20 9 21
REMARK SMILES IDX 10 22 95 23 97 24 6 25 3 26 4 27 99 28 5 29 98 30 2 31 1 32
REMARK SMILES IDX 26 33 27 34 28 35 29 36 30 37 31 38 92 39 32 40 91 41 33 42
REMARK SMILES IDX 34 43 35 44 85 45 36 46 90 47 84 48 86 49 37 50 89 51 83 52
REMARK SMILES IDX 82 53 38 55 70 56 50 57 69 58 51 59 54 60 68 61 87 62 52 63
REMARK SMILES IDX 53 64 67 66 88 67 55 68 39 69 40 70 48 71 41 72 47 73 49 74
REMARK SMILES IDX 46 75 42 76 43 77 44 78 45 79 71 80 72 81 80 82 73 83 79 84
REMARK SMILES IDX 81 85 78 86 74 87 75 88 76 89 77 90 56 91 57 92 65 93 58 94
REMARK SMILES IDX 64 95 66 96 63 97 59 98 60 99 61 100 62 101
REMARK H PARENT 86 54 54 65
REMARK Flexibility Score: inf
ROOT
ATOM      1  C   UNL A   1      42.503  18.830  25.803  1.00  0.00     0.275 C 
ENDROOT
BRANCH   1   2
ATOM      2  O   UNL A   1      41.889  20.122  25.977  1.00  0.00    -0.458 OA
BRANCH   2   3
ATOM      3  C   UNL A   1      41.113  20.306  27.079  1.00  0.00     0.339 C 
ATOM      4  O   UNL A   1      41.120  19.601  28.072  1.00  0.00    -0.246 OA
BRANCH   3   5
ATOM      5  C   UNL A   1      40.285  21.532  26.887  1.00  0.00     0.079 A 
ATOM      6  C   UNL A   1      38.289  22.547  25.901  1.00  0.00     0.018 A 
ATOM      7  C   UNL A   1      38.744  23.811  26.279  1.00  0.00     0.013 A 
ATOM      8  C   UNL A   1      39.092  21.428  26.156  1.00  0.00     0.029 A 
ATOM      9  C   UNL A   1      39.910  23.926  27.040  1.00  0.00     0.022 A 
ATOM     10  C   UNL A   1      40.644  22.786  27.403  1.00  0.00     0.055 A 
ATOM     11  Cl  UNL A   1      41.959  23.034  28.495  1.00  0.00    -0.083 Cl
BRANCH   6  12
ATOM     12  C   UNL A   1      36.931  22.337  25.439  1.00  0.00     0.134 A 
ATOM     13  C   UNL A   1      35.200  22.649  24.102  1.00  0.00     0.128 A 
ATOM     14  C   UNL A   1      34.768  21.893  25.187  1.00  0.00     0.051 A 
ATOM     15  O   UNL A   1      36.548  22.888  24.254  1.00  0.00    -0.457 OA
ATOM     16  C   UNL A   1      35.868  21.706  26.041  1.00  0.00     0.051 A 
BRANCH  13  17
ATOM     17  C   UNL A   1      34.418  23.129  23.020  1.00  0.00     0.068 C 
ATOM     18  N   UNL A   1      32.968  26.351  23.968  1.00  0.00    -0.261 N 
ATOM     19  C   UNL A   1      33.922  25.351  24.142  1.00  0.00     0.270 C 
ATOM     20  C   UNL A   1      32.146  26.235  22.858  1.00  0.00     0.152 C 
ATOM     21  O   UNL A   1      34.740  25.288  25.050  1.00  0.00    -0.268 OA
ATOM     22  C   UNL A   1      33.787  24.312  23.078  1.00  0.00     0.084 C 
ATOM     23  S   UNL A   1      32.607  24.805  21.927  1.00  0.00    -0.054 SA
ATOM     24  S   UNL A   1      30.937  27.249  22.305  1.00  0.00    -0.051 S 
BRANCH  18  25
ATOM     25  C   UNL A   1      32.912  27.409  24.925  1.00  0.00     0.051 A 
ATOM     26  C   UNL A   1      32.960  29.472  26.838  1.00  0.00     0.119 A 
ATOM     27  C   UNL A   1      33.579  29.649  25.604  1.00  0.00     0.048 A 
ATOM     28  C   UNL A   1      32.295  28.277  27.111  1.00  0.00     0.048 A 
ATOM     29  C   UNL A   1      33.574  28.619  24.664  1.00  0.00     0.030 A 
ATOM     30  C   UNL A   1      32.268  27.251  26.158  1.00  0.00     0.030 A 
BRANCH  26  31
ATOM     31  O   UNL A   1      33.004  30.539  27.691  1.00  0.00    -0.497 OA
ATOM     32  C   UNL A   1      34.311  31.068  27.893  1.00  0.00     0.278 C 
ENDBRANCH  26  31
ENDBRANCH  18  25
ENDBRANCH  13  17
ENDBRANCH   6  12
ENDBRANCH   3   5
ENDBRANCH   2   3
ENDBRANCH   1   2
BRANCH   1  33
ATOM     33  C   UNL A   1      43.812  18.964  25.018  1.00  0.00     0.275 C 
BRANCH  33  34
ATOM     34  O   UNL A   1      44.587  20.081  25.491  1.00  0.00    -0.458 OA
BRANCH  34  35
ATOM     35  C   UNL A   1      44.751  21.081  24.591  1.00  0.00     0.338 C 
ATOM     36  O   UNL A   1      44.750  20.981  23.375  1.00  0.00    -0.246 OA
BRANCH  35  37
ATOM     37  C   UNL A   1      44.730  22.376  25.289  1.00  0.00     0.060 A 
ATOM     38  C   UNL A   1      44.185  23.450  24.589  1.00  0.00     0.016 A 
ATOM     39  C   UNL A   1      45.279  22.572  26.555  1.00  0.00     0.016 A 
ATOM     40  C   UNL A   1      44.154  24.722  25.146  1.00  0.00     0.010 A 
ATOM     41  C   UNL A   1      45.261  23.859  27.115  1.00  0.00     0.010 A 
ATOM     42  C   UNL A   1      44.698  24.943  26.413  1.00  0.00    -0.014 A 
BRANCH  42  43
ATOM     43  C   UNL A   1      44.753  26.333  26.939  1.00  0.00     0.031 A 
ATOM     44  C   UNL A   1      46.057  27.077  26.925  1.00  0.00     0.074 A 
ATOM     45  C   UNL A   1      43.634  26.947  27.364  1.00  0.00     0.049 A 
ATOM     46  N   UNL A   1      46.346  28.260  27.405  1.00  0.00    -0.248 NA
ATOM     47  C   UNL A   1      47.187  26.391  26.286  1.00  0.00     0.031 C 
ATOM     48  C   UNL A   1      42.293  26.360  27.350  1.00  0.00     0.029 A 
ATOM     49  N   UNL A   1      43.443  28.201  27.891  1.00  0.00    -0.354 N 
ATOM     50  C   UNL A   1      47.701  28.449  27.154  1.00  0.00     0.074 A 
ATOM     51  C   UNL A   1      48.175  27.245  26.501  1.00  0.00     0.031 C 
ATOM     52  C   UNL A   1      41.421  27.250  27.849  1.00  0.00     0.029 A 
ATOM     53  C   UNL A   1      42.147  28.443  28.280  1.00  0.00     0.049 A 
ATOM     54  H   UNL A   1      44.166  28.863  27.983  1.00  0.00     0.167 HD
ATOM     55  C   UNL A   1      48.473  29.527  27.444  1.00  0.00     0.034 A 
ATOM     56  C   UNL A   1      41.610  29.485  28.948  1.00  0.00     0.034 A 
ATOM     57  C   UNL A   1      47.975  30.718  28.093  1.00  0.00     0.049 A 
ATOM     58  C   UNL A   1      42.501  30.634  29.345  1.00  0.00     0.074 A 
ATOM     59  C   UNL A   1      48.663  31.874  28.420  1.00  0.00     0.029 A 
ATOM     60  N   UNL A   1      46.668  30.902  28.531  1.00  0.00    -0.354 N 
ATOM     61  N   UNL A   1      43.786  30.796  29.129  1.00  0.00    -0.248 NA
ATOM     62  C   UNL A   1      41.870  31.739  30.077  1.00  0.00     0.031 C 
ATOM     63  C   UNL A   1      47.797  32.716  29.128  1.00  0.00     0.029 A 
ATOM     64  C   UNL A   1      46.541  32.131  29.164  1.00  0.00     0.049 A 
ATOM     65  H   UNL A   1      45.936  30.254  28.410  1.00  0.00     0.167 HD
ATOM     66  C   UNL A   1      44.113  32.032  29.683  1.00  0.00     0.074 A 
ATOM     67  C   UNL A   1      42.886  32.576  30.227  1.00  0.00     0.031 C 
ATOM     68  C   UNL A   1      45.318  32.659  29.729  1.00  0.00     0.034 A 
BRANCH  55  69
ATOM     69  C   UNL A   1      49.950  29.417  27.137  1.00  0.00     0.023 A 
ATOM     70  C   UNL A   1      50.501  29.878  25.928  1.00  0.00     0.031 A 
ATOM     71  C   UNL A   1      50.809  28.770  28.045  1.00  0.00     0.131 A 
ATOM     72  C   UNL A   1      51.840  29.593  25.616  1.00  0.00     0.055 A 
ATOM     73  C   UNL A   1      52.164  28.576  27.769  1.00  0.00     0.041 A 
ATOM     74  F   UNL A   1      50.340  28.288  29.206  1.00  0.00    -0.206 F 
ATOM     75  C   UNL A   1      52.682  28.968  26.539  1.00  0.00     0.022 A 
BRANCH  72  76
ATOM     76  S   UNL A   1      52.412  29.873  23.916  1.00  0.00     0.124 S 
ATOM     77  O   UNL A   1      53.858  29.970  24.103  1.00  0.00    -0.237 OA
ATOM     78  O   UNL A   1      51.935  28.682  23.223  1.00  0.00    -0.237 OA
ATOM     79  O   UNL A   1      51.757  31.123  23.535  1.00  0.00    -0.744 OA
ENDBRANCH  72  76
ENDBRANCH  55  69
BRANCH  56  80
ATOM     80  C   UNL A   1      40.174  29.446  29.354  1.00  0.00     0.023 A 
ATOM     81  C   UNL A   1      39.789  29.268  30.691  1.00  0.00     0.031 A 
ATOM     82  C   UNL A   1      39.160  29.573  28.386  1.00  0.00     0.131 A 
ATOM     83  C   UNL A   1      38.424  29.202  31.021  1.00  0.00     0.055 A 
ATOM     84  C   UNL A   1      37.807  29.559  28.725  1.00  0.00     0.041 A 
ATOM     85  F   UNL A   1      39.474  29.736  27.091  1.00  0.00    -0.206 F 
ATOM     86  C   UNL A   1      37.432  29.365  30.050  1.00  0.00     0.022 A 
BRANCH  83  87
ATOM     87  S   UNL A   1      37.956  28.841  32.736  1.00  0.00     0.124 S 
ATOM     88  O   UNL A   1      36.610  29.401  32.801  1.00  0.00    -0.237 OA
ATOM     89  O   UNL A   1      38.048  27.386  32.779  1.00  0.00    -0.237 OA
ATOM     90  O   UNL A   1      38.965  29.550  33.521  1.00  0.00    -0.744 OA
ENDBRANCH  83  87
ENDBRANCH  56  80
BRANCH  68  91
ATOM     91  C   UNL A   1      45.355  34.031  30.362  1.00  0.00     0.023 A 
ATOM     92  C   UNL A   1      45.082  35.199  29.627  1.00  0.00     0.031 A 
ATOM     93  C   UNL A   1      45.675  34.172  31.726  1.00  0.00     0.131 A 
ATOM     94  C   UNL A   1      45.187  36.455  30.244  1.00  0.00     0.055 A 
ATOM     95  C   UNL A   1      45.714  35.419  32.349  1.00  0.00     0.041 A 
ATOM     96  F   UNL A   1      45.951  33.094  32.477  1.00  0.00    -0.206 F 
ATOM     97  C   UNL A   1      45.482  36.572  31.605  1.00  0.00     0.022 A 
BRANCH  94  98
ATOM     98  S   UNL A   1      45.029  37.947  29.224  1.00  0.00     0.124 S 
ATOM     99  O   UNL A   1      46.183  38.731  29.653  1.00  0.00    -0.237 OA
ATOM    100  O   UNL A   1      45.094  37.409  27.869  1.00  0.00    -0.237 OA
ATOM    101  O   UNL A   1      43.730  38.494  29.611  1.00  0.00    -0.744 OA
ENDBRANCH  94  98
ENDBRANCH  68  91
ENDBRANCH  42  43
ENDBRANCH  35  37
ENDBRANCH  34  35
ENDBRANCH  33  34
ENDBRANCH   1  33
TORSDOF 18
ENDMDL
MODEL 2
REMARK VINA RESULT:     -11.1      0.643      7.373
REMARK SMILES COc1ccc(N2C(=O)/C(=C\c3ccc(-c4ccc(Cl)c(C(=O)OCCOC(=O)c5ccc(-c6c7nc(c(-c8cc(S(=O)(=O)[O-])ccc8F)c8ccc([nH]8)c(-c8cc(S(=O)(=O)[O-])ccc8F)c8nc(c(-c9cc(S(=O)(=O)[O-])ccc9F)c9ccc6[nH]9)C=C8)C=C7)cc5)c4)o3)SC2=S)cc1
REMARK SMILES IDX 25 1 24 2 22 3 23 4 21 5 16 6 17 7 93 8 18 9 19 10 20 11
REMARK SMILES IDX 15 12 12 13 13 14 94 15 14 16 11 17 7 18 8 19 96 20 9 21
REMARK SMILES IDX 10 22 95 23 97 24 6 25 3 26 4 27 99 28 5 29 98 30 2 31 1 32
REMARK SMILES IDX 26 33 27 34 28 35 29 36 30 37 31 38 92 39 32 40 91 41 33 42
REMARK SMILES IDX 34 43 35 44 85 45 36 46 90 47 84 48 86 49 37 50 89 51 83 52
REMARK SMILES IDX 82 53 38 55 70 56 50 57 69 58 51 59 54 60 68 61 87 62 52 63
REMARK SMILES IDX 53 64 67 66 88 67 55 68 39 69 40 70 48 71 41 72 47 73 49 74
REMARK SMILES IDX 46 75 42 76 43 77 44 78 45 79 71 80 72 81 80 82 73 83 79 84
REMARK SMILES IDX 81 85 78 86 74 87 75 88 76 89 77 90 56 91 57 92 65 93 58 94
REMARK SMILES IDX 64 95 66 96 63 97 59 98 60 99 61 100 62 101
REMARK H PARENT 86 54 54 65
REMARK Flexibility Score: inf
ROOT
ATOM      1  C   UNL A   1      42.564  18.872  26.040  1.00  0.00     0.275 C 
ENDROOT
BRANCH   1   2
ATOM      2  O   UNL A   1      41.912  20.151  26.164  1.00  0.00    -0.458 OA
BRANCH   2   3
ATOM      3  C   UNL A   1      41.071  20.329  27.218  1.00  0.00     0.339 C 
ATOM      4  O   UNL A   1      41.022  19.621  28.207  1.00  0.00    -0.246 OA
BRANCH   3   5
ATOM      5  C   UNL A   1      40.251  21.552  26.981  1.00  0.00     0.079 A 
ATOM      6  C   UNL A   1      38.277  22.548  25.933  1.00  0.00     0.018 A 
ATOM      7  C   UNL A   1      38.728  23.819  26.287  1.00  0.00     0.013 A 
ATOM      8  C   UNL A   1      39.071  21.432  26.231  1.00  0.00     0.029 A 
ATOM      9  C   UNL A   1      39.881  23.950  27.066  1.00  0.00     0.022 A 
ATOM     10  C   UNL A   1      40.604  22.817  27.471  1.00  0.00     0.055 A 
ATOM     11  Cl  UNL A   1      41.900  23.089  28.581  1.00  0.00    -0.083 Cl
BRANCH   6  12
ATOM     12  C   UNL A   1      36.926  22.329  25.451  1.00  0.00     0.134 A 
ATOM     13  C   UNL A   1      35.201  22.656  24.109  1.00  0.00     0.128 A 
ATOM     14  C   UNL A   1      34.774  21.857  25.164  1.00  0.00     0.051 A 
ATOM     15  O   UNL A   1      36.544  22.914  24.282  1.00  0.00    -0.457 OA
ATOM     16  C   UNL A   1      35.869  21.660  26.022  1.00  0.00     0.051 A 
BRANCH  13  17
ATOM     17  C   UNL A   1      34.421  23.159  23.037  1.00  0.00     0.068 C 
ATOM     18  N   UNL A   1      33.029  26.394  24.024  1.00  0.00    -0.261 N 
ATOM     19  C   UNL A   1      33.968  25.378  24.182  1.00  0.00     0.270 C 
ATOM     20  C   UNL A   1      32.199  26.302  22.918  1.00  0.00     0.152 C 
ATOM     21  O   UNL A   1      34.790  25.293  25.084  1.00  0.00    -0.268 OA
ATOM     22  C   UNL A   1      33.810  24.351  23.110  1.00  0.00     0.084 C 
ATOM     23  S   UNL A   1      32.631  24.873  21.971  1.00  0.00    -0.054 SA
ATOM     24  S   UNL A   1      31.002  27.340  22.382  1.00  0.00    -0.051 S 
BRANCH  18  25
ATOM     25  C   UNL A   1      32.996  27.444  24.990  1.00  0.00     0.051 A 
ATOM     26  C   UNL A   1      33.089  29.538  26.869  1.00  0.00     0.119 A 
ATOM     27  C   UNL A   1      33.192  29.814  25.509  1.00  0.00     0.048 A 
ATOM     28  C   UNL A   1      32.915  28.221  27.294  1.00  0.00     0.048 A 
ATOM     29  C   UNL A   1      33.167  28.775  24.578  1.00  0.00     0.030 A 
ATOM     30  C   UNL A   1      32.866  27.179  26.359  1.00  0.00     0.030 A 
BRANCH  26  31
ATOM     31  O   UNL A   1      33.110  30.618  27.705  1.00  0.00    -0.497 OA
ATOM     32  C   UNL A   1      34.358  31.303  27.739  1.00  0.00     0.278 C 
ENDBRANCH  26  31
ENDBRANCH  18  25
ENDBRANCH  13  17
ENDBRANCH   6  12
ENDBRANCH   3   5
ENDBRANCH   2   3
ENDBRANCH   1   2
BRANCH   1  33
ATOM     33  C   UNL A   1      43.725  18.960  25.045  1.00  0.00     0.275 C 
BRANCH  33  34
ATOM     34  O   UNL A   1      44.647  20.002  25.416  1.00  0.00    -0.458 OA
BRANCH  34  35
ATOM     35  C   UNL A   1      44.740  21.021  24.528  1.00  0.00     0.338 C 
ATOM     36  O   UNL A   1      44.597  20.955  23.318  1.00  0.00    -0.246 OA
BRANCH  35  37
ATOM     37  C   UNL A   1      44.844  22.296  25.255  1.00  0.00     0.060 A 
ATOM     38  C   UNL A   1      44.543  23.449  24.532  1.00  0.00     0.016 A 
ATOM     39  C   UNL A   1      45.283  22.392  26.573  1.00  0.00     0.016 A 
ATOM     40  C   UNL A   1      44.647  24.704  25.117  1.00  0.00     0.010 A 
ATOM     41  C   UNL A   1      45.402  23.660  27.163  1.00  0.00     0.010 A 
ATOM     42  C   UNL A   1      45.085  24.825  26.438  1.00  0.00    -0.014 A 
BRANCH  42  43
ATOM     43  C   UNL A   1      45.295  26.184  27.003  1.00  0.00     0.031 A 
ATOM     44  C   UNL A   1      44.134  26.922  27.606  1.00  0.00     0.074 A 
ATOM     45  C   UNL A   1      46.526  26.728  27.038  1.00  0.00     0.049 A 
ATOM     46  N   UNL A   1      44.076  28.140  28.079  1.00  0.00    -0.248 NA
ATOM     47  C   UNL A   1      42.867  26.183  27.680  1.00  0.00     0.031 C 
ATOM     48  C   UNL A   1      47.747  26.077  26.561  1.00  0.00     0.029 A 
ATOM     49  N   UNL A   1      46.955  27.950  27.494  1.00  0.00    -0.354 N 
ATOM     50  C   UNL A   1      42.758  28.328  28.481  1.00  0.00     0.074 A 
ATOM     51  C   UNL A   1      42.050  27.102  28.170  1.00  0.00     0.031 C 
ATOM     52  C   UNL A   1      48.785  26.909  26.744  1.00  0.00     0.029 A 
ATOM     53  C   UNL A   1      48.296  28.173  27.289  1.00  0.00     0.049 A 
ATOM     54  H   UNL A   1      46.359  28.604  27.925  1.00  0.00     0.167 HD
ATOM     55  C   UNL A   1      42.195  29.422  29.053  1.00  0.00     0.034 A 
ATOM     56  C   UNL A   1      49.041  29.283  27.475  1.00  0.00     0.034 A 
ATOM     57  C   UNL A   1      42.925  30.632  29.357  1.00  0.00     0.049 A 
ATOM     58  C   UNL A   1      48.379  30.521  28.025  1.00  0.00     0.074 A 
ATOM     59  C   UNL A   1      42.459  31.793  29.950  1.00  0.00     0.029 A 
ATOM     60  N   UNL A   1      44.270  30.846  29.077  1.00  0.00    -0.354 N 
ATOM     61  N   UNL A   1      47.127  30.702  28.379  1.00  0.00    -0.248 NA
ATOM     62  C   UNL A   1      49.230  31.704  28.202  1.00  0.00     0.031 C 
ATOM     63  C   UNL A   1      43.497  32.733  29.950  1.00  0.00     0.029 A 
ATOM     64  C   UNL A   1      44.639  32.133  29.442  1.00  0.00     0.049 A 
ATOM     65  H   UNL A   1      44.874  30.180  28.676  1.00  0.00     0.167 HD
ATOM     66  C   UNL A   1      47.045  32.015  28.837  1.00  0.00     0.074 A 
ATOM     67  C   UNL A   1      48.379  32.571  28.729  1.00  0.00     0.031 C 
ATOM     68  C   UNL A   1      45.966  32.692  29.309  1.00  0.00     0.034 A 
BRANCH  55  69
ATOM     69  C   UNL A   1      40.704  29.378  29.300  1.00  0.00     0.023 A 
ATOM     70  C   UNL A   1      40.158  29.307  30.594  1.00  0.00     0.031 A 
ATOM     71  C   UNL A   1      39.813  29.332  28.210  1.00  0.00     0.131 A 
ATOM     72  C   UNL A   1      38.782  29.089  30.763  1.00  0.00     0.055 A 
ATOM     73  C   UNL A   1      38.434  29.212  28.389  1.00  0.00     0.041 A 
ATOM     74  F   UNL A   1      40.272  29.373  26.950  1.00  0.00    -0.206 F 
ATOM     75  C   UNL A   1      37.912  29.067  29.670  1.00  0.00     0.022 A 
BRANCH  72  76
ATOM     76  S   UNL A   1      38.172  28.640  32.412  1.00  0.00     0.124 S 
ATOM     77  O   UNL A   1      39.023  29.456  33.275  1.00  0.00    -0.237 OA
ATOM     78  O   UNL A   1      36.768  29.029  32.346  1.00  0.00    -0.237 OA
ATOM     79  O   UNL A   1      38.419  27.200  32.490  1.00  0.00    -0.744 OA
ENDBRANCH  72  76
ENDBRANCH  55  69
BRANCH  56  80
ATOM     80  C   UNL A   1      50.473  29.294  27.058  1.00  0.00     0.023 A 
ATOM     81  C   UNL A   1      50.870  29.748  25.791  1.00  0.00     0.031 A 
ATOM     82  C   UNL A   1      51.470  28.828  27.935  1.00  0.00     0.131 A 
ATOM     83  C   UNL A   1      52.228  29.707  25.430  1.00  0.00     0.055 A 
ATOM     84  C   UNL A   1      52.823  28.838  27.590  1.00  0.00     0.041 A 
ATOM     85  F   UNL A   1      51.144  28.375  29.156  1.00  0.00    -0.206 F 
ATOM     86  C   UNL A   1      53.207  29.272  26.327  1.00  0.00     0.022 A 
BRANCH  83  87
ATOM     87  S   UNL A   1      52.697  30.177  23.741  1.00  0.00     0.124 S 
ATOM     88  O   UNL A   1      52.783  28.877  23.083  1.00  0.00    -0.237 OA
ATOM     89  O   UNL A   1      51.582  31.028  23.339  1.00  0.00    -0.237 OA
ATOM     90  O   UNL A   1      53.972  30.869  23.922  1.00  0.00    -0.744 OA
ENDBRANCH  83  87
ENDBRANCH  56  80
BRANCH  68  91
ATOM     91  C   UNL A   1      46.198  34.109  29.783  1.00  0.00     0.023 A 
ATOM     92  C   UNL A   1      46.034  35.216  28.932  1.00  0.00     0.031 A 
ATOM     93  C   UNL A   1      46.596  34.353  31.111  1.00  0.00     0.131 A 
ATOM     94  C   UNL A   1      46.318  36.509  29.401  1.00  0.00     0.055 A 
ATOM     95  C   UNL A   1      46.814  35.645  31.590  1.00  0.00     0.041 A 
ATOM     96  F   UNL A   1      46.775  33.335  31.968  1.00  0.00    -0.206 F 
ATOM     97  C   UNL A   1      46.688  36.732  30.730  1.00  0.00     0.022 A 
BRANCH  94  98
ATOM     98  S   UNL A   1      46.294  37.891  28.227  1.00  0.00     0.124 S 
ATOM     99  O   UNL A   1      45.326  38.794  28.841  1.00  0.00    -0.237 OA
ATOM    100  O   UNL A   1      47.683  38.339  28.242  1.00  0.00    -0.237 OA
ATOM    101  O   UNL A   1      45.858  37.273  26.976  1.00  0.00    -0.744 OA
ENDBRANCH  94  98
ENDBRANCH  68  91
ENDBRANCH  42  43
ENDBRANCH  35  37
ENDBRANCH  34  35
ENDBRANCH  33  34
ENDBRANCH   1  33
TORSDOF 18
ENDMDL
MODEL 3
REMARK VINA RESULT:     -11.0      4.475      8.156
REMARK SMILES COc1ccc(N2C(=O)/C(=C\c3ccc(-c4ccc(Cl)c(C(=O)OCCOC(=O)c5ccc(-c6c7nc(c(-c8cc(S(=O)(=O)[O-])ccc8F)c8ccc([nH]8)c(-c8cc(S(=O)(=O)[O-])ccc8F)c8nc(c(-c9cc(S(=O)(=O)[O-])ccc9F)c9ccc6[nH]9)C=C8)C=C7)cc5)c4)o3)SC2=S)cc1
REMARK SMILES IDX 25 1 24 2 22 3 23 4 21 5 16 6 17 7 93 8 18 9 19 10 20 11
REMARK SMILES IDX 15 12 12 13 13 14 94 15 14 16 11 17 7 18 8 19 96 20 9 21
REMARK SMILES IDX 10 22 95 23 97 24 6 25 3 26 4 27 99 28 5 29 98 30 2 31 1 32
REMARK SMILES IDX 26 33 27 34 28 35 29 36 30 37 31 38 92 39 32 40 91 41 33 42
REMARK SMILES IDX 34 43 35 44 85 45 36 46 90 47 84 48 86 49 37 50 89 51 83 52
REMARK SMILES IDX 82 53 38 55 70 56 50 57 69 58 51 59 54 60 68 61 87 62 52 63
REMARK SMILES IDX 53 64 67 66 88 67 55 68 39 69 40 70 48 71 41 72 47 73 49 74
REMARK SMILES IDX 46 75 42 76 43 77 44 78 45 79 71 80 72 81 80 82 73 83 79 84
REMARK SMILES IDX 81 85 78 86 74 87 75 88 76 89 77 90 56 91 57 92 65 93 58 94
REMARK SMILES IDX 64 95 66 96 63 97 59 98 60 99 61 100 62 101
REMARK H PARENT 86 54 54 65
REMARK Flexibility Score: inf
ROOT
ATOM      1  C   UNL A   1      42.980  20.940  26.303  1.00  0.00     0.275 C 
ENDROOT
BRANCH   1   2
ATOM      2  O   UNL A   1      42.162  22.108  26.511  1.00  0.00    -0.458 OA
BRANCH   2   3
ATOM      3  C   UNL A   1      42.170  22.669  27.751  1.00  0.00     0.339 C 
ATOM      4  O   UNL A   1      42.912  22.352  28.662  1.00  0.00    -0.246 OA
BRANCH   3   5
ATOM      5  C   UNL A   1      41.153  23.759  27.793  1.00  0.00     0.079 A 
ATOM      6  C   UNL A   1      40.575  26.022  28.522  1.00  0.00     0.018 A 
ATOM      7  C   UNL A   1      39.255  25.815  28.123  1.00  0.00     0.013 A 
ATOM      8  C   UNL A   1      41.497  24.973  28.408  1.00  0.00     0.029 A 
ATOM      9  C   UNL A   1      38.907  24.626  27.476  1.00  0.00     0.022 A 
ATOM     10  C   UNL A   1      39.867  23.628  27.249  1.00  0.00     0.055 A 
ATOM     11  Cl  UNL A   1      39.368  22.287  26.280  1.00  0.00    -0.083 Cl
BRANCH   6  12
ATOM     12  C   UNL A   1      41.068  27.344  28.859  1.00  0.00     0.134 A 
ATOM     13  C   UNL A   1      41.357  29.099  30.169  1.00  0.00     0.128 A 
ATOM     14  C   UNL A   1      41.815  29.436  28.900  1.00  0.00     0.051 A 
ATOM     15  O   UNL A   1      40.928  27.790  30.137  1.00  0.00    -0.457 OA
ATOM     16  C   UNL A   1      41.619  28.323  28.065  1.00  0.00     0.051 A 
BRANCH  13  17
ATOM     17  C   UNL A   1      41.303  29.932  31.316  1.00  0.00     0.068 C 
ATOM     18  N   UNL A   1      38.366  32.097  31.047  1.00  0.00    -0.261 N 
ATOM     19  C   UNL A   1      39.066  30.950  30.681  1.00  0.00     0.270 C 
ATOM     20  C   UNL A   1      38.894  32.835  32.094  1.00  0.00     0.152 C 
ATOM     21  O   UNL A   1      38.752  30.168  29.793  1.00  0.00    -0.268 OA
ATOM     22  C   UNL A   1      40.308  30.814  31.499  1.00  0.00     0.084 C 
ATOM     23  S   UNL A   1      40.346  32.035  32.710  1.00  0.00    -0.054 SA
ATOM     24  S   UNL A   1      38.318  34.222  32.831  1.00  0.00    -0.051 S 
BRANCH  18  25
ATOM     25  C   UNL A   1      37.172  32.419  30.334  1.00  0.00     0.051 A 
ATOM     26  C   UNL A   1      34.868  33.210  28.926  1.00  0.00     0.119 A 
ATOM     27  C   UNL A   1      36.103  33.182  28.285  1.00  0.00     0.048 A 
ATOM     28  C   UNL A   1      34.774  32.821  30.262  1.00  0.00     0.048 A 
ATOM     29  C   UNL A   1      37.249  32.810  28.989  1.00  0.00     0.030 A 
ATOM     30  C   UNL A   1      35.921  32.425  30.963  1.00  0.00     0.030 A 
BRANCH  26  31
ATOM     31  O   UNL A   1      33.799  33.573  28.156  1.00  0.00    -0.497 OA
ATOM     32  C   UNL A   1      32.966  34.565  28.748  1.00  0.00     0.278 C 
ENDBRANCH  26  31
ENDBRANCH  18  25
ENDBRANCH  13  17
ENDBRANCH   6  12
ENDBRANCH   3   5
ENDBRANCH   2   3
ENDBRANCH   1   2
BRANCH   1  33
ATOM     33  C   UNL A   1      43.891  21.136  25.088  1.00  0.00     0.275 C 
BRANCH  33  34
ATOM     34  O   UNL A   1      43.731  22.454  24.528  1.00  0.00    -0.458 OA
BRANCH  34  35
ATOM     35  C   UNL A   1      44.875  23.173  24.430  1.00  0.00     0.338 C 
ATOM     36  O   UNL A   1      45.669  23.166  23.504  1.00  0.00    -0.246 OA
BRANCH  35  37
ATOM     37  C   UNL A   1      44.937  24.146  25.532  1.00  0.00     0.060 A 
ATOM     38  C   UNL A   1      43.978  25.157  25.522  1.00  0.00     0.016 A 
ATOM     39  C   UNL A   1      45.927  24.131  26.512  1.00  0.00     0.016 A 
ATOM     40  C   UNL A   1      43.974  26.146  26.497  1.00  0.00     0.010 A 
ATOM     41  C   UNL A   1      45.934  25.137  27.492  1.00  0.00     0.010 A 
ATOM     42  C   UNL A   1      44.957  26.152  27.490  1.00  0.00    -0.014 A 
BRANCH  42  43
ATOM     43  C   UNL A   1      44.998  27.283  28.454  1.00  0.00     0.031 A 
ATOM     44  C   UNL A   1      44.708  27.028  29.905  1.00  0.00     0.074 A 
ATOM     45  C   UNL A   1      45.354  28.516  28.047  1.00  0.00     0.049 A 
ATOM     46  N   UNL A   1      44.611  27.877  30.897  1.00  0.00    -0.248 NA
ATOM     47  C   UNL A   1      44.499  25.626  30.286  1.00  0.00     0.031 C 
ATOM     48  C   UNL A   1      45.739  28.873  26.681  1.00  0.00     0.029 A 
ATOM     49  N   UNL A   1      45.451  29.697  28.741  1.00  0.00    -0.354 N 
ATOM     50  C   UNL A   1      44.297  27.115  32.017  1.00  0.00     0.074 A 
ATOM     51  C   UNL A   1      44.198  25.739  31.570  1.00  0.00     0.031 C 
ATOM     52  C   UNL A   1      46.025  30.184  26.636  1.00  0.00     0.029 A 
ATOM     53  C   UNL A   1      45.782  30.773  27.951  1.00  0.00     0.049 A 
ATOM     54  H   UNL A   1      45.299  29.766  29.711  1.00  0.00     0.167 HD
ATOM     55  C   UNL A   1      44.107  27.528  33.296  1.00  0.00     0.034 A 
ATOM     56  C   UNL A   1      45.837  32.090  28.239  1.00  0.00     0.034 A 
ATOM     57  C   UNL A   1      44.216  28.906  33.716  1.00  0.00     0.049 A 
ATOM     58  C   UNL A   1      45.533  32.542  29.645  1.00  0.00     0.074 A 
ATOM     59  C   UNL A   1      44.061  29.433  34.987  1.00  0.00     0.029 A 
ATOM     60  N   UNL A   1      44.489  29.979  32.876  1.00  0.00    -0.354 N 
ATOM     61  N   UNL A   1      45.211  31.821  30.694  1.00  0.00    -0.248 NA
ATOM     62  C   UNL A   1      45.600  33.985  29.905  1.00  0.00     0.031 C 
ATOM     63  C   UNL A   1      44.155  30.828  34.898  1.00  0.00     0.029 A 
ATOM     64  C   UNL A   1      44.461  31.169  33.590  1.00  0.00     0.049 A 
ATOM     65  H   UNL A   1      44.675  29.906  31.912  1.00  0.00     0.167 HD
ATOM     66  C   UNL A   1      45.055  32.723  31.744  1.00  0.00     0.074 A 
ATOM     67  C   UNL A   1      45.334  34.037  31.202  1.00  0.00     0.031 C 
ATOM     68  C   UNL A   1      44.717  32.482  33.038  1.00  0.00     0.034 A 
BRANCH  55  69
ATOM     69  C   UNL A   1      43.679  26.481  34.300  1.00  0.00     0.023 A 
ATOM     70  C   UNL A   1      44.588  25.572  34.870  1.00  0.00     0.031 A 
ATOM     71  C   UNL A   1      42.319  26.345  34.635  1.00  0.00     0.131 A 
ATOM     72  C   UNL A   1      44.114  24.510  35.657  1.00  0.00     0.055 A 
ATOM     73  C   UNL A   1      41.867  25.344  35.497  1.00  0.00     0.041 A 
ATOM     74  F   UNL A   1      41.398  27.168  34.107  1.00  0.00    -0.206 F 
ATOM     75  C   UNL A   1      42.763  24.404  35.995  1.00  0.00     0.022 A 
BRANCH  72  76
ATOM     76  S   UNL A   1      45.256  23.160  36.068  1.00  0.00     0.124 S 
ATOM     77  O   UNL A   1      45.278  23.225  37.528  1.00  0.00    -0.237 OA
ATOM     78  O   UNL A   1      44.592  21.998  35.490  1.00  0.00    -0.237 OA
ATOM     79  O   UNL A   1      46.505  23.556  35.417  1.00  0.00    -0.744 OA
ENDBRANCH  72  76
ENDBRANCH  55  69
BRANCH  56  80
ATOM     80  C   UNL A   1      46.113  33.076  27.154  1.00  0.00     0.023 A 
ATOM     81  C   UNL A   1      47.417  33.492  26.848  1.00  0.00     0.031 A 
ATOM     82  C   UNL A   1      45.052  33.629  26.413  1.00  0.00     0.131 A 
ATOM     83  C   UNL A   1      47.625  34.450  25.840  1.00  0.00     0.055 A 
ATOM     84  C   UNL A   1      45.268  34.540  25.378  1.00  0.00     0.041 A 
ATOM     85  F   UNL A   1      43.784  33.271  26.670  1.00  0.00    -0.206 F 
ATOM     86  C   UNL A   1      46.561  34.962  25.093  1.00  0.00     0.022 A 
BRANCH  83  87
ATOM     87  S   UNL A   1      49.307  35.067  25.554  1.00  0.00     0.124 S 
ATOM     88  O   UNL A   1      49.969  33.886  25.011  1.00  0.00    -0.237 OA
ATOM     89  O   UNL A   1      49.076  36.161  24.617  1.00  0.00    -0.237 OA
ATOM     90  O   UNL A   1      49.752  35.475  26.885  1.00  0.00    -0.744 OA
ENDBRANCH  83  87
ENDBRANCH  56  80
BRANCH  68  91
ATOM     91  C   UNL A   1      44.670  33.672  33.969  1.00  0.00     0.023 A 
ATOM     92  C   UNL A   1      43.476  34.365  34.235  1.00  0.00     0.031 A 
ATOM     93  C   UNL A   1      45.846  34.123  34.597  1.00  0.00     0.131 A 
ATOM     94  C   UNL A   1      43.492  35.500  35.060  1.00  0.00     0.055 A 
ATOM     95  C   UNL A   1      45.846  35.214  35.468  1.00  0.00     0.041 A 
ATOM     96  F   UNL A   1      47.018  33.506  34.378  1.00  0.00    -0.206 F 
ATOM     97  C   UNL A   1      44.666  35.917  35.694  1.00  0.00     0.022 A 
BRANCH  94  98
ATOM     98  S   UNL A   1      41.980  36.489  35.220  1.00  0.00     0.124 S 
ATOM     99  O   UNL A   1      41.912  36.709  36.661  1.00  0.00    -0.237 OA
ATOM    100  O   UNL A   1      42.286  37.664  34.410  1.00  0.00    -0.237 OA
ATOM    101  O   UNL A   1      40.940  35.617  34.676  1.00  0.00    -0.744 OA
ENDBRANCH  94  98
ENDBRANCH  68  91
ENDBRANCH  42  43
ENDBRANCH  35  37
ENDBRANCH  34  35
ENDBRANCH  33  34
ENDBRANCH   1  33
TORSDOF 18
ENDMDL
