MODEL 1
REMARK VINA RESULT:     -11.9      0.000      0.000
REMARK SMILES Cc1cc(C)cc(C(=O)N2CC[C@H](C(=O)OCCOC(=O)c3ccc(-c4c5nc(c(-c6cc(S(=O)(=O)[O-])ccc6F)c6ccc([nH]6)c(-c6cc(S(=O)(=O)[O-])ccc6F)c6nc(c(-c7cc(S(=O)(=O)[O-])ccc7F)c7ccc4[nH]7)C=C6)C=C5)cc3)[C@@H]2C)c1
REMARK SMILES IDX 18 1 17 2 16 3 14 4 15 5 13 6 10 7 11 8 85 9 12 10 86 11
REMARK SMILES IDX 8 12 9 13 7 14 1 15 2 16 3 17 87 18 4 19 5 20 6 21 19 22
REMARK SMILES IDX 20 23 21 24 22 25 23 26 84 27 24 28 83 29 25 30 26 31 27 32
REMARK SMILES IDX 77 33 28 34 82 35 76 36 78 37 29 38 81 39 75 40 74 41 30 43
REMARK SMILES IDX 62 44 42 45 61 46 43 47 46 48 60 49 79 50 44 51 45 52 59 54
REMARK SMILES IDX 80 55 47 56 31 57 32 58 40 59 33 60 39 61 41 62 38 63 34 64
REMARK SMILES IDX 35 65 36 66 37 67 63 68 64 69 72 70 65 71 71 72 73 73 70 74
REMARK SMILES IDX 66 75 67 76 68 77 69 78 48 79 49 80 57 81 50 82 56 83 58 84
REMARK SMILES IDX 55 85 51 86 52 87 53 88 54 89
REMARK H PARENT 78 42 46 53
REMARK Flexibility Score: inf
ROOT
ATOM      1  C   UNL A   1      36.221  21.020  24.612  1.00  0.00     0.275 C 
ENDROOT
BRANCH   1   2
ATOM      2  C   UNL A   1      34.877  20.435  25.039  1.00  0.00     0.274 C 
BRANCH   2   3
ATOM      3  O   UNL A   1      34.155  21.346  25.899  1.00  0.00    -0.462 OA
BRANCH   3   4
ATOM      4  C   UNL A   1      33.643  22.449  25.280  1.00  0.00     0.311 C 
ATOM      5  O   UNL A   1      33.036  22.421  24.217  1.00  0.00    -0.252 OA
BRANCH   4   6
ATOM      6  C   UNL A   1      34.055  23.727  25.995  1.00  0.00     0.123 C 
ATOM      7  N   UNL A   1      33.000  25.729  25.244  1.00  0.00    -0.335 N 
ATOM      8  C   UNL A   1      34.037  25.409  24.287  1.00  0.00     0.121 C 
ATOM      9  C   UNL A   1      32.955  24.754  26.345  1.00  0.00     0.096 C 
ATOM     10  C   UNL A   1      34.996  24.546  25.091  1.00  0.00     0.039 C 
ATOM     11  C   UNL A   1      31.558  24.203  26.594  1.00  0.00     0.032 C 
BRANCH   7  12
ATOM     12  C   UNL A   1      32.295  26.911  25.074  1.00  0.00     0.254 C 
ATOM     13  O   UNL A   1      31.511  27.056  24.139  1.00  0.00    -0.269 OA
BRANCH  12  14
ATOM     14  C   UNL A   1      32.630  28.094  25.915  1.00  0.00     0.040 A 
ATOM     15  C   UNL A   1      35.641  29.469  27.800  1.00  0.00     0.044 C 
ATOM     16  C   UNL A   1      34.282  29.370  27.175  1.00  0.00    -0.050 A 
ATOM     17  C   UNL A   1      33.420  30.471  27.169  1.00  0.00     0.006 A 
ATOM     18  C   UNL A   1      33.892  28.200  26.515  1.00  0.00     0.017 A 
ATOM     19  C   UNL A   1      32.173  30.405  26.528  1.00  0.00    -0.050 A 
ATOM     20  C   UNL A   1      31.317  31.639  26.439  1.00  0.00     0.044 C 
ATOM     21  C   UNL A   1      31.780  29.209  25.910  1.00  0.00     0.017 A 
ENDBRANCH  12  14
ENDBRANCH   7  12
ENDBRANCH   4   6
ENDBRANCH   3   4
ENDBRANCH   2   3
ENDBRANCH   1   2
BRANCH   1  22
ATOM     22  O   UNL A   1      36.921  21.486  25.772  1.00  0.00    -0.458 OA
BRANCH  22  23
ATOM     23  C   UNL A   1      38.257  21.269  25.788  1.00  0.00     0.338 C 
ATOM     24  O   UNL A   1      38.828  20.268  25.372  1.00  0.00    -0.246 OA
BRANCH  23  25
ATOM     25  C   UNL A   1      38.953  22.444  26.364  1.00  0.00     0.060 A 
ATOM     26  C   UNL A   1      38.516  23.742  26.090  1.00  0.00     0.016 A 
ATOM     27  C   UNL A   1      40.115  22.260  27.115  1.00  0.00     0.016 A 
ATOM     28  C   UNL A   1      39.265  24.843  26.497  1.00  0.00     0.010 A 
ATOM     29  C   UNL A   1      40.821  23.372  27.596  1.00  0.00     0.010 A 
ATOM     30  C   UNL A   1      40.419  24.680  27.268  1.00  0.00    -0.014 A 
BRANCH  30  31
ATOM     31  C   UNL A   1      41.237  25.864  27.661  1.00  0.00     0.031 A 
ATOM     32  C   UNL A   1      40.631  26.930  28.536  1.00  0.00     0.074 A 
ATOM     33  C   UNL A   1      42.523  25.985  27.277  1.00  0.00     0.049 A 
ATOM     34  N   UNL A   1      41.059  28.139  28.796  1.00  0.00    -0.248 NA
ATOM     35  C   UNL A   1      39.354  26.593  29.179  1.00  0.00     0.031 C 
ATOM     36  C   UNL A   1      43.280  24.993  26.510  1.00  0.00     0.029 A 
ATOM     37  N   UNL A   1      43.431  26.993  27.496  1.00  0.00    -0.354 N 
ATOM     38  C   UNL A   1      40.073  28.730  29.580  1.00  0.00     0.074 A 
ATOM     39  C   UNL A   1      39.019  27.747  29.733  1.00  0.00     0.031 C 
ATOM     40  C   UNL A   1      44.545  25.416  26.372  1.00  0.00     0.029 A 
ATOM     41  C   UNL A   1      44.667  26.752  26.944  1.00  0.00     0.049 A 
ATOM     42  H   UNL A   1      43.217  27.810  28.001  1.00  0.00     0.167 HD
ATOM     43  C   UNL A   1      40.053  29.977  30.117  1.00  0.00     0.034 A 
ATOM     44  C   UNL A   1      45.763  27.533  26.864  1.00  0.00     0.034 A 
ATOM     45  C   UNL A   1      41.144  30.918  30.006  1.00  0.00     0.049 A 
ATOM     46  C   UNL A   1      45.702  28.935  27.411  1.00  0.00     0.074 A 
ATOM     47  C   UNL A   1      41.229  32.207  30.503  1.00  0.00     0.029 A 
ATOM     48  N   UNL A   1      42.353  30.662  29.370  1.00  0.00    -0.354 N 
ATOM     49  N   UNL A   1      44.713  29.540  28.027  1.00  0.00    -0.248 NA
ATOM     50  C   UNL A   1      46.896  29.768  27.222  1.00  0.00     0.031 C 
ATOM     51  C   UNL A   1      42.464  32.748  30.125  1.00  0.00     0.029 A 
ATOM     52  C   UNL A   1      43.180  31.774  29.447  1.00  0.00     0.049 A 
ATOM     53  H   UNL A   1      42.589  29.815  28.928  1.00  0.00     0.167 HD
ATOM     54  C   UNL A   1      45.169  30.823  28.307  1.00  0.00     0.074 A 
ATOM     55  C   UNL A   1      46.528  30.899  27.809  1.00  0.00     0.031 C 
ATOM     56  C   UNL A   1      44.523  31.848  28.919  1.00  0.00     0.034 A 
BRANCH  43  57
ATOM     57  C   UNL A   1      38.779  30.408  30.806  1.00  0.00     0.023 A 
ATOM     58  C   UNL A   1      37.847  31.263  30.194  1.00  0.00     0.031 A 
ATOM     59  C   UNL A   1      38.527  30.000  32.129  1.00  0.00     0.131 A 
ATOM     60  C   UNL A   1      36.756  31.751  30.931  1.00  0.00     0.055 A 
ATOM     61  C   UNL A   1      37.394  30.420  32.828  1.00  0.00     0.041 A 
ATOM     62  F   UNL A   1      39.390  29.200  32.775  1.00  0.00    -0.206 F 
ATOM     63  C   UNL A   1      36.510  31.317  32.236  1.00  0.00     0.022 A 
BRANCH  60  64
ATOM     64  S   UNL A   1      35.757  33.088  30.218  1.00  0.00     0.124 S 
ATOM     65  O   UNL A   1      35.601  33.986  31.359  1.00  0.00    -0.237 OA
ATOM     66  O   UNL A   1      36.605  33.576  29.136  1.00  0.00    -0.237 OA
ATOM     67  O   UNL A   1      34.532  32.412  29.795  1.00  0.00    -0.744 OA
ENDBRANCH  60  64
ENDBRANCH  43  57
BRANCH  44  68
ATOM     68  C   UNL A   1      46.987  27.040  26.170  1.00  0.00     0.023 A 
ATOM     69  C   UNL A   1      48.033  26.439  26.887  1.00  0.00     0.031 A 
ATOM     70  C   UNL A   1      47.133  27.180  24.778  1.00  0.00     0.131 A 
ATOM     71  C   UNL A   1      49.189  26.017  26.211  1.00  0.00     0.055 A 
ATOM     72  C   UNL A   1      48.262  26.714  24.104  1.00  0.00     0.041 A 
ATOM     73  F   UNL A   1      46.164  27.753  24.047  1.00  0.00    -0.206 F 
ATOM     74  C   UNL A   1      49.303  26.134  24.823  1.00  0.00     0.022 A 
BRANCH  71  75
ATOM     75  S   UNL A   1      50.574  25.352  27.178  1.00  0.00     0.124 S 
ATOM     76  O   UNL A   1      50.958  26.507  27.979  1.00  0.00    -0.237 OA
ATOM     77  O   UNL A   1      49.945  24.250  27.898  1.00  0.00    -0.237 OA
ATOM     78  O   UNL A   1      51.540  24.951  26.157  1.00  0.00    -0.744 OA
ENDBRANCH  71  75
ENDBRANCH  44  68
BRANCH  56  79
ATOM     79  C   UNL A   1      45.303  33.126  29.109  1.00  0.00     0.023 A 
ATOM     80  C   UNL A   1      45.360  34.111  28.107  1.00  0.00     0.031 A 
ATOM     81  C   UNL A   1      46.023  33.344  30.296  1.00  0.00     0.131 A 
ATOM     82  C   UNL A   1      46.162  35.247  28.290  1.00  0.00     0.055 A 
ATOM     83  C   UNL A   1      46.779  34.500  30.493  1.00  0.00     0.041 A 
ATOM     84  F   UNL A   1      46.005  32.434  31.283  1.00  0.00    -0.206 F 
ATOM     85  C   UNL A   1      46.862  35.454  29.482  1.00  0.00     0.022 A 
BRANCH  82  86
ATOM     86  S   UNL A   1      46.351  36.416  26.915  1.00  0.00     0.124 S 
ATOM     87  O   UNL A   1      46.264  35.537  25.754  1.00  0.00    -0.237 OA
ATOM     88  O   UNL A   1      45.225  37.322  27.117  1.00  0.00    -0.237 OA
ATOM     89  O   UNL A   1      47.668  37.007  27.145  1.00  0.00    -0.744 OA
ENDBRANCH  82  86
ENDBRANCH  56  79
ENDBRANCH  30  31
ENDBRANCH  23  25
ENDBRANCH  22  23
ENDBRANCH   1  22
TORSDOF 16
ENDMDL
MODEL 2
REMARK VINA RESULT:     -11.9      1.848      2.352
REMARK SMILES Cc1cc(C)cc(C(=O)N2CC[C@H](C(=O)OCCOC(=O)c3ccc(-c4c5nc(c(-c6cc(S(=O)(=O)[O-])ccc6F)c6ccc([nH]6)c(-c6cc(S(=O)(=O)[O-])ccc6F)c6nc(c(-c7cc(S(=O)(=O)[O-])ccc7F)c7ccc4[nH]7)C=C6)C=C5)cc3)[C@@H]2C)c1
REMARK SMILES IDX 18 1 17 2 16 3 14 4 15 5 13 6 10 7 11 8 85 9 12 10 86 11
REMARK SMILES IDX 8 12 9 13 7 14 1 15 2 16 3 17 87 18 4 19 5 20 6 21 19 22
REMARK SMILES IDX 20 23 21 24 22 25 23 26 84 27 24 28 83 29 25 30 26 31 27 32
REMARK SMILES IDX 77 33 28 34 82 35 76 36 78 37 29 38 81 39 75 40 74 41 30 43
REMARK SMILES IDX 62 44 42 45 61 46 43 47 46 48 60 49 79 50 44 51 45 52 59 54
REMARK SMILES IDX 80 55 47 56 31 57 32 58 40 59 33 60 39 61 41 62 38 63 34 64
REMARK SMILES IDX 35 65 36 66 37 67 63 68 64 69 72 70 65 71 71 72 73 73 70 74
REMARK SMILES IDX 66 75 67 76 68 77 69 78 48 79 49 80 57 81 50 82 56 83 58 84
REMARK SMILES IDX 55 85 51 86 52 87 53 88 54 89
REMARK H PARENT 78 42 46 53
REMARK Flexibility Score: inf
ROOT
ATOM      1  C   UNL A   1      35.970  20.700  25.338  1.00  0.00     0.275 C 
ENDROOT
BRANCH   1   2
ATOM      2  C   UNL A   1      34.944  21.346  26.267  1.00  0.00     0.274 C 
BRANCH   2   3
ATOM      3  O   UNL A   1      33.596  21.141  25.787  1.00  0.00    -0.462 OA
BRANCH   3   4
ATOM      4  C   UNL A   1      32.978  22.253  25.294  1.00  0.00     0.311 C 
ATOM      5  O   UNL A   1      32.110  22.878  25.889  1.00  0.00    -0.252 OA
BRANCH   4   6
ATOM      6  C   UNL A   1      33.392  22.524  23.856  1.00  0.00     0.123 C 
ATOM      7  N   UNL A   1      32.927  24.713  23.031  1.00  0.00    -0.335 N 
ATOM      8  C   UNL A   1      31.685  23.972  22.997  1.00  0.00     0.121 C 
ATOM      9  C   UNL A   1      34.039  23.888  23.527  1.00  0.00     0.096 C 
ATOM     10  C   UNL A   1      32.146  22.524  22.949  1.00  0.00     0.039 C 
ATOM     11  C   UNL A   1      34.824  24.560  24.646  1.00  0.00     0.032 C 
BRANCH   7  12
ATOM     12  C   UNL A   1      32.935  25.999  22.512  1.00  0.00     0.254 C 
ATOM     13  O   UNL A   1      33.743  26.330  21.647  1.00  0.00    -0.269 OA
BRANCH  12  14
ATOM     14  C   UNL A   1      32.089  27.051  23.139  1.00  0.00     0.040 A 
ATOM     15  C   UNL A   1      31.884  28.919  26.453  1.00  0.00     0.044 C 
ATOM     16  C   UNL A   1      31.630  28.520  25.031  1.00  0.00    -0.050 A 
ATOM     17  C   UNL A   1      30.783  29.282  24.219  1.00  0.00     0.006 A 
ATOM     18  C   UNL A   1      32.305  27.430  24.471  1.00  0.00     0.017 A 
ATOM     19  C   UNL A   1      30.593  28.952  22.867  1.00  0.00    -0.050 A 
ATOM     20  C   UNL A   1      29.767  29.854  21.991  1.00  0.00     0.044 C 
ATOM     21  C   UNL A   1      31.243  27.828  22.337  1.00  0.00     0.017 A 
ENDBRANCH  12  14
ENDBRANCH   7  12
ENDBRANCH   4   6
ENDBRANCH   3   4
ENDBRANCH   2   3
ENDBRANCH   1   2
BRANCH   1  22
ATOM     22  O   UNL A   1      37.035  21.628  25.097  1.00  0.00    -0.458 OA
BRANCH  22  23
ATOM     23  C   UNL A   1      38.256  21.262  25.553  1.00  0.00     0.338 C 
ATOM     24  O   UNL A   1      38.746  20.141  25.477  1.00  0.00    -0.246 OA
BRANCH  23  25
ATOM     25  C   UNL A   1      38.947  22.433  26.143  1.00  0.00     0.060 A 
ATOM     26  C   UNL A   1      38.459  23.727  25.948  1.00  0.00     0.016 A 
ATOM     27  C   UNL A   1      40.152  22.254  26.825  1.00  0.00     0.016 A 
ATOM     28  C   UNL A   1      39.197  24.833  26.363  1.00  0.00     0.010 A 
ATOM     29  C   UNL A   1      40.849  23.366  27.317  1.00  0.00     0.010 A 
ATOM     30  C   UNL A   1      40.393  24.673  27.067  1.00  0.00    -0.014 A 
BRANCH  30  31
ATOM     31  C   UNL A   1      41.196  25.865  27.469  1.00  0.00     0.031 A 
ATOM     32  C   UNL A   1      40.606  26.875  28.418  1.00  0.00     0.074 A 
ATOM     33  C   UNL A   1      42.457  26.042  27.026  1.00  0.00     0.049 A 
ATOM     34  N   UNL A   1      41.012  28.085  28.707  1.00  0.00    -0.248 NA
ATOM     35  C   UNL A   1      39.373  26.472  29.109  1.00  0.00     0.031 C 
ATOM     36  C   UNL A   1      43.201  25.106  26.181  1.00  0.00     0.029 A 
ATOM     37  N   UNL A   1      43.346  27.066  27.243  1.00  0.00    -0.354 N 
ATOM     38  C   UNL A   1      40.051  28.612  29.564  1.00  0.00     0.074 A 
ATOM     39  C   UNL A   1      39.034  27.592  29.728  1.00  0.00     0.031 C 
ATOM     40  C   UNL A   1      44.445  25.573  25.998  1.00  0.00     0.029 A 
ATOM     41  C   UNL A   1      44.558  26.887  26.620  1.00  0.00     0.049 A 
ATOM     42  H   UNL A   1      43.135  27.855  27.792  1.00  0.00     0.167 HD
ATOM     43  C   UNL A   1      40.022  29.835  30.154  1.00  0.00     0.034 A 
ATOM     44  C   UNL A   1      45.625  27.704  26.518  1.00  0.00     0.034 A 
ATOM     45  C   UNL A   1      41.079  30.813  30.030  1.00  0.00     0.049 A 
ATOM     46  C   UNL A   1      45.553  29.079  27.127  1.00  0.00     0.074 A 
ATOM     47  C   UNL A   1      41.153  32.082  30.576  1.00  0.00     0.029 A 
ATOM     48  N   UNL A   1      42.261  30.621  29.323  1.00  0.00    -0.354 N 
ATOM     49  N   UNL A   1      44.580  29.628  27.817  1.00  0.00    -0.248 NA
ATOM     50  C   UNL A   1      46.711  29.956  26.914  1.00  0.00     0.031 C 
ATOM     51  C   UNL A   1      42.351  32.676  30.160  1.00  0.00     0.029 A 
ATOM     52  C   UNL A   1      43.059  31.753  29.406  1.00  0.00     0.049 A 
ATOM     53  H   UNL A   1      42.498  29.800  28.834  1.00  0.00     0.167 HD
ATOM     54  C   UNL A   1      45.013  30.912  28.128  1.00  0.00     0.074 A 
ATOM     55  C   UNL A   1      46.342  31.050  27.567  1.00  0.00     0.031 C 
ATOM     56  C   UNL A   1      44.370  31.890  28.816  1.00  0.00     0.034 A 
BRANCH  43  57
ATOM     57  C   UNL A   1      38.774  30.198  30.924  1.00  0.00     0.023 A 
ATOM     58  C   UNL A   1      37.692  30.866  30.327  1.00  0.00     0.031 A 
ATOM     59  C   UNL A   1      38.696  29.921  32.302  1.00  0.00     0.131 A 
ATOM     60  C   UNL A   1      36.621  31.311  31.120  1.00  0.00     0.055 A 
ATOM     61  C   UNL A   1      37.589  30.290  33.068  1.00  0.00     0.041 A 
ATOM     62  F   UNL A   1      39.707  29.303  32.934  1.00  0.00    -0.206 F 
ATOM     63  C   UNL A   1      36.551  31.007  32.481  1.00  0.00     0.022 A 
BRANCH  60  64
ATOM     64  S   UNL A   1      35.404  32.436  30.379  1.00  0.00     0.124 S 
ATOM     65  O   UNL A   1      36.188  33.656  30.209  1.00  0.00    -0.237 OA
ATOM     66  O   UNL A   1      35.035  31.740  29.151  1.00  0.00    -0.237 OA
ATOM     67  O   UNL A   1      34.352  32.516  31.390  1.00  0.00    -0.744 OA
ENDBRANCH  60  64
ENDBRANCH  43  57
BRANCH  44  68
ATOM     68  C   UNL A   1      46.826  27.277  25.744  1.00  0.00     0.023 A 
ATOM     69  C   UNL A   1      47.023  27.701  24.421  1.00  0.00     0.031 A 
ATOM     70  C   UNL A   1      47.787  26.423  26.315  1.00  0.00     0.131 A 
ATOM     71  C   UNL A   1      48.145  27.253  23.705  1.00  0.00     0.055 A 
ATOM     72  C   UNL A   1      48.925  26.021  25.616  1.00  0.00     0.041 A 
ATOM     73  F   UNL A   1      47.642  25.985  27.576  1.00  0.00    -0.206 F 
ATOM     74  C   UNL A   1      49.105  26.431  24.299  1.00  0.00     0.022 A 
BRANCH  71  75
ATOM     75  S   UNL A   1      48.312  27.721  21.959  1.00  0.00     0.124 S 
ATOM     76  O   UNL A   1      47.040  28.388  21.707  1.00  0.00    -0.237 OA
ATOM     77  O   UNL A   1      49.494  28.577  21.981  1.00  0.00    -0.237 OA
ATOM     78  O   UNL A   1      48.489  26.440  21.279  1.00  0.00    -0.744 OA
ENDBRANCH  71  75
ENDBRANCH  44  68
BRANCH  56  79
ATOM     79  C   UNL A   1      45.122  33.182  29.020  1.00  0.00     0.023 A 
ATOM     80  C   UNL A   1      44.929  34.290  28.176  1.00  0.00     0.031 A 
ATOM     81  C   UNL A   1      46.066  33.294  30.055  1.00  0.00     0.131 A 
ATOM     82  C   UNL A   1      45.707  35.444  28.350  1.00  0.00     0.055 A 
ATOM     83  C   UNL A   1      46.801  34.463  30.256  1.00  0.00     0.041 A 
ATOM     84  F   UNL A   1      46.291  32.265  30.889  1.00  0.00    -0.206 F 
ATOM     85  C   UNL A   1      46.633  35.543  29.392  1.00  0.00     0.022 A 
BRANCH  82  86
ATOM     86  S   UNL A   1      45.557  36.791  27.143  1.00  0.00     0.124 S 
ATOM     87  O   UNL A   1      46.086  37.928  27.889  1.00  0.00    -0.237 OA
ATOM     88  O   UNL A   1      46.381  36.314  26.037  1.00  0.00    -0.237 OA
ATOM     89  O   UNL A   1      44.123  36.847  26.866  1.00  0.00    -0.744 OA
ENDBRANCH  82  86
ENDBRANCH  56  79
ENDBRANCH  30  31
ENDBRANCH  23  25
ENDBRANCH  22  23
ENDBRANCH   1  22
TORSDOF 16
ENDMDL
MODEL 3
REMARK VINA RESULT:     -11.8      4.919     10.144
REMARK SMILES Cc1cc(C)cc(C(=O)N2CC[C@H](C(=O)OCCOC(=O)c3ccc(-c4c5nc(c(-c6cc(S(=O)(=O)[O-])ccc6F)c6ccc([nH]6)c(-c6cc(S(=O)(=O)[O-])ccc6F)c6nc(c(-c7cc(S(=O)(=O)[O-])ccc7F)c7ccc4[nH]7)C=C6)C=C5)cc3)[C@@H]2C)c1
REMARK SMILES IDX 18 1 17 2 16 3 14 4 15 5 13 6 10 7 11 8 85 9 12 10 86 11
REMARK SMILES IDX 8 12 9 13 7 14 1 15 2 16 3 17 87 18 4 19 5 20 6 21 19 22
REMARK SMILES IDX 20 23 21 24 22 25 23 26 84 27 24 28 83 29 25 30 26 31 27 32
REMARK SMILES IDX 77 33 28 34 82 35 76 36 78 37 29 38 81 39 75 40 74 41 30 43
REMARK SMILES IDX 62 44 42 45 61 46 43 47 46 48 60 49 79 50 44 51 45 52 59 54
REMARK SMILES IDX 80 55 47 56 31 57 32 58 40 59 33 60 39 61 41 62 38 63 34 64
REMARK SMILES IDX 35 65 36 66 37 67 63 68 64 69 72 70 65 71 71 72 73 73 70 74
REMARK SMILES IDX 66 75 67 76 68 77 69 78 48 79 49 80 57 81 50 82 56 83 58 84
REMARK SMILES IDX 55 85 51 86 52 87 53 88 54 89
REMARK H PARENT 78 42 46 53
REMARK Flexibility Score: inf
ROOT
ATOM      1  C   UNL A   1      31.449  30.096  25.119  1.00  0.00     0.275 C 
ENDROOT
BRANCH   1   2
ATOM      2  C   UNL A   1      31.285  28.850  24.251  1.00  0.00     0.274 C 
BRANCH   2   3
ATOM      3  O   UNL A   1      30.713  27.756  25.003  1.00  0.00    -0.462 OA
BRANCH   3   4
ATOM      4  C   UNL A   1      31.272  26.533  24.770  1.00  0.00     0.311 C 
ATOM      5  O   UNL A   1      30.630  25.508  24.583  1.00  0.00    -0.252 OA
BRANCH   4   6
ATOM      6  C   UNL A   1      32.784  26.577  24.926  1.00  0.00     0.123 C 
ATOM      7  N   UNL A   1      33.973  24.675  24.118  1.00  0.00    -0.335 N 
ATOM      8  C   UNL A   1      33.411  24.313  25.401  1.00  0.00     0.121 C 
ATOM      9  C   UNL A   1      33.654  26.065  23.757  1.00  0.00     0.096 C 
ATOM     10  C   UNL A   1      33.213  25.657  26.084  1.00  0.00     0.039 C 
ATOM     11  C   UNL A   1      33.066  26.195  22.359  1.00  0.00     0.032 C 
BRANCH   7  12
ATOM     12  C   UNL A   1      34.792  23.755  23.480  1.00  0.00     0.254 C 
ATOM     13  O   UNL A   1      34.450  23.221  22.428  1.00  0.00    -0.269 OA
BRANCH  12  14
ATOM     14  C   UNL A   1      36.015  23.258  24.169  1.00  0.00     0.040 A 
ATOM     15  C   UNL A   1      38.462  24.474  26.823  1.00  0.00     0.044 C 
ATOM     16  C   UNL A   1      37.752  23.583  25.850  1.00  0.00    -0.050 A 
ATOM     17  C   UNL A   1      38.074  22.225  25.762  1.00  0.00     0.006 A 
ATOM     18  C   UNL A   1      36.698  24.080  25.076  1.00  0.00     0.017 A 
ATOM     19  C   UNL A   1      37.368  21.371  24.901  1.00  0.00    -0.050 A 
ATOM     20  C   UNL A   1      37.660  19.895  24.911  1.00  0.00     0.044 C 
ATOM     21  C   UNL A   1      36.344  21.898  24.099  1.00  0.00     0.017 A 
ENDBRANCH  12  14
ENDBRANCH   7  12
ENDBRANCH   4   6
ENDBRANCH   3   4
ENDBRANCH   2   3
ENDBRANCH   1   2
BRANCH   1  22
ATOM     22  O   UNL A   1      32.717  30.042  25.784  1.00  0.00    -0.458 OA
BRANCH  22  23
ATOM     23  C   UNL A   1      32.911  30.949  26.769  1.00  0.00     0.338 C 
ATOM     24  O   UNL A   1      32.113  31.808  27.124  1.00  0.00    -0.246 OA
BRANCH  23  25
ATOM     25  C   UNL A   1      34.240  30.740  27.394  1.00  0.00     0.060 A 
ATOM     26  C   UNL A   1      34.732  29.453  27.618  1.00  0.00     0.016 A 
ATOM     27  C   UNL A   1      34.969  31.839  27.851  1.00  0.00     0.016 A 
ATOM     28  C   UNL A   1      35.902  29.259  28.349  1.00  0.00     0.010 A 
ATOM     29  C   UNL A   1      36.190  31.642  28.512  1.00  0.00     0.010 A 
ATOM     30  C   UNL A   1      36.658  30.346  28.795  1.00  0.00    -0.014 A 
BRANCH  30  31
ATOM     31  C   UNL A   1      37.884  30.126  29.614  1.00  0.00     0.031 A 
ATOM     32  C   UNL A   1      39.034  29.341  29.038  1.00  0.00     0.074 A 
ATOM     33  C   UNL A   1      38.002  30.646  30.853  1.00  0.00     0.049 A 
ATOM     34  N   UNL A   1      40.076  28.824  29.639  1.00  0.00    -0.248 NA
ATOM     35  C   UNL A   1      38.981  29.080  27.594  1.00  0.00     0.031 C 
ATOM     36  C   UNL A   1      37.018  31.507  31.511  1.00  0.00     0.029 A 
ATOM     37  N   UNL A   1      39.014  30.539  31.776  1.00  0.00    -0.354 N 
ATOM     38  C   UNL A   1      40.769  28.123  28.658  1.00  0.00     0.074 A 
ATOM     39  C   UNL A   1      40.014  28.268  27.429  1.00  0.00     0.031 C 
ATOM     40  C   UNL A   1      37.499  31.892  32.703  1.00  0.00     0.029 A 
ATOM     41  C   UNL A   1      38.773  31.224  32.943  1.00  0.00     0.049 A 
ATOM     42  H   UNL A   1      39.836  30.020  31.616  1.00  0.00     0.167 HD
ATOM     43  C   UNL A   1      41.926  27.422  28.776  1.00  0.00     0.034 A 
ATOM     44  C   UNL A   1      39.471  31.275  34.094  1.00  0.00     0.034 A 
ATOM     45  C   UNL A   1      42.698  27.344  29.996  1.00  0.00     0.049 A 
ATOM     46  C   UNL A   1      40.719  30.444  34.229  1.00  0.00     0.074 A 
ATOM     47  C   UNL A   1      43.877  26.660  30.232  1.00  0.00     0.029 A 
ATOM     48  N   UNL A   1      42.377  27.992  31.183  1.00  0.00    -0.354 N 
ATOM     49  N   UNL A   1      41.294  29.667  33.341  1.00  0.00    -0.248 NA
ATOM     50  C   UNL A   1      41.393  30.474  35.533  1.00  0.00     0.031 C 
ATOM     51  C   UNL A   1      44.242  26.851  31.570  1.00  0.00     0.029 A 
ATOM     52  C   UNL A   1      43.325  27.710  32.155  1.00  0.00     0.049 A 
ATOM     53  H   UNL A   1      41.590  28.570  31.314  1.00  0.00     0.167 HD
ATOM     54  C   UNL A   1      42.404  29.121  33.978  1.00  0.00     0.074 A 
ATOM     55  C   UNL A   1      42.427  29.672  35.318  1.00  0.00     0.031 C 
ATOM     56  C   UNL A   1      43.321  28.242  33.499  1.00  0.00     0.034 A 
BRANCH  43  57
ATOM     57  C   UNL A   1      42.377  26.630  27.571  1.00  0.00     0.023 A 
ATOM     58  C   UNL A   1      42.127  25.253  27.441  1.00  0.00     0.031 A 
ATOM     59  C   UNL A   1      43.127  27.260  26.561  1.00  0.00     0.131 A 
ATOM     60  C   UNL A   1      42.696  24.537  26.376  1.00  0.00     0.055 A 
ATOM     61  C   UNL A   1      43.616  26.558  25.458  1.00  0.00     0.041 A 
ATOM     62  F   UNL A   1      43.416  28.569  26.638  1.00  0.00    -0.206 F 
ATOM     63  C   UNL A   1      43.418  25.183  25.370  1.00  0.00     0.022 A 
BRANCH  60  64
ATOM     64  S   UNL A   1      42.617  22.723  26.411  1.00  0.00     0.124 S 
ATOM     65  O   UNL A   1      41.351  22.493  27.101  1.00  0.00    -0.237 OA
ATOM     66  O   UNL A   1      42.641  22.377  24.994  1.00  0.00    -0.237 OA
ATOM     67  O   UNL A   1      43.808  22.343  27.167  1.00  0.00    -0.744 OA
ENDBRANCH  60  64
ENDBRANCH  43  57
BRANCH  44  68
ATOM     68  C   UNL A   1      38.966  32.082  35.243  1.00  0.00     0.023 A 
ATOM     69  C   UNL A   1      38.393  31.464  36.365  1.00  0.00     0.031 A 
ATOM     70  C   UNL A   1      39.035  33.486  35.223  1.00  0.00     0.131 A 
ATOM     71  C   UNL A   1      37.894  32.251  37.415  1.00  0.00     0.055 A 
ATOM     72  C   UNL A   1      38.582  34.262  36.291  1.00  0.00     0.041 A 
ATOM     73  F   UNL A   1      39.569  34.126  34.170  1.00  0.00    -0.206 F 
ATOM     74  C   UNL A   1      38.000  33.644  37.393  1.00  0.00     0.022 A 
BRANCH  71  75
ATOM     75  S   UNL A   1      37.052  31.431  38.798  1.00  0.00     0.124 S 
ATOM     76  O   UNL A   1      35.821  32.206  38.899  1.00  0.00    -0.237 OA
ATOM     77  O   UNL A   1      36.913  30.064  38.307  1.00  0.00    -0.237 OA
ATOM     78  O   UNL A   1      37.986  31.597  39.911  1.00  0.00    -0.744 OA
ENDBRANCH  71  75
ENDBRANCH  44  68
BRANCH  56  79
ATOM     79  C   UNL A   1      44.442  27.855  34.431  1.00  0.00     0.023 A 
ATOM     80  C   UNL A   1      44.346  26.736  35.277  1.00  0.00     0.031 A 
ATOM     81  C   UNL A   1      45.608  28.637  34.496  1.00  0.00     0.131 A 
ATOM     82  C   UNL A   1      45.377  26.458  36.187  1.00  0.00     0.055 A 
ATOM     83  C   UNL A   1      46.653  28.326  35.367  1.00  0.00     0.041 A 
ATOM     84  F   UNL A   1      45.750  29.719  33.712  1.00  0.00    -0.206 F 
ATOM     85  C   UNL A   1      46.535  27.239  36.229  1.00  0.00     0.022 A 
BRANCH  82  86
ATOM     86  S   UNL A   1      45.151  25.110  37.381  1.00  0.00     0.124 S 
ATOM     87  O   UNL A   1      46.127  25.448  38.411  1.00  0.00    -0.237 OA
ATOM     88  O   UNL A   1      43.749  25.255  37.757  1.00  0.00    -0.237 OA
ATOM     89  O   UNL A   1      45.461  23.909  36.606  1.00  0.00    -0.744 OA
ENDBRANCH  82  86
ENDBRANCH  56  79
ENDBRANCH  30  31
ENDBRANCH  23  25
ENDBRANCH  22  23
ENDBRANCH   1  22
TORSDOF 16
ENDMDL
