MODEL 1
REMARK VINA RESULT:     -11.7      0.000      0.000
REMARK SMILES CC1(C)[C@H]2CC[C@]1(C)[C@H](NC(=O)CCC(=O)OCCOC(=O)c1ccc(-c3c4nc(c(-c5cc(S(=O)(=O)[O-])ccc5F)c5ccc([nH]5)c(-c5cc(S(=O)(=O)[O-])ccc5F)c5nc(c(-c6cc(S(=O)(=O)[O-])ccc6F)c6ccc3[nH]6)C=C5)C=C4)cc1)C2
REMARK SMILES IDX 18 1 17 2 15 3 16 4 14 5 13 6 11 7 10 8 12 10 9 11 1 12 2 13
REMARK SMILES IDX 3 14 4 15 7 16 5 17 86 18 6 19 8 20 19 21 20 22 21 23 22 24
REMARK SMILES IDX 23 25 24 26 85 27 25 28 84 29 26 30 27 31 28 32 78 33 29 34
REMARK SMILES IDX 83 35 77 36 79 37 30 38 82 39 76 40 75 41 31 43 63 44 43 45
REMARK SMILES IDX 62 46 44 47 47 48 61 49 80 50 45 51 46 52 60 54 81 55 48 56
REMARK SMILES IDX 32 57 33 58 41 59 34 60 40 61 42 62 39 63 35 64 36 65 37 66
REMARK SMILES IDX 38 67 64 68 65 69 73 70 66 71 72 72 74 73 71 74 67 75 68 76
REMARK SMILES IDX 69 77 70 78 49 79 50 80 58 81 51 82 57 83 59 84 56 85 52 86
REMARK SMILES IDX 53 87 54 88 55 89
REMARK H PARENT 10 9 79 42 47 53
REMARK Flexibility Score: inf
ROOT
ATOM      1  C   UNL A   1      31.526  29.471  24.491  1.00  0.00     0.274 C 
ENDROOT
BRANCH   1   2
ATOM      2  O   UNL A   1      31.441  29.122  23.063  1.00  0.00    -0.462 OA
BRANCH   2   3
ATOM      3  C   UNL A   1      30.431  28.282  22.668  1.00  0.00     0.306 C 
ATOM      4  O   UNL A   1      29.372  28.678  22.192  1.00  0.00    -0.252 OA
BRANCH   3   5
ATOM      5  C   UNL A   1      30.711  26.780  22.945  1.00  0.00     0.132 C 
BRANCH   5   6
ATOM      6  C   UNL A   1      31.596  25.852  22.067  1.00  0.00     0.111 C 
BRANCH   6   7
ATOM      7  C   UNL A   1      33.132  25.843  22.257  1.00  0.00     0.220 C 
ATOM      8  N   UNL A   1      33.781  25.399  23.395  1.00  0.00    -0.353 N 
ATOM      9  H   UNL A   1      34.620  25.872  23.598  1.00  0.00     0.163 HD
ATOM     10  O   UNL A   1      33.834  26.369  21.383  1.00  0.00    -0.275 OA
BRANCH   8  11
ATOM     11  C   UNL A   1      33.427  24.330  24.361  1.00  0.00     0.088 C 
ATOM     12  C   UNL A   1      35.631  21.316  25.873  1.00  0.00     0.012 C 
ATOM     13  C   UNL A   1      34.629  22.477  25.723  1.00  0.00    -0.025 C 
ATOM     14  C   UNL A   1      33.692  22.257  26.904  1.00  0.00     0.012 C 
ATOM     15  C   UNL A   1      35.282  23.836  25.809  1.00  0.00    -0.003 C 
ATOM     16  C   UNL A   1      34.049  22.840  24.266  1.00  0.00    -0.007 C 
ATOM     17  C   UNL A   1      36.159  23.863  24.515  1.00  0.00     0.005 C 
ATOM     18  C   UNL A   1      34.009  24.669  25.686  1.00  0.00     0.029 C 
ATOM     19  C   UNL A   1      35.362  23.005  23.496  1.00  0.00     0.010 C 
ATOM     20  C   UNL A   1      33.070  21.780  23.796  1.00  0.00     0.014 C 
ENDBRANCH   8  11
ENDBRANCH   6   7
ENDBRANCH   5   6
ENDBRANCH   3   5
ENDBRANCH   2   3
ENDBRANCH   1   2
BRANCH   1  21
ATOM     21  C   UNL A   1      32.948  29.486  25.122  1.00  0.00     0.275 C 
BRANCH  21  22
ATOM     22  O   UNL A   1      32.875  29.751  26.548  1.00  0.00    -0.458 OA
BRANCH  22  23
ATOM     23  C   UNL A   1      33.337  30.946  27.021  1.00  0.00     0.338 C 
ATOM     24  O   UNL A   1      32.649  31.963  27.175  1.00  0.00    -0.246 OA
BRANCH  23  25
ATOM     25  C   UNL A   1      34.739  30.791  27.551  1.00  0.00     0.060 A 
ATOM     26  C   UNL A   1      35.123  29.554  28.075  1.00  0.00     0.016 A 
ATOM     27  C   UNL A   1      35.576  31.899  27.803  1.00  0.00     0.016 A 
ATOM     28  C   UNL A   1      36.236  29.455  28.916  1.00  0.00     0.010 A 
ATOM     29  C   UNL A   1      36.790  31.747  28.525  1.00  0.00     0.010 A 
ATOM     30  C   UNL A   1      37.156  30.506  29.074  1.00  0.00    -0.014 A 
BRANCH  30  31
ATOM     31  C   UNL A   1      38.518  30.218  29.654  1.00  0.00     0.031 A 
ATOM     32  C   UNL A   1      39.521  29.262  29.037  1.00  0.00     0.074 A 
ATOM     33  C   UNL A   1      38.881  30.848  30.797  1.00  0.00     0.049 A 
ATOM     34  N   UNL A   1      40.577  28.707  29.586  1.00  0.00    -0.248 NA
ATOM     35  C   UNL A   1      39.336  28.909  27.624  1.00  0.00     0.031 C 
ATOM     36  C   UNL A   1      38.103  31.886  31.484  1.00  0.00     0.029 A 
ATOM     37  N   UNL A   1      39.997  30.715  31.595  1.00  0.00    -0.354 N 
ATOM     38  C   UNL A   1      41.168  27.913  28.603  1.00  0.00     0.074 A 
ATOM     39  C   UNL A   1      40.354  28.078  27.412  1.00  0.00     0.031 C 
ATOM     40  C   UNL A   1      38.775  32.328  32.548  1.00  0.00     0.029 A 
ATOM     41  C   UNL A   1      39.924  31.465  32.749  1.00  0.00     0.049 A 
ATOM     42  H   UNL A   1      40.765  30.144  31.366  1.00  0.00     0.167 HD
ATOM     43  C   UNL A   1      42.271  27.119  28.696  1.00  0.00     0.034 A 
ATOM     44  C   UNL A   1      40.593  31.402  33.915  1.00  0.00     0.034 A 
ATOM     45  C   UNL A   1      43.080  26.981  29.893  1.00  0.00     0.049 A 
ATOM     46  C   UNL A   1      41.673  30.379  34.076  1.00  0.00     0.074 A 
ATOM     47  C   UNL A   1      44.185  26.168  30.106  1.00  0.00     0.029 A 
ATOM     48  N   UNL A   1      42.880  27.673  31.081  1.00  0.00    -0.354 N 
ATOM     49  N   UNL A   1      42.121  29.515  33.199  1.00  0.00    -0.248 NA
ATOM     50  C   UNL A   1      42.320  30.310  35.390  1.00  0.00     0.031 C 
ATOM     51  C   UNL A   1      44.602  26.313  31.436  1.00  0.00     0.029 A 
ATOM     52  C   UNL A   1      43.813  27.280  32.034  1.00  0.00     0.049 A 
ATOM     53  H   UNL A   1      42.178  28.348  31.228  1.00  0.00     0.167 HD
ATOM     54  C   UNL A   1      43.126  28.813  33.851  1.00  0.00     0.074 A 
ATOM     55  C   UNL A   1      43.222  29.361  35.188  1.00  0.00     0.031 C 
ATOM     56  C   UNL A   1      43.904  27.809  33.374  1.00  0.00     0.034 A 
BRANCH  43  57
ATOM     57  C   UNL A   1      42.634  26.250  27.505  1.00  0.00     0.023 A 
ATOM     58  C   UNL A   1      42.191  24.924  27.364  1.00  0.00     0.031 A 
ATOM     59  C   UNL A   1      43.418  26.790  26.465  1.00  0.00     0.131 A 
ATOM     60  C   UNL A   1      42.571  24.173  26.235  1.00  0.00     0.055 A 
ATOM     61  C   UNL A   1      43.736  26.062  25.316  1.00  0.00     0.041 A 
ATOM     62  F   UNL A   1      43.883  28.048  26.544  1.00  0.00    -0.206 F 
ATOM     63  C   UNL A   1      43.320  24.741  25.201  1.00  0.00     0.022 A 
BRANCH  60  64
ATOM     64  S   UNL A   1      42.174  22.401  26.181  1.00  0.00     0.124 S 
ATOM     65  O   UNL A   1      42.862  21.979  24.963  1.00  0.00    -0.237 OA
ATOM     66  O   UNL A   1      42.736  21.914  27.435  1.00  0.00    -0.237 OA
ATOM     67  O   UNL A   1      40.715  22.378  26.100  1.00  0.00    -0.744 OA
ENDBRANCH  60  64
ENDBRANCH  43  57
BRANCH  44  68
ATOM     68  C   UNL A   1      40.143  32.235  35.066  1.00  0.00     0.023 A 
ATOM     69  C   UNL A   1      39.242  31.737  36.015  1.00  0.00     0.031 A 
ATOM     70  C   UNL A   1      40.614  33.555  35.227  1.00  0.00     0.131 A 
ATOM     71  C   UNL A   1      38.825  32.559  37.072  1.00  0.00     0.055 A 
ATOM     72  C   UNL A   1      40.250  34.341  36.318  1.00  0.00     0.041 A 
ATOM     73  F   UNL A   1      41.474  34.084  34.342  1.00  0.00    -0.206 F 
ATOM     74  C   UNL A   1      39.339  33.848  37.243  1.00  0.00     0.022 A 
BRANCH  71  75
ATOM     75  S   UNL A   1      37.527  31.948  38.179  1.00  0.00     0.124 S 
ATOM     76  O   UNL A   1      37.342  30.585  37.693  1.00  0.00    -0.237 OA
ATOM     77  O   UNL A   1      38.157  32.083  39.488  1.00  0.00    -0.237 OA
ATOM     78  O   UNL A   1      36.412  32.858  37.928  1.00  0.00    -0.744 OA
ENDBRANCH  71  75
ENDBRANCH  44  68
BRANCH  56  79
ATOM     79  C   UNL A   1      44.973  27.294  34.302  1.00  0.00     0.023 A 
ATOM     80  C   UNL A   1      44.752  26.192  35.148  1.00  0.00     0.031 A 
ATOM     81  C   UNL A   1      46.210  27.957  34.386  1.00  0.00     0.131 A 
ATOM     82  C   UNL A   1      45.730  25.825  36.085  1.00  0.00     0.055 A 
ATOM     83  C   UNL A   1      47.202  27.551  35.280  1.00  0.00     0.041 A 
ATOM     84  F   UNL A   1      46.468  29.021  33.609  1.00  0.00    -0.206 F 
ATOM     85  C   UNL A   1      46.960  26.489  36.145  1.00  0.00     0.022 A 
BRANCH  82  86
ATOM     86  S   UNL A   1      45.339  24.530  37.294  1.00  0.00     0.124 S 
ATOM     87  O   UNL A   1      46.647  24.260  37.882  1.00  0.00    -0.237 OA
ATOM     88  O   UNL A   1      44.375  25.195  38.163  1.00  0.00    -0.237 OA
ATOM     89  O   UNL A   1      44.791  23.450  36.475  1.00  0.00    -0.744 OA
ENDBRANCH  82  86
ENDBRANCH  56  79
ENDBRANCH  30  31
ENDBRANCH  23  25
ENDBRANCH  22  23
ENDBRANCH  21  22
ENDBRANCH   1  21
TORSDOF 17
ENDMDL
MODEL 2
REMARK VINA RESULT:     -11.6      1.764      2.226
REMARK SMILES CC1(C)[C@H]2CC[C@]1(C)[C@H](NC(=O)CCC(=O)OCCOC(=O)c1ccc(-c3c4nc(c(-c5cc(S(=O)(=O)[O-])ccc5F)c5ccc([nH]5)c(-c5cc(S(=O)(=O)[O-])ccc5F)c5nc(c(-c6cc(S(=O)(=O)[O-])ccc6F)c6ccc3[nH]6)C=C5)C=C4)cc1)C2
REMARK SMILES IDX 18 1 17 2 15 3 16 4 14 5 13 6 11 7 10 8 12 10 9 11 1 12 2 13
REMARK SMILES IDX 3 14 4 15 7 16 5 17 86 18 6 19 8 20 19 21 20 22 21 23 22 24
REMARK SMILES IDX 23 25 24 26 85 27 25 28 84 29 26 30 27 31 28 32 78 33 29 34
REMARK SMILES IDX 83 35 77 36 79 37 30 38 82 39 76 40 75 41 31 43 63 44 43 45
REMARK SMILES IDX 62 46 44 47 47 48 61 49 80 50 45 51 46 52 60 54 81 55 48 56
REMARK SMILES IDX 32 57 33 58 41 59 34 60 40 61 42 62 39 63 35 64 36 65 37 66
REMARK SMILES IDX 38 67 64 68 65 69 73 70 66 71 72 72 74 73 71 74 67 75 68 76
REMARK SMILES IDX 69 77 70 78 49 79 50 80 58 81 51 82 57 83 59 84 56 85 52 86
REMARK SMILES IDX 53 87 54 88 55 89
REMARK H PARENT 10 9 79 42 47 53
REMARK Flexibility Score: inf
ROOT
ATOM      1  C   UNL A   1      31.850  28.703  23.767  1.00  0.00     0.274 C 
ENDROOT
BRANCH   1   2
ATOM      2  O   UNL A   1      32.154  27.276  23.958  1.00  0.00    -0.462 OA
BRANCH   2   3
ATOM      3  C   UNL A   1      31.192  26.363  23.605  1.00  0.00     0.306 C 
ATOM      4  O   UNL A   1      31.030  25.965  22.456  1.00  0.00    -0.252 OA
BRANCH   3   5
ATOM      5  C   UNL A   1      30.271  25.929  24.777  1.00  0.00     0.132 C 
BRANCH   5   6
ATOM      6  C   UNL A   1      30.757  25.390  26.151  1.00  0.00     0.111 C 
BRANCH   6   7
ATOM      7  C   UNL A   1      30.922  23.866  26.369  1.00  0.00     0.220 C 
ATOM      8  N   UNL A   1      31.678  23.034  25.564  1.00  0.00    -0.353 N 
ATOM      9  H   UNL A   1      31.331  22.117  25.483  1.00  0.00     0.163 HD
ATOM     10  O   UNL A   1      30.246  23.325  27.254  1.00  0.00    -0.275 OA
BRANCH   8  11
ATOM     11  C   UNL A   1      32.926  23.290  24.802  1.00  0.00     0.088 C 
ATOM     12  C   UNL A   1      36.768  22.473  25.696  1.00  0.00     0.012 C 
ATOM     13  C   UNL A   1      35.439  22.661  24.938  1.00  0.00    -0.025 C 
ATOM     14  C   UNL A   1      35.901  22.777  23.490  1.00  0.00     0.012 C 
ATOM     15  C   UNL A   1      34.496  21.493  25.102  1.00  0.00    -0.003 C 
ATOM     16  C   UNL A   1      34.323  23.657  25.531  1.00  0.00    -0.007 C 
ATOM     17  C   UNL A   1      34.132  21.574  26.621  1.00  0.00     0.005 C 
ATOM     18  C   UNL A   1      33.386  22.015  24.193  1.00  0.00     0.029 C 
ATOM     19  C   UNL A   1      34.193  23.090  26.948  1.00  0.00     0.010 C 
ATOM     20  C   UNL A   1      34.752  25.104  25.373  1.00  0.00     0.014 C 
ENDBRANCH   8  11
ENDBRANCH   6   7
ENDBRANCH   5   6
ENDBRANCH   3   5
ENDBRANCH   2   3
ENDBRANCH   1   2
BRANCH   1  21
ATOM     21  C   UNL A   1      31.730  29.569  25.054  1.00  0.00     0.275 C 
BRANCH  21  22
ATOM     22  O   UNL A   1      33.037  29.804  25.640  1.00  0.00    -0.458 OA
BRANCH  22  23
ATOM     23  C   UNL A   1      33.151  30.697  26.667  1.00  0.00     0.338 C 
ATOM     24  O   UNL A   1      32.213  31.342  27.153  1.00  0.00    -0.246 OA
BRANCH  23  25
ATOM     25  C   UNL A   1      34.524  30.616  27.281  1.00  0.00     0.060 A 
ATOM     26  C   UNL A   1      34.960  29.388  27.784  1.00  0.00     0.016 A 
ATOM     27  C   UNL A   1      35.264  31.767  27.625  1.00  0.00     0.016 A 
ATOM     28  C   UNL A   1      36.023  29.330  28.691  1.00  0.00     0.010 A 
ATOM     29  C   UNL A   1      36.438  31.669  28.420  1.00  0.00     0.010 A 
ATOM     30  C   UNL A   1      36.855  30.434  28.946  1.00  0.00    -0.014 A 
BRANCH  30  31
ATOM     31  C   UNL A   1      38.196  30.215  29.603  1.00  0.00     0.031 A 
ATOM     32  C   UNL A   1      39.286  29.328  29.035  1.00  0.00     0.074 A 
ATOM     33  C   UNL A   1      38.453  30.848  30.774  1.00  0.00     0.049 A 
ATOM     34  N   UNL A   1      40.339  28.826  29.639  1.00  0.00    -0.248 NA
ATOM     35  C   UNL A   1      39.206  28.988  27.609  1.00  0.00     0.031 C 
ATOM     36  C   UNL A   1      37.576  31.827  31.426  1.00  0.00     0.029 A 
ATOM     37  N   UNL A   1      39.526  30.766  31.635  1.00  0.00    -0.354 N 
ATOM     38  C   UNL A   1      41.033  28.084  28.683  1.00  0.00     0.074 A 
ATOM     39  C   UNL A   1      40.281  28.220  27.448  1.00  0.00     0.031 C 
ATOM     40  C   UNL A   1      38.158  32.290  32.533  1.00  0.00     0.029 A 
ATOM     41  C   UNL A   1      39.341  31.492  32.792  1.00  0.00     0.049 A 
ATOM     42  H   UNL A   1      40.338  30.244  31.444  1.00  0.00     0.167 HD
ATOM     43  C   UNL A   1      42.172  27.352  28.832  1.00  0.00     0.034 A 
ATOM     44  C   UNL A   1      39.944  31.449  33.994  1.00  0.00     0.034 A 
ATOM     45  C   UNL A   1      42.917  27.243  30.073  1.00  0.00     0.049 A 
ATOM     46  C   UNL A   1      41.069  30.488  34.207  1.00  0.00     0.074 A 
ATOM     47  C   UNL A   1      44.052  26.491  30.342  1.00  0.00     0.029 A 
ATOM     48  N   UNL A   1      42.607  27.903  31.256  1.00  0.00    -0.354 N 
ATOM     49  N   UNL A   1      41.619  29.665  33.348  1.00  0.00    -0.248 NA
ATOM     50  C   UNL A   1      41.642  30.435  35.557  1.00  0.00     0.031 C 
ATOM     51  C   UNL A   1      44.381  26.639  31.696  1.00  0.00     0.029 A 
ATOM     52  C   UNL A   1      43.504  27.549  32.258  1.00  0.00     0.049 A 
ATOM     53  H   UNL A   1      41.859  28.534  31.369  1.00  0.00     0.167 HD
ATOM     54  C   UNL A   1      42.623  29.011  34.050  1.00  0.00     0.074 A 
ATOM     55  C   UNL A   1      42.608  29.543  35.397  1.00  0.00     0.031 C 
ATOM     56  C   UNL A   1      43.484  28.061  33.607  1.00  0.00     0.034 A 
BRANCH  43  57
ATOM     57  C   UNL A   1      42.654  26.525  27.654  1.00  0.00     0.023 A 
ATOM     58  C   UNL A   1      42.217  25.212  27.413  1.00  0.00     0.031 A 
ATOM     59  C   UNL A   1      43.554  27.093  26.728  1.00  0.00     0.131 A 
ATOM     60  C   UNL A   1      42.711  24.500  26.303  1.00  0.00     0.055 A 
ATOM     61  C   UNL A   1      43.987  26.406  25.593  1.00  0.00     0.041 A 
ATOM     62  F   UNL A   1      44.019  28.340  26.907  1.00  0.00    -0.206 F 
ATOM     63  C   UNL A   1      43.574  25.096  25.380  1.00  0.00     0.022 A 
BRANCH  60  64
ATOM     64  S   UNL A   1      42.305  22.737  26.137  1.00  0.00     0.124 S 
ATOM     65  O   UNL A   1      42.824  22.437  24.804  1.00  0.00    -0.237 OA
ATOM     66  O   UNL A   1      43.025  22.140  27.254  1.00  0.00    -0.237 OA
ATOM     67  O   UNL A   1      40.848  22.708  26.247  1.00  0.00    -0.744 OA
ENDBRANCH  60  64
ENDBRANCH  43  57
BRANCH  44  68
ATOM     68  C   UNL A   1      39.378  32.236  35.127  1.00  0.00     0.023 A 
ATOM     69  C   UNL A   1      39.833  33.530  35.411  1.00  0.00     0.031 A 
ATOM     70  C   UNL A   1      38.366  31.694  35.946  1.00  0.00     0.131 A 
ATOM     71  C   UNL A   1      39.292  34.230  36.499  1.00  0.00     0.055 A 
ATOM     72  C   UNL A   1      37.783  32.422  36.981  1.00  0.00     0.041 A 
ATOM     73  F   UNL A   1      37.898  30.455  35.721  1.00  0.00    -0.206 F 
ATOM     74  C   UNL A   1      38.256  33.696  37.271  1.00  0.00     0.022 A 
BRANCH  71  75
ATOM     75  S   UNL A   1      40.025  35.825  36.948  1.00  0.00     0.124 S 
ATOM     76  O   UNL A   1      41.438  35.481  37.058  1.00  0.00    -0.237 OA
ATOM     77  O   UNL A   1      39.654  36.659  35.810  1.00  0.00    -0.237 OA
ATOM     78  O   UNL A   1      39.363  36.160  38.207  1.00  0.00    -0.744 OA
ENDBRANCH  71  75
ENDBRANCH  44  68
BRANCH  56  79
ATOM     79  C   UNL A   1      44.525  27.593  34.591  1.00  0.00     0.023 A 
ATOM     80  C   UNL A   1      44.282  26.528  35.477  1.00  0.00     0.031 A 
ATOM     81  C   UNL A   1      45.755  28.268  34.686  1.00  0.00     0.131 A 
ATOM     82  C   UNL A   1      45.231  26.209  36.460  1.00  0.00     0.055 A 
ATOM     83  C   UNL A   1      46.720  27.907  35.629  1.00  0.00     0.041 A 
ATOM     84  F   UNL A   1      46.033  29.299  33.873  1.00  0.00    -0.206 F 
ATOM     85  C   UNL A   1      46.455  26.882  36.531  1.00  0.00     0.022 A 
BRANCH  82  86
ATOM     86  S   UNL A   1      44.807  24.964  37.710  1.00  0.00     0.124 S 
ATOM     87  O   UNL A   1      45.004  25.705  38.953  1.00  0.00    -0.237 OA
ATOM     88  O   UNL A   1      43.425  24.641  37.373  1.00  0.00    -0.237 OA
ATOM     89  O   UNL A   1      45.770  23.891  37.468  1.00  0.00    -0.744 OA
ENDBRANCH  82  86
ENDBRANCH  56  79
ENDBRANCH  30  31
ENDBRANCH  23  25
ENDBRANCH  22  23
ENDBRANCH  21  22
ENDBRANCH   1  21
TORSDOF 17
ENDMDL
MODEL 3
REMARK VINA RESULT:     -11.5      1.825      2.145
REMARK SMILES CC1(C)[C@H]2CC[C@]1(C)[C@H](NC(=O)CCC(=O)OCCOC(=O)c1ccc(-c3c4nc(c(-c5cc(S(=O)(=O)[O-])ccc5F)c5ccc([nH]5)c(-c5cc(S(=O)(=O)[O-])ccc5F)c5nc(c(-c6cc(S(=O)(=O)[O-])ccc6F)c6ccc3[nH]6)C=C5)C=C4)cc1)C2
REMARK SMILES IDX 18 1 17 2 15 3 16 4 14 5 13 6 11 7 10 8 12 10 9 11 1 12 2 13
REMARK SMILES IDX 3 14 4 15 7 16 5 17 86 18 6 19 8 20 19 21 20 22 21 23 22 24
REMARK SMILES IDX 23 25 24 26 85 27 25 28 84 29 26 30 27 31 28 32 78 33 29 34
REMARK SMILES IDX 83 35 77 36 79 37 30 38 82 39 76 40 75 41 31 43 63 44 43 45
REMARK SMILES IDX 62 46 44 47 47 48 61 49 80 50 45 51 46 52 60 54 81 55 48 56
REMARK SMILES IDX 32 57 33 58 41 59 34 60 40 61 42 62 39 63 35 64 36 65 37 66
REMARK SMILES IDX 38 67 64 68 65 69 73 70 66 71 72 72 74 73 71 74 67 75 68 76
REMARK SMILES IDX 69 77 70 78 49 79 50 80 58 81 51 82 57 83 59 84 56 85 52 86
REMARK SMILES IDX 53 87 54 88 55 89
REMARK H PARENT 10 9 79 42 47 53
REMARK Flexibility Score: inf
ROOT
ATOM      1  C   UNL A   1      31.252  29.657  24.335  1.00  0.00     0.274 C 
ENDROOT
BRANCH   1   2
ATOM      2  O   UNL A   1      30.367  28.488  24.214  1.00  0.00    -0.462 OA
BRANCH   2   3
ATOM      3  C   UNL A   1      30.261  27.889  22.983  1.00  0.00     0.306 C 
ATOM      4  O   UNL A   1      29.808  28.457  21.994  1.00  0.00    -0.252 OA
BRANCH   3   5
ATOM      5  C   UNL A   1      30.696  26.399  22.964  1.00  0.00     0.132 C 
BRANCH   5   6
ATOM      6  C   UNL A   1      31.761  25.785  22.014  1.00  0.00     0.111 C 
BRANCH   6   7
ATOM      7  C   UNL A   1      33.263  25.860  22.385  1.00  0.00     0.220 C 
ATOM      8  N   UNL A   1      33.803  25.400  23.573  1.00  0.00    -0.353 N 
ATOM      9  H   UNL A   1      34.579  25.913  23.894  1.00  0.00     0.163 HD
ATOM     10  O   UNL A   1      34.024  26.470  21.624  1.00  0.00    -0.275 OA
BRANCH   8  11
ATOM     11  C   UNL A   1      33.411  24.265  24.445  1.00  0.00     0.088 C 
ATOM     12  C   UNL A   1      35.510  21.061  25.692  1.00  0.00     0.012 C 
ATOM     13  C   UNL A   1      34.547  22.264  25.642  1.00  0.00    -0.025 C 
ATOM     14  C   UNL A   1      33.601  21.975  26.801  1.00  0.00     0.012 C 
ATOM     15  C   UNL A   1      35.246  23.587  25.844  1.00  0.00    -0.003 C 
ATOM     16  C   UNL A   1      33.983  22.768  24.222  1.00  0.00    -0.007 C 
ATOM     17  C   UNL A   1      36.126  23.696  24.556  1.00  0.00     0.005 C 
ATOM     18  C   UNL A   1      34.001  24.470  25.793  1.00  0.00     0.029 C 
ATOM     19  C   UNL A   1      35.303  22.955  23.468  1.00  0.00     0.010 C 
ATOM     20  C   UNL A   1      32.970  21.786  23.663  1.00  0.00     0.014 C 
ENDBRANCH   8  11
ENDBRANCH   6   7
ENDBRANCH   5   6
ENDBRANCH   3   5
ENDBRANCH   2   3
ENDBRANCH   1   2
BRANCH   1  21
ATOM     21  C   UNL A   1      32.650  29.411  24.974  1.00  0.00     0.275 C 
BRANCH  21  22
ATOM     22  O   UNL A   1      32.614  29.666  26.403  1.00  0.00    -0.458 OA
BRANCH  22  23
ATOM     23  C   UNL A   1      33.032  30.879  26.868  1.00  0.00     0.338 C 
ATOM     24  O   UNL A   1      32.319  31.888  26.961  1.00  0.00    -0.246 OA
BRANCH  23  25
ATOM     25  C   UNL A   1      34.408  30.763  27.471  1.00  0.00     0.060 A 
ATOM     26  C   UNL A   1      34.827  29.517  27.944  1.00  0.00     0.016 A 
ATOM     27  C   UNL A   1      35.169  31.893  27.836  1.00  0.00     0.016 A 
ATOM     28  C   UNL A   1      35.894  29.422  28.842  1.00  0.00     0.010 A 
ATOM     29  C   UNL A   1      36.346  31.759  28.620  1.00  0.00     0.010 A 
ATOM     30  C   UNL A   1      36.746  30.506  29.116  1.00  0.00    -0.014 A 
BRANCH  30  31
ATOM     31  C   UNL A   1      38.087  30.251  29.758  1.00  0.00     0.031 A 
ATOM     32  C   UNL A   1      39.150  29.342  29.175  1.00  0.00     0.074 A 
ATOM     33  C   UNL A   1      38.371  30.871  30.930  1.00  0.00     0.049 A 
ATOM     34  N   UNL A   1      40.196  28.811  29.766  1.00  0.00    -0.248 NA
ATOM     35  C   UNL A   1      39.048  29.011  27.749  1.00  0.00     0.031 C 
ATOM     36  C   UNL A   1      37.524  31.868  31.596  1.00  0.00     0.029 A 
ATOM     37  N   UNL A   1      39.450  30.758  31.781  1.00  0.00    -0.354 N 
ATOM     38  C   UNL A   1      40.862  28.057  28.800  1.00  0.00     0.074 A 
ATOM     39  C   UNL A   1      40.103  28.218  27.573  1.00  0.00     0.031 C 
ATOM     40  C   UNL A   1      38.128  32.310  32.700  1.00  0.00     0.029 A 
ATOM     41  C   UNL A   1      39.293  31.482  32.943  1.00  0.00     0.049 A 
ATOM     42  H   UNL A   1      40.247  30.218  31.580  1.00  0.00     0.167 HD
ATOM     43  C   UNL A   1      41.985  27.298  28.934  1.00  0.00     0.034 A 
ATOM     44  C   UNL A   1      39.906  31.418  34.139  1.00  0.00     0.034 A 
ATOM     45  C   UNL A   1      42.738  27.163  30.168  1.00  0.00     0.049 A 
ATOM     46  C   UNL A   1      41.010  30.429  34.336  1.00  0.00     0.074 A 
ATOM     47  C   UNL A   1      43.858  26.382  30.422  1.00  0.00     0.029 A 
ATOM     48  N   UNL A   1      42.456  27.824  31.357  1.00  0.00    -0.354 N 
ATOM     49  N   UNL A   1      41.531  29.598  33.468  1.00  0.00    -0.248 NA
ATOM     50  C   UNL A   1      41.593  30.354  35.680  1.00  0.00     0.031 C 
ATOM     51  C   UNL A   1      44.203  26.515  31.773  1.00  0.00     0.029 A 
ATOM     52  C   UNL A   1      43.353  27.443  32.349  1.00  0.00     0.049 A 
ATOM     53  H   UNL A   1      41.725  28.472  31.480  1.00  0.00     0.167 HD
ATOM     54  C   UNL A   1      42.525  28.916  34.156  1.00  0.00     0.074 A 
ATOM     55  C   UNL A   1      42.536  29.440  35.507  1.00  0.00     0.031 C 
ATOM     56  C   UNL A   1      43.359  27.948  33.701  1.00  0.00     0.034 A 
BRANCH  43  57
ATOM     57  C   UNL A   1      42.436  26.465  27.748  1.00  0.00     0.023 A 
ATOM     58  C   UNL A   1      42.024  25.137  27.546  1.00  0.00     0.031 A 
ATOM     59  C   UNL A   1      43.276  27.043  26.773  1.00  0.00     0.131 A 
ATOM     60  C   UNL A   1      42.487  24.421  26.424  1.00  0.00     0.055 A 
ATOM     61  C   UNL A   1      43.676  26.350  25.629  1.00  0.00     0.041 A 
ATOM     62  F   UNL A   1      43.714  28.305  26.913  1.00  0.00    -0.206 F 
ATOM     63  C   UNL A   1      43.290  25.026  25.455  1.00  0.00     0.022 A 
BRANCH  60  64
ATOM     64  S   UNL A   1      42.123  22.646  26.302  1.00  0.00     0.124 S 
ATOM     65  O   UNL A   1      40.666  22.633  26.417  1.00  0.00    -0.237 OA
ATOM     66  O   UNL A   1      42.666  22.301  24.994  1.00  0.00    -0.237 OA
ATOM     67  O   UNL A   1      42.832  22.070  27.443  1.00  0.00    -0.744 OA
ENDBRANCH  60  64
ENDBRANCH  43  57
BRANCH  44  68
ATOM     68  C   UNL A   1      39.371  32.213  35.282  1.00  0.00     0.023 A 
ATOM     69  C   UNL A   1      39.801  33.524  35.520  1.00  0.00     0.031 A 
ATOM     70  C   UNL A   1      38.413  31.659  36.157  1.00  0.00     0.131 A 
ATOM     71  C   UNL A   1      39.290  34.231  36.618  1.00  0.00     0.055 A 
ATOM     72  C   UNL A   1      37.857  32.393  37.204  1.00  0.00     0.041 A 
ATOM     73  F   UNL A   1      37.970  30.404  35.978  1.00  0.00    -0.206 F 
ATOM     74  C   UNL A   1      38.306  33.684  37.447  1.00  0.00     0.022 A 
BRANCH  71  75
ATOM     75  S   UNL A   1      39.997  35.854  37.002  1.00  0.00     0.124 S 
ATOM     76  O   UNL A   1      41.408  35.528  37.183  1.00  0.00    -0.237 OA
ATOM     77  O   UNL A   1      39.665  36.620  35.805  1.00  0.00    -0.237 OA
ATOM     78  O   UNL A   1      39.288  36.255  38.215  1.00  0.00    -0.744 OA
ENDBRANCH  71  75
ENDBRANCH  44  68
BRANCH  56  79
ATOM     79  C   UNL A   1      44.398  27.449  34.672  1.00  0.00     0.023 A 
ATOM     80  C   UNL A   1      45.639  28.093  34.825  1.00  0.00     0.031 A 
ATOM     81  C   UNL A   1      44.165  26.274  35.407  1.00  0.00     0.131 A 
ATOM     82  C   UNL A   1      46.623  27.523  35.647  1.00  0.00     0.055 A 
ATOM     83  C   UNL A   1      45.127  25.743  36.268  1.00  0.00     0.041 A 
ATOM     84  F   UNL A   1      43.002  25.613  35.289  1.00  0.00    -0.206 F 
ATOM     85  C   UNL A   1      46.369  26.360  36.381  1.00  0.00     0.022 A 
BRANCH  82  86
ATOM     86  S   UNL A   1      48.278  28.267  35.671  1.00  0.00     0.124 S 
ATOM     87  O   UNL A   1      49.128  27.124  35.352  1.00  0.00    -0.237 OA
ATOM     88  O   UNL A   1      48.174  29.292  34.638  1.00  0.00    -0.237 OA
ATOM     89  O   UNL A   1      48.407  28.776  37.035  1.00  0.00    -0.744 OA
ENDBRANCH  82  86
ENDBRANCH  56  79
ENDBRANCH  30  31
ENDBRANCH  23  25
ENDBRANCH  22  23
ENDBRANCH  21  22
ENDBRANCH   1  21
TORSDOF 17
ENDMDL
