MODEL 1
REMARK VINA RESULT:     -10.5      0.000      0.000
REMARK SMILES C[C@](NC(=O)CSc1cccs1)(C(=O)OCCOC(=O)c1ccc(-c2c3nc(c(-c4cc(S(=O)(=O)[O-])ccc4F)c4ccc([nH]4)c(-c4cc(S(=O)(=O)[O-])ccc4F)c4nc(c(-c5cc(S(=O)(=O)[O-])ccc5F)c5ccc2[nH]5)C=C4)C=C3)cc1)C1CC1
REMARK SMILES IDX 16 1 15 2 13 3 14 4 2 5 1 6 84 7 85 8 86 9 3 10 4 11 5 13
REMARK SMILES IDX 6 14 7 15 8 16 9 17 12 18 10 19 11 20 17 21 18 22 19 23
REMARK SMILES IDX 20 24 21 25 22 26 83 27 23 28 82 29 24 30 25 31 26 32 76 33
REMARK SMILES IDX 27 34 81 35 75 36 77 37 28 38 80 39 74 40 73 41 29 43 61 44
REMARK SMILES IDX 41 45 60 46 42 47 45 48 59 49 78 50 43 51 44 52 58 54 79 55
REMARK SMILES IDX 46 56 30 57 31 58 39 59 32 60 38 61 40 62 37 63 33 64 34 65
REMARK SMILES IDX 35 66 36 67 62 68 63 69 71 70 64 71 70 72 72 73 69 74 65 75
REMARK SMILES IDX 66 76 67 77 68 78 47 79 48 80 56 81 49 82 55 83 57 84 54 85
REMARK SMILES IDX 50 86 51 87 52 88 53 89
REMARK H PARENT 3 12 77 42 45 53
REMARK Flexibility Score: inf
ROOT
ATOM      1  C   UNL A   1      35.792  20.065  25.021  1.00  0.00     0.274 C 
ENDROOT
BRANCH   1   2
ATOM      2  O   UNL A   1      34.955  21.149  25.475  1.00  0.00    -0.460 OA
BRANCH   2   3
ATOM      3  C   UNL A   1      33.864  21.454  24.711  1.00  0.00     0.331 C 
ATOM      4  O   UNL A   1      33.344  20.681  23.913  1.00  0.00    -0.249 OA
BRANCH   3   5
ATOM      5  C   UNL A   1      33.352  22.917  24.962  1.00  0.00     0.138 C 
ATOM      6  C   UNL A   1      33.094  23.002  26.472  1.00  0.00     0.048 C 
BRANCH   5   7
ATOM      7  C   UNL A   1      34.460  23.930  24.640  1.00  0.00     0.026 C 
ATOM      8  C   UNL A   1      34.381  25.424  24.899  1.00  0.00     0.007 C 
ATOM      9  C   UNL A   1      35.272  24.565  25.751  1.00  0.00     0.007 C 
ENDBRANCH   5   7
BRANCH   5  10
ATOM     10  N   UNL A   1      32.206  23.177  24.065  1.00  0.00    -0.340 N 
ATOM     11  C   UNL A   1      31.072  23.910  24.067  1.00  0.00     0.231 C 
ATOM     12  H   UNL A   1      32.295  22.671  23.225  1.00  0.00     0.164 HD
ATOM     13  O   UNL A   1      30.287  23.710  23.131  1.00  0.00    -0.274 OA
BRANCH  11  14
ATOM     14  C   UNL A   1      30.760  24.979  25.085  1.00  0.00     0.175 C 
BRANCH  14  15
ATOM     15  S   UNL A   1      30.485  26.617  24.367  1.00  0.00    -0.105 SA
BRANCH  15  16
ATOM     16  C   UNL A   1      31.281  27.704  25.485  1.00  0.00     0.060 A 
ATOM     17  C   UNL A   1      31.641  27.453  26.791  1.00  0.00     0.027 A 
ATOM     18  S   UNL A   1      31.673  29.305  25.020  1.00  0.00    -0.137 S 
ATOM     19  C   UNL A   1      32.274  28.575  27.403  1.00  0.00     0.013 A 
ATOM     20  C   UNL A   1      32.356  29.650  26.548  1.00  0.00     0.066 A 
ENDBRANCH  15  16
ENDBRANCH  14  15
ENDBRANCH  11  14
ENDBRANCH   5  10
ENDBRANCH   3   5
ENDBRANCH   2   3
ENDBRANCH   1   2
BRANCH   1  21
ATOM     21  C   UNL A   1      37.161  20.596  24.613  1.00  0.00     0.275 C 
BRANCH  21  22
ATOM     22  O   UNL A   1      37.640  21.462  25.653  1.00  0.00    -0.458 OA
BRANCH  22  23
ATOM     23  C   UNL A   1      38.940  21.318  25.995  1.00  0.00     0.338 C 
ATOM     24  O   UNL A   1      39.640  20.332  25.843  1.00  0.00    -0.246 OA
BRANCH  23  25
ATOM     25  C   UNL A   1      39.425  22.585  26.571  1.00  0.00     0.060 A 
ATOM     26  C   UNL A   1      38.786  23.777  26.236  1.00  0.00     0.016 A 
ATOM     27  C   UNL A   1      40.585  22.612  27.342  1.00  0.00     0.016 A 
ATOM     28  C   UNL A   1      39.360  24.999  26.572  1.00  0.00     0.010 A 
ATOM     29  C   UNL A   1      41.104  23.841  27.768  1.00  0.00     0.010 A 
ATOM     30  C   UNL A   1      40.529  25.054  27.345  1.00  0.00    -0.014 A 
BRANCH  30  31
ATOM     31  C   UNL A   1      41.187  26.367  27.615  1.00  0.00     0.031 A 
ATOM     32  C   UNL A   1      42.516  26.687  26.976  1.00  0.00     0.074 A 
ATOM     33  C   UNL A   1      40.582  27.302  28.377  1.00  0.00     0.049 A 
ATOM     34  N   UNL A   1      43.333  27.683  27.211  1.00  0.00    -0.248 NA
ATOM     35  C   UNL A   1      43.000  25.749  25.953  1.00  0.00     0.031 C 
ATOM     36  C   UNL A   1      39.275  27.157  29.023  1.00  0.00     0.029 A 
ATOM     37  N   UNL A   1      40.976  28.574  28.718  1.00  0.00    -0.354 N 
ATOM     38  C   UNL A   1      44.457  27.451  26.423  1.00  0.00     0.074 A 
ATOM     39  C   UNL A   1      44.214  26.219  25.704  1.00  0.00     0.031 C 
ATOM     40  C   UNL A   1      38.950  28.311  29.625  1.00  0.00     0.029 A 
ATOM     41  C   UNL A   1      40.059  29.248  29.491  1.00  0.00     0.049 A 
ATOM     42  H   UNL A   1      41.833  28.965  28.435  1.00  0.00     0.167 HD
ATOM     43  C   UNL A   1      45.587  28.195  26.313  1.00  0.00     0.034 A 
ATOM     44  C   UNL A   1      40.115  30.469  30.061  1.00  0.00     0.034 A 
ATOM     45  C   UNL A   1      45.790  29.455  26.985  1.00  0.00     0.049 A 
ATOM     46  C   UNL A   1      41.362  31.295  29.894  1.00  0.00     0.074 A 
ATOM     47  C   UNL A   1      46.910  30.272  26.980  1.00  0.00     0.029 A 
ATOM     48  N   UNL A   1      44.836  30.102  27.760  1.00  0.00    -0.354 N 
ATOM     49  N   UNL A   1      42.468  30.997  29.252  1.00  0.00    -0.248 NA
ATOM     50  C   UNL A   1      41.375  32.612  30.543  1.00  0.00     0.031 C 
ATOM     51  C   UNL A   1      46.642  31.395  27.773  1.00  0.00     0.029 A 
ATOM     52  C   UNL A   1      45.339  31.306  28.231  1.00  0.00     0.049 A 
ATOM     53  H   UNL A   1      43.934  29.755  27.950  1.00  0.00     0.167 HD
ATOM     54  C   UNL A   1      43.314  32.087  29.435  1.00  0.00     0.074 A 
ATOM     55  C   UNL A   1      42.574  33.065  30.205  1.00  0.00     0.031 C 
ATOM     56  C   UNL A   1      44.595  32.256  29.021  1.00  0.00     0.034 A 
BRANCH  43  57
ATOM     57  C   UNL A   1      46.712  27.622  25.486  1.00  0.00     0.023 A 
ATOM     58  C   UNL A   1      46.980  28.063  24.179  1.00  0.00     0.031 A 
ATOM     59  C   UNL A   1      47.503  26.580  26.004  1.00  0.00     0.131 A 
ATOM     60  C   UNL A   1      47.964  27.419  23.412  1.00  0.00     0.055 A 
ATOM     61  C   UNL A   1      48.530  25.994  25.263  1.00  0.00     0.041 A 
ATOM     62  F   UNL A   1      47.278  26.102  27.239  1.00  0.00    -0.206 F 
ATOM     63  C   UNL A   1      48.756  26.403  23.953  1.00  0.00     0.022 A 
BRANCH  60  64
ATOM     64  S   UNL A   1      48.103  27.835  21.652  1.00  0.00     0.124 S 
ATOM     65  O   UNL A   1      48.430  26.536  21.068  1.00  0.00    -0.237 OA
ATOM     66  O   UNL A   1      46.778  28.359  21.345  1.00  0.00    -0.237 OA
ATOM     67  O   UNL A   1      49.185  28.817  21.616  1.00  0.00    -0.744 OA
ENDBRANCH  60  64
ENDBRANCH  43  57
BRANCH  44  68
ATOM     68  C   UNL A   1      38.988  30.960  30.904  1.00  0.00     0.023 A 
ATOM     69  C   UNL A   1      37.817  31.475  30.326  1.00  0.00     0.031 A 
ATOM     70  C   UNL A   1      39.083  30.952  32.307  1.00  0.00     0.131 A 
ATOM     71  C   UNL A   1      36.802  31.992  31.147  1.00  0.00     0.055 A 
ATOM     72  C   UNL A   1      38.051  31.421  33.120  1.00  0.00     0.041 A 
ATOM     73  F   UNL A   1      40.182  30.470  32.910  1.00  0.00    -0.206 F 
ATOM     74  C   UNL A   1      36.906  31.957  32.539  1.00  0.00     0.022 A 
BRANCH  71  75
ATOM     75  S   UNL A   1      35.369  32.785  30.365  1.00  0.00     0.124 S 
ATOM     76  O   UNL A   1      35.923  34.073  29.961  1.00  0.00    -0.237 OA
ATOM     77  O   UNL A   1      35.061  31.853  29.286  1.00  0.00    -0.237 OA
ATOM     78  O   UNL A   1      34.382  32.840  31.440  1.00  0.00    -0.744 OA
ENDBRANCH  71  75
ENDBRANCH  44  68
BRANCH  56  79
ATOM     79  C   UNL A   1      45.255  33.557  29.396  1.00  0.00     0.023 A 
ATOM     80  C   UNL A   1      45.235  34.662  28.526  1.00  0.00     0.031 A 
ATOM     81  C   UNL A   1      45.944  33.679  30.614  1.00  0.00     0.131 A 
ATOM     82  C   UNL A   1      45.943  35.825  28.861  1.00  0.00     0.055 A 
ATOM     83  C   UNL A   1      46.608  34.856  30.962  1.00  0.00     0.041 A 
ATOM     84  F   UNL A   1      45.993  32.653  31.477  1.00  0.00    -0.206 F 
ATOM     85  C   UNL A   1      46.621  35.933  30.078  1.00  0.00     0.022 A 
BRANCH  82  86
ATOM     86  S   UNL A   1      46.042  37.164  27.642  1.00  0.00     0.124 S 
ATOM     87  O   UNL A   1      45.043  38.105  28.140  1.00  0.00    -0.237 OA
ATOM     88  O   UNL A   1      47.432  37.589  27.758  1.00  0.00    -0.237 OA
ATOM     89  O   UNL A   1      45.699  36.507  26.382  1.00  0.00    -0.744 OA
ENDBRANCH  82  86
ENDBRANCH  56  79
ENDBRANCH  30  31
ENDBRANCH  23  25
ENDBRANCH  22  23
ENDBRANCH  21  22
ENDBRANCH   1  21
TORSDOF 19
ENDMDL
MODEL 2
REMARK VINA RESULT:     -10.4      1.794      7.910
REMARK SMILES C[C@](NC(=O)CSc1cccs1)(C(=O)OCCOC(=O)c1ccc(-c2c3nc(c(-c4cc(S(=O)(=O)[O-])ccc4F)c4ccc([nH]4)c(-c4cc(S(=O)(=O)[O-])ccc4F)c4nc(c(-c5cc(S(=O)(=O)[O-])ccc5F)c5ccc2[nH]5)C=C4)C=C3)cc1)C1CC1
REMARK SMILES IDX 16 1 15 2 13 3 14 4 2 5 1 6 84 7 85 8 86 9 3 10 4 11 5 13
REMARK SMILES IDX 6 14 7 15 8 16 9 17 12 18 10 19 11 20 17 21 18 22 19 23
REMARK SMILES IDX 20 24 21 25 22 26 83 27 23 28 82 29 24 30 25 31 26 32 76 33
REMARK SMILES IDX 27 34 81 35 75 36 77 37 28 38 80 39 74 40 73 41 29 43 61 44
REMARK SMILES IDX 41 45 60 46 42 47 45 48 59 49 78 50 43 51 44 52 58 54 79 55
REMARK SMILES IDX 46 56 30 57 31 58 39 59 32 60 38 61 40 62 37 63 33 64 34 65
REMARK SMILES IDX 35 66 36 67 62 68 63 69 71 70 64 71 70 72 72 73 69 74 65 75
REMARK SMILES IDX 66 76 67 77 68 78 47 79 48 80 56 81 49 82 55 83 57 84 54 85
REMARK SMILES IDX 50 86 51 87 52 88 53 89
REMARK H PARENT 3 12 77 42 45 53
REMARK Flexibility Score: inf
ROOT
ATOM      1  C   UNL A   1      34.832  20.729  25.345  1.00  0.00     0.274 C 
ENDROOT
BRANCH   1   2
ATOM      2  O   UNL A   1      34.587  22.123  25.622  1.00  0.00    -0.460 OA
BRANCH   2   3
ATOM      3  C   UNL A   1      33.283  22.529  25.663  1.00  0.00     0.331 C 
ATOM      4  O   UNL A   1      32.383  21.900  26.210  1.00  0.00    -0.249 OA
BRANCH   3   5
ATOM      5  C   UNL A   1      33.060  23.893  24.917  1.00  0.00     0.138 C 
ATOM      6  C   UNL A   1      34.432  24.579  24.912  1.00  0.00     0.048 C 
BRANCH   5   7
ATOM      7  C   UNL A   1      32.680  23.640  23.451  1.00  0.00     0.026 C 
ATOM      8  C   UNL A   1      33.654  23.268  22.348  1.00  0.00     0.007 C 
ATOM      9  C   UNL A   1      32.700  22.237  22.879  1.00  0.00     0.007 C 
ENDBRANCH   5   7
BRANCH   5  10
ATOM     10  N   UNL A   1      31.946  24.612  25.571  1.00  0.00    -0.340 N 
ATOM     11  C   UNL A   1      31.464  25.871  25.640  1.00  0.00     0.231 C 
ATOM     12  H   UNL A   1      31.399  23.997  26.111  1.00  0.00     0.164 HD
ATOM     13  O   UNL A   1      30.557  26.068  26.459  1.00  0.00    -0.274 OA
BRANCH  11  14
ATOM     14  C   UNL A   1      31.916  26.997  24.743  1.00  0.00     0.175 C 
BRANCH  14  15
ATOM     15  S   UNL A   1      31.351  26.842  23.030  1.00  0.00    -0.105 SA
BRANCH  15  16
ATOM     16  C   UNL A   1      29.887  27.801  22.983  1.00  0.00     0.060 A 
ATOM     17  C   UNL A   1      28.634  27.449  23.437  1.00  0.00     0.027 A 
ATOM     18  S   UNL A   1      29.886  29.362  22.279  1.00  0.00    -0.137 S 
ATOM     19  C   UNL A   1      27.675  28.484  23.234  1.00  0.00     0.013 A 
ATOM     20  C   UNL A   1      28.225  29.583  22.613  1.00  0.00     0.066 A 
ENDBRANCH  15  16
ENDBRANCH  14  15
ENDBRANCH  11  14
ENDBRANCH   5  10
ENDBRANCH   3   5
ENDBRANCH   2   3
ENDBRANCH   1   2
BRANCH   1  21
ATOM     21  C   UNL A   1      36.300  20.514  24.993  1.00  0.00     0.275 C 
BRANCH  21  22
ATOM     22  O   UNL A   1      37.063  21.593  25.556  1.00  0.00    -0.458 OA
BRANCH  22  23
ATOM     23  C   UNL A   1      38.370  21.339  25.788  1.00  0.00     0.338 C 
ATOM     24  O   UNL A   1      38.984  20.321  25.522  1.00  0.00    -0.246 OA
BRANCH  23  25
ATOM     25  C   UNL A   1      38.986  22.531  26.400  1.00  0.00     0.060 A 
ATOM     26  C   UNL A   1      38.503  23.795  26.071  1.00  0.00     0.016 A 
ATOM     27  C   UNL A   1      40.119  22.406  27.202  1.00  0.00     0.016 A 
ATOM     28  C   UNL A   1      39.210  24.934  26.446  1.00  0.00     0.010 A 
ATOM     29  C   UNL A   1      40.768  23.557  27.666  1.00  0.00     0.010 A 
ATOM     30  C   UNL A   1      40.353  24.837  27.250  1.00  0.00    -0.014 A 
BRANCH  30  31
ATOM     31  C   UNL A   1      41.155  26.058  27.563  1.00  0.00     0.031 A 
ATOM     32  C   UNL A   1      40.596  27.106  28.494  1.00  0.00     0.074 A 
ATOM     33  C   UNL A   1      42.402  26.213  27.072  1.00  0.00     0.049 A 
ATOM     34  N   UNL A   1      41.045  28.308  28.758  1.00  0.00    -0.248 NA
ATOM     35  C   UNL A   1      39.354  26.765  29.203  1.00  0.00     0.031 C 
ATOM     36  C   UNL A   1      43.096  25.263  26.198  1.00  0.00     0.029 A 
ATOM     37  N   UNL A   1      43.322  27.217  27.260  1.00  0.00    -0.354 N 
ATOM     38  C   UNL A   1      40.104  28.891  29.603  1.00  0.00     0.074 A 
ATOM     39  C   UNL A   1      39.060  27.908  29.805  1.00  0.00     0.031 C 
ATOM     40  C   UNL A   1      44.347  25.698  25.980  1.00  0.00     0.029 A 
ATOM     41  C   UNL A   1      44.518  26.999  26.616  1.00  0.00     0.049 A 
ATOM     42  H   UNL A   1      43.141  28.016  27.803  1.00  0.00     0.167 HD
ATOM     43  C   UNL A   1      40.109  30.131  30.154  1.00  0.00     0.034 A 
ATOM     44  C   UNL A   1      45.619  27.771  26.515  1.00  0.00     0.034 A 
ATOM     45  C   UNL A   1      41.187  31.077  29.999  1.00  0.00     0.049 A 
ATOM     46  C   UNL A   1      45.619  29.127  27.169  1.00  0.00     0.074 A 
ATOM     47  C   UNL A   1      41.280  32.374  30.477  1.00  0.00     0.029 A 
ATOM     48  N   UNL A   1      42.380  30.816  29.337  1.00  0.00    -0.354 N 
ATOM     49  N   UNL A   1      44.664  29.713  27.852  1.00  0.00    -0.248 NA
ATOM     50  C   UNL A   1      46.839  29.932  27.021  1.00  0.00     0.031 C 
ATOM     51  C   UNL A   1      42.514  32.904  30.081  1.00  0.00     0.029 A 
ATOM     52  C   UNL A   1      43.214  31.922  29.400  1.00  0.00     0.049 A 
ATOM     53  H   UNL A   1      42.601  29.968  28.887  1.00  0.00     0.167 HD
ATOM     54  C   UNL A   1      45.164  30.964  28.202  1.00  0.00     0.074 A 
ATOM     55  C   UNL A   1      46.520  31.027  27.695  1.00  0.00     0.031 C 
ATOM     56  C   UNL A   1      44.553  31.977  28.865  1.00  0.00     0.034 A 
BRANCH  43  57
ATOM     57  C   UNL A   1      38.877  30.551  30.919  1.00  0.00     0.023 A 
ATOM     58  C   UNL A   1      37.749  31.094  30.281  1.00  0.00     0.031 A 
ATOM     59  C   UNL A   1      38.853  30.444  32.321  1.00  0.00     0.131 A 
ATOM     60  C   UNL A   1      36.676  31.573  31.049  1.00  0.00     0.055 A 
ATOM     61  C   UNL A   1      37.752  30.853  33.074  1.00  0.00     0.041 A 
ATOM     62  F   UNL A   1      39.912  29.954  32.987  1.00  0.00    -0.206 F 
ATOM     63  C   UNL A   1      36.659  31.435  32.439  1.00  0.00     0.022 A 
BRANCH  60  64
ATOM     64  S   UNL A   1      35.359  32.501  30.216  1.00  0.00     0.124 S 
ATOM     65  O   UNL A   1      36.032  33.764  29.919  1.00  0.00    -0.237 OA
ATOM     66  O   UNL A   1      35.052  31.655  29.068  1.00  0.00    -0.237 OA
ATOM     67  O   UNL A   1      34.307  32.586  31.227  1.00  0.00    -0.744 OA
ENDBRANCH  60  64
ENDBRANCH  43  57
BRANCH  44  68
ATOM     68  C   UNL A   1      46.787  27.318  25.708  1.00  0.00     0.023 A 
ATOM     69  C   UNL A   1      46.991  27.780  24.398  1.00  0.00     0.031 A 
ATOM     70  C   UNL A   1      47.699  26.382  26.227  1.00  0.00     0.131 A 
ATOM     71  C   UNL A   1      48.062  27.281  23.640  1.00  0.00     0.055 A 
ATOM     72  C   UNL A   1      48.790  25.926  25.488  1.00  0.00     0.041 A 
ATOM     73  F   UNL A   1      47.549  25.908  27.474  1.00  0.00    -0.206 F 
ATOM     74  C   UNL A   1      48.970  26.368  24.181  1.00  0.00     0.022 A 
BRANCH  71  75
ATOM     75  S   UNL A   1      48.211  27.787  21.904  1.00  0.00     0.124 S 
ATOM     76  O   UNL A   1      46.908  28.395  21.657  1.00  0.00    -0.237 OA
ATOM     77  O   UNL A   1      49.346  28.702  21.953  1.00  0.00    -0.237 OA
ATOM     78  O   UNL A   1      48.456  26.529  21.203  1.00  0.00    -0.744 OA
ENDBRANCH  71  75
ENDBRANCH  44  68
BRANCH  56  79
ATOM     79  C   UNL A   1      45.364  33.227  29.077  1.00  0.00     0.023 A 
ATOM     80  C   UNL A   1      46.149  33.400  30.231  1.00  0.00     0.031 A 
ATOM     81  C   UNL A   1      45.321  34.271  28.138  1.00  0.00     0.131 A 
ATOM     82  C   UNL A   1      46.815  34.615  30.446  1.00  0.00     0.055 A 
ATOM     83  C   UNL A   1      46.023  35.461  28.336  1.00  0.00     0.041 A 
ATOM     84  F   UNL A   1      44.585  34.155  27.021  1.00  0.00    -0.206 F 
ATOM     85  C   UNL A   1      46.764  35.643  29.501  1.00  0.00     0.022 A 
BRANCH  82  86
ATOM     86  S   UNL A   1      47.674  34.870  32.023  1.00  0.00     0.124 S 
ATOM     87  O   UNL A   1      46.760  34.244  32.973  1.00  0.00    -0.237 OA
ATOM     88  O   UNL A   1      48.939  34.178  31.804  1.00  0.00    -0.237 OA
ATOM     89  O   UNL A   1      47.775  36.325  32.128  1.00  0.00    -0.744 OA
ENDBRANCH  82  86
ENDBRANCH  56  79
ENDBRANCH  30  31
ENDBRANCH  23  25
ENDBRANCH  22  23
ENDBRANCH  21  22
ENDBRANCH   1  21
TORSDOF 19
ENDMDL
MODEL 3
REMARK VINA RESULT:     -10.4      5.225      7.715
REMARK SMILES C[C@](NC(=O)CSc1cccs1)(C(=O)OCCOC(=O)c1ccc(-c2c3nc(c(-c4cc(S(=O)(=O)[O-])ccc4F)c4ccc([nH]4)c(-c4cc(S(=O)(=O)[O-])ccc4F)c4nc(c(-c5cc(S(=O)(=O)[O-])ccc5F)c5ccc2[nH]5)C=C4)C=C3)cc1)C1CC1
REMARK SMILES IDX 16 1 15 2 13 3 14 4 2 5 1 6 84 7 85 8 86 9 3 10 4 11 5 13
REMARK SMILES IDX 6 14 7 15 8 16 9 17 12 18 10 19 11 20 17 21 18 22 19 23
REMARK SMILES IDX 20 24 21 25 22 26 83 27 23 28 82 29 24 30 25 31 26 32 76 33
REMARK SMILES IDX 27 34 81 35 75 36 77 37 28 38 80 39 74 40 73 41 29 43 61 44
REMARK SMILES IDX 41 45 60 46 42 47 45 48 59 49 78 50 43 51 44 52 58 54 79 55
REMARK SMILES IDX 46 56 30 57 31 58 39 59 32 60 38 61 40 62 37 63 33 64 34 65
REMARK SMILES IDX 35 66 36 67 62 68 63 69 71 70 64 71 70 72 72 73 69 74 65 75
REMARK SMILES IDX 66 76 67 77 68 78 47 79 48 80 56 81 49 82 55 83 57 84 54 85
REMARK SMILES IDX 50 86 51 87 52 88 53 89
REMARK H PARENT 3 12 77 42 45 53
REMARK Flexibility Score: inf
ROOT
ATOM      1  C   UNL A   1      31.767  28.725  26.846  1.00  0.00     0.274 C 
ENDROOT
BRANCH   1   2
ATOM      2  O   UNL A   1      32.039  28.216  25.524  1.00  0.00    -0.460 OA
BRANCH   2   3
ATOM      3  C   UNL A   1      31.423  27.049  25.168  1.00  0.00     0.331 C 
ATOM      4  O   UNL A   1      31.379  26.050  25.878  1.00  0.00    -0.249 OA
BRANCH   3   5
ATOM      5  C   UNL A   1      30.784  27.127  23.736  1.00  0.00     0.138 C 
ATOM      6  C   UNL A   1      29.864  25.903  23.637  1.00  0.00     0.048 C 
BRANCH   5   7
ATOM      7  C   UNL A   1      29.889  28.369  23.621  1.00  0.00     0.026 C 
ATOM      8  C   UNL A   1      29.694  29.193  22.361  1.00  0.00     0.007 C 
ATOM      9  C   UNL A   1      28.582  28.312  22.856  1.00  0.00     0.007 C 
ENDBRANCH   5   7
BRANCH   5  10
ATOM     10  N   UNL A   1      31.870  27.240  22.738  1.00  0.00    -0.340 N 
ATOM     11  C   UNL A   1      33.080  26.692  22.503  1.00  0.00     0.231 C 
ATOM     12  H   UNL A   1      31.647  27.907  22.049  1.00  0.00     0.164 HD
ATOM     13  O   UNL A   1      33.750  27.206  21.598  1.00  0.00    -0.274 OA
BRANCH  11  14
ATOM     14  C   UNL A   1      33.608  25.473  23.220  1.00  0.00     0.175 C 
BRANCH  14  15
ATOM     15  S   UNL A   1      33.221  23.911  22.392  1.00  0.00    -0.105 SA
BRANCH  15  16
ATOM     16  C   UNL A   1      32.993  22.783  23.711  1.00  0.00     0.060 A 
ATOM     17  C   UNL A   1      31.804  22.382  24.280  1.00  0.00     0.027 A 
ATOM     18  S   UNL A   1      34.338  22.060  24.487  1.00  0.00    -0.137 S 
ATOM     19  C   UNL A   1      31.999  21.447  25.339  1.00  0.00     0.013 A 
ATOM     20  C   UNL A   1      33.332  21.184  25.555  1.00  0.00     0.066 A 
ENDBRANCH  15  16
ENDBRANCH  14  15
ENDBRANCH  11  14
ENDBRANCH   5  10
ENDBRANCH   3   5
ENDBRANCH   2   3
ENDBRANCH   1   2
BRANCH   1  21
ATOM     21  C   UNL A   1      31.788  30.249  26.837  1.00  0.00     0.275 C 
BRANCH  21  22
ATOM     22  O   UNL A   1      33.119  30.681  26.514  1.00  0.00    -0.458 OA
BRANCH  22  23
ATOM     23  C   UNL A   1      33.640  31.644  27.307  1.00  0.00     0.338 C 
ATOM     24  O   UNL A   1      33.109  32.685  27.652  1.00  0.00    -0.246 OA
BRANCH  23  25
ATOM     25  C   UNL A   1      34.984  31.226  27.745  1.00  0.00     0.060 A 
ATOM     26  C   UNL A   1      35.232  29.878  27.996  1.00  0.00     0.016 A 
ATOM     27  C   UNL A   1      35.962  32.177  28.027  1.00  0.00     0.016 A 
ATOM     28  C   UNL A   1      36.408  29.489  28.631  1.00  0.00     0.010 A 
ATOM     29  C   UNL A   1      37.188  31.769  28.569  1.00  0.00     0.010 A 
ATOM     30  C   UNL A   1      37.407  30.426  28.928  1.00  0.00    -0.014 A 
BRANCH  30  31
ATOM     31  C   UNL A   1      38.620  30.010  29.694  1.00  0.00     0.031 A 
ATOM     32  C   UNL A   1      39.615  29.062  29.070  1.00  0.00     0.074 A 
ATOM     33  C   UNL A   1      38.873  30.516  30.919  1.00  0.00     0.049 A 
ATOM     34  N   UNL A   1      40.631  28.444  29.619  1.00  0.00    -0.248 NA
ATOM     35  C   UNL A   1      39.428  28.752  27.645  1.00  0.00     0.031 C 
ATOM     36  C   UNL A   1      38.029  31.477  31.633  1.00  0.00     0.029 A 
ATOM     37  N   UNL A   1      39.930  30.312  31.773  1.00  0.00    -0.354 N 
ATOM     38  C   UNL A   1      41.157  27.618  28.630  1.00  0.00     0.074 A 
ATOM     39  C   UNL A   1      40.345  27.816  27.448  1.00  0.00     0.031 C 
ATOM     40  C   UNL A   1      38.630  31.825  32.781  1.00  0.00     0.029 A 
ATOM     41  C   UNL A   1      39.853  31.046  32.934  1.00  0.00     0.049 A 
ATOM     42  H   UNL A   1      40.672  29.698  31.573  1.00  0.00     0.167 HD
ATOM     43  C   UNL A   1      42.214  26.771  28.702  1.00  0.00     0.034 A 
ATOM     44  C   UNL A   1      40.654  31.067  34.019  1.00  0.00     0.034 A 
ATOM     45  C   UNL A   1      43.056  26.631  29.866  1.00  0.00     0.049 A 
ATOM     46  C   UNL A   1      41.846  30.149  34.062  1.00  0.00     0.074 A 
ATOM     47  C   UNL A   1      44.128  25.776  30.065  1.00  0.00     0.029 A 
ATOM     48  N   UNL A   1      42.942  27.394  31.021  1.00  0.00    -0.354 N 
ATOM     49  N   UNL A   1      42.248  29.277  33.167  1.00  0.00    -0.248 NA
ATOM     50  C   UNL A   1      42.679  30.205  35.270  1.00  0.00     0.031 C 
ATOM     51  C   UNL A   1      44.641  26.001  31.348  1.00  0.00     0.029 A 
ATOM     52  C   UNL A   1      43.925  27.033  31.931  1.00  0.00     0.049 A 
ATOM     53  H   UNL A   1      42.262  28.089  31.173  1.00  0.00     0.167 HD
ATOM     54  C   UNL A   1      43.374  28.669  33.713  1.00  0.00     0.074 A 
ATOM     55  C   UNL A   1      43.614  29.307  34.991  1.00  0.00     0.031 C 
ATOM     56  C   UNL A   1      44.132  27.661  33.213  1.00  0.00     0.034 A 
BRANCH  43  57
ATOM     57  C   UNL A   1      42.471  25.884  27.508  1.00  0.00     0.023 A 
ATOM     58  C   UNL A   1      41.949  24.582  27.416  1.00  0.00     0.031 A 
ATOM     59  C   UNL A   1      43.293  26.339  26.461  1.00  0.00     0.131 A 
ATOM     60  C   UNL A   1      42.310  23.759  26.338  1.00  0.00     0.055 A 
ATOM     61  C   UNL A   1      43.588  25.541  25.355  1.00  0.00     0.041 A 
ATOM     62  F   UNL A   1      43.838  27.565  26.505  1.00  0.00    -0.206 F 
ATOM     63  C   UNL A   1      43.108  24.237  25.295  1.00  0.00     0.022 A 
BRANCH  60  64
ATOM     64  S   UNL A   1      41.835  22.009  26.384  1.00  0.00     0.124 S 
ATOM     65  O   UNL A   1      42.823  21.412  25.489  1.00  0.00    -0.237 OA
ATOM     66  O   UNL A   1      41.974  21.681  27.798  1.00  0.00    -0.237 OA
ATOM     67  O   UNL A   1      40.465  22.012  25.877  1.00  0.00    -0.744 OA
ENDBRANCH  60  64
ENDBRANCH  43  57
BRANCH  44  68
ATOM     68  C   UNL A   1      40.321  31.934  35.185  1.00  0.00     0.023 A 
ATOM     69  C   UNL A   1      39.337  31.560  36.114  1.00  0.00     0.031 A 
ATOM     70  C   UNL A   1      40.962  33.173  35.366  1.00  0.00     0.131 A 
ATOM     71  C   UNL A   1      38.999  32.431  37.162  1.00  0.00     0.055 A 
ATOM     72  C   UNL A   1      40.658  34.012  36.437  1.00  0.00     0.041 A 
ATOM     73  F   UNL A   1      41.911  33.577  34.506  1.00  0.00    -0.206 F 
ATOM     74  C   UNL A   1      39.662  33.647  37.338  1.00  0.00     0.022 A 
BRANCH  71  75
ATOM     75  S   UNL A   1      37.622  31.983  38.255  1.00  0.00     0.124 S 
ATOM     76  O   UNL A   1      38.207  32.196  39.575  1.00  0.00    -0.237 OA
ATOM     77  O   UNL A   1      36.594  32.936  37.850  1.00  0.00    -0.237 OA
ATOM     78  O   UNL A   1      37.350  30.591  37.909  1.00  0.00    -0.744 OA
ENDBRANCH  71  75
ENDBRANCH  44  68
BRANCH  56  79
ATOM     79  C   UNL A   1      45.289  27.207  34.061  1.00  0.00     0.023 A 
ATOM     80  C   UNL A   1      45.128  26.216  35.045  1.00  0.00     0.031 A 
ATOM     81  C   UNL A   1      46.555  27.799  33.913  1.00  0.00     0.131 A 
ATOM     82  C   UNL A   1      46.202  25.886  35.885  1.00  0.00     0.055 A 
ATOM     83  C   UNL A   1      47.632  27.434  34.722  1.00  0.00     0.041 A 
ATOM     84  F   UNL A   1      46.760  28.751  32.988  1.00  0.00    -0.206 F 
ATOM     85  C   UNL A   1      47.455  26.481  35.723  1.00  0.00     0.022 A 
BRANCH  82  86
ATOM     86  S   UNL A   1      45.912  24.732  37.254  1.00  0.00     0.124 S 
ATOM     87  O   UNL A   1      44.826  25.384  37.979  1.00  0.00    -0.237 OA
ATOM     88  O   UNL A   1      45.565  23.500  36.556  1.00  0.00    -0.237 OA
ATOM     89  O   UNL A   1      47.195  24.705  37.956  1.00  0.00    -0.744 OA
ENDBRANCH  82  86
ENDBRANCH  56  79
ENDBRANCH  30  31
ENDBRANCH  23  25
ENDBRANCH  22  23
ENDBRANCH  21  22
ENDBRANCH   1  21
TORSDOF 19
ENDMDL
