MODEL 1
REMARK VINA RESULT:     -13.1      0.000      0.000
REMARK SMILES O=C(OCCOC(=O)[C@@H]1[C@@H](C(=O)Nc2cccc([N+](=O)[O-])c2)[C@@H]2C=C[C@H]1O2)c1ccc(-c2c3nc(c(-c4cc(S(=O)(=O)[O-])ccc4F)c4ccc([nH]4)c(-c4cc(S(=O)(=O)[O-])ccc4F)c4nc(c(-c5cc(S(=O)(=O)[O-])ccc5F)c5ccc2[nH]5)C=C4)C=C3)cc1
REMARK SMILES IDX 4 1 3 2 2 3 1 4 28 5 29 6 90 7 30 8 89 9 31 10 32 11 33 12
REMARK SMILES IDX 83 13 34 14 88 15 82 16 84 17 35 18 87 19 81 20 80 21 36 23
REMARK SMILES IDX 68 24 48 25 67 26 49 27 52 28 66 29 85 30 50 31 51 32 65 34
REMARK SMILES IDX 86 35 53 36 37 37 38 38 46 39 39 40 45 41 47 42 44 43 40 44
REMARK SMILES IDX 41 45 42 46 43 47 69 48 70 49 78 50 71 51 77 52 79 53 76 54
REMARK SMILES IDX 72 55 73 56 74 57 75 58 54 59 55 60 63 61 56 62 62 63 64 64
REMARK SMILES IDX 61 65 57 66 58 67 59 68 60 69 5 70 6 71 7 72 8 73 9 74 10 75
REMARK SMILES IDX 26 76 23 77 25 78 27 79 24 80 11 81 12 82 13 83 14 85 15 86
REMARK SMILES IDX 22 87 16 88 18 89 17 90 19 91 20 92 21 93
REMARK H PARENT 84 22 52 33 13 84
REMARK Flexibility Score: inf
ROOT
ATOM      1  C   UNL A   1      38.289  20.382  25.384  1.00  0.00     0.275 C 
ENDROOT
BRANCH   1   2
ATOM      2  O   UNL A   1      39.229  21.492  25.466  1.00  0.00    -0.458 OA
BRANCH   2   3
ATOM      3  C   UNL A   1      40.137  21.768  26.454  1.00  0.00     0.338 C 
ATOM      4  O   UNL A   1      40.770  20.851  26.970  1.00  0.00    -0.246 OA
BRANCH   3   5
ATOM      5  C   UNL A   1      40.072  23.091  27.179  1.00  0.00     0.060 A 
ATOM      6  C   UNL A   1      41.040  23.546  28.029  1.00  0.00     0.016 A 
ATOM      7  C   UNL A   1      38.983  23.971  27.030  1.00  0.00     0.016 A 
ATOM      8  C   UNL A   1      41.037  24.904  28.440  1.00  0.00     0.010 A 
ATOM      9  C   UNL A   1      39.058  25.371  27.410  1.00  0.00     0.010 A 
ATOM     10  C   UNL A   1      40.211  25.925  27.979  1.00  0.00    -0.014 A 
BRANCH  10  11
ATOM     11  C   UNL A   1      40.459  27.373  28.509  1.00  0.00     0.031 A 
ATOM     12  C   UNL A   1      41.877  27.846  28.298  1.00  0.00     0.074 A 
ATOM     13  C   UNL A   1      39.594  28.358  28.951  1.00  0.00     0.049 A 
ATOM     14  N   UNL A   1      42.409  29.021  28.514  1.00  0.00    -0.248 NA
ATOM     15  C   UNL A   1      42.801  26.846  27.747  1.00  0.00     0.031 C 
ATOM     16  C   UNL A   1      38.157  28.285  29.149  1.00  0.00     0.029 A 
ATOM     17  N   UNL A   1      39.797  29.715  29.278  1.00  0.00    -0.354 N 
ATOM     18  C   UNL A   1      43.734  28.897  28.133  1.00  0.00     0.074 A 
ATOM     19  C   UNL A   1      43.927  27.526  27.714  1.00  0.00     0.031 C 
ATOM     20  C   UNL A   1      37.604  29.460  29.466  1.00  0.00     0.029 A 
ATOM     21  C   UNL A   1      38.645  30.437  29.620  1.00  0.00     0.049 A 
ATOM     22  H   UNL A   1      40.690  30.128  29.267  1.00  0.00     0.167 HD
ATOM     23  C   UNL A   1      44.722  29.822  28.119  1.00  0.00     0.034 A 
ATOM     24  C   UNL A   1      38.369  31.704  30.034  1.00  0.00     0.034 A 
ATOM     25  C   UNL A   1      44.607  31.164  28.607  1.00  0.00     0.049 A 
ATOM     26  C   UNL A   1      39.516  32.654  30.200  1.00  0.00     0.074 A 
ATOM     27  C   UNL A   1      45.612  32.107  28.737  1.00  0.00     0.029 A 
ATOM     28  N   UNL A   1      43.446  31.752  29.082  1.00  0.00    -0.354 N 
ATOM     29  N   UNL A   1      40.769  32.473  29.865  1.00  0.00    -0.248 NA
ATOM     30  C   UNL A   1      39.237  33.961  30.814  1.00  0.00     0.031 C 
ATOM     31  C   UNL A   1      45.078  33.230  29.371  1.00  0.00     0.029 A 
ATOM     32  C   UNL A   1      43.721  33.028  29.552  1.00  0.00     0.049 A 
ATOM     33  H   UNL A   1      42.557  31.328  29.086  1.00  0.00     0.167 HD
ATOM     34  C   UNL A   1      41.426  33.643  30.224  1.00  0.00     0.074 A 
ATOM     35  C   UNL A   1      40.428  34.538  30.769  1.00  0.00     0.031 C 
ATOM     36  C   UNL A   1      42.745  33.931  30.113  1.00  0.00     0.034 A 
BRANCH  23  37
ATOM     37  C   UNL A   1      46.056  29.301  27.660  1.00  0.00     0.023 A 
ATOM     38  C   UNL A   1      46.322  29.113  26.293  1.00  0.00     0.031 A 
ATOM     39  C   UNL A   1      46.956  28.777  28.603  1.00  0.00     0.131 A 
ATOM     40  C   UNL A   1      47.387  28.287  25.914  1.00  0.00     0.055 A 
ATOM     41  C   UNL A   1      48.077  28.054  28.209  1.00  0.00     0.041 A 
ATOM     42  F   UNL A   1      46.713  28.895  29.917  1.00  0.00    -0.206 F 
ATOM     43  C   UNL A   1      48.281  27.778  26.859  1.00  0.00     0.022 A 
BRANCH  40  44
ATOM     44  S   UNL A   1      47.410  27.665  24.208  1.00  0.00     0.124 S 
ATOM     45  O   UNL A   1      46.656  28.705  23.509  1.00  0.00    -0.237 OA
ATOM     46  O   UNL A   1      48.837  27.609  23.915  1.00  0.00    -0.237 OA
ATOM     47  O   UNL A   1      46.735  26.374  24.307  1.00  0.00    -0.744 OA
ENDBRANCH  40  44
ENDBRANCH  23  37
BRANCH  24  48
ATOM     48  C   UNL A   1      36.963  32.150  30.424  1.00  0.00     0.023 A 
ATOM     49  C   UNL A   1      36.083  32.807  29.532  1.00  0.00     0.031 A 
ATOM     50  C   UNL A   1      36.502  31.982  31.748  1.00  0.00     0.131 A 
ATOM     51  C   UNL A   1      34.818  33.261  29.976  1.00  0.00     0.055 A 
ATOM     52  C   UNL A   1      35.225  32.377  32.164  1.00  0.00     0.041 A 
ATOM     53  F   UNL A   1      37.292  31.412  32.672  1.00  0.00    -0.206 F 
ATOM     54  C   UNL A   1      34.376  33.026  31.277  1.00  0.00     0.022 A 
BRANCH  51  55
ATOM     55  S   UNL A   1      33.766  34.249  28.859  1.00  0.00     0.124 S 
ATOM     56  O   UNL A   1      32.791  34.812  29.786  1.00  0.00    -0.237 OA
ATOM     57  O   UNL A   1      34.726  35.187  28.287  1.00  0.00    -0.237 OA
ATOM     58  O   UNL A   1      33.233  33.259  27.923  1.00  0.00    -0.744 OA
ENDBRANCH  51  55
ENDBRANCH  24  48
BRANCH  36  59
ATOM     59  C   UNL A   1      43.203  35.289  30.570  1.00  0.00     0.023 A 
ATOM     60  C   UNL A   1      43.527  35.546  31.912  1.00  0.00     0.031 A 
ATOM     61  C   UNL A   1      43.348  36.333  29.640  1.00  0.00     0.131 A 
ATOM     62  C   UNL A   1      43.945  36.829  32.294  1.00  0.00     0.055 A 
ATOM     63  C   UNL A   1      43.825  37.590  30.015  1.00  0.00     0.041 A 
ATOM     64  F   UNL A   1      43.044  36.143  28.346  1.00  0.00    -0.206 F 
ATOM     65  C   UNL A   1      44.119  37.846  31.351  1.00  0.00     0.022 A 
BRANCH  62  66
ATOM     66  S   UNL A   1      44.193  37.175  34.057  1.00  0.00     0.124 S 
ATOM     67  O   UNL A   1      43.968  35.862  34.654  1.00  0.00    -0.237 OA
ATOM     68  O   UNL A   1      45.566  37.664  34.091  1.00  0.00    -0.237 OA
ATOM     69  O   UNL A   1      43.170  38.176  34.356  1.00  0.00    -0.744 OA
ENDBRANCH  62  66
ENDBRANCH  36  59
ENDBRANCH  10  11
ENDBRANCH   3   5
ENDBRANCH   2   3
ENDBRANCH   1   2
BRANCH   1  70
ATOM     70  C   UNL A   1      36.902  20.863  24.936  1.00  0.00     0.274 C 
BRANCH  70  71
ATOM     71  O   UNL A   1      36.918  22.261  24.665  1.00  0.00    -0.462 OA
BRANCH  71  72
ATOM     72  C   UNL A   1      35.780  22.791  24.139  1.00  0.00     0.312 C 
ATOM     73  O   UNL A   1      35.543  22.942  22.939  1.00  0.00    -0.252 OA
BRANCH  72  74
ATOM     74  C   UNL A   1      34.890  23.239  25.237  1.00  0.00     0.147 C 
ATOM     75  C   UNL A   1      33.501  22.505  25.188  1.00  0.00     0.129 C 
ATOM     76  C   UNL A   1      34.538  24.721  25.171  1.00  0.00     0.157 C 
ATOM     77  C   UNL A   1      32.584  23.807  25.285  1.00  0.00     0.155 C 
ATOM     78  C   UNL A   1      33.833  25.148  23.924  1.00  0.00     0.004 C 
ATOM     79  O   UNL A   1      33.404  24.689  26.090  1.00  0.00    -0.365 OA
ATOM     80  C   UNL A   1      32.605  24.655  24.043  1.00  0.00     0.004 C 
BRANCH  75  81
ATOM     81  C   UNL A   1      33.577  21.250  26.208  1.00  0.00     0.231 C 
ATOM     82  O   UNL A   1      34.243  21.359  27.247  1.00  0.00    -0.274 OA
ATOM     83  N   UNL A   1      32.807  20.098  26.124  1.00  0.00    -0.325 N 
ATOM     84  H   UNL A   1      32.092  20.088  26.800  1.00  0.00     0.169 HD
BRANCH  83  85
ATOM     85  C   UNL A   1      32.782  18.926  25.310  1.00  0.00     0.048 A 
ATOM     86  C   UNL A   1      32.501  19.118  23.930  1.00  0.00     0.026 A 
ATOM     87  C   UNL A   1      33.169  17.651  25.724  1.00  0.00     0.111 A 
ATOM     88  C   UNL A   1      32.856  18.153  22.965  1.00  0.00     0.009 A 
ATOM     89  C   UNL A   1      33.475  16.662  24.745  1.00  0.00     0.271 A 
ATOM     90  C   UNL A   1      33.383  16.929  23.369  1.00  0.00     0.086 A 
BRANCH  89  91
ATOM     91  N   UNL A   1      34.067  15.388  25.175  1.00  0.00     0.062 N 
ATOM     92  O   UNL A   1      35.296  15.325  25.308  1.00  0.00    -0.258 OA
ATOM     93  O   UNL A   1      33.289  14.457  25.436  1.00  0.00    -0.258 OA
ENDBRANCH  89  91
ENDBRANCH  83  85
ENDBRANCH  75  81
ENDBRANCH  72  74
ENDBRANCH  71  72
ENDBRANCH  70  71
ENDBRANCH   1  70
TORSDOF 17
ENDMDL
MODEL 2
REMARK VINA RESULT:     -12.9      5.426     10.999
REMARK SMILES O=C(OCCOC(=O)[C@@H]1[C@@H](C(=O)Nc2cccc([N+](=O)[O-])c2)[C@@H]2C=C[C@H]1O2)c1ccc(-c2c3nc(c(-c4cc(S(=O)(=O)[O-])ccc4F)c4ccc([nH]4)c(-c4cc(S(=O)(=O)[O-])ccc4F)c4nc(c(-c5cc(S(=O)(=O)[O-])ccc5F)c5ccc2[nH]5)C=C4)C=C3)cc1
REMARK SMILES IDX 4 1 3 2 2 3 1 4 28 5 29 6 90 7 30 8 89 9 31 10 32 11 33 12
REMARK SMILES IDX 83 13 34 14 88 15 82 16 84 17 35 18 87 19 81 20 80 21 36 23
REMARK SMILES IDX 68 24 48 25 67 26 49 27 52 28 66 29 85 30 50 31 51 32 65 34
REMARK SMILES IDX 86 35 53 36 37 37 38 38 46 39 39 40 45 41 47 42 44 43 40 44
REMARK SMILES IDX 41 45 42 46 43 47 69 48 70 49 78 50 71 51 77 52 79 53 76 54
REMARK SMILES IDX 72 55 73 56 74 57 75 58 54 59 55 60 63 61 56 62 62 63 64 64
REMARK SMILES IDX 61 65 57 66 58 67 59 68 60 69 5 70 6 71 7 72 8 73 9 74 10 75
REMARK SMILES IDX 26 76 23 77 25 78 27 79 24 80 11 81 12 82 13 83 14 85 15 86
REMARK SMILES IDX 22 87 16 88 18 89 17 90 19 91 20 92 21 93
REMARK H PARENT 84 22 52 33 13 84
REMARK Flexibility Score: inf
ROOT
ATOM      1  C   UNL A   1      32.089  30.522  26.902  1.00  0.00     0.275 C 
ENDROOT
BRANCH   1   2
ATOM      2  O   UNL A   1      33.521  30.780  26.840  1.00  0.00    -0.458 OA
BRANCH   2   3
ATOM      3  C   UNL A   1      34.270  31.622  27.617  1.00  0.00     0.338 C 
ATOM      4  O   UNL A   1      34.130  32.837  27.505  1.00  0.00    -0.246 OA
BRANCH   3   5
ATOM      5  C   UNL A   1      35.517  31.104  28.292  1.00  0.00     0.060 A 
ATOM      6  C   UNL A   1      35.633  29.853  28.830  1.00  0.00     0.016 A 
ATOM      7  C   UNL A   1      36.677  31.890  28.423  1.00  0.00     0.016 A 
ATOM      8  C   UNL A   1      36.912  29.353  29.186  1.00  0.00     0.010 A 
ATOM      9  C   UNL A   1      37.976  31.315  28.726  1.00  0.00     0.010 A 
ATOM     10  C   UNL A   1      38.148  29.942  28.939  1.00  0.00    -0.014 A 
BRANCH  10  11
ATOM     11  C   UNL A   1      39.436  29.153  29.337  1.00  0.00     0.031 A 
ATOM     12  C   UNL A   1      39.951  29.515  30.709  1.00  0.00     0.074 A 
ATOM     13  C   UNL A   1      40.071  28.067  28.763  1.00  0.00     0.049 A 
ATOM     14  N   UNL A   1      40.927  28.988  31.403  1.00  0.00    -0.248 NA
ATOM     15  C   UNL A   1      39.240  30.610  31.382  1.00  0.00     0.031 C 
ATOM     16  C   UNL A   1      39.761  27.385  27.518  1.00  0.00     0.029 A 
ATOM     17  N   UNL A   1      41.137  27.255  29.204  1.00  0.00    -0.354 N 
ATOM     18  C   UNL A   1      40.952  29.697  32.592  1.00  0.00     0.074 A 
ATOM     19  C   UNL A   1      39.923  30.710  32.503  1.00  0.00     0.031 C 
ATOM     20  C   UNL A   1      40.496  26.287  27.316  1.00  0.00     0.029 A 
ATOM     21  C   UNL A   1      41.464  26.175  28.372  1.00  0.00     0.049 A 
ATOM     22  H   UNL A   1      41.620  27.435  30.042  1.00  0.00     0.167 HD
ATOM     23  C   UNL A   1      41.744  29.540  33.678  1.00  0.00     0.034 A 
ATOM     24  C   UNL A   1      42.407  25.193  28.364  1.00  0.00     0.034 A 
ATOM     25  C   UNL A   1      42.833  28.615  33.782  1.00  0.00     0.049 A 
ATOM     26  C   UNL A   1      43.400  25.165  29.486  1.00  0.00     0.074 A 
ATOM     27  C   UNL A   1      43.752  28.501  34.810  1.00  0.00     0.029 A 
ATOM     28  N   UNL A   1      43.187  27.676  32.826  1.00  0.00    -0.354 N 
ATOM     29  N   UNL A   1      43.407  25.892  30.576  1.00  0.00    -0.248 NA
ATOM     30  C   UNL A   1      44.519  24.217  29.383  1.00  0.00     0.031 C 
ATOM     31  C   UNL A   1      44.711  27.557  34.437  1.00  0.00     0.029 A 
ATOM     32  C   UNL A   1      44.341  27.013  33.220  1.00  0.00     0.049 A 
ATOM     33  H   UNL A   1      42.693  27.505  31.992  1.00  0.00     0.167 HD
ATOM     34  C   UNL A   1      44.528  25.487  31.289  1.00  0.00     0.074 A 
ATOM     35  C   UNL A   1      45.155  24.428  30.526  1.00  0.00     0.031 C 
ATOM     36  C   UNL A   1      44.990  25.967  32.468  1.00  0.00     0.034 A 
BRANCH  23  37
ATOM     37  C   UNL A   1      41.491  30.529  34.782  1.00  0.00     0.023 A 
ATOM     38  C   UNL A   1      40.336  30.438  35.578  1.00  0.00     0.031 A 
ATOM     39  C   UNL A   1      42.283  31.686  34.870  1.00  0.00     0.131 A 
ATOM     40  C   UNL A   1      39.930  31.554  36.319  1.00  0.00     0.055 A 
ATOM     41  C   UNL A   1      41.929  32.745  35.699  1.00  0.00     0.041 A 
ATOM     42  F   UNL A   1      43.367  31.831  34.092  1.00  0.00    -0.206 F 
ATOM     43  C   UNL A   1      40.730  32.696  36.406  1.00  0.00     0.022 A 
BRANCH  40  44
ATOM     44  S   UNL A   1      38.219  31.589  36.926  1.00  0.00     0.124 S 
ATOM     45  O   UNL A   1      38.387  32.224  38.232  1.00  0.00    -0.237 OA
ATOM     46  O   UNL A   1      37.543  32.390  35.912  1.00  0.00    -0.237 OA
ATOM     47  O   UNL A   1      37.843  30.179  36.968  1.00  0.00    -0.744 OA
ENDBRANCH  40  44
ENDBRANCH  23  37
BRANCH  24  48
ATOM     48  C   UNL A   1      42.542  24.198  27.216  1.00  0.00     0.023 A 
ATOM     49  C   UNL A   1      41.992  22.895  27.250  1.00  0.00     0.031 A 
ATOM     50  C   UNL A   1      43.306  24.524  26.074  1.00  0.00     0.131 A 
ATOM     51  C   UNL A   1      42.216  21.993  26.183  1.00  0.00     0.055 A 
ATOM     52  C   UNL A   1      43.472  23.650  24.995  1.00  0.00     0.041 A 
ATOM     53  F   UNL A   1      43.906  25.723  25.982  1.00  0.00    -0.206 F 
ATOM     54  C   UNL A   1      42.930  22.373  25.047  1.00  0.00     0.022 A 
BRANCH  51  55
ATOM     55  S   UNL A   1      41.638  20.267  26.317  1.00  0.00     0.124 S 
ATOM     56  O   UNL A   1      42.139  19.885  27.631  1.00  0.00    -0.237 OA
ATOM     57  O   UNL A   1      40.192  20.421  26.200  1.00  0.00    -0.237 OA
ATOM     58  O   UNL A   1      42.284  19.599  25.187  1.00  0.00    -0.744 OA
ENDBRANCH  51  55
ENDBRANCH  24  48
BRANCH  36  59
ATOM     59  C   UNL A   1      46.233  25.339  33.038  1.00  0.00     0.023 A 
ATOM     60  C   UNL A   1      47.513  25.683  32.574  1.00  0.00     0.031 A 
ATOM     61  C   UNL A   1      46.134  24.406  34.085  1.00  0.00     0.131 A 
ATOM     62  C   UNL A   1      48.644  25.069  33.131  1.00  0.00     0.055 A 
ATOM     63  C   UNL A   1      47.266  23.845  34.678  1.00  0.00     0.041 A 
ATOM     64  F   UNL A   1      44.934  24.036  34.560  1.00  0.00    -0.206 F 
ATOM     65  C   UNL A   1      48.530  24.170  34.196  1.00  0.00     0.022 A 
BRANCH  62  66
ATOM     66  S   UNL A   1      50.268  25.407  32.398  1.00  0.00     0.124 S 
ATOM     67  O   UNL A   1      49.941  26.420  31.400  1.00  0.00    -0.237 OA
ATOM     68  O   UNL A   1      51.040  25.868  33.546  1.00  0.00    -0.237 OA
ATOM     69  O   UNL A   1      50.675  24.111  31.858  1.00  0.00    -0.744 OA
ENDBRANCH  62  66
ENDBRANCH  36  59
ENDBRANCH  10  11
ENDBRANCH   3   5
ENDBRANCH   2   3
ENDBRANCH   1   2
BRANCH   1  70
ATOM     70  C   UNL A   1      31.804  29.041  27.190  1.00  0.00     0.274 C 
BRANCH  70  71
ATOM     71  O   UNL A   1      31.858  28.277  25.990  1.00  0.00    -0.462 OA
BRANCH  71  72
ATOM     72  C   UNL A   1      32.954  27.487  25.822  1.00  0.00     0.312 C 
ATOM     73  O   UNL A   1      33.929  27.437  26.573  1.00  0.00    -0.252 OA
BRANCH  72  74
ATOM     74  C   UNL A   1      32.836  26.745  24.543  1.00  0.00     0.147 C 
ATOM     75  C   UNL A   1      31.458  27.022  23.841  1.00  0.00     0.129 C 
ATOM     76  C   UNL A   1      32.879  25.230  24.711  1.00  0.00     0.157 C 
ATOM     77  C   UNL A   1      31.056  25.500  23.584  1.00  0.00     0.155 C 
ATOM     78  C   UNL A   1      31.798  24.661  25.573  1.00  0.00     0.004 C 
ATOM     79  O   UNL A   1      32.350  24.878  23.396  1.00  0.00    -0.365 OA
ATOM     80  C   UNL A   1      30.695  24.750  24.837  1.00  0.00     0.004 C 
BRANCH  75  81
ATOM     81  C   UNL A   1      31.693  28.198  22.753  1.00  0.00     0.231 C 
ATOM     82  O   UNL A   1      32.845  28.438  22.367  1.00  0.00    -0.274 OA
ATOM     83  N   UNL A   1      30.692  28.861  22.057  1.00  0.00    -0.325 N 
ATOM     84  H   UNL A   1      30.637  28.559  21.122  1.00  0.00     0.169 HD
BRANCH  83  85
ATOM     85  C   UNL A   1      29.720  29.866  22.346  1.00  0.00     0.048 A 
ATOM     86  C   UNL A   1      29.653  30.314  23.693  1.00  0.00     0.026 A 
ATOM     87  C   UNL A   1      28.961  30.548  21.395  1.00  0.00     0.111 A 
ATOM     88  C   UNL A   1      29.071  31.554  24.028  1.00  0.00     0.009 A 
ATOM     89  C   UNL A   1      28.331  31.774  21.753  1.00  0.00     0.271 A 
ATOM     90  C   UNL A   1      28.438  32.312  23.046  1.00  0.00     0.086 A 
BRANCH  89  91
ATOM     91  N   UNL A   1      27.697  32.587  20.704  1.00  0.00     0.062 N 
ATOM     92  O   UNL A   1      27.396  32.038  19.636  1.00  0.00    -0.258 OA
ATOM     93  O   UNL A   1      27.449  33.772  20.974  1.00  0.00    -0.258 OA
ENDBRANCH  89  91
ENDBRANCH  83  85
ENDBRANCH  75  81
ENDBRANCH  72  74
ENDBRANCH  71  72
ENDBRANCH  70  71
ENDBRANCH   1  70
TORSDOF 17
ENDMDL
MODEL 3
REMARK VINA RESULT:     -12.6      5.242     10.874
REMARK SMILES O=C(OCCOC(=O)[C@@H]1[C@@H](C(=O)Nc2cccc([N+](=O)[O-])c2)[C@@H]2C=C[C@H]1O2)c1ccc(-c2c3nc(c(-c4cc(S(=O)(=O)[O-])ccc4F)c4ccc([nH]4)c(-c4cc(S(=O)(=O)[O-])ccc4F)c4nc(c(-c5cc(S(=O)(=O)[O-])ccc5F)c5ccc2[nH]5)C=C4)C=C3)cc1
REMARK SMILES IDX 4 1 3 2 2 3 1 4 28 5 29 6 90 7 30 8 89 9 31 10 32 11 33 12
REMARK SMILES IDX 83 13 34 14 88 15 82 16 84 17 35 18 87 19 81 20 80 21 36 23
REMARK SMILES IDX 68 24 48 25 67 26 49 27 52 28 66 29 85 30 50 31 51 32 65 34
REMARK SMILES IDX 86 35 53 36 37 37 38 38 46 39 39 40 45 41 47 42 44 43 40 44
REMARK SMILES IDX 41 45 42 46 43 47 69 48 70 49 78 50 71 51 77 52 79 53 76 54
REMARK SMILES IDX 72 55 73 56 74 57 75 58 54 59 55 60 63 61 56 62 62 63 64 64
REMARK SMILES IDX 61 65 57 66 58 67 59 68 60 69 5 70 6 71 7 72 8 73 9 74 10 75
REMARK SMILES IDX 26 76 23 77 25 78 27 79 24 80 11 81 12 82 13 83 14 85 15 86
REMARK SMILES IDX 22 87 16 88 18 89 17 90 19 91 20 92 21 93
REMARK H PARENT 84 22 52 33 13 84
REMARK Flexibility Score: inf
ROOT
ATOM      1  C   UNL A   1      31.090  32.038  26.869  1.00  0.00     0.275 C 
ENDROOT
BRANCH   1   2
ATOM      2  O   UNL A   1      32.099  33.088  26.840  1.00  0.00    -0.458 OA
BRANCH   2   3
ATOM      3  C   UNL A   1      32.938  33.491  27.845  1.00  0.00     0.338 C 
ATOM      4  O   UNL A   1      32.792  34.602  28.348  1.00  0.00    -0.246 OA
BRANCH   3   5
ATOM      5  C   UNL A   1      34.252  32.778  28.052  1.00  0.00     0.060 A 
ATOM      6  C   UNL A   1      35.437  33.412  28.294  1.00  0.00     0.016 A 
ATOM      7  C   UNL A   1      34.355  31.374  28.006  1.00  0.00     0.016 A 
ATOM      8  C   UNL A   1      36.555  32.669  28.753  1.00  0.00     0.010 A 
ATOM      9  C   UNL A   1      35.496  30.661  28.551  1.00  0.00     0.010 A 
ATOM     10  C   UNL A   1      36.582  31.329  29.128  1.00  0.00    -0.014 A 
BRANCH  10  11
ATOM     11  C   UNL A   1      37.915  30.748  29.700  1.00  0.00     0.031 A 
ATOM     12  C   UNL A   1      38.156  31.129  31.141  1.00  0.00     0.074 A 
ATOM     13  C   UNL A   1      38.803  29.809  29.207  1.00  0.00     0.049 A 
ATOM     14  N   UNL A   1      39.097  30.742  31.963  1.00  0.00    -0.248 NA
ATOM     15  C   UNL A   1      37.179  32.059  31.721  1.00  0.00     0.031 C 
ATOM     16  C   UNL A   1      38.798  29.142  27.917  1.00  0.00     0.029 A 
ATOM     17  N   UNL A   1      39.917  29.167  29.787  1.00  0.00    -0.354 N 
ATOM     18  C   UNL A   1      38.828  31.391  33.156  1.00  0.00     0.074 A 
ATOM     19  C   UNL A   1      37.665  32.222  32.933  1.00  0.00     0.031 C 
ATOM     20  C   UNL A   1      39.730  28.191  27.806  1.00  0.00     0.029 A 
ATOM     21  C   UNL A   1      40.541  28.195  28.993  1.00  0.00     0.049 A 
ATOM     22  H   UNL A   1      40.235  29.388  30.692  1.00  0.00     0.167 HD
ATOM     23  C   UNL A   1      39.470  31.320  34.346  1.00  0.00     0.034 A 
ATOM     24  C   UNL A   1      41.628  27.384  29.108  1.00  0.00     0.034 A 
ATOM     25  C   UNL A   1      40.675  30.584  34.594  1.00  0.00     0.049 A 
ATOM     26  C   UNL A   1      42.439  27.472  30.366  1.00  0.00     0.074 A 
ATOM     27  C   UNL A   1      41.441  30.579  35.746  1.00  0.00     0.029 A 
ATOM     28  N   UNL A   1      41.319  29.761  33.684  1.00  0.00    -0.354 N 
ATOM     29  N   UNL A   1      42.164  28.141  31.458  1.00  0.00    -0.248 NA
ATOM     30  C   UNL A   1      43.706  26.729  30.414  1.00  0.00     0.031 C 
ATOM     31  C   UNL A   1      42.591  29.826  35.503  1.00  0.00     0.029 A 
ATOM     32  C   UNL A   1      42.499  29.283  34.233  1.00  0.00     0.049 A 
ATOM     33  H   UNL A   1      40.987  29.548  32.782  1.00  0.00     0.167 HD
ATOM     34  C   UNL A   1      43.223  27.896  32.324  1.00  0.00     0.074 A 
ATOM     35  C   UNL A   1      44.124  26.992  31.643  1.00  0.00     0.031 C 
ATOM     36  C   UNL A   1      43.419  28.393  33.568  1.00  0.00     0.034 A 
BRANCH  23  37
ATOM     37  C   UNL A   1      38.894  32.203  35.418  1.00  0.00     0.023 A 
ATOM     38  C   UNL A   1      39.287  33.548  35.528  1.00  0.00     0.031 A 
ATOM     39  C   UNL A   1      38.144  31.630  36.458  1.00  0.00     0.131 A 
ATOM     40  C   UNL A   1      39.050  34.230  36.728  1.00  0.00     0.055 A 
ATOM     41  C   UNL A   1      37.815  32.355  37.599  1.00  0.00     0.041 A 
ATOM     42  F   UNL A   1      37.790  30.336  36.411  1.00  0.00    -0.206 F 
ATOM     43  C   UNL A   1      38.295  33.654  37.753  1.00  0.00     0.022 A 
BRANCH  40  44
ATOM     44  S   UNL A   1      39.982  35.759  37.030  1.00  0.00     0.124 S 
ATOM     45  O   UNL A   1      39.729  36.502  35.796  1.00  0.00    -0.237 OA
ATOM     46  O   UNL A   1      39.344  36.283  38.231  1.00  0.00    -0.237 OA
ATOM     47  O   UNL A   1      41.356  35.293  37.199  1.00  0.00    -0.744 OA
ENDBRANCH  40  44
ENDBRANCH  23  37
BRANCH  24  48
ATOM     48  C   UNL A   1      42.097  26.478  27.974  1.00  0.00     0.023 A 
ATOM     49  C   UNL A   1      41.752  25.109  27.883  1.00  0.00     0.031 A 
ATOM     50  C   UNL A   1      42.978  26.968  26.986  1.00  0.00     0.131 A 
ATOM     51  C   UNL A   1      42.279  24.303  26.846  1.00  0.00     0.055 A 
ATOM     52  C   UNL A   1      43.446  26.182  25.927  1.00  0.00     0.041 A 
ATOM     53  F   UNL A   1      43.396  28.244  27.026  1.00  0.00    -0.206 F 
ATOM     54  C   UNL A   1      43.102  24.839  25.855  1.00  0.00     0.022 A 
BRANCH  51  55
ATOM     55  S   UNL A   1      41.955  22.508  26.838  1.00  0.00     0.124 S 
ATOM     56  O   UNL A   1      42.194  22.166  25.441  1.00  0.00    -0.237 OA
ATOM     57  O   UNL A   1      42.938  22.017  27.798  1.00  0.00    -0.237 OA
ATOM     58  O   UNL A   1      40.562  22.408  27.272  1.00  0.00    -0.744 OA
ENDBRANCH  51  55
ENDBRANCH  24  48
BRANCH  36  59
ATOM     59  C   UNL A   1      44.656  27.956  34.306  1.00  0.00     0.023 A 
ATOM     60  C   UNL A   1      44.661  26.817  35.128  1.00  0.00     0.031 A 
ATOM     61  C   UNL A   1      45.855  28.674  34.158  1.00  0.00     0.131 A 
ATOM     62  C   UNL A   1      45.834  26.449  35.800  1.00  0.00     0.055 A 
ATOM     63  C   UNL A   1      47.036  28.267  34.780  1.00  0.00     0.041 A 
ATOM     64  F   UNL A   1      45.902  29.775  33.391  1.00  0.00    -0.206 F 
ATOM     65  C   UNL A   1      47.028  27.153  35.614  1.00  0.00     0.022 A 
BRANCH  62  66
ATOM     66  S   UNL A   1      45.766  25.076  36.983  1.00  0.00     0.124 S 
ATOM     67  O   UNL A   1      46.435  25.649  38.147  1.00  0.00    -0.237 OA
ATOM     68  O   UNL A   1      44.332  24.850  37.119  1.00  0.00    -0.237 OA
ATOM     69  O   UNL A   1      46.500  24.006  36.309  1.00  0.00    -0.744 OA
ENDBRANCH  62  66
ENDBRANCH  36  59
ENDBRANCH  10  11
ENDBRANCH   3   5
ENDBRANCH   2   3
ENDBRANCH   1   2
BRANCH   1  70
ATOM     70  C   UNL A   1      31.431  30.914  25.880  1.00  0.00     0.274 C 
BRANCH  70  71
ATOM     71  O   UNL A   1      32.080  29.838  26.549  1.00  0.00    -0.462 OA
BRANCH  71  72
ATOM     72  C   UNL A   1      31.730  28.581  26.158  1.00  0.00     0.312 C 
ATOM     73  O   UNL A   1      30.763  27.940  26.572  1.00  0.00    -0.252 OA
BRANCH  72  74
ATOM     74  C   UNL A   1      32.742  28.061  25.206  1.00  0.00     0.147 C 
ATOM     75  C   UNL A   1      32.067  27.397  23.953  1.00  0.00     0.129 C 
ATOM     76  C   UNL A   1      33.620  26.959  25.792  1.00  0.00     0.157 C 
ATOM     77  C   UNL A   1      32.883  26.027  23.988  1.00  0.00     0.155 C 
ATOM     78  C   UNL A   1      32.882  25.743  26.253  1.00  0.00     0.004 C 
ATOM     79  O   UNL A   1      34.156  26.453  24.532  1.00  0.00    -0.365 OA
ATOM     80  C   UNL A   1      32.508  25.129  25.136  1.00  0.00     0.004 C 
BRANCH  75  81
ATOM     81  C   UNL A   1      32.020  28.510  22.778  1.00  0.00     0.231 C 
ATOM     82  O   UNL A   1      33.079  29.036  22.407  1.00  0.00    -0.274 OA
ATOM     83  N   UNL A   1      30.912  28.812  21.999  1.00  0.00    -0.325 N 
ATOM     84  H   UNL A   1      30.991  28.440  21.092  1.00  0.00     0.169 HD
BRANCH  83  85
ATOM     85  C   UNL A   1      29.685  29.520  22.175  1.00  0.00     0.048 A 
ATOM     86  C   UNL A   1      28.658  28.844  22.889  1.00  0.00     0.026 A 
ATOM     87  C   UNL A   1      29.476  30.861  21.850  1.00  0.00     0.111 A 
ATOM     88  C   UNL A   1      27.595  29.546  23.491  1.00  0.00     0.009 A 
ATOM     89  C   UNL A   1      28.370  31.553  22.421  1.00  0.00     0.271 A 
ATOM     90  C   UNL A   1      27.468  30.918  23.290  1.00  0.00     0.086 A 
BRANCH  89  91
ATOM     91  N   UNL A   1      28.263  33.007  22.236  1.00  0.00     0.062 N 
ATOM     92  O   UNL A   1      28.813  33.748  23.061  1.00  0.00    -0.258 OA
ATOM     93  O   UNL A   1      27.669  33.411  21.225  1.00  0.00    -0.258 OA
ENDBRANCH  89  91
ENDBRANCH  83  85
ENDBRANCH  75  81
ENDBRANCH  72  74
ENDBRANCH  71  72
ENDBRANCH  70  71
ENDBRANCH   1  70
TORSDOF 17
ENDMDL
