MODEL 1
REMARK VINA RESULT:     -14.7      0.000      0.000
REMARK SMILES O=C(OCCOC(=O)c1ccc(-c2c3nc(c(-c4cc(S(=O)(=O)[O-])ccc4F)c4ccc([nH]4)c(-c4cc(S(=O)(=O)[O-])ccc4F)c4nc(c(-c5cc(S(=O)(=O)[O-])ccc5F)c5ccc2[nH]5)C=C4)C=C3)cc1)C1=Cc2cc(Cl)c(Cl)c(Cl)c2O[C@@H]1C(F)(F)F
REMARK SMILES IDX 5 1 4 2 3 3 2 4 1 5 72 6 73 7 84 8 74 9 83 10 75 11 82 12
REMARK SMILES IDX 76 13 80 14 77 15 78 16 81 17 79 18 85 19 86 20 87 21 88 22
REMARK SMILES IDX 6 23 7 24 8 25 9 26 10 27 71 28 11 29 70 30 12 31 13 32
REMARK SMILES IDX 14 33 64 34 15 35 69 36 63 37 65 38 16 39 68 40 62 41 61 42
REMARK SMILES IDX 17 44 49 45 29 46 48 47 30 48 33 49 47 50 66 51 31 52 32 53
REMARK SMILES IDX 46 55 67 56 34 57 18 58 19 59 27 60 20 61 26 62 28 63 25 64
REMARK SMILES IDX 21 65 22 66 23 67 24 68 50 69 51 70 59 71 52 72 58 73 60 74
REMARK SMILES IDX 57 75 53 76 54 77 55 78 56 79 35 80 36 81 44 82 37 83 43 84
REMARK SMILES IDX 45 85 42 86 38 87 39 88 40 89 41 90
REMARK H PARENT 65 43 33 54
REMARK Flexibility Score: inf
ROOT
ATOM      1  C   UNL A   1      31.403  32.521  26.498  1.00  0.00     0.275 C 
ENDROOT
BRANCH   1   2
ATOM      2  C   UNL A   1      31.779  30.441  25.929  1.00  0.00     0.275 C 
BRANCH   2   3
ATOM      3  O   UNL A   1      32.323  29.340  26.793  1.00  0.00    -0.459 OA
BRANCH   3   4
ATOM      4  C   UNL A   1      31.635  28.208  26.634  1.00  0.00     0.338 C 
ATOM      5  O   UNL A   1      31.051  27.576  27.478  1.00  0.00    -0.246 OA
BRANCH   4   6
ATOM      6  C   UNL A   1      32.210  27.791  25.352  1.00  0.00     0.087 C 
ATOM      7  C   UNL A   1      33.505  27.178  25.410  1.00  0.00     0.027 C 
ATOM      8  C   UNL A   1      30.594  26.893  24.883  1.00  0.00     0.316 C 
ATOM      9  C   UNL A   1      33.801  25.442  25.280  1.00  0.00     0.020 A 
ATOM     10  O   UNL A   1      30.835  24.945  24.927  1.00  0.00    -0.474 OA
ATOM     11  C   UNL A   1      35.097  25.043  25.364  1.00  0.00     0.034 A 
ATOM     12  C   UNL A   1      32.535  24.268  25.216  1.00  0.00     0.148 A 
ATOM     13  C   UNL A   1      35.275  23.661  25.495  1.00  0.00     0.062 A 
ATOM     14  C   UNL A   1      32.788  22.932  25.372  1.00  0.00     0.103 A 
ATOM     15  Cl  UNL A   1      36.955  23.202  25.639  1.00  0.00    -0.083 Cl
ATOM     16  C   UNL A   1      34.190  22.657  25.543  1.00  0.00     0.082 A 
ATOM     17  Cl  UNL A   1      31.560  21.755  25.467  1.00  0.00    -0.079 Cl
ATOM     18  Cl  UNL A   1      34.681  21.012  25.901  1.00  0.00    -0.081 Cl
BRANCH   8  19
ATOM     19  C   UNL A   1      30.565  28.090  23.680  1.00  0.00     0.430 C 
ATOM     20  F   UNL A   1      31.745  28.426  23.223  1.00  0.00    -0.167 F 
ATOM     21  F   UNL A   1      29.980  27.588  22.543  1.00  0.00    -0.167 F 
ATOM     22  F   UNL A   1      29.852  29.216  23.926  1.00  0.00    -0.167 F 
ENDBRANCH   8  19
ENDBRANCH   4   6
ENDBRANCH   3   4
ENDBRANCH   2   3
ENDBRANCH   1   2
BRANCH   1  23
ATOM     23  O   UNL A   1      32.308  33.318  27.801  1.00  0.00    -0.458 OA
BRANCH  23  24
ATOM     24  C   UNL A   1      33.461  34.090  27.997  1.00  0.00     0.338 C 
ATOM     25  O   UNL A   1      33.561  35.216  28.452  1.00  0.00    -0.246 OA
BRANCH  24  26
ATOM     26  C   UNL A   1      34.633  33.158  27.983  1.00  0.00     0.060 A 
ATOM     27  C   UNL A   1      35.948  33.691  28.042  1.00  0.00     0.016 A 
ATOM     28  C   UNL A   1      34.398  31.840  28.353  1.00  0.00     0.016 A 
ATOM     29  C   UNL A   1      36.952  32.978  28.744  1.00  0.00     0.010 A 
ATOM     30  C   UNL A   1      35.388  31.147  29.045  1.00  0.00     0.010 A 
ATOM     31  C   UNL A   1      36.641  31.736  29.328  1.00  0.00    -0.014 A 
BRANCH  31  32
ATOM     32  C   UNL A   1      37.679  30.852  29.925  1.00  0.00     0.031 A 
ATOM     33  C   UNL A   1      37.937  31.155  31.366  1.00  0.00     0.074 A 
ATOM     34  C   UNL A   1      38.458  29.974  29.253  1.00  0.00     0.049 A 
ATOM     35  N   UNL A   1      38.936  30.823  32.130  1.00  0.00    -0.248 NA
ATOM     36  C   UNL A   1      36.955  32.058  31.993  1.00  0.00     0.031 C 
ATOM     37  C   UNL A   1      38.321  29.584  27.849  1.00  0.00     0.029 A 
ATOM     38  N   UNL A   1      39.560  29.257  29.678  1.00  0.00    -0.354 N 
ATOM     39  C   UNL A   1      38.715  31.517  33.311  1.00  0.00     0.074 A 
ATOM     40  C   UNL A   1      37.573  32.371  33.110  1.00  0.00     0.031 C 
ATOM     41  C   UNL A   1      39.293  28.702  27.535  1.00  0.00     0.029 A 
ATOM     42  C   UNL A   1      40.160  28.492  28.696  1.00  0.00     0.049 A 
ATOM     43  H   UNL A   1      39.891  29.289  30.605  1.00  0.00     0.167 HD
ATOM     44  C   UNL A   1      39.382  31.426  34.482  1.00  0.00     0.034 A 
ATOM     45  C   UNL A   1      41.286  27.736  28.738  1.00  0.00     0.034 A 
ATOM     46  C   UNL A   1      40.532  30.589  34.648  1.00  0.00     0.049 A 
ATOM     47  C   UNL A   1      42.078  27.692  30.036  1.00  0.00     0.074 A 
ATOM     48  C   UNL A   1      41.299  30.398  35.779  1.00  0.00     0.029 A 
ATOM     49  N   UNL A   1      41.095  29.818  33.636  1.00  0.00    -0.354 N 
ATOM     50  N   UNL A   1      41.847  28.323  31.167  1.00  0.00    -0.248 NA
ATOM     51  C   UNL A   1      43.279  26.844  30.066  1.00  0.00     0.031 C 
ATOM     52  C   UNL A   1      42.379  29.586  35.426  1.00  0.00     0.029 A 
ATOM     53  C   UNL A   1      42.221  29.174  34.109  1.00  0.00     0.049 A 
ATOM     54  H   UNL A   1      40.742  29.744  32.720  1.00  0.00     0.167 HD
ATOM     55  C   UNL A   1      42.842  27.908  32.053  1.00  0.00     0.074 A 
ATOM     56  C   UNL A   1      43.684  26.984  31.322  1.00  0.00     0.031 C 
ATOM     57  C   UNL A   1      43.033  28.245  33.356  1.00  0.00     0.034 A 
BRANCH  44  58
ATOM     58  C   UNL A   1      38.889  32.313  35.596  1.00  0.00     0.023 A 
ATOM     59  C   UNL A   1      39.275  33.666  35.681  1.00  0.00     0.031 A 
ATOM     60  C   UNL A   1      38.179  31.761  36.673  1.00  0.00     0.131 A 
ATOM     61  C   UNL A   1      39.088  34.367  36.879  1.00  0.00     0.055 A 
ATOM     62  C   UNL A   1      37.879  32.510  37.811  1.00  0.00     0.041 A 
ATOM     63  F   UNL A   1      37.821  30.468  36.666  1.00  0.00    -0.206 F 
ATOM     64  C   UNL A   1      38.361  33.811  37.932  1.00  0.00     0.022 A 
BRANCH  61  65
ATOM     65  S   UNL A   1      40.028  35.901  37.133  1.00  0.00     0.124 S 
ATOM     66  O   UNL A   1      39.740  36.629  35.898  1.00  0.00    -0.237 OA
ATOM     67  O   UNL A   1      39.431  36.442  38.347  1.00  0.00    -0.237 OA
ATOM     68  O   UNL A   1      41.408  35.438  37.265  1.00  0.00    -0.744 OA
ENDBRANCH  61  65
ENDBRANCH  44  58
BRANCH  45  69
ATOM     69  C   UNL A   1      41.775  26.983  27.531  1.00  0.00     0.023 A 
ATOM     70  C   UNL A   1      41.628  25.585  27.417  1.00  0.00     0.031 A 
ATOM     71  C   UNL A   1      42.458  27.644  26.496  1.00  0.00     0.131 A 
ATOM     72  C   UNL A   1      42.175  24.900  26.312  1.00  0.00     0.055 A 
ATOM     73  C   UNL A   1      42.956  26.967  25.376  1.00  0.00     0.041 A 
ATOM     74  F   UNL A   1      42.658  28.971  26.554  1.00  0.00    -0.206 F 
ATOM     75  C   UNL A   1      42.821  25.586  25.283  1.00  0.00     0.022 A 
BRANCH  72  76
ATOM     76  S   UNL A   1      42.103  23.084  26.267  1.00  0.00     0.124 S 
ATOM     77  O   UNL A   1      42.705  22.795  24.970  1.00  0.00    -0.237 OA
ATOM     78  O   UNL A   1      42.892  22.715  27.438  1.00  0.00    -0.237 OA
ATOM     79  O   UNL A   1      40.674  22.794  26.368  1.00  0.00    -0.744 OA
ENDBRANCH  72  76
ENDBRANCH  45  69
BRANCH  57  80
ATOM     80  C   UNL A   1      44.136  27.548  34.118  1.00  0.00     0.023 A 
ATOM     81  C   UNL A   1      43.940  26.333  34.790  1.00  0.00     0.031 A 
ATOM     82  C   UNL A   1      45.437  28.089  34.087  1.00  0.00     0.131 A 
ATOM     83  C   UNL A   1      45.026  25.710  35.427  1.00  0.00     0.055 A 
ATOM     84  C   UNL A   1      46.523  27.430  34.659  1.00  0.00     0.041 A 
ATOM     85  F   UNL A   1      45.679  29.253  33.462  1.00  0.00    -0.206 F 
ATOM     86  C   UNL A   1      46.319  26.234  35.340  1.00  0.00     0.022 A 
BRANCH  83  87
ATOM     87  S   UNL A   1      44.716  24.241  36.444  1.00  0.00     0.124 S 
ATOM     88  O   UNL A   1      46.058  23.689  36.595  1.00  0.00    -0.237 OA
ATOM     89  O   UNL A   1      44.121  24.811  37.648  1.00  0.00    -0.237 OA
ATOM     90  O   UNL A   1      43.807  23.441  35.623  1.00  0.00    -0.744 OA
ENDBRANCH  83  87
ENDBRANCH  57  80
ENDBRANCH  31  32
ENDBRANCH  24  26
ENDBRANCH  23  24
ENDBRANCH   1  23
TORSDOF 15
ENDMDL
MODEL 2
REMARK VINA RESULT:     -14.4      1.424      1.652
REMARK SMILES O=C(OCCOC(=O)c1ccc(-c2c3nc(c(-c4cc(S(=O)(=O)[O-])ccc4F)c4ccc([nH]4)c(-c4cc(S(=O)(=O)[O-])ccc4F)c4nc(c(-c5cc(S(=O)(=O)[O-])ccc5F)c5ccc2[nH]5)C=C4)C=C3)cc1)C1=Cc2cc(Cl)c(Cl)c(Cl)c2O[C@@H]1C(F)(F)F
REMARK SMILES IDX 5 1 4 2 3 3 2 4 1 5 72 6 73 7 84 8 74 9 83 10 75 11 82 12
REMARK SMILES IDX 76 13 80 14 77 15 78 16 81 17 79 18 85 19 86 20 87 21 88 22
REMARK SMILES IDX 6 23 7 24 8 25 9 26 10 27 71 28 11 29 70 30 12 31 13 32
REMARK SMILES IDX 14 33 64 34 15 35 69 36 63 37 65 38 16 39 68 40 62 41 61 42
REMARK SMILES IDX 17 44 49 45 29 46 48 47 30 48 33 49 47 50 66 51 31 52 32 53
REMARK SMILES IDX 46 55 67 56 34 57 18 58 19 59 27 60 20 61 26 62 28 63 25 64
REMARK SMILES IDX 21 65 22 66 23 67 24 68 50 69 51 70 59 71 52 72 58 73 60 74
REMARK SMILES IDX 57 75 53 76 54 77 55 78 56 79 35 80 36 81 44 82 37 83 43 84
REMARK SMILES IDX 45 85 42 86 38 87 39 88 40 89 41 90
REMARK H PARENT 65 43 33 54
REMARK Flexibility Score: inf
ROOT
ATOM      1  C   UNL A   1      31.540  32.390  26.525  1.00  0.00     0.275 C 
ENDROOT
BRANCH   1   2
ATOM      2  C   UNL A   1      31.776  30.214  26.536  1.00  0.00     0.275 C 
BRANCH   2   3
ATOM      3  O   UNL A   1      32.018  29.314  25.360  1.00  0.00    -0.459 OA
BRANCH   3   4
ATOM      4  C   UNL A   1      31.950  28.027  25.706  1.00  0.00     0.338 C 
ATOM      5  O   UNL A   1      32.209  27.537  26.777  1.00  0.00    -0.246 OA
BRANCH   4   6
ATOM      6  C   UNL A   1      31.961  27.447  24.360  1.00  0.00     0.087 C 
ATOM      7  C   UNL A   1      33.187  26.830  23.946  1.00  0.00     0.027 C 
ATOM      8  C   UNL A   1      30.333  26.517  24.714  1.00  0.00     0.316 C 
ATOM      9  C   UNL A   1      33.474  25.089  23.911  1.00  0.00     0.020 A 
ATOM     10  O   UNL A   1      30.650  24.587  24.883  1.00  0.00    -0.474 OA
ATOM     11  C   UNL A   1      34.703  24.688  23.495  1.00  0.00     0.034 A 
ATOM     12  C   UNL A   1      32.344  23.932  24.517  1.00  0.00     0.148 A 
ATOM     13  C   UNL A   1      34.976  23.331  23.702  1.00  0.00     0.062 A 
ATOM     14  C   UNL A   1      32.692  22.622  24.710  1.00  0.00     0.103 A 
ATOM     15  Cl  UNL A   1      36.582  22.873  23.188  1.00  0.00    -0.083 Cl
ATOM     16  C   UNL A   1      34.050  22.354  24.314  1.00  0.00     0.082 A 
ATOM     17  Cl  UNL A   1      31.663  21.480  25.444  1.00  0.00    -0.079 Cl
ATOM     18  Cl  UNL A   1      34.712  20.760  24.626  1.00  0.00    -0.081 Cl
BRANCH   8  19
ATOM     19  C   UNL A   1      29.760  27.556  23.500  1.00  0.00     0.430 C 
ATOM     20  F   UNL A   1      30.385  27.445  22.354  1.00  0.00    -0.167 F 
ATOM     21  F   UNL A   1      28.488  27.186  23.138  1.00  0.00    -0.167 F 
ATOM     22  F   UNL A   1      29.629  28.870  23.802  1.00  0.00    -0.167 F 
ENDBRANCH   8  19
ENDBRANCH   4   6
ENDBRANCH   3   4
ENDBRANCH   2   3
ENDBRANCH   1   2
BRANCH   1  23
ATOM     23  O   UNL A   1      32.266  33.421  27.775  1.00  0.00    -0.458 OA
BRANCH  23  24
ATOM     24  C   UNL A   1      33.423  34.176  28.012  1.00  0.00     0.338 C 
ATOM     25  O   UNL A   1      33.524  35.291  28.494  1.00  0.00    -0.246 OA
BRANCH  24  26
ATOM     26  C   UNL A   1      34.585  33.233  28.000  1.00  0.00     0.060 A 
ATOM     27  C   UNL A   1      35.906  33.754  28.040  1.00  0.00     0.016 A 
ATOM     28  C   UNL A   1      34.341  31.923  28.391  1.00  0.00     0.016 A 
ATOM     29  C   UNL A   1      36.909  33.041  28.742  1.00  0.00     0.010 A 
ATOM     30  C   UNL A   1      35.331  31.230  29.084  1.00  0.00     0.010 A 
ATOM     31  C   UNL A   1      36.591  31.811  29.348  1.00  0.00    -0.014 A 
BRANCH  31  32
ATOM     32  C   UNL A   1      37.627  30.925  29.947  1.00  0.00     0.031 A 
ATOM     33  C   UNL A   1      37.889  31.235  31.386  1.00  0.00     0.074 A 
ATOM     34  C   UNL A   1      38.400  30.040  29.279  1.00  0.00     0.049 A 
ATOM     35  N   UNL A   1      38.888  30.903  32.151  1.00  0.00    -0.248 NA
ATOM     36  C   UNL A   1      36.913  32.147  32.010  1.00  0.00     0.031 C 
ATOM     37  C   UNL A   1      38.258  29.642  27.878  1.00  0.00     0.029 A 
ATOM     38  N   UNL A   1      39.500  29.320  29.706  1.00  0.00    -0.354 N 
ATOM     39  C   UNL A   1      38.673  31.606  33.328  1.00  0.00     0.074 A 
ATOM     40  C   UNL A   1      37.534  32.464  33.124  1.00  0.00     0.031 C 
ATOM     41  C   UNL A   1      39.226  28.754  27.568  1.00  0.00     0.029 A 
ATOM     42  C   UNL A   1      40.094  28.546  28.728  1.00  0.00     0.049 A 
ATOM     43  H   UNL A   1      39.832  29.356  30.633  1.00  0.00     0.167 HD
ATOM     44  C   UNL A   1      39.341  31.518  34.498  1.00  0.00     0.034 A 
ATOM     45  C   UNL A   1      41.216  27.785  28.772  1.00  0.00     0.034 A 
ATOM     46  C   UNL A   1      40.488  30.677  34.667  1.00  0.00     0.049 A 
ATOM     47  C   UNL A   1      42.010  27.745  30.069  1.00  0.00     0.074 A 
ATOM     48  C   UNL A   1      41.256  30.489  35.797  1.00  0.00     0.029 A 
ATOM     49  N   UNL A   1      41.044  29.897  33.658  1.00  0.00    -0.354 N 
ATOM     50  N   UNL A   1      41.784  28.384  31.197  1.00  0.00    -0.248 NA
ATOM     51  C   UNL A   1      43.207  26.891  30.102  1.00  0.00     0.031 C 
ATOM     52  C   UNL A   1      42.331  29.669  35.447  1.00  0.00     0.029 A 
ATOM     53  C   UNL A   1      42.168  29.250  34.133  1.00  0.00     0.049 A 
ATOM     54  H   UNL A   1      40.690  29.819  32.743  1.00  0.00     0.167 HD
ATOM     55  C   UNL A   1      42.779  27.969  32.084  1.00  0.00     0.074 A 
ATOM     56  C   UNL A   1      43.615  27.036  31.357  1.00  0.00     0.031 C 
ATOM     57  C   UNL A   1      42.975  28.312  33.384  1.00  0.00     0.034 A 
BRANCH  44  58
ATOM     58  C   UNL A   1      38.854  32.414  35.608  1.00  0.00     0.023 A 
ATOM     59  C   UNL A   1      39.248  33.765  35.684  1.00  0.00     0.031 A 
ATOM     60  C   UNL A   1      38.143  31.872  36.688  1.00  0.00     0.131 A 
ATOM     61  C   UNL A   1      39.066  34.474  36.878  1.00  0.00     0.055 A 
ATOM     62  C   UNL A   1      37.849  32.629  37.823  1.00  0.00     0.041 A 
ATOM     63  F   UNL A   1      37.778  30.580  36.690  1.00  0.00    -0.206 F 
ATOM     64  C   UNL A   1      38.338  33.928  37.936  1.00  0.00     0.022 A 
BRANCH  61  65
ATOM     65  S   UNL A   1      40.015  36.005  37.122  1.00  0.00     0.124 S 
ATOM     66  O   UNL A   1      39.835  36.670  35.832  1.00  0.00    -0.237 OA
ATOM     67  O   UNL A   1      39.340  36.620  38.258  1.00  0.00    -0.237 OA
ATOM     68  O   UNL A   1      41.372  35.528  37.383  1.00  0.00    -0.744 OA
ENDBRANCH  61  65
ENDBRANCH  44  58
BRANCH  45  69
ATOM     69  C   UNL A   1      41.699  27.022  27.569  1.00  0.00     0.023 A 
ATOM     70  C   UNL A   1      41.577  25.620  27.479  1.00  0.00     0.031 A 
ATOM     71  C   UNL A   1      42.351  27.681  26.512  1.00  0.00     0.131 A 
ATOM     72  C   UNL A   1      42.119  24.929  26.376  1.00  0.00     0.055 A 
ATOM     73  C   UNL A   1      42.843  26.996  25.394  1.00  0.00     0.041 A 
ATOM     74  F   UNL A   1      42.527  29.011  26.546  1.00  0.00    -0.206 F 
ATOM     75  C   UNL A   1      42.734  25.610  25.325  1.00  0.00     0.022 A 
BRANCH  72  76
ATOM     76  S   UNL A   1      42.082  23.111  26.360  1.00  0.00     0.124 S 
ATOM     77  O   UNL A   1      42.918  22.786  27.509  1.00  0.00    -0.237 OA
ATOM     78  O   UNL A   1      40.657  22.831  26.502  1.00  0.00    -0.237 OA
ATOM     79  O   UNL A   1      42.653  22.768  25.058  1.00  0.00    -0.744 OA
ENDBRANCH  72  76
ENDBRANCH  45  69
BRANCH  57  80
ATOM     80  C   UNL A   1      44.075  27.615  34.148  1.00  0.00     0.023 A 
ATOM     81  C   UNL A   1      45.365  28.152  34.274  1.00  0.00     0.031 A 
ATOM     82  C   UNL A   1      43.781  26.423  34.838  1.00  0.00     0.131 A 
ATOM     83  C   UNL A   1      46.322  27.479  35.052  1.00  0.00     0.055 A 
ATOM     84  C   UNL A   1      44.712  25.800  35.666  1.00  0.00     0.041 A 
ATOM     85  F   UNL A   1      42.562  25.864  34.748  1.00  0.00    -0.206 F 
ATOM     86  C   UNL A   1      45.996  26.326  35.771  1.00  0.00     0.022 A 
BRANCH  83  87
ATOM     87  S   UNL A   1      48.031  28.086  35.052  1.00  0.00     0.124 S 
ATOM     88  O   UNL A   1      47.912  29.324  34.289  1.00  0.00    -0.237 OA
ATOM     89  O   UNL A   1      48.312  28.238  36.475  1.00  0.00    -0.237 OA
ATOM     90  O   UNL A   1      48.774  27.018  34.384  1.00  0.00    -0.744 OA
ENDBRANCH  83  87
ENDBRANCH  57  80
ENDBRANCH  31  32
ENDBRANCH  24  26
ENDBRANCH  23  24
ENDBRANCH   1  23
TORSDOF 15
ENDMDL
MODEL 3
REMARK VINA RESULT:     -14.2      5.084     10.614
REMARK SMILES O=C(OCCOC(=O)c1ccc(-c2c3nc(c(-c4cc(S(=O)(=O)[O-])ccc4F)c4ccc([nH]4)c(-c4cc(S(=O)(=O)[O-])ccc4F)c4nc(c(-c5cc(S(=O)(=O)[O-])ccc5F)c5ccc2[nH]5)C=C4)C=C3)cc1)C1=Cc2cc(Cl)c(Cl)c(Cl)c2O[C@@H]1C(F)(F)F
REMARK SMILES IDX 5 1 4 2 3 3 2 4 1 5 72 6 73 7 84 8 74 9 83 10 75 11 82 12
REMARK SMILES IDX 76 13 80 14 77 15 78 16 81 17 79 18 85 19 86 20 87 21 88 22
REMARK SMILES IDX 6 23 7 24 8 25 9 26 10 27 71 28 11 29 70 30 12 31 13 32
REMARK SMILES IDX 14 33 64 34 15 35 69 36 63 37 65 38 16 39 68 40 62 41 61 42
REMARK SMILES IDX 17 44 49 45 29 46 48 47 30 48 33 49 47 50 66 51 31 52 32 53
REMARK SMILES IDX 46 55 67 56 34 57 18 58 19 59 27 60 20 61 26 62 28 63 25 64
REMARK SMILES IDX 21 65 22 66 23 67 24 68 50 69 51 70 59 71 52 72 58 73 60 74
REMARK SMILES IDX 57 75 53 76 54 77 55 78 56 79 35 80 36 81 44 82 37 83 43 84
REMARK SMILES IDX 45 85 42 86 38 87 39 88 40 89 41 90
REMARK H PARENT 65 43 33 54
REMARK Flexibility Score: inf
ROOT
ATOM      1  C   UNL A   1      38.230  19.223  25.243  1.00  0.00     0.275 C 
ENDROOT
BRANCH   1   2
ATOM      2  C   UNL A   1      36.634  20.689  24.937  1.00  0.00     0.275 C 
BRANCH   2   3
ATOM      3  O   UNL A   1      36.780  22.160  24.680  1.00  0.00    -0.459 OA
BRANCH   3   4
ATOM      4  C   UNL A   1      35.853  22.603  23.829  1.00  0.00     0.338 C 
ATOM      5  O   UNL A   1      36.024  23.071  22.731  1.00  0.00    -0.246 OA
BRANCH   4   6
ATOM      6  C   UNL A   1      34.757  22.783  24.786  1.00  0.00     0.087 C 
ATOM      7  C   UNL A   1      34.776  23.996  25.548  1.00  0.00     0.027 C 
ATOM      8  C   UNL A   1      33.473  22.352  23.443  1.00  0.00     0.316 C 
ATOM      9  C   UNL A   1      33.755  25.400  25.226  1.00  0.00     0.020 A 
ATOM     10  O   UNL A   1      32.452  23.943  22.913  1.00  0.00    -0.474 OA
ATOM     11  C   UNL A   1      33.917  26.467  26.052  1.00  0.00     0.034 A 
ATOM     12  C   UNL A   1      32.716  25.519  23.851  1.00  0.00     0.148 A 
ATOM     13  C   UNL A   1      33.272  27.635  25.630  1.00  0.00     0.062 A 
ATOM     14  C   UNL A   1      32.135  26.705  23.491  1.00  0.00     0.103 A 
ATOM     15  Cl  UNL A   1      33.542  28.987  26.704  1.00  0.00    -0.083 Cl
ATOM     16  C   UNL A   1      32.463  27.772  24.399  1.00  0.00     0.082 A 
ATOM     17  Cl  UNL A   1      31.228  26.905  22.063  1.00  0.00    -0.079 Cl
ATOM     18  Cl  UNL A   1      31.924  29.395  24.012  1.00  0.00    -0.081 Cl
BRANCH   8  19
ATOM     19  C   UNL A   1      33.211  21.022  24.465  1.00  0.00     0.430 C 
ATOM     20  F   UNL A   1      33.324  21.290  25.742  1.00  0.00    -0.167 F 
ATOM     21  F   UNL A   1      31.894  20.639  24.397  1.00  0.00    -0.167 F 
ATOM     22  F   UNL A   1      33.884  19.877  24.197  1.00  0.00    -0.167 F 
ENDBRANCH   8  19
ENDBRANCH   4   6
ENDBRANCH   3   4
ENDBRANCH   2   3
ENDBRANCH   1   2
BRANCH   1  23
ATOM     23  O   UNL A   1      39.918  19.709  25.499  1.00  0.00    -0.458 OA
BRANCH  23  24
ATOM     24  C   UNL A   1      40.873  19.794  26.521  1.00  0.00     0.338 C 
ATOM     25  O   UNL A   1      41.881  19.128  26.685  1.00  0.00    -0.246 OA
BRANCH  24  26
ATOM     26  C   UNL A   1      40.724  21.137  27.165  1.00  0.00     0.060 A 
ATOM     27  C   UNL A   1      41.633  21.527  28.183  1.00  0.00     0.016 A 
ATOM     28  C   UNL A   1      40.010  22.100  26.463  1.00  0.00     0.016 A 
ATOM     29  C   UNL A   1      42.022  22.887  28.280  1.00  0.00     0.010 A 
ATOM     30  C   UNL A   1      40.399  23.433  26.561  1.00  0.00     0.010 A 
ATOM     31  C   UNL A   1      41.465  23.832  27.398  1.00  0.00    -0.014 A 
BRANCH  31  32
ATOM     32  C   UNL A   1      41.688  25.296  27.552  1.00  0.00     0.031 A 
ATOM     33  C   UNL A   1      43.032  25.730  27.063  1.00  0.00     0.074 A 
ATOM     34  C   UNL A   1      40.879  26.159  28.206  1.00  0.00     0.049 A 
ATOM     35  N   UNL A   1      43.696  26.826  27.288  1.00  0.00    -0.248 NA
ATOM     36  C   UNL A   1      43.767  24.713  26.288  1.00  0.00     0.031 C 
ATOM     37  C   UNL A   1      39.544  25.872  28.735  1.00  0.00     0.029 A 
ATOM     38  N   UNL A   1      41.087  27.478  28.560  1.00  0.00    -0.354 N 
ATOM     39  C   UNL A   1      44.940  26.602  26.714  1.00  0.00     0.074 A 
ATOM     40  C   UNL A   1      44.971  25.238  26.255  1.00  0.00     0.031 C 
ATOM     41  C   UNL A   1      39.058  26.978  29.339  1.00  0.00     0.029 A 
ATOM     42  C   UNL A   1      40.058  28.046  29.288  1.00  0.00     0.049 A 
ATOM     43  H   UNL A   1      41.902  27.973  28.315  1.00  0.00     0.167 HD
ATOM     44  C   UNL A   1      45.961  27.470  26.547  1.00  0.00     0.034 A 
ATOM     45  C   UNL A   1      39.959  29.273  29.857  1.00  0.00     0.034 A 
ATOM     46  C   UNL A   1      45.916  28.814  27.038  1.00  0.00     0.049 A 
ATOM     47  C   UNL A   1      41.140  30.224  29.732  1.00  0.00     0.074 A 
ATOM     48  C   UNL A   1      46.876  29.798  26.935  1.00  0.00     0.029 A 
ATOM     49  N   UNL A   1      44.851  29.353  27.752  1.00  0.00    -0.354 N 
ATOM     50  N   UNL A   1      42.306  30.023  29.156  1.00  0.00    -0.248 NA
ATOM     51  C   UNL A   1      40.998  31.559  30.333  1.00  0.00     0.031 C 
ATOM     52  C   UNL A   1      46.431  30.903  27.666  1.00  0.00     0.029 A 
ATOM     53  C   UNL A   1      45.145  30.650  28.124  1.00  0.00     0.049 A 
ATOM     54  H   UNL A   1      44.013  28.880  27.961  1.00  0.00     0.167 HD
ATOM     55  C   UNL A   1      43.012  31.220  29.282  1.00  0.00     0.074 A 
ATOM     56  C   UNL A   1      42.148  32.134  30.000  1.00  0.00     0.031 C 
ATOM     57  C   UNL A   1      44.253  31.543  28.830  1.00  0.00     0.034 A 
BRANCH  44  58
ATOM     58  C   UNL A   1      47.192  26.921  25.871  1.00  0.00     0.023 A 
ATOM     59  C   UNL A   1      48.155  26.184  26.589  1.00  0.00     0.031 A 
ATOM     60  C   UNL A   1      47.491  27.290  24.551  1.00  0.00     0.131 A 
ATOM     61  C   UNL A   1      49.426  25.981  26.036  1.00  0.00     0.055 A 
ATOM     62  C   UNL A   1      48.713  26.964  23.961  1.00  0.00     0.041 A 
ATOM     63  F   UNL A   1      46.630  28.027  23.833  1.00  0.00    -0.206 F 
ATOM     64  C   UNL A   1      49.701  26.333  24.714  1.00  0.00     0.022 A 
BRANCH  61  65
ATOM     65  S   UNL A   1      50.779  25.493  27.147  1.00  0.00     0.124 S 
ATOM     66  O   UNL A   1      51.206  26.788  27.675  1.00  0.00    -0.237 OA
ATOM     67  O   UNL A   1      50.110  24.607  28.092  1.00  0.00    -0.237 OA
ATOM     68  O   UNL A   1      51.738  24.847  26.253  1.00  0.00    -0.744 OA
ENDBRANCH  61  65
ENDBRANCH  44  58
BRANCH  45  69
ATOM     69  C   UNL A   1      38.736  29.688  30.627  1.00  0.00     0.023 A 
ATOM     70  C   UNL A   1      37.748  30.521  30.063  1.00  0.00     0.031 A 
ATOM     71  C   UNL A   1      38.566  29.309  31.971  1.00  0.00     0.131 A 
ATOM     72  C   UNL A   1      36.658  30.961  30.841  1.00  0.00     0.055 A 
ATOM     73  C   UNL A   1      37.457  29.708  32.726  1.00  0.00     0.041 A 
ATOM     74  F   UNL A   1      39.483  28.541  32.580  1.00  0.00    -0.206 F 
ATOM     75  C   UNL A   1      36.497  30.543  32.163  1.00  0.00     0.022 A 
BRANCH  72  76
ATOM     76  S   UNL A   1      35.482  32.154  30.134  1.00  0.00     0.124 S 
ATOM     77  O   UNL A   1      35.019  31.446  28.946  1.00  0.00    -0.237 OA
ATOM     78  O   UNL A   1      34.511  32.305  31.212  1.00  0.00    -0.237 OA
ATOM     79  O   UNL A   1      36.305  33.334  29.874  1.00  0.00    -0.744 OA
ENDBRANCH  72  76
ENDBRANCH  45  69
BRANCH  57  80
ATOM     80  C   UNL A   1      44.730  32.964  29.007  1.00  0.00     0.023 A 
ATOM     81  C   UNL A   1      44.336  34.006  28.154  1.00  0.00     0.031 A 
ATOM     82  C   UNL A   1      45.532  33.284  30.120  1.00  0.00     0.131 A 
ATOM     83  C   UNL A   1      44.769  35.317  28.415  1.00  0.00     0.055 A 
ATOM     84  C   UNL A   1      45.898  34.596  30.414  1.00  0.00     0.041 A 
ATOM     85  F   UNL A   1      45.941  32.324  30.967  1.00  0.00    -0.206 F 
ATOM     86  C   UNL A   1      45.520  35.622  29.553  1.00  0.00     0.022 A 
BRANCH  83  87
ATOM     87  S   UNL A   1      44.405  36.614  27.201  1.00  0.00     0.124 S 
ATOM     88  O   UNL A   1      43.417  35.962  26.349  1.00  0.00    -0.237 OA
ATOM     89  O   UNL A   1      43.909  37.700  28.040  1.00  0.00    -0.237 OA
ATOM     90  O   UNL A   1      45.700  36.863  26.568  1.00  0.00    -0.744 OA
ENDBRANCH  83  87
ENDBRANCH  57  80
ENDBRANCH  31  32
ENDBRANCH  24  26
ENDBRANCH  23  24
ENDBRANCH   1  23
TORSDOF 15
ENDMDL
