MODEL 1
REMARK VINA RESULT:     -12.4      0.000      0.000
REMARK SMILES O=C(/C=C/c1ccc(S(=O)(=O)Nc2ccc3c(c2)OCCO3)cc1)OCCOC(=O)c1ccc(-c2c3nc(c(-c4cc(S(=O)(=O)[O-])ccc4F)c4ccc([nH]4)c(-c4cc(S(=O)(=O)[O-])ccc4F)c4nc(c(-c5cc(S(=O)(=O)[O-])ccc5F)c5ccc2[nH]5)C=C4)C=C3)cc1
REMARK SMILES IDX 26 1 25 2 2 3 1 4 3 5 4 6 5 7 6 8 24 9 7 10 23 11 8 12 9 13
REMARK SMILES IDX 10 14 11 15 12 16 13 18 14 19 18 20 15 21 17 22 16 23 19 24
REMARK SMILES IDX 22 25 20 26 21 27 27 28 28 29 29 30 30 31 31 32 32 33 93 34
REMARK SMILES IDX 33 35 92 36 34 37 35 38 36 39 86 40 37 41 91 42 85 43 87 44
REMARK SMILES IDX 38 45 90 46 84 47 83 48 39 50 71 51 51 52 70 53 52 54 55 55
REMARK SMILES IDX 69 56 88 57 53 58 54 59 68 61 89 62 56 63 40 64 41 65 49 66
REMARK SMILES IDX 42 67 48 68 50 69 47 70 43 71 44 72 45 73 46 74 72 75 73 76
REMARK SMILES IDX 81 77 74 78 80 79 82 80 79 81 75 82 76 83 77 84 78 85 57 86
REMARK SMILES IDX 58 87 66 88 59 89 65 90 67 91 64 92 60 93 61 94 62 95 63 96
REMARK H PARENT 12 17 87 49 55 60
REMARK Flexibility Score: inf
ROOT
ATOM      1  C   UNL A   1      42.965  20.746  26.005  1.00  0.00     0.275 C 
ENDROOT
BRANCH   1   2
ATOM      2  O   UNL A   1      41.538  20.842  25.822  1.00  0.00    -0.459 OA
BRANCH   2   3
ATOM      3  C   UNL A   1      40.584  20.891  26.781  1.00  0.00     0.330 C 
ATOM      4  O   UNL A   1      40.770  20.372  27.877  1.00  0.00    -0.247 OA
BRANCH   3   5
ATOM      5  C   UNL A   1      39.231  21.385  26.461  1.00  0.00     0.094 C 
ATOM      6  C   UNL A   1      38.919  22.453  25.715  1.00  0.00     0.015 C 
BRANCH   6   7
ATOM      7  C   UNL A   1      37.567  22.883  25.312  1.00  0.00    -0.025 A 
ATOM      8  C   UNL A   1      37.070  22.386  24.099  1.00  0.00     0.009 A 
ATOM      9  C   UNL A   1      36.763  23.767  26.044  1.00  0.00     0.009 A 
ATOM     10  C   UNL A   1      35.864  22.851  23.574  1.00  0.00     0.023 A 
ATOM     11  C   UNL A   1      35.520  24.190  25.552  1.00  0.00     0.023 A 
ATOM     12  C   UNL A   1      35.112  23.794  24.279  1.00  0.00     0.087 A 
BRANCH  12  13
ATOM     13  S   UNL A   1      33.775  24.605  23.407  1.00  0.00     0.261 S 
ATOM     14  O   UNL A   1      33.816  26.002  23.797  1.00  0.00    -0.201 OA
ATOM     15  O   UNL A   1      33.888  24.222  22.017  1.00  0.00    -0.201 OA
BRANCH  13  16
ATOM     16  N   UNL A   1      32.309  23.970  23.980  1.00  0.00    -0.279 N 
ATOM     17  H   UNL A   1      31.648  24.559  24.407  1.00  0.00     0.180 HD
BRANCH  16  18
ATOM     18  C   UNL A   1      32.042  22.574  23.840  1.00  0.00     0.053 A 
ATOM     19  C   UNL A   1      31.996  22.062  22.540  1.00  0.00     0.031 A 
ATOM     20  C   UNL A   1      32.033  21.713  24.935  1.00  0.00     0.077 A 
ATOM     21  C   UNL A   1      32.135  20.692  22.331  1.00  0.00     0.052 A 
ATOM     22  C   UNL A   1      32.257  20.354  24.722  1.00  0.00     0.163 A 
ATOM     23  C   UNL A   1      32.363  19.861  23.418  1.00  0.00     0.161 A 
ATOM     24  O   UNL A   1      32.497  19.591  25.836  1.00  0.00    -0.486 OA
ATOM     25  O   UNL A   1      32.799  18.589  23.148  1.00  0.00    -0.486 OA
ATOM     26  C   UNL A   1      32.937  18.261  25.526  1.00  0.00     0.271 C 
ATOM     27  C   UNL A   1      33.681  18.188  24.202  1.00  0.00     0.271 C 
ENDBRANCH  16  18
ENDBRANCH  13  16
ENDBRANCH  12  13
ENDBRANCH   6   7
ENDBRANCH   3   5
ENDBRANCH   2   3
ENDBRANCH   1   2
BRANCH   1  28
ATOM     28  C   UNL A   1      43.814  21.575  25.036  1.00  0.00     0.275 C 
BRANCH  28  29
ATOM     29  O   UNL A   1      43.194  22.808  24.641  1.00  0.00    -0.458 OA
BRANCH  29  30
ATOM     30  C   UNL A   1      43.951  23.918  24.871  1.00  0.00     0.338 C 
ATOM     31  O   UNL A   1      44.943  24.244  24.253  1.00  0.00    -0.246 OA
BRANCH  30  32
ATOM     32  C   UNL A   1      43.301  24.784  25.888  1.00  0.00     0.060 A 
ATOM     33  C   UNL A   1      43.818  26.073  26.063  1.00  0.00     0.016 A 
ATOM     34  C   UNL A   1      42.203  24.369  26.647  1.00  0.00     0.016 A 
ATOM     35  C   UNL A   1      43.255  26.942  27.003  1.00  0.00     0.010 A 
ATOM     36  C   UNL A   1      41.638  25.245  27.588  1.00  0.00     0.010 A 
ATOM     37  C   UNL A   1      42.167  26.534  27.787  1.00  0.00    -0.014 A 
BRANCH  37  38
ATOM     38  C   UNL A   1      41.682  27.397  28.903  1.00  0.00     0.031 A 
ATOM     39  C   UNL A   1      42.407  27.356  30.224  1.00  0.00     0.074 A 
ATOM     40  C   UNL A   1      40.649  28.251  28.752  1.00  0.00     0.049 A 
ATOM     41  N   UNL A   1      42.158  28.013  31.329  1.00  0.00    -0.248 NA
ATOM     42  C   UNL A   1      43.573  26.464  30.302  1.00  0.00     0.031 C 
ATOM     43  C   UNL A   1      39.895  28.471  27.520  1.00  0.00     0.029 A 
ATOM     44  N   UNL A   1      40.058  29.101  29.659  1.00  0.00    -0.354 N 
ATOM     45  C   UNL A   1      43.156  27.641  32.223  1.00  0.00     0.074 A 
ATOM     46  C   UNL A   1      43.960  26.637  31.557  1.00  0.00     0.031 C 
ATOM     47  C   UNL A   1      38.935  29.385  27.755  1.00  0.00     0.029 A 
ATOM     48  C   UNL A   1      38.968  29.775  29.160  1.00  0.00     0.049 A 
ATOM     49  H   UNL A   1      40.386  29.216  30.580  1.00  0.00     0.167 HD
ATOM     50  C   UNL A   1      43.412  28.116  33.468  1.00  0.00     0.034 A 
ATOM     51  C   UNL A   1      38.079  30.590  29.766  1.00  0.00     0.034 A 
ATOM     52  C   UNL A   1      42.608  29.102  34.146  1.00  0.00     0.049 A 
ATOM     53  C   UNL A   1      38.266  30.962  31.213  1.00  0.00     0.074 A 
ATOM     54  C   UNL A   1      42.804  29.661  35.399  1.00  0.00     0.029 A 
ATOM     55  N   UNL A   1      41.443  29.666  33.644  1.00  0.00    -0.354 N 
ATOM     56  N   UNL A   1      39.218  30.604  32.041  1.00  0.00    -0.248 NA
ATOM     57  C   UNL A   1      37.268  31.870  31.797  1.00  0.00     0.031 C 
ATOM     58  C   UNL A   1      41.722  30.501  35.683  1.00  0.00     0.029 A 
ATOM     59  C   UNL A   1      40.890  30.532  34.577  1.00  0.00     0.049 A 
ATOM     60  H   UNL A   1      41.065  29.479  32.754  1.00  0.00     0.167 HD
ATOM     61  C   UNL A   1      38.963  31.290  33.226  1.00  0.00     0.074 A 
ATOM     62  C   UNL A   1      37.761  32.067  33.011  1.00  0.00     0.031 C 
ATOM     63  C   UNL A   1      39.682  31.296  34.377  1.00  0.00     0.034 A 
BRANCH  50  64
ATOM     64  C   UNL A   1      44.611  27.545  34.183  1.00  0.00     0.023 A 
ATOM     65  C   UNL A   1      44.496  26.429  35.031  1.00  0.00     0.031 A 
ATOM     66  C   UNL A   1      45.876  28.139  34.041  1.00  0.00     0.131 A 
ATOM     67  C   UNL A   1      45.608  25.990  35.763  1.00  0.00     0.055 A 
ATOM     68  C   UNL A   1      46.997  27.646  34.710  1.00  0.00     0.041 A 
ATOM     69  F   UNL A   1      46.041  29.219  33.261  1.00  0.00    -0.206 F 
ATOM     70  C   UNL A   1      46.863  26.575  35.589  1.00  0.00     0.022 A 
BRANCH  67  71
ATOM     71  S   UNL A   1      45.354  24.743  37.056  1.00  0.00     0.124 S 
ATOM     72  O   UNL A   1      46.308  25.176  38.074  1.00  0.00    -0.237 OA
ATOM     73  O   UNL A   1      43.944  24.914  37.387  1.00  0.00    -0.237 OA
ATOM     74  O   UNL A   1      45.691  23.487  36.390  1.00  0.00    -0.744 OA
ENDBRANCH  67  71
ENDBRANCH  50  64
BRANCH  51  75
ATOM     75  C   UNL A   1      36.861  31.053  29.043  1.00  0.00     0.023 A 
ATOM     76  C   UNL A   1      35.896  30.159  28.561  1.00  0.00     0.031 A 
ATOM     77  C   UNL A   1      36.721  32.414  28.724  1.00  0.00     0.131 A 
ATOM     78  C   UNL A   1      34.850  30.638  27.752  1.00  0.00     0.055 A 
ATOM     79  C   UNL A   1      35.649  32.894  27.974  1.00  0.00     0.041 A 
ATOM     80  F   UNL A   1      37.654  33.294  29.120  1.00  0.00    -0.206 F 
ATOM     81  C   UNL A   1      34.711  32.000  27.472  1.00  0.00     0.022 A 
BRANCH  78  82
ATOM     82  S   UNL A   1      33.731  29.437  26.979  1.00  0.00     0.124 S 
ATOM     83  O   UNL A   1      32.703  30.309  26.423  1.00  0.00    -0.237 OA
ATOM     84  O   UNL A   1      34.609  28.783  26.016  1.00  0.00    -0.237 OA
ATOM     85  O   UNL A   1      33.304  28.600  28.100  1.00  0.00    -0.744 OA
ENDBRANCH  78  82
ENDBRANCH  51  75
BRANCH  63  86
ATOM     86  C   UNL A   1      39.221  32.227  35.472  1.00  0.00     0.023 A 
ATOM     87  C   UNL A   1      39.683  33.551  35.571  1.00  0.00     0.031 A 
ATOM     88  C   UNL A   1      38.324  31.766  36.454  1.00  0.00     0.131 A 
ATOM     89  C   UNL A   1      39.293  34.348  36.659  1.00  0.00     0.055 A 
ATOM     90  C   UNL A   1      37.891  32.584  37.498  1.00  0.00     0.041 A 
ATOM     91  F   UNL A   1      37.856  30.509  36.415  1.00  0.00    -0.206 F 
ATOM     92  C   UNL A   1      38.387  33.879  37.614  1.00  0.00     0.022 A 
BRANCH  89  93
ATOM     93  S   UNL A   1      40.062  35.979  36.867  1.00  0.00     0.124 S 
ATOM     94  O   UNL A   1      39.703  36.643  35.618  1.00  0.00    -0.237 OA
ATOM     95  O   UNL A   1      39.404  36.483  38.068  1.00  0.00    -0.237 OA
ATOM     96  O   UNL A   1      41.482  35.671  37.021  1.00  0.00    -0.744 OA
ENDBRANCH  89  93
ENDBRANCH  63  86
ENDBRANCH  37  38
ENDBRANCH  30  32
ENDBRANCH  29  30
ENDBRANCH  28  29
ENDBRANCH   1  28
TORSDOF 18
ENDMDL
MODEL 2
REMARK VINA RESULT:     -11.9      4.415      9.024
REMARK SMILES O=C(/C=C/c1ccc(S(=O)(=O)Nc2ccc3c(c2)OCCO3)cc1)OCCOC(=O)c1ccc(-c2c3nc(c(-c4cc(S(=O)(=O)[O-])ccc4F)c4ccc([nH]4)c(-c4cc(S(=O)(=O)[O-])ccc4F)c4nc(c(-c5cc(S(=O)(=O)[O-])ccc5F)c5ccc2[nH]5)C=C4)C=C3)cc1
REMARK SMILES IDX 26 1 25 2 2 3 1 4 3 5 4 6 5 7 6 8 24 9 7 10 23 11 8 12 9 13
REMARK SMILES IDX 10 14 11 15 12 16 13 18 14 19 18 20 15 21 17 22 16 23 19 24
REMARK SMILES IDX 22 25 20 26 21 27 27 28 28 29 29 30 30 31 31 32 32 33 93 34
REMARK SMILES IDX 33 35 92 36 34 37 35 38 36 39 86 40 37 41 91 42 85 43 87 44
REMARK SMILES IDX 38 45 90 46 84 47 83 48 39 50 71 51 51 52 70 53 52 54 55 55
REMARK SMILES IDX 69 56 88 57 53 58 54 59 68 61 89 62 56 63 40 64 41 65 49 66
REMARK SMILES IDX 42 67 48 68 50 69 47 70 43 71 44 72 45 73 46 74 72 75 73 76
REMARK SMILES IDX 81 77 74 78 80 79 82 80 79 81 75 82 76 83 77 84 78 85 57 86
REMARK SMILES IDX 58 87 66 88 59 89 65 90 67 91 64 92 60 93 61 94 62 95 63 96
REMARK H PARENT 12 17 87 49 55 60
REMARK Flexibility Score: inf
ROOT
ATOM      1  C   UNL A   1      42.344  19.745  26.283  1.00  0.00     0.275 C 
ENDROOT
BRANCH   1   2
ATOM      2  O   UNL A   1      43.011  20.487  25.242  1.00  0.00    -0.459 OA
BRANCH   2   3
ATOM      3  C   UNL A   1      43.395  21.785  25.270  1.00  0.00     0.330 C 
ATOM      4  O   UNL A   1      43.721  22.364  24.238  1.00  0.00    -0.247 OA
BRANCH   3   5
ATOM      5  C   UNL A   1      43.626  22.466  26.558  1.00  0.00     0.094 C 
ATOM      6  C   UNL A   1      44.807  22.815  27.085  1.00  0.00     0.015 C 
BRANCH   6   7
ATOM      7  C   UNL A   1      45.027  23.588  28.321  1.00  0.00    -0.025 A 
ATOM      8  C   UNL A   1      44.116  23.398  29.369  1.00  0.00     0.009 A 
ATOM      9  C   UNL A   1      46.066  24.511  28.507  1.00  0.00     0.009 A 
ATOM     10  C   UNL A   1      44.166  24.190  30.517  1.00  0.00     0.023 A 
ATOM     11  C   UNL A   1      46.160  25.266  29.685  1.00  0.00     0.023 A 
ATOM     12  C   UNL A   1      45.161  25.162  30.652  1.00  0.00     0.087 A 
BRANCH  12  13
ATOM     13  S   UNL A   1      44.966  26.367  31.961  1.00  0.00     0.261 S 
ATOM     14  O   UNL A   1      44.177  25.727  32.996  1.00  0.00    -0.201 OA
ATOM     15  O   UNL A   1      46.284  26.887  32.251  1.00  0.00    -0.201 OA
BRANCH  13  16
ATOM     16  N   UNL A   1      44.044  27.658  31.357  1.00  0.00    -0.279 N 
ATOM     17  H   UNL A   1      43.723  27.645  30.427  1.00  0.00     0.180 HD
BRANCH  16  18
ATOM     18  C   UNL A   1      43.738  28.764  32.206  1.00  0.00     0.053 A 
ATOM     19  C   UNL A   1      44.335  29.989  31.898  1.00  0.00     0.031 A 
ATOM     20  C   UNL A   1      42.736  28.694  33.173  1.00  0.00     0.077 A 
ATOM     21  C   UNL A   1      43.801  31.169  32.412  1.00  0.00     0.052 A 
ATOM     22  C   UNL A   1      42.150  29.877  33.619  1.00  0.00     0.163 A 
ATOM     23  C   UNL A   1      42.654  31.109  33.190  1.00  0.00     0.161 A 
ATOM     24  O   UNL A   1      41.006  29.750  34.365  1.00  0.00    -0.486 OA
ATOM     25  O   UNL A   1      41.991  32.289  33.412  1.00  0.00    -0.486 OA
ATOM     26  C   UNL A   1      40.342  31.000  34.595  1.00  0.00     0.271 C 
ATOM     27  C   UNL A   1      40.589  32.006  33.482  1.00  0.00     0.271 C 
ENDBRANCH  16  18
ENDBRANCH  13  16
ENDBRANCH  12  13
ENDBRANCH   6   7
ENDBRANCH   3   5
ENDBRANCH   2   3
ENDBRANCH   1   2
BRANCH   1  28
ATOM     28  C   UNL A   1      40.818  19.872  26.313  1.00  0.00     0.275 C 
BRANCH  28  29
ATOM     29  O   UNL A   1      40.347  20.931  27.160  1.00  0.00    -0.458 OA
BRANCH  29  30
ATOM     30  C   UNL A   1      39.548  21.839  26.534  1.00  0.00     0.338 C 
ATOM     31  O   UNL A   1      38.631  21.583  25.781  1.00  0.00    -0.246 OA
BRANCH  30  32
ATOM     32  C   UNL A   1      39.839  23.210  27.028  1.00  0.00     0.060 A 
ATOM     33  C   UNL A   1      39.314  24.284  26.299  1.00  0.00     0.016 A 
ATOM     34  C   UNL A   1      40.591  23.456  28.180  1.00  0.00     0.016 A 
ATOM     35  C   UNL A   1      39.548  25.601  26.707  1.00  0.00     0.010 A 
ATOM     36  C   UNL A   1      40.822  24.780  28.589  1.00  0.00     0.010 A 
ATOM     37  C   UNL A   1      40.317  25.866  27.848  1.00  0.00    -0.014 A 
BRANCH  37  38
ATOM     38  C   UNL A   1      40.708  27.266  28.180  1.00  0.00     0.031 A 
ATOM     39  C   UNL A   1      42.159  27.663  28.075  1.00  0.00     0.074 A 
ATOM     40  C   UNL A   1      39.799  28.203  28.521  1.00  0.00     0.049 A 
ATOM     41  N   UNL A   1      42.724  28.819  28.318  1.00  0.00    -0.248 NA
ATOM     42  C   UNL A   1      43.090  26.619  27.624  1.00  0.00     0.031 C 
ATOM     43  C   UNL A   1      38.353  28.005  28.590  1.00  0.00     0.029 A 
ATOM     44  N   UNL A   1      39.971  29.523  28.872  1.00  0.00    -0.354 N 
ATOM     45  C   UNL A   1      44.071  28.652  28.017  1.00  0.00     0.074 A 
ATOM     46  C   UNL A   1      44.248  27.260  27.657  1.00  0.00     0.031 C 
ATOM     47  C   UNL A   1      37.774  29.158  28.973  1.00  0.00     0.029 A 
ATOM     48  C   UNL A   1      38.804  30.159  29.229  1.00  0.00     0.049 A 
ATOM     49  H   UNL A   1      40.847  29.970  28.867  1.00  0.00     0.167 HD
ATOM     50  C   UNL A   1      45.065  29.574  27.999  1.00  0.00     0.034 A 
ATOM     51  C   UNL A   1      38.588  31.392  29.732  1.00  0.00     0.034 A 
ATOM     52  C   UNL A   1      44.903  30.957  28.373  1.00  0.00     0.049 A 
ATOM     53  C   UNL A   1      39.739  32.351  29.890  1.00  0.00     0.074 A 
ATOM     54  C   UNL A   1      45.849  31.969  28.363  1.00  0.00     0.029 A 
ATOM     55  N   UNL A   1      43.727  31.523  28.844  1.00  0.00    -0.354 N 
ATOM     56  N   UNL A   1      41.005  32.177  29.595  1.00  0.00    -0.248 NA
ATOM     57  C   UNL A   1      39.421  33.683  30.425  1.00  0.00     0.031 C 
ATOM     58  C   UNL A   1      45.267  33.124  28.898  1.00  0.00     0.029 A 
ATOM     59  C   UNL A   1      43.934  32.857  29.167  1.00  0.00     0.049 A 
ATOM     60  H   UNL A   1      42.869  31.048  28.936  1.00  0.00     0.167 HD
ATOM     61  C   UNL A   1      41.623  33.397  29.856  1.00  0.00     0.074 A 
ATOM     62  C   UNL A   1      40.596  34.291  30.348  1.00  0.00     0.031 C 
ATOM     63  C   UNL A   1      42.920  33.751  29.675  1.00  0.00     0.034 A 
BRANCH  50  64
ATOM     64  C   UNL A   1      46.432  29.095  27.577  1.00  0.00     0.023 A 
ATOM     65  C   UNL A   1      46.707  28.747  26.242  1.00  0.00     0.031 A 
ATOM     66  C   UNL A   1      47.463  28.955  28.520  1.00  0.00     0.131 A 
ATOM     67  C   UNL A   1      47.954  28.204  25.904  1.00  0.00     0.055 A 
ATOM     68  C   UNL A   1      48.729  28.491  28.161  1.00  0.00     0.041 A 
ATOM     69  F   UNL A   1      47.252  29.253  29.813  1.00  0.00    -0.206 F 
ATOM     70  C   UNL A   1      48.976  28.098  26.849  1.00  0.00     0.022 A 
BRANCH  67  71
ATOM     71  S   UNL A   1      48.170  27.501  24.245  1.00  0.00     0.124 S 
ATOM     72  O   UNL A   1      48.076  26.069  24.518  1.00  0.00    -0.237 OA
ATOM     73  O   UNL A   1      47.056  28.086  23.507  1.00  0.00    -0.237 OA
ATOM     74  O   UNL A   1      49.496  27.967  23.847  1.00  0.00    -0.744 OA
ENDBRANCH  67  71
ENDBRANCH  50  64
BRANCH  51  75
ATOM     75  C   UNL A   1      37.237  31.785  30.221  1.00  0.00     0.023 A 
ATOM     76  C   UNL A   1      36.330  32.490  29.419  1.00  0.00     0.031 A 
ATOM     77  C   UNL A   1      36.892  31.553  31.563  1.00  0.00     0.131 A 
ATOM     78  C   UNL A   1      35.134  32.971  29.982  1.00  0.00     0.055 A 
ATOM     79  C   UNL A   1      35.678  31.977  32.102  1.00  0.00     0.041 A 
ATOM     80  F   UNL A   1      37.757  30.930  32.378  1.00  0.00    -0.206 F 
ATOM     81  C   UNL A   1      34.795  32.702  31.311  1.00  0.00     0.022 A 
BRANCH  78  82
ATOM     82  S   UNL A   1      34.074  34.048  28.978  1.00  0.00     0.124 S 
ATOM     83  O   UNL A   1      33.505  33.099  28.029  1.00  0.00    -0.237 OA
ATOM     84  O   UNL A   1      33.157  34.586  29.978  1.00  0.00    -0.237 OA
ATOM     85  O   UNL A   1      35.012  35.016  28.411  1.00  0.00    -0.744 OA
ENDBRANCH  78  82
ENDBRANCH  51  75
BRANCH  63  86
ATOM     86  C   UNL A   1      43.288  35.189  29.945  1.00  0.00     0.023 A 
ATOM     87  C   UNL A   1      43.252  36.172  28.941  1.00  0.00     0.031 A 
ATOM     88  C   UNL A   1      43.712  35.575  31.231  1.00  0.00     0.131 A 
ATOM     89  C   UNL A   1      43.688  37.476  29.223  1.00  0.00     0.055 A 
ATOM     90  C   UNL A   1      44.085  36.888  31.521  1.00  0.00     0.041 A 
ATOM     91  F   UNL A   1      43.773  34.678  32.228  1.00  0.00    -0.206 F 
ATOM     92  C   UNL A   1      44.088  37.844  30.510  1.00  0.00     0.022 A 
BRANCH  89  93
ATOM     93  S   UNL A   1      43.820  38.666  27.860  1.00  0.00     0.124 S 
ATOM     94  O   UNL A   1      45.232  38.564  27.504  1.00  0.00    -0.237 OA
ATOM     95  O   UNL A   1      42.878  38.128  26.884  1.00  0.00    -0.237 OA
ATOM     96  O   UNL A   1      43.424  39.934  28.470  1.00  0.00    -0.744 OA
ENDBRANCH  89  93
ENDBRANCH  63  86
ENDBRANCH  37  38
ENDBRANCH  30  32
ENDBRANCH  29  30
ENDBRANCH  28  29
ENDBRANCH   1  28
TORSDOF 18
ENDMDL
MODEL 3
REMARK VINA RESULT:     -11.8      5.431      8.734
REMARK SMILES O=C(/C=C/c1ccc(S(=O)(=O)Nc2ccc3c(c2)OCCO3)cc1)OCCOC(=O)c1ccc(-c2c3nc(c(-c4cc(S(=O)(=O)[O-])ccc4F)c4ccc([nH]4)c(-c4cc(S(=O)(=O)[O-])ccc4F)c4nc(c(-c5cc(S(=O)(=O)[O-])ccc5F)c5ccc2[nH]5)C=C4)C=C3)cc1
REMARK SMILES IDX 26 1 25 2 2 3 1 4 3 5 4 6 5 7 6 8 24 9 7 10 23 11 8 12 9 13
REMARK SMILES IDX 10 14 11 15 12 16 13 18 14 19 18 20 15 21 17 22 16 23 19 24
REMARK SMILES IDX 22 25 20 26 21 27 27 28 28 29 29 30 30 31 31 32 32 33 93 34
REMARK SMILES IDX 33 35 92 36 34 37 35 38 36 39 86 40 37 41 91 42 85 43 87 44
REMARK SMILES IDX 38 45 90 46 84 47 83 48 39 50 71 51 51 52 70 53 52 54 55 55
REMARK SMILES IDX 69 56 88 57 53 58 54 59 68 61 89 62 56 63 40 64 41 65 49 66
REMARK SMILES IDX 42 67 48 68 50 69 47 70 43 71 44 72 45 73 46 74 72 75 73 76
REMARK SMILES IDX 81 77 74 78 80 79 82 80 79 81 75 82 76 83 77 84 78 85 57 86
REMARK SMILES IDX 58 87 66 88 59 89 65 90 67 91 64 92 60 93 61 94 62 95 63 96
REMARK H PARENT 12 17 87 49 55 60
REMARK Flexibility Score: inf
ROOT
ATOM      1  C   UNL A   1      43.470  18.036  26.148  1.00  0.00     0.275 C 
ENDROOT
BRANCH   1   2
ATOM      2  O   UNL A   1      44.326  18.389  25.043  1.00  0.00    -0.459 OA
BRANCH   2   3
ATOM      3  C   UNL A   1      45.556  18.953  25.099  1.00  0.00     0.330 C 
ATOM      4  O   UNL A   1      46.564  18.255  25.155  1.00  0.00    -0.247 OA
BRANCH   3   5
ATOM      5  C   UNL A   1      45.700  20.408  25.299  1.00  0.00     0.094 C 
ATOM      6  C   UNL A   1      44.969  21.375  24.730  1.00  0.00     0.015 C 
BRANCH   6   7
ATOM      7  C   UNL A   1      45.047  22.821  25.012  1.00  0.00    -0.025 A 
ATOM      8  C   UNL A   1      43.840  23.531  25.060  1.00  0.00     0.009 A 
ATOM      9  C   UNL A   1      46.240  23.529  25.208  1.00  0.00     0.009 A 
ATOM     10  C   UNL A   1      43.829  24.922  25.179  1.00  0.00     0.023 A 
ATOM     11  C   UNL A   1      46.233  24.920  25.392  1.00  0.00     0.023 A 
ATOM     12  C   UNL A   1      45.033  25.622  25.293  1.00  0.00     0.087 A 
BRANCH  12  13
ATOM     13  S   UNL A   1      44.979  27.399  25.088  1.00  0.00     0.261 S 
ATOM     14  O   UNL A   1      46.043  27.740  24.164  1.00  0.00    -0.201 OA
ATOM     15  O   UNL A   1      43.606  27.746  24.795  1.00  0.00    -0.201 OA
BRANCH  13  16
ATOM     16  N   UNL A   1      45.365  28.115  26.579  1.00  0.00    -0.279 N 
ATOM     17  H   UNL A   1      45.521  27.553  27.372  1.00  0.00     0.180 HD
BRANCH  16  18
ATOM     18  C   UNL A   1      45.462  29.536  26.675  1.00  0.00     0.053 A 
ATOM     19  C   UNL A   1      44.454  30.198  27.381  1.00  0.00     0.031 A 
ATOM     20  C   UNL A   1      46.605  30.224  26.271  1.00  0.00     0.077 A 
ATOM     21  C   UNL A   1      44.672  31.491  27.850  1.00  0.00     0.052 A 
ATOM     22  C   UNL A   1      46.856  31.484  26.811  1.00  0.00     0.163 A 
ATOM     23  C   UNL A   1      45.908  32.086  27.644  1.00  0.00     0.161 A 
ATOM     24  O   UNL A   1      48.104  32.007  26.590  1.00  0.00    -0.486 OA
ATOM     25  O   UNL A   1      46.186  33.211  28.377  1.00  0.00    -0.486 OA
ATOM     26  C   UNL A   1      48.363  33.191  27.357  1.00  0.00     0.271 C 
ATOM     27  C   UNL A   1      47.589  33.219  28.665  1.00  0.00     0.271 C 
ENDBRANCH  16  18
ENDBRANCH  13  16
ENDBRANCH  12  13
ENDBRANCH   6   7
ENDBRANCH   3   5
ENDBRANCH   2   3
ENDBRANCH   1   2
BRANCH   1  28
ATOM     28  C   UNL A   1      42.041  18.585  26.080  1.00  0.00     0.275 C 
BRANCH  28  29
ATOM     29  O   UNL A   1      41.976  19.972  25.715  1.00  0.00    -0.458 OA
BRANCH  29  30
ATOM     30  C   UNL A   1      40.832  20.602  26.099  1.00  0.00     0.338 C 
ATOM     31  O   UNL A   1      39.704  20.173  25.972  1.00  0.00    -0.246 OA
BRANCH  30  32
ATOM     32  C   UNL A   1      41.154  21.837  26.861  1.00  0.00     0.060 A 
ATOM     33  C   UNL A   1      40.576  23.035  26.422  1.00  0.00     0.016 A 
ATOM     34  C   UNL A   1      41.984  21.839  27.985  1.00  0.00     0.016 A 
ATOM     35  C   UNL A   1      40.836  24.235  27.092  1.00  0.00     0.010 A 
ATOM     36  C   UNL A   1      42.240  23.045  28.658  1.00  0.00     0.010 A 
ATOM     37  C   UNL A   1      41.682  24.257  28.209  1.00  0.00    -0.014 A 
BRANCH  37  38
ATOM     38  C   UNL A   1      42.092  25.558  28.812  1.00  0.00     0.031 A 
ATOM     39  C   UNL A   1      43.555  25.812  29.073  1.00  0.00     0.074 A 
ATOM     40  C   UNL A   1      41.202  26.535  29.083  1.00  0.00     0.049 A 
ATOM     41  N   UNL A   1      44.136  26.865  29.593  1.00  0.00    -0.248 NA
ATOM     42  C   UNL A   1      44.483  24.741  28.684  1.00  0.00     0.031 C 
ATOM     43  C   UNL A   1      39.766  26.481  28.817  1.00  0.00     0.029 A 
ATOM     44  N   UNL A   1      41.389  27.777  29.647  1.00  0.00    -0.354 N 
ATOM     45  C   UNL A   1      45.500  26.597  29.562  1.00  0.00     0.074 A 
ATOM     46  C   UNL A   1      45.649  25.250  29.052  1.00  0.00     0.031 C 
ATOM     47  C   UNL A   1      39.203  27.632  29.230  1.00  0.00     0.029 A 
ATOM     48  C   UNL A   1      40.222  28.481  29.838  1.00  0.00     0.049 A 
ATOM     49  H   UNL A   1      42.275  28.128  29.892  1.00  0.00     0.167 HD
ATOM     50  C   UNL A   1      46.539  27.406  29.886  1.00  0.00     0.034 A 
ATOM     51  C   UNL A   1      39.992  29.659  30.455  1.00  0.00     0.034 A 
ATOM     52  C   UNL A   1      46.400  28.742  30.411  1.00  0.00     0.049 A 
ATOM     53  C   UNL A   1      41.146  30.467  30.987  1.00  0.00     0.074 A 
ATOM     54  C   UNL A   1      47.397  29.644  30.745  1.00  0.00     0.029 A 
ATOM     55  N   UNL A   1      45.194  29.365  30.699  1.00  0.00    -0.354 N 
ATOM     56  N   UNL A   1      42.430  30.200  30.944  1.00  0.00    -0.248 NA
ATOM     57  C   UNL A   1      40.817  31.748  31.628  1.00  0.00     0.031 C 
ATOM     58  C   UNL A   1      46.798  30.779  31.305  1.00  0.00     0.029 A 
ATOM     59  C   UNL A   1      45.423  30.621  31.245  1.00  0.00     0.049 A 
ATOM     60  H   UNL A   1      44.305  28.974  30.539  1.00  0.00     0.167 HD
ATOM     61  C   UNL A   1      43.063  31.308  31.501  1.00  0.00     0.074 A 
ATOM     62  C   UNL A   1      42.021  32.236  31.888  1.00  0.00     0.031 C 
ATOM     63  C   UNL A   1      44.391  31.545  31.650  1.00  0.00     0.034 A 
BRANCH  50  64
ATOM     64  C   UNL A   1      47.926  26.844  29.698  1.00  0.00     0.023 A 
ATOM     65  C   UNL A   1      48.600  26.953  28.468  1.00  0.00     0.031 A 
ATOM     66  C   UNL A   1      48.570  26.167  30.746  1.00  0.00     0.131 A 
ATOM     67  C   UNL A   1      49.842  26.326  28.294  1.00  0.00     0.055 A 
ATOM     68  C   UNL A   1      49.843  25.616  30.591  1.00  0.00     0.041 A 
ATOM     69  F   UNL A   1      47.966  26.015  31.935  1.00  0.00    -0.206 F 
ATOM     70  C   UNL A   1      50.480  25.680  29.355  1.00  0.00     0.022 A 
BRANCH  67  71
ATOM     71  S   UNL A   1      50.540  26.239  26.622  1.00  0.00     0.124 S 
ATOM     72  O   UNL A   1      51.055  24.872  26.588  1.00  0.00    -0.237 OA
ATOM     73  O   UNL A   1      49.379  26.506  25.781  1.00  0.00    -0.237 OA
ATOM     74  O   UNL A   1      51.562  27.283  26.624  1.00  0.00    -0.744 OA
ENDBRANCH  67  71
ENDBRANCH  50  64
BRANCH  51  75
ATOM     75  C   UNL A   1      38.598  30.127  30.699  1.00  0.00     0.023 A 
ATOM     76  C   UNL A   1      37.916  30.942  29.786  1.00  0.00     0.031 A 
ATOM     77  C   UNL A   1      37.980  29.848  31.929  1.00  0.00     0.131 A 
ATOM     78  C   UNL A   1      36.666  31.481  30.139  1.00  0.00     0.055 A 
ATOM     79  C   UNL A   1      36.714  30.333  32.250  1.00  0.00     0.041 A 
ATOM     80  F   UNL A   1      38.625  29.117  32.851  1.00  0.00    -0.206 F 
ATOM     81  C   UNL A   1      36.053  31.167  31.355  1.00  0.00     0.022 A 
BRANCH  78  82
ATOM     82  S   UNL A   1      35.896  32.690  29.026  1.00  0.00     0.124 S 
ATOM     83  O   UNL A   1      34.573  32.836  29.619  1.00  0.00    -0.237 OA
ATOM     84  O   UNL A   1      36.791  33.835  29.158  1.00  0.00    -0.237 OA
ATOM     85  O   UNL A   1      35.929  32.023  27.725  1.00  0.00    -0.744 OA
ENDBRANCH  78  82
ENDBRANCH  51  75
BRANCH  63  86
ATOM     86  C   UNL A   1      44.794  32.893  32.194  1.00  0.00     0.023 A 
ATOM     87  C   UNL A   1      44.936  34.021  31.368  1.00  0.00     0.031 A 
ATOM     88  C   UNL A   1      45.071  33.041  33.567  1.00  0.00     0.131 A 
ATOM     89  C   UNL A   1      45.400  35.231  31.910  1.00  0.00     0.055 A 
ATOM     90  C   UNL A   1      45.472  34.262  34.110  1.00  0.00     0.041 A 
ATOM     91  F   UNL A   1      44.960  31.997  34.402  1.00  0.00    -0.206 F 
ATOM     92  C   UNL A   1      45.652  35.363  33.278  1.00  0.00     0.022 A 
BRANCH  89  93
ATOM     93  S   UNL A   1      45.764  36.608  30.786  1.00  0.00     0.124 S 
ATOM     94  O   UNL A   1      45.560  37.766  31.650  1.00  0.00    -0.237 OA
ATOM     95  O   UNL A   1      47.145  36.337  30.399  1.00  0.00    -0.237 OA
ATOM     96  O   UNL A   1      44.779  36.449  29.717  1.00  0.00    -0.744 OA
ENDBRANCH  89  93
ENDBRANCH  63  86
ENDBRANCH  37  38
ENDBRANCH  30  32
ENDBRANCH  29  30
ENDBRANCH  28  29
ENDBRANCH   1  28
TORSDOF 18
ENDMDL
