MODEL 1
REMARK VINA RESULT:     -10.8      0.000      0.000
REMARK SMILES O=C(CCC(=O)OCCOC(=O)c1ccc(-c2c3nc(c(-c4cc(S(=O)(=O)[O-])ccc4F)c4ccc([nH]4)c(-c4cc(S(=O)(=O)[O-])ccc4F)c4nc(c(-c5cc(S(=O)(=O)[O-])ccc5F)c5ccc2[nH]5)C=C4)C=C3)cc1)Nc1cc(Cl)cc(Cl)c1
REMARK SMILES IDX 8 1 7 2 5 3 6 4 4 5 3 6 2 7 1 8 76 9 77 11 78 12 84 13 79 14
REMARK SMILES IDX 82 15 80 16 81 17 83 18 9 19 10 20 11 21 12 22 13 23 14 24
REMARK SMILES IDX 75 25 15 26 74 27 16 28 17 29 18 30 68 31 19 32 73 33 67 34
REMARK SMILES IDX 69 35 20 36 72 37 66 38 65 39 21 41 53 42 33 43 52 44 34 45
REMARK SMILES IDX 37 46 51 47 70 48 35 49 36 50 50 52 71 53 38 54 22 55 23 56
REMARK SMILES IDX 31 57 24 58 30 59 32 60 29 61 25 62 26 63 27 64 28 65 54 66
REMARK SMILES IDX 55 67 63 68 56 69 62 70 64 71 61 72 57 73 58 74 59 75 60 76
REMARK SMILES IDX 39 77 40 78 48 79 41 80 47 81 49 82 46 83 42 84 43 85 44 86
REMARK SMILES IDX 45 87
REMARK H PARENT 76 10 69 40 37 51
REMARK Flexibility Score: inf
ROOT
ATOM      1  C   UNL A   1      31.718  29.182  24.235  1.00  0.00     0.274 C 
ENDROOT
BRANCH   1   2
ATOM      2  O   UNL A   1      30.568  28.301  24.253  1.00  0.00    -0.462 OA
BRANCH   2   3
ATOM      3  C   UNL A   1      30.794  26.964  24.359  1.00  0.00     0.306 C 
ATOM      4  O   UNL A   1      30.865  26.203  23.405  1.00  0.00    -0.252 OA
BRANCH   3   5
ATOM      5  C   UNL A   1      30.858  26.495  25.805  1.00  0.00     0.132 C 
BRANCH   5   6
ATOM      6  C   UNL A   1      30.275  25.114  26.115  1.00  0.00     0.112 C 
BRANCH   6   7
ATOM      7  C   UNL A   1      31.332  24.066  26.430  1.00  0.00     0.224 C 
ATOM      8  O   UNL A   1      31.411  23.541  27.537  1.00  0.00    -0.275 OA
ATOM      9  N   UNL A   1      32.192  23.842  25.379  1.00  0.00    -0.326 N 
ATOM     10  H   UNL A   1      31.982  24.312  24.539  1.00  0.00     0.169 HD
BRANCH   9  11
ATOM     11  C   UNL A   1      33.330  23.027  25.362  1.00  0.00     0.044 A 
ATOM     12  C   UNL A   1      34.550  23.648  25.653  1.00  0.00     0.046 A 
ATOM     13  C   UNL A   1      33.297  21.667  25.067  1.00  0.00     0.046 A 
ATOM     14  C   UNL A   1      35.724  22.902  25.686  1.00  0.00     0.044 A 
ATOM     15  C   UNL A   1      34.490  20.940  25.057  1.00  0.00     0.044 A 
ATOM     16  Cl  UNL A   1      37.201  23.666  26.129  1.00  0.00    -0.084 Cl
ATOM     17  C   UNL A   1      35.704  21.547  25.377  1.00  0.00     0.041 A 
ATOM     18  Cl  UNL A   1      34.473  19.274  24.627  1.00  0.00    -0.084 Cl
ENDBRANCH   9  11
ENDBRANCH   6   7
ENDBRANCH   5   6
ENDBRANCH   3   5
ENDBRANCH   2   3
ENDBRANCH   1   2
BRANCH   1  19
ATOM     19  C   UNL A   1      31.738  30.083  25.472  1.00  0.00     0.275 C 
BRANCH  19  20
ATOM     20  O   UNL A   1      33.075  30.204  25.979  1.00  0.00    -0.458 OA
BRANCH  20  21
ATOM     21  C   UNL A   1      33.249  31.194  26.888  1.00  0.00     0.338 C 
ATOM     22  O   UNL A   1      32.456  32.074  27.159  1.00  0.00    -0.246 OA
BRANCH  21  23
ATOM     23  C   UNL A   1      34.484  30.931  27.640  1.00  0.00     0.060 A 
ATOM     24  C   UNL A   1      34.783  29.613  27.997  1.00  0.00     0.016 A 
ATOM     25  C   UNL A   1      35.330  31.978  28.001  1.00  0.00     0.016 A 
ATOM     26  C   UNL A   1      35.943  29.333  28.712  1.00  0.00     0.010 A 
ATOM     27  C   UNL A   1      36.498  31.695  28.712  1.00  0.00     0.010 A 
ATOM     28  C   UNL A   1      36.810  30.372  29.074  1.00  0.00    -0.014 A 
BRANCH  28  29
ATOM     29  C   UNL A   1      38.035  30.079  29.856  1.00  0.00     0.031 A 
ATOM     30  C   UNL A   1      39.052  29.120  29.313  1.00  0.00     0.074 A 
ATOM     31  C   UNL A   1      38.219  30.668  31.052  1.00  0.00     0.049 A 
ATOM     32  N   UNL A   1      40.133  28.650  29.878  1.00  0.00    -0.248 NA
ATOM     33  C   UNL A   1      38.806  28.613  27.957  1.00  0.00     0.031 C 
ATOM     34  C   UNL A   1      37.309  31.640  31.659  1.00  0.00     0.029 A 
ATOM     35  N   UNL A   1      39.222  30.527  31.974  1.00  0.00    -0.354 N 
ATOM     36  C   UNL A   1      40.693  27.776  28.952  1.00  0.00     0.074 A 
ATOM     37  C   UNL A   1      39.803  27.753  27.809  1.00  0.00     0.031 C 
ATOM     38  C   UNL A   1      37.796  32.007  32.854  1.00  0.00     0.029 A 
ATOM     39  C   UNL A   1      39.017  31.253  33.123  1.00  0.00     0.049 A 
ATOM     40  H   UNL A   1      40.015  29.961  31.828  1.00  0.00     0.167 HD
ATOM     41  C   UNL A   1      41.848  27.070  29.048  1.00  0.00     0.034 A 
ATOM     42  C   UNL A   1      39.710  31.276  34.279  1.00  0.00     0.034 A 
ATOM     43  C   UNL A   1      42.706  27.102  30.209  1.00  0.00     0.049 A 
ATOM     44  C   UNL A   1      40.941  30.416  34.402  1.00  0.00     0.074 A 
ATOM     45  C   UNL A   1      43.907  26.445  30.414  1.00  0.00     0.029 A 
ATOM     46  N   UNL A   1      42.446  27.816  31.374  1.00  0.00    -0.354 N 
ATOM     47  N   UNL A   1      41.469  29.598  33.519  1.00  0.00    -0.248 NA
ATOM     48  C   UNL A   1      41.669  30.483  35.674  1.00  0.00     0.031 C 
ATOM     49  C   UNL A   1      44.325  26.691  31.726  1.00  0.00     0.029 A 
ATOM     50  C   UNL A   1      43.438  27.579  32.315  1.00  0.00     0.049 A 
ATOM     51  H   UNL A   1      41.669  28.405  31.512  1.00  0.00     0.167 HD
ATOM     52  C   UNL A   1      42.607  29.070  34.123  1.00  0.00     0.074 A 
ATOM     53  C   UNL A   1      42.693  29.676  35.437  1.00  0.00     0.031 C 
ATOM     54  C   UNL A   1      43.499  28.170  33.635  1.00  0.00     0.034 A 
BRANCH  41  55
ATOM     55  C   UNL A   1      42.198  26.160  27.892  1.00  0.00     0.023 A 
ATOM     56  C   UNL A   1      41.673  24.860  27.785  1.00  0.00     0.031 A 
ATOM     57  C   UNL A   1      43.121  26.575  26.915  1.00  0.00     0.131 A 
ATOM     58  C   UNL A   1      42.150  23.990  26.793  1.00  0.00     0.055 A 
ATOM     59  C   UNL A   1      43.517  25.736  25.870  1.00  0.00     0.041 A 
ATOM     60  F   UNL A   1      43.677  27.795  26.972  1.00  0.00    -0.206 F 
ATOM     61  C   UNL A   1      43.048  24.427  25.817  1.00  0.00     0.022 A 
BRANCH  58  62
ATOM     62  S   UNL A   1      41.729  22.229  26.915  1.00  0.00     0.124 S 
ATOM     63  O   UNL A   1      42.608  21.791  27.997  1.00  0.00    -0.237 OA
ATOM     64  O   UNL A   1      40.304  22.266  27.222  1.00  0.00    -0.237 OA
ATOM     65  O   UNL A   1      42.071  21.702  25.595  1.00  0.00    -0.744 OA
ENDBRANCH  58  62
ENDBRANCH  41  55
BRANCH  42  66
ATOM     66  C   UNL A   1      39.225  32.103  35.420  1.00  0.00     0.023 A 
ATOM     67  C   UNL A   1      39.706  33.404  35.635  1.00  0.00     0.031 A 
ATOM     68  C   UNL A   1      38.271  31.594  36.322  1.00  0.00     0.131 A 
ATOM     69  C   UNL A   1      39.251  34.142  36.739  1.00  0.00     0.055 A 
ATOM     70  C   UNL A   1      37.783  32.352  37.385  1.00  0.00     0.041 A 
ATOM     71  F   UNL A   1      37.780  30.355  36.162  1.00  0.00    -0.206 F 
ATOM     72  C   UNL A   1      38.279  33.632  37.605  1.00  0.00     0.022 A 
BRANCH  69  73
ATOM     73  S   UNL A   1      39.994  35.763  37.067  1.00  0.00     0.124 S 
ATOM     74  O   UNL A   1      39.654  36.498  35.854  1.00  0.00    -0.237 OA
ATOM     75  O   UNL A   1      39.299  36.175  38.284  1.00  0.00    -0.237 OA
ATOM     76  O   UNL A   1      41.413  35.459  37.238  1.00  0.00    -0.744 OA
ENDBRANCH  69  73
ENDBRANCH  42  66
BRANCH  54  77
ATOM     77  C   UNL A   1      44.670  27.815  34.523  1.00  0.00     0.023 A 
ATOM     78  C   UNL A   1      44.551  26.880  35.567  1.00  0.00     0.031 A 
ATOM     79  C   UNL A   1      45.919  28.432  34.330  1.00  0.00     0.131 A 
ATOM     80  C   UNL A   1      45.643  26.635  36.414  1.00  0.00     0.055 A 
ATOM     81  C   UNL A   1      47.021  28.132  35.130  1.00  0.00     0.041 A 
ATOM     82  F   UNL A   1      46.089  29.338  33.353  1.00  0.00    -0.206 F 
ATOM     83  C   UNL A   1      46.884  27.238  36.189  1.00  0.00     0.022 A 
BRANCH  80  84
ATOM     84  S   UNL A   1      45.393  25.598  37.881  1.00  0.00     0.124 S 
ATOM     85  O   UNL A   1      43.991  25.217  37.744  1.00  0.00    -0.237 OA
ATOM     86  O   UNL A   1      46.367  24.531  37.680  1.00  0.00    -0.237 OA
ATOM     87  O   UNL A   1      45.684  26.502  38.993  1.00  0.00    -0.744 OA
ENDBRANCH  80  84
ENDBRANCH  54  77
ENDBRANCH  28  29
ENDBRANCH  21  23
ENDBRANCH  20  21
ENDBRANCH  19  20
ENDBRANCH   1  19
TORSDOF 17
ENDMDL
MODEL 2
REMARK VINA RESULT:     -10.8      4.683     10.488
REMARK SMILES O=C(CCC(=O)OCCOC(=O)c1ccc(-c2c3nc(c(-c4cc(S(=O)(=O)[O-])ccc4F)c4ccc([nH]4)c(-c4cc(S(=O)(=O)[O-])ccc4F)c4nc(c(-c5cc(S(=O)(=O)[O-])ccc5F)c5ccc2[nH]5)C=C4)C=C3)cc1)Nc1cc(Cl)cc(Cl)c1
REMARK SMILES IDX 8 1 7 2 5 3 6 4 4 5 3 6 2 7 1 8 76 9 77 11 78 12 84 13 79 14
REMARK SMILES IDX 82 15 80 16 81 17 83 18 9 19 10 20 11 21 12 22 13 23 14 24
REMARK SMILES IDX 75 25 15 26 74 27 16 28 17 29 18 30 68 31 19 32 73 33 67 34
REMARK SMILES IDX 69 35 20 36 72 37 66 38 65 39 21 41 53 42 33 43 52 44 34 45
REMARK SMILES IDX 37 46 51 47 70 48 35 49 36 50 50 52 71 53 38 54 22 55 23 56
REMARK SMILES IDX 31 57 24 58 30 59 32 60 29 61 25 62 26 63 27 64 28 65 54 66
REMARK SMILES IDX 55 67 63 68 56 69 62 70 64 71 61 72 57 73 58 74 59 75 60 76
REMARK SMILES IDX 39 77 40 78 48 79 41 80 47 81 49 82 46 83 42 84 43 85 44 86
REMARK SMILES IDX 45 87
REMARK H PARENT 76 10 69 40 37 51
REMARK Flexibility Score: inf
ROOT
ATOM      1  C   UNL A   1      33.992  34.138  29.175  1.00  0.00     0.274 C 
ENDROOT
BRANCH   1   2
ATOM      2  O   UNL A   1      32.807  34.779  29.708  1.00  0.00    -0.462 OA
BRANCH   2   3
ATOM      3  C   UNL A   1      32.811  36.135  29.809  1.00  0.00     0.306 C 
ATOM      4  O   UNL A   1      32.820  36.895  28.851  1.00  0.00    -0.252 OA
BRANCH   3   5
ATOM      5  C   UNL A   1      32.899  36.613  31.251  1.00  0.00     0.132 C 
BRANCH   5   6
ATOM      6  C   UNL A   1      32.967  35.536  32.337  1.00  0.00     0.112 C 
BRANCH   6   7
ATOM      7  C   UNL A   1      34.214  35.629  33.206  1.00  0.00     0.224 C 
ATOM      8  O   UNL A   1      34.476  36.638  33.854  1.00  0.00    -0.275 OA
ATOM      9  N   UNL A   1      35.008  34.508  33.120  1.00  0.00    -0.326 N 
ATOM     10  H   UNL A   1      34.650  33.761  32.587  1.00  0.00     0.169 HD
BRANCH   9  11
ATOM     11  C   UNL A   1      36.265  34.303  33.701  1.00  0.00     0.044 A 
ATOM     12  C   UNL A   1      36.278  33.863  35.030  1.00  0.00     0.046 A 
ATOM     13  C   UNL A   1      37.467  34.522  33.032  1.00  0.00     0.046 A 
ATOM     14  C   UNL A   1      37.486  33.608  35.671  1.00  0.00     0.044 A 
ATOM     15  C   UNL A   1      38.672  34.308  33.704  1.00  0.00     0.044 A 
ATOM     16  Cl  UNL A   1      37.479  32.987  37.276  1.00  0.00    -0.084 Cl
ATOM     17  C   UNL A   1      38.690  33.839  35.017  1.00  0.00     0.041 A 
ATOM     18  Cl  UNL A   1      40.164  34.640  32.912  1.00  0.00    -0.084 Cl
ENDBRANCH   9  11
ENDBRANCH   6   7
ENDBRANCH   5   6
ENDBRANCH   3   5
ENDBRANCH   2   3
ENDBRANCH   1   2
BRANCH   1  19
ATOM     19  C   UNL A   1      33.670  33.371  27.890  1.00  0.00     0.275 C 
BRANCH  19  20
ATOM     20  O   UNL A   1      34.760  32.506  27.538  1.00  0.00    -0.458 OA
BRANCH  20  21
ATOM     21  C   UNL A   1      34.554  31.195  27.811  1.00  0.00     0.338 C 
ATOM     22  O   UNL A   1      33.577  30.538  27.510  1.00  0.00    -0.246 OA
BRANCH  21  23
ATOM     23  C   UNL A   1      35.790  30.631  28.372  1.00  0.00     0.060 A 
ATOM     24  C   UNL A   1      37.016  31.037  27.836  1.00  0.00     0.016 A 
ATOM     25  C   UNL A   1      35.738  29.701  29.409  1.00  0.00     0.016 A 
ATOM     26  C   UNL A   1      38.202  30.518  28.344  1.00  0.00     0.010 A 
ATOM     27  C   UNL A   1      36.929  29.188  29.923  1.00  0.00     0.010 A 
ATOM     28  C   UNL A   1      38.168  29.591  29.393  1.00  0.00    -0.014 A 
BRANCH  28  29
ATOM     29  C   UNL A   1      39.429  29.019  29.920  1.00  0.00     0.031 A 
ATOM     30  C   UNL A   1      40.060  29.613  31.145  1.00  0.00     0.074 A 
ATOM     31  C   UNL A   1      40.005  27.978  29.291  1.00  0.00     0.049 A 
ATOM     32  N   UNL A   1      41.207  29.333  31.707  1.00  0.00    -0.248 NA
ATOM     33  C   UNL A   1      39.300  30.677  31.815  1.00  0.00     0.031 C 
ATOM     34  C   UNL A   1      39.460  27.304  28.111  1.00  0.00     0.029 A 
ATOM     35  N   UNL A   1      41.177  27.315  29.544  1.00  0.00    -0.354 N 
ATOM     36  C   UNL A   1      41.316  30.196  32.791  1.00  0.00     0.074 A 
ATOM     37  C   UNL A   1      40.137  31.038  32.776  1.00  0.00     0.031 C 
ATOM     38  C   UNL A   1      40.299  26.323  27.744  1.00  0.00     0.029 A 
ATOM     39  C   UNL A   1      41.465  26.339  28.621  1.00  0.00     0.049 A 
ATOM     40  H   UNL A   1      41.757  27.518  30.314  1.00  0.00     0.167 HD
ATOM     41  C   UNL A   1      42.307  30.269  33.716  1.00  0.00     0.034 A 
ATOM     42  C   UNL A   1      42.564  25.573  28.472  1.00  0.00     0.034 A 
ATOM     43  C   UNL A   1      43.480  29.426  33.694  1.00  0.00     0.049 A 
ATOM     44  C   UNL A   1      43.694  25.730  29.456  1.00  0.00     0.074 A 
ATOM     45  C   UNL A   1      44.538  29.396  34.586  1.00  0.00     0.029 A 
ATOM     46  N   UNL A   1      43.761  28.476  32.719  1.00  0.00    -0.354 N 
ATOM     47  N   UNL A   1      43.788  26.543  30.484  1.00  0.00    -0.248 NA
ATOM     48  C   UNL A   1      44.864  24.866  29.261  1.00  0.00     0.031 C 
ATOM     49  C   UNL A   1      45.494  28.496  34.103  1.00  0.00     0.029 A 
ATOM     50  C   UNL A   1      44.995  27.888  32.962  1.00  0.00     0.049 A 
ATOM     51  H   UNL A   1      43.170  28.251  31.964  1.00  0.00     0.167 HD
ATOM     52  C   UNL A   1      45.020  26.272  31.073  1.00  0.00     0.074 A 
ATOM     53  C   UNL A   1      45.623  25.209  30.292  1.00  0.00     0.031 C 
ATOM     54  C   UNL A   1      45.598  26.846  32.160  1.00  0.00     0.034 A 
BRANCH  41  55
ATOM     55  C   UNL A   1      42.183  31.341  34.776  1.00  0.00     0.023 A 
ATOM     56  C   UNL A   1      42.733  32.623  34.603  1.00  0.00     0.031 A 
ATOM     57  C   UNL A   1      41.562  31.057  36.006  1.00  0.00     0.131 A 
ATOM     58  C   UNL A   1      42.743  33.532  35.672  1.00  0.00     0.055 A 
ATOM     59  C   UNL A   1      41.489  32.002  37.032  1.00  0.00     0.041 A 
ATOM     60  F   UNL A   1      41.038  29.843  36.244  1.00  0.00    -0.206 F 
ATOM     61  C   UNL A   1      42.101  33.241  36.876  1.00  0.00     0.022 A 
BRANCH  58  62
ATOM     62  S   UNL A   1      43.776  35.017  35.530  1.00  0.00     0.124 S 
ATOM     63  O   UNL A   1      43.507  35.686  36.801  1.00  0.00    -0.237 OA
ATOM     64  O   UNL A   1      45.114  34.458  35.372  1.00  0.00    -0.237 OA
ATOM     65  O   UNL A   1      43.240  35.698  34.353  1.00  0.00    -0.744 OA
ENDBRANCH  58  62
ENDBRANCH  41  55
BRANCH  42  66
ATOM     66  C   UNL A   1      42.663  24.629  27.322  1.00  0.00     0.023 A 
ATOM     67  C   UNL A   1      42.122  23.337  27.389  1.00  0.00     0.031 A 
ATOM     68  C   UNL A   1      43.312  25.012  26.133  1.00  0.00     0.131 A 
ATOM     69  C   UNL A   1      42.261  22.464  26.299  1.00  0.00     0.055 A 
ATOM     70  C   UNL A   1      43.401  24.160  25.033  1.00  0.00     0.041 A 
ATOM     71  F   UNL A   1      43.849  26.238  26.017  1.00  0.00    -0.206 F 
ATOM     72  C   UNL A   1      42.881  22.873  25.115  1.00  0.00     0.022 A 
BRANCH  69  73
ATOM     73  S   UNL A   1      41.675  20.757  26.470  1.00  0.00     0.124 S 
ATOM     74  O   UNL A   1      40.249  20.904  26.200  1.00  0.00    -0.237 OA
ATOM     75  O   UNL A   1      42.454  20.064  25.448  1.00  0.00    -0.237 OA
ATOM     76  O   UNL A   1      42.019  20.415  27.848  1.00  0.00    -0.744 OA
ENDBRANCH  69  73
ENDBRANCH  42  66
BRANCH  54  77
ATOM     77  C   UNL A   1      46.944  26.304  32.586  1.00  0.00     0.023 A 
ATOM     78  C   UNL A   1      48.148  26.862  32.123  1.00  0.00     0.031 A 
ATOM     79  C   UNL A   1      47.020  25.204  33.459  1.00  0.00     0.131 A 
ATOM     80  C   UNL A   1      49.373  26.282  32.486  1.00  0.00     0.055 A 
ATOM     81  C   UNL A   1      48.242  24.676  33.873  1.00  0.00     0.041 A 
ATOM     82  F   UNL A   1      45.902  24.625  33.928  1.00  0.00    -0.206 F 
ATOM     83  C   UNL A   1      49.429  25.206  33.376  1.00  0.00     0.022 A 
BRANCH  80  84
ATOM     84  S   UNL A   1      50.891  26.883  31.696  1.00  0.00     0.124 S 
ATOM     85  O   UNL A   1      51.461  25.650  31.163  1.00  0.00    -0.237 OA
ATOM     86  O   UNL A   1      50.377  27.827  30.709  1.00  0.00    -0.237 OA
ATOM     87  O   UNL A   1      51.637  27.484  32.799  1.00  0.00    -0.744 OA
ENDBRANCH  80  84
ENDBRANCH  54  77
ENDBRANCH  28  29
ENDBRANCH  21  23
ENDBRANCH  20  21
ENDBRANCH  19  20
ENDBRANCH   1  19
TORSDOF 17
ENDMDL
MODEL 3
REMARK VINA RESULT:     -10.7      4.352     10.221
REMARK SMILES O=C(CCC(=O)OCCOC(=O)c1ccc(-c2c3nc(c(-c4cc(S(=O)(=O)[O-])ccc4F)c4ccc([nH]4)c(-c4cc(S(=O)(=O)[O-])ccc4F)c4nc(c(-c5cc(S(=O)(=O)[O-])ccc5F)c5ccc2[nH]5)C=C4)C=C3)cc1)Nc1cc(Cl)cc(Cl)c1
REMARK SMILES IDX 8 1 7 2 5 3 6 4 4 5 3 6 2 7 1 8 76 9 77 11 78 12 84 13 79 14
REMARK SMILES IDX 82 15 80 16 81 17 83 18 9 19 10 20 11 21 12 22 13 23 14 24
REMARK SMILES IDX 75 25 15 26 74 27 16 28 17 29 18 30 68 31 19 32 73 33 67 34
REMARK SMILES IDX 69 35 20 36 72 37 66 38 65 39 21 41 53 42 33 43 52 44 34 45
REMARK SMILES IDX 37 46 51 47 70 48 35 49 36 50 50 52 71 53 38 54 22 55 23 56
REMARK SMILES IDX 31 57 24 58 30 59 32 60 29 61 25 62 26 63 27 64 28 65 54 66
REMARK SMILES IDX 55 67 63 68 56 69 62 70 64 71 61 72 57 73 58 74 59 75 60 76
REMARK SMILES IDX 39 77 40 78 48 79 41 80 47 81 49 82 46 83 42 84 43 85 44 86
REMARK SMILES IDX 45 87
REMARK H PARENT 76 10 69 40 37 51
REMARK Flexibility Score: inf
ROOT
ATOM      1  C   UNL A   1      33.911  34.108  29.366  1.00  0.00     0.274 C 
ENDROOT
BRANCH   1   2
ATOM      2  O   UNL A   1      32.737  34.903  29.668  1.00  0.00    -0.462 OA
BRANCH   2   3
ATOM      3  C   UNL A   1      32.915  36.230  29.906  1.00  0.00     0.306 C 
ATOM      4  O   UNL A   1      33.060  37.071  29.030  1.00  0.00    -0.252 OA
BRANCH   3   5
ATOM      5  C   UNL A   1      33.007  36.550  31.391  1.00  0.00     0.132 C 
BRANCH   5   6
ATOM      6  C   UNL A   1      32.512  35.478  32.365  1.00  0.00     0.112 C 
BRANCH   6   7
ATOM      7  C   UNL A   1      33.622  34.581  32.896  1.00  0.00     0.224 C 
ATOM      8  O   UNL A   1      33.412  33.414  33.213  1.00  0.00    -0.275 OA
ATOM      9  N   UNL A   1      34.822  35.241  33.031  1.00  0.00    -0.326 N 
ATOM     10  H   UNL A   1      34.848  36.168  32.701  1.00  0.00     0.169 HD
BRANCH   9  11
ATOM     11  C   UNL A   1      36.012  34.749  33.582  1.00  0.00     0.044 A 
ATOM     12  C   UNL A   1      37.146  34.789  32.762  1.00  0.00     0.046 A 
ATOM     13  C   UNL A   1      36.106  34.229  34.870  1.00  0.00     0.046 A 
ATOM     14  C   UNL A   1      38.373  34.346  33.244  1.00  0.00     0.044 A 
ATOM     15  C   UNL A   1      37.334  33.744  35.324  1.00  0.00     0.044 A 
ATOM     16  Cl  UNL A   1      39.773  34.482  32.252  1.00  0.00    -0.084 Cl
ATOM     17  C   UNL A   1      38.474  33.811  34.523  1.00  0.00     0.041 A 
ATOM     18  Cl  UNL A   1      37.450  33.037  36.889  1.00  0.00    -0.084 Cl
ENDBRANCH   9  11
ENDBRANCH   6   7
ENDBRANCH   5   6
ENDBRANCH   3   5
ENDBRANCH   2   3
ENDBRANCH   1   2
BRANCH   1  19
ATOM     19  C   UNL A   1      34.115  33.984  27.854  1.00  0.00     0.275 C 
BRANCH  19  20
ATOM     20  O   UNL A   1      35.157  33.041  27.567  1.00  0.00    -0.458 OA
BRANCH  20  21
ATOM     21  C   UNL A   1      34.838  31.749  27.822  1.00  0.00     0.338 C 
ATOM     22  O   UNL A   1      33.815  31.179  27.499  1.00  0.00    -0.246 OA
BRANCH  21  23
ATOM     23  C   UNL A   1      36.014  31.079  28.395  1.00  0.00     0.060 A 
ATOM     24  C   UNL A   1      37.247  31.738  28.356  1.00  0.00     0.016 A 
ATOM     25  C   UNL A   1      35.903  29.806  28.953  1.00  0.00     0.016 A 
ATOM     26  C   UNL A   1      38.378  31.127  28.887  1.00  0.00     0.010 A 
ATOM     27  C   UNL A   1      37.037  29.198  29.493  1.00  0.00     0.010 A 
ATOM     28  C   UNL A   1      38.282  29.853  29.462  1.00  0.00    -0.014 A 
BRANCH  28  29
ATOM     29  C   UNL A   1      39.490  29.191  30.007  1.00  0.00     0.031 A 
ATOM     30  C   UNL A   1      40.148  29.742  31.237  1.00  0.00     0.074 A 
ATOM     31  C   UNL A   1      39.992  28.107  29.389  1.00  0.00     0.049 A 
ATOM     32  N   UNL A   1      41.264  29.379  31.814  1.00  0.00    -0.248 NA
ATOM     33  C   UNL A   1      39.463  30.864  31.892  1.00  0.00     0.031 C 
ATOM     34  C   UNL A   1      39.413  27.469  28.206  1.00  0.00     0.029 A 
ATOM     35  N   UNL A   1      41.108  27.358  29.660  1.00  0.00    -0.354 N 
ATOM     36  C   UNL A   1      41.426  30.238  32.896  1.00  0.00     0.074 A 
ATOM     37  C   UNL A   1      40.313  31.166  32.862  1.00  0.00     0.031 C 
ATOM     38  C   UNL A   1      40.179  26.425  27.853  1.00  0.00     0.029 A 
ATOM     39  C   UNL A   1      41.333  26.358  28.744  1.00  0.00     0.049 A 
ATOM     40  H   UNL A   1      41.692  27.521  30.436  1.00  0.00     0.167 HD
ATOM     41  C   UNL A   1      42.408  30.241  33.832  1.00  0.00     0.034 A 
ATOM     42  C   UNL A   1      42.373  25.510  28.613  1.00  0.00     0.034 A 
ATOM     43  C   UNL A   1      43.514  29.312  33.829  1.00  0.00     0.049 A 
ATOM     44  C   UNL A   1      43.500  25.587  29.610  1.00  0.00     0.074 A 
ATOM     45  C   UNL A   1      44.556  29.207  34.734  1.00  0.00     0.029 A 
ATOM     46  N   UNL A   1      43.734  28.338  32.861  1.00  0.00    -0.354 N 
ATOM     47  N   UNL A   1      43.642  26.397  30.636  1.00  0.00    -0.248 NA
ATOM     48  C   UNL A   1      44.603  24.637  29.433  1.00  0.00     0.031 C 
ATOM     49  C   UNL A   1      45.447  28.234  34.267  1.00  0.00     0.029 A 
ATOM     50  C   UNL A   1      44.917  27.660  33.122  1.00  0.00     0.049 A 
ATOM     51  H   UNL A   1      43.137  28.155  32.100  1.00  0.00     0.167 HD
ATOM     52  C   UNL A   1      44.843  26.037  31.240  1.00  0.00     0.074 A 
ATOM     53  C   UNL A   1      45.373  24.927  30.472  1.00  0.00     0.031 C 
ATOM     54  C   UNL A   1      45.450  26.571  32.332  1.00  0.00     0.034 A 
BRANCH  41  55
ATOM     55  C   UNL A   1      42.352  31.324  34.886  1.00  0.00     0.023 A 
ATOM     56  C   UNL A   1      42.781  32.638  34.624  1.00  0.00     0.031 A 
ATOM     57  C   UNL A   1      41.925  31.025  36.192  1.00  0.00     0.131 A 
ATOM     58  C   UNL A   1      42.871  33.569  35.669  1.00  0.00     0.055 A 
ATOM     59  C   UNL A   1      41.924  31.986  37.207  1.00  0.00     0.041 A 
ATOM     60  F   UNL A   1      41.526  29.785  36.515  1.00  0.00    -0.206 F 
ATOM     61  C   UNL A   1      42.420  33.261  36.954  1.00  0.00     0.022 A 
BRANCH  58  62
ATOM     62  S   UNL A   1      43.767  35.118  35.370  1.00  0.00     0.124 S 
ATOM     63  O   UNL A   1      43.029  36.054  36.215  1.00  0.00    -0.237 OA
ATOM     64  O   UNL A   1      45.120  34.790  35.808  1.00  0.00    -0.237 OA
ATOM     65  O   UNL A   1      43.610  35.333  33.933  1.00  0.00    -0.744 OA
ENDBRANCH  58  62
ENDBRANCH  41  55
BRANCH  42  66
ATOM     66  C   UNL A   1      42.414  24.556  27.469  1.00  0.00     0.023 A 
ATOM     67  C   UNL A   1      41.639  23.386  27.465  1.00  0.00     0.031 A 
ATOM     68  C   UNL A   1      43.242  24.803  26.357  1.00  0.00     0.131 A 
ATOM     69  C   UNL A   1      41.727  22.494  26.385  1.00  0.00     0.055 A 
ATOM     70  C   UNL A   1      43.285  23.941  25.262  1.00  0.00     0.041 A 
ATOM     71  F   UNL A   1      44.004  25.908  26.311  1.00  0.00    -0.206 F 
ATOM     72  C   UNL A   1      42.531  22.772  25.275  1.00  0.00     0.022 A 
BRANCH  69  73
ATOM     73  S   UNL A   1      40.822  20.926  26.474  1.00  0.00     0.124 S 
ATOM     74  O   UNL A   1      41.655  20.055  25.654  1.00  0.00    -0.237 OA
ATOM     75  O   UNL A   1      40.825  20.655  27.909  1.00  0.00    -0.237 OA
ATOM     76  O   UNL A   1      39.515  21.255  25.910  1.00  0.00    -0.744 OA
ENDBRANCH  69  73
ENDBRANCH  42  66
BRANCH  54  77
ATOM     77  C   UNL A   1      46.745  25.932  32.777  1.00  0.00     0.023 A 
ATOM     78  C   UNL A   1      46.768  24.851  33.676  1.00  0.00     0.031 A 
ATOM     79  C   UNL A   1      47.976  26.422  32.304  1.00  0.00     0.131 A 
ATOM     80  C   UNL A   1      47.996  24.336  34.119  1.00  0.00     0.055 A 
ATOM     81  C   UNL A   1      49.191  25.860  32.694  1.00  0.00     0.041 A 
ATOM     82  F   UNL A   1      48.016  27.457  31.449  1.00  0.00    -0.206 F 
ATOM     83  C   UNL A   1      49.208  24.819  33.617  1.00  0.00     0.022 A 
BRANCH  80  84
ATOM     84  S   UNL A   1      47.994  23.097  35.445  1.00  0.00     0.124 S 
ATOM     85  O   UNL A   1      47.365  21.956  34.788  1.00  0.00    -0.237 OA
ATOM     86  O   UNL A   1      49.415  22.957  35.744  1.00  0.00    -0.237 OA
ATOM     87  O   UNL A   1      47.197  23.723  36.498  1.00  0.00    -0.744 OA
ENDBRANCH  80  84
ENDBRANCH  54  77
ENDBRANCH  28  29
ENDBRANCH  21  23
ENDBRANCH  20  21
ENDBRANCH  19  20
ENDBRANCH   1  19
TORSDOF 17
ENDMDL
