MODEL 1
REMARK VINA RESULT:     -12.7      0.000      0.000
REMARK SMILES C[C@H]1CCc2sc3ncn4nc(/C=C\C(=O)OCCOC(=O)c5ccc(-c6c7nc(c(-c8cc(S(=O)(=O)[O-])ccc8F)c8ccc([nH]8)c(-c8cc(S(=O)(=O)[O-])ccc8F)c8nc(c(-c9cc(S(=O)(=O)[O-])ccc9F)c9ccc6[nH]9)C=C8)C=C7)cc5)nc4c3c2C1
REMARK SMILES IDX 19 1 18 2 17 3 15 4 16 5 14 6 13 7 12 8 1 9 2 10 3 11 90 12
REMARK SMILES IDX 4 13 89 14 5 15 88 16 6 17 7 18 87 19 8 20 10 21 86 22 9 23
REMARK SMILES IDX 11 24 20 25 21 26 22 27 23 28 24 29 85 30 25 31 84 32 26 33
REMARK SMILES IDX 27 34 28 35 78 36 29 37 83 38 77 39 79 40 30 41 82 42 76 43
REMARK SMILES IDX 75 44 31 46 63 47 43 48 62 49 44 50 47 51 61 52 80 53 45 54
REMARK SMILES IDX 46 55 60 57 81 58 48 59 32 60 33 61 41 62 34 63 40 64 42 65
REMARK SMILES IDX 39 66 35 67 36 68 37 69 38 70 64 71 65 72 73 73 66 74 72 75
REMARK SMILES IDX 74 76 71 77 67 78 68 79 69 80 70 81 49 82 50 83 58 84 51 85
REMARK SMILES IDX 57 86 59 87 56 88 52 89 53 90 54 91 55 92
REMARK H PARENT 79 45 47 56
REMARK Flexibility Score: inf
ROOT
ATOM      1  C   UNL A   1      35.331  29.536  27.267  1.00  0.00     0.275 C 
ENDROOT
BRANCH   1   2
ATOM      2  C   UNL A   1      34.306  30.580  27.618  1.00  0.00     0.275 C 
BRANCH   2   3
ATOM      3  O   UNL A   1      33.328  30.616  26.601  1.00  0.00    -0.459 OA
BRANCH   3   4
ATOM      4  C   UNL A   1      32.322  29.752  26.671  1.00  0.00     0.331 C 
ATOM      5  O   UNL A   1      31.837  29.238  27.670  1.00  0.00    -0.247 OA
BRANCH   4   6
ATOM      6  C   UNL A   1      31.848  29.530  25.304  1.00  0.00     0.097 C 
ATOM      7  C   UNL A   1      31.641  28.325  24.744  1.00  0.00     0.058 C 
BRANCH   7   8
ATOM      8  C   UNL A   1      31.774  26.988  25.265  1.00  0.00     0.175 A 
ATOM      9  C   UNL A   1      37.974  23.961  26.319  1.00  0.00     0.008 C 
ATOM     10  C   UNL A   1      37.222  23.583  25.041  1.00  0.00    -0.009 C 
ATOM     11  C   UNL A   1      37.148  22.072  24.786  1.00  0.00     0.009 C 
ATOM     12  C   UNL A   1      35.824  24.208  25.045  1.00  0.00     0.041 C 
ATOM     13  C   UNL A   1      36.201  21.328  25.748  1.00  0.00     0.047 C 
ATOM     14  C   UNL A   1      34.732  23.417  25.659  1.00  0.00    -0.020 A 
ATOM     15  C   UNL A   1      34.916  22.081  25.951  1.00  0.00     0.011 A 
ATOM     16  C   UNL A   1      33.394  23.830  25.928  1.00  0.00     0.060 A 
ATOM     17  S   UNL A   1      33.511  21.360  26.593  1.00  0.00    -0.120 S 
ATOM     18  C   UNL A   1      32.600  22.806  26.430  1.00  0.00     0.129 A 
ATOM     19  C   UNL A   1      32.649  25.108  25.737  1.00  0.00     0.168 A 
ATOM     20  N   UNL A   1      31.262  22.853  26.756  1.00  0.00    -0.225 NA
ATOM     21  N   UNL A   1      31.315  25.096  26.007  1.00  0.00    -0.201 N 
ATOM     22  N   UNL A   1      32.985  26.314  25.347  1.00  0.00    -0.207 NA
ATOM     23  C   UNL A   1      30.650  23.986  26.520  1.00  0.00     0.227 A 
ATOM     24  N   UNL A   1      30.730  26.277  25.732  1.00  0.00    -0.145 NA
ENDBRANCH   7   8
ENDBRANCH   4   6
ENDBRANCH   3   4
ENDBRANCH   2   3
ENDBRANCH   1   2
BRANCH   1  25
ATOM     25  O   UNL A   1      36.555  30.056  27.722  1.00  0.00    -0.458 OA
BRANCH  25  26
ATOM     26  C   UNL A   1      37.074  29.427  28.796  1.00  0.00     0.338 C 
ATOM     27  O   UNL A   1      36.850  29.599  29.980  1.00  0.00    -0.246 OA
BRANCH  26  28
ATOM     28  C   UNL A   1      38.187  28.648  28.289  1.00  0.00     0.060 A 
ATOM     29  C   UNL A   1      38.623  27.632  29.134  1.00  0.00     0.016 A 
ATOM     30  C   UNL A   1      38.986  29.243  27.296  1.00  0.00     0.016 A 
ATOM     31  C   UNL A   1      39.966  27.395  29.163  1.00  0.00     0.010 A 
ATOM     32  C   UNL A   1      40.325  29.035  27.355  1.00  0.00     0.010 A 
ATOM     33  C   UNL A   1      40.790  28.173  28.338  1.00  0.00    -0.014 A 
BRANCH  33  34
ATOM     34  C   UNL A   1      42.188  27.873  28.310  1.00  0.00     0.031 A 
ATOM     35  C   UNL A   1      42.398  26.615  27.572  1.00  0.00     0.074 A 
ATOM     36  C   UNL A   1      43.117  28.712  28.788  1.00  0.00     0.049 A 
ATOM     37  N   UNL A   1      42.559  25.456  28.111  1.00  0.00    -0.248 NA
ATOM     38  C   UNL A   1      42.039  26.563  26.142  1.00  0.00     0.031 C 
ATOM     39  C   UNL A   1      42.979  30.063  29.324  1.00  0.00     0.029 A 
ATOM     40  N   UNL A   1      44.451  28.508  28.812  1.00  0.00    -0.354 N 
ATOM     41  C   UNL A   1      42.626  24.575  27.049  1.00  0.00     0.074 A 
ATOM     42  C   UNL A   1      42.016  25.245  25.936  1.00  0.00     0.031 C 
ATOM     43  C   UNL A   1      44.207  30.632  29.405  1.00  0.00     0.029 A 
ATOM     44  C   UNL A   1      45.212  29.643  29.050  1.00  0.00     0.049 A 
ATOM     45  H   UNL A   1      44.852  27.621  28.671  1.00  0.00     0.167 HD
ATOM     46  C   UNL A   1      43.473  23.517  27.105  1.00  0.00     0.034 A 
ATOM     47  C   UNL A   1      46.560  29.725  28.869  1.00  0.00     0.034 A 
ATOM     48  C   UNL A   1      43.906  23.283  28.467  1.00  0.00     0.049 A 
ATOM     49  C   UNL A   1      47.064  28.320  28.971  1.00  0.00     0.074 A 
ATOM     50  C   UNL A   1      43.239  22.996  29.644  1.00  0.00     0.029 A 
ATOM     51  N   UNL A   1      45.130  23.799  28.843  1.00  0.00    -0.354 N 
ATOM     52  N   UNL A   1      46.969  27.620  30.075  1.00  0.00    -0.248 NA
ATOM     53  C   UNL A   1      47.133  27.524  27.749  1.00  0.00     0.031 C 
ATOM     54  C   UNL A   1      43.880  23.795  30.635  1.00  0.00     0.029 A 
ATOM     55  C   UNL A   1      44.968  24.447  30.046  1.00  0.00     0.049 A 
ATOM     56  H   UNL A   1      45.972  23.719  28.339  1.00  0.00     0.167 HD
ATOM     57  C   UNL A   1      46.541  26.359  29.678  1.00  0.00     0.074 A 
ATOM     58  C   UNL A   1      46.731  26.336  28.225  1.00  0.00     0.031 C 
ATOM     59  C   UNL A   1      45.774  25.572  30.494  1.00  0.00     0.034 A 
BRANCH  46  60
ATOM     60  C   UNL A   1      44.216  22.981  25.912  1.00  0.00     0.023 A 
ATOM     61  C   UNL A   1      43.984  21.639  25.579  1.00  0.00     0.031 A 
ATOM     62  C   UNL A   1      45.317  23.601  25.273  1.00  0.00     0.131 A 
ATOM     63  C   UNL A   1      44.864  20.951  24.732  1.00  0.00     0.055 A 
ATOM     64  C   UNL A   1      46.154  22.928  24.384  1.00  0.00     0.041 A 
ATOM     65  F   UNL A   1      45.709  24.852  25.535  1.00  0.00    -0.206 F 
ATOM     66  C   UNL A   1      45.950  21.585  24.133  1.00  0.00     0.022 A 
BRANCH  63  67
ATOM     67  S   UNL A   1      44.644  19.167  24.547  1.00  0.00     0.124 S 
ATOM     68  O   UNL A   1      44.935  18.979  23.131  1.00  0.00    -0.237 OA
ATOM     69  O   UNL A   1      45.634  18.645  25.484  1.00  0.00    -0.237 OA
ATOM     70  O   UNL A   1      43.251  18.959  24.932  1.00  0.00    -0.744 OA
ENDBRANCH  63  67
ENDBRANCH  46  60
BRANCH  47  71
ATOM     71  C   UNL A   1      47.308  30.857  28.239  1.00  0.00     0.023 A 
ATOM     72  C   UNL A   1      46.695  31.815  27.397  1.00  0.00     0.031 A 
ATOM     73  C   UNL A   1      48.631  31.150  28.650  1.00  0.00     0.131 A 
ATOM     74  C   UNL A   1      47.399  32.983  27.004  1.00  0.00     0.055 A 
ATOM     75  C   UNL A   1      49.319  32.301  28.257  1.00  0.00     0.041 A 
ATOM     76  F   UNL A   1      49.282  30.367  29.523  1.00  0.00    -0.206 F 
ATOM     77  C   UNL A   1      48.702  33.229  27.438  1.00  0.00     0.022 A 
BRANCH  74  78
ATOM     78  S   UNL A   1      46.592  34.268  25.988  1.00  0.00     0.124 S 
ATOM     79  O   UNL A   1      45.502  33.529  25.364  1.00  0.00    -0.237 OA
ATOM     80  O   UNL A   1      46.215  35.266  26.983  1.00  0.00    -0.237 OA
ATOM     81  O   UNL A   1      47.652  34.693  25.071  1.00  0.00    -0.744 OA
ENDBRANCH  74  78
ENDBRANCH  47  71
BRANCH  59  82
ATOM     82  C   UNL A   1      45.588  25.982  31.945  1.00  0.00     0.023 A 
ATOM     83  C   UNL A   1      44.427  26.590  32.482  1.00  0.00     0.031 A 
ATOM     84  C   UNL A   1      46.571  25.545  32.849  1.00  0.00     0.131 A 
ATOM     85  C   UNL A   1      44.290  26.730  33.882  1.00  0.00     0.055 A 
ATOM     86  C   UNL A   1      46.420  25.663  34.229  1.00  0.00     0.041 A 
ATOM     87  F   UNL A   1      47.678  24.928  32.400  1.00  0.00    -0.206 F 
ATOM     88  C   UNL A   1      45.278  26.256  34.751  1.00  0.00     0.022 A 
BRANCH  85  89
ATOM     89  S   UNL A   1      42.801  27.500  34.607  1.00  0.00     0.124 S 
ATOM     90  O   UNL A   1      43.277  27.998  35.893  1.00  0.00    -0.237 OA
ATOM     91  O   UNL A   1      42.446  28.514  33.617  1.00  0.00    -0.237 OA
ATOM     92  O   UNL A   1      41.850  26.389  34.700  1.00  0.00    -0.744 OA
ENDBRANCH  85  89
ENDBRANCH  59  82
ENDBRANCH  33  34
ENDBRANCH  26  28
ENDBRANCH  25  26
ENDBRANCH   1  25
TORSDOF 15
ENDMDL
MODEL 2
REMARK VINA RESULT:     -12.6      2.307      7.154
REMARK SMILES C[C@H]1CCc2sc3ncn4nc(/C=C\C(=O)OCCOC(=O)c5ccc(-c6c7nc(c(-c8cc(S(=O)(=O)[O-])ccc8F)c8ccc([nH]8)c(-c8cc(S(=O)(=O)[O-])ccc8F)c8nc(c(-c9cc(S(=O)(=O)[O-])ccc9F)c9ccc6[nH]9)C=C8)C=C7)cc5)nc4c3c2C1
REMARK SMILES IDX 19 1 18 2 17 3 15 4 16 5 14 6 13 7 12 8 1 9 2 10 3 11 90 12
REMARK SMILES IDX 4 13 89 14 5 15 88 16 6 17 7 18 87 19 8 20 10 21 86 22 9 23
REMARK SMILES IDX 11 24 20 25 21 26 22 27 23 28 24 29 85 30 25 31 84 32 26 33
REMARK SMILES IDX 27 34 28 35 78 36 29 37 83 38 77 39 79 40 30 41 82 42 76 43
REMARK SMILES IDX 75 44 31 46 63 47 43 48 62 49 44 50 47 51 61 52 80 53 45 54
REMARK SMILES IDX 46 55 60 57 81 58 48 59 32 60 33 61 41 62 34 63 40 64 42 65
REMARK SMILES IDX 39 66 35 67 36 68 37 69 38 70 64 71 65 72 73 73 66 74 72 75
REMARK SMILES IDX 74 76 71 77 67 78 68 79 69 80 70 81 49 82 50 83 58 84 51 85
REMARK SMILES IDX 57 86 59 87 56 88 52 89 53 90 54 91 55 92
REMARK H PARENT 79 45 47 56
REMARK Flexibility Score: inf
ROOT
ATOM      1  C   UNL A   1      34.587  32.138  27.869  1.00  0.00     0.275 C 
ENDROOT
BRANCH   1   2
ATOM      2  C   UNL A   1      33.189  31.637  27.630  1.00  0.00     0.275 C 
BRANCH   2   3
ATOM      3  O   UNL A   1      33.250  30.501  26.794  1.00  0.00    -0.459 OA
BRANCH   3   4
ATOM      4  C   UNL A   1      32.177  29.722  26.720  1.00  0.00     0.331 C 
ATOM      5  O   UNL A   1      31.513  29.263  27.639  1.00  0.00    -0.247 OA
BRANCH   4   6
ATOM      6  C   UNL A   1      31.888  29.523  25.298  1.00  0.00     0.097 C 
ATOM      7  C   UNL A   1      31.783  28.326  24.693  1.00  0.00     0.058 C 
BRANCH   7   8
ATOM      8  C   UNL A   1      31.880  26.981  25.199  1.00  0.00     0.175 A 
ATOM      9  C   UNL A   1      37.994  23.749  26.144  1.00  0.00     0.008 C 
ATOM     10  C   UNL A   1      37.213  23.408  24.872  1.00  0.00    -0.009 C 
ATOM     11  C   UNL A   1      37.089  21.903  24.605  1.00  0.00     0.009 C 
ATOM     12  C   UNL A   1      35.836  24.077  24.901  1.00  0.00     0.041 C 
ATOM     13  C   UNL A   1      36.131  21.179  25.571  1.00  0.00     0.047 C 
ATOM     14  C   UNL A   1      34.728  23.314  25.522  1.00  0.00    -0.020 A 
ATOM     15  C   UNL A   1      34.873  21.971  25.799  1.00  0.00     0.011 A 
ATOM     16  C   UNL A   1      33.407  23.766  25.812  1.00  0.00     0.060 A 
ATOM     17  S   UNL A   1      33.454  21.288  26.452  1.00  0.00    -0.120 S 
ATOM     18  C   UNL A   1      32.587  22.763  26.314  1.00  0.00     0.129 A 
ATOM     19  C   UNL A   1      32.701  25.070  25.643  1.00  0.00     0.168 A 
ATOM     20  N   UNL A   1      31.256  22.849  26.659  1.00  0.00    -0.225 NA
ATOM     21  N   UNL A   1      31.371  25.098  25.929  1.00  0.00    -0.201 N 
ATOM     22  N   UNL A   1      33.070  26.268  25.259  1.00  0.00    -0.207 NA
ATOM     23  C   UNL A   1      30.678  24.004  26.441  1.00  0.00     0.227 A 
ATOM     24  N   UNL A   1      30.820  26.298  25.673  1.00  0.00    -0.145 NA
ENDBRANCH   7   8
ENDBRANCH   4   6
ENDBRANCH   3   4
ENDBRANCH   2   3
ENDBRANCH   1   2
BRANCH   1  25
ATOM     25  O   UNL A   1      35.154  31.227  28.778  1.00  0.00    -0.458 OA
BRANCH  25  26
ATOM     26  C   UNL A   1      36.135  31.735  29.551  1.00  0.00     0.338 C 
ATOM     27  O   UNL A   1      36.100  32.655  30.347  1.00  0.00    -0.246 OA
BRANCH  26  28
ATOM     28  C   UNL A   1      37.362  31.137  29.061  1.00  0.00     0.060 A 
ATOM     29  C   UNL A   1      37.227  29.840  28.575  1.00  0.00     0.016 A 
ATOM     30  C   UNL A   1      38.572  31.680  29.530  1.00  0.00     0.016 A 
ATOM     31  C   UNL A   1      38.264  28.987  28.814  1.00  0.00     0.010 A 
ATOM     32  C   UNL A   1      39.585  30.821  29.803  1.00  0.00     0.010 A 
ATOM     33  C   UNL A   1      39.378  29.481  29.507  1.00  0.00    -0.014 A 
BRANCH  33  34
ATOM     34  C   UNL A   1      40.496  28.610  29.691  1.00  0.00     0.031 A 
ATOM     35  C   UNL A   1      40.756  28.456  31.133  1.00  0.00     0.074 A 
ATOM     36  C   UNL A   1      41.088  27.968  28.675  1.00  0.00     0.049 A 
ATOM     37  N   UNL A   1      41.649  29.103  31.800  1.00  0.00    -0.248 NA
ATOM     38  C   UNL A   1      39.725  27.823  31.977  1.00  0.00     0.031 C 
ATOM     39  C   UNL A   1      40.729  27.911  27.261  1.00  0.00     0.029 A 
ATOM     40  N   UNL A   1      42.149  27.138  28.754  1.00  0.00    -0.354 N 
ATOM     41  C   UNL A   1      41.471  28.707  33.112  1.00  0.00     0.074 A 
ATOM     42  C   UNL A   1      40.137  28.185  33.193  1.00  0.00     0.031 C 
ATOM     43  C   UNL A   1      41.428  26.911  26.669  1.00  0.00     0.029 A 
ATOM     44  C   UNL A   1      42.364  26.352  27.631  1.00  0.00     0.049 A 
ATOM     45  H   UNL A   1      42.727  27.093  29.550  1.00  0.00     0.167 HD
ATOM     46  C   UNL A   1      42.550  28.542  33.917  1.00  0.00     0.034 A 
ATOM     47  C   UNL A   1      43.204  25.282  27.583  1.00  0.00     0.034 A 
ATOM     48  C   UNL A   1      43.715  29.184  33.346  1.00  0.00     0.049 A 
ATOM     49  C   UNL A   1      44.204  25.506  28.673  1.00  0.00     0.074 A 
ATOM     50  C   UNL A   1      44.005  30.487  32.984  1.00  0.00     0.029 A 
ATOM     51  N   UNL A   1      44.596  28.391  32.637  1.00  0.00    -0.354 N 
ATOM     52  N   UNL A   1      45.036  26.519  28.662  1.00  0.00    -0.248 NA
ATOM     53  C   UNL A   1      43.904  24.979  30.001  1.00  0.00     0.031 C 
ATOM     54  C   UNL A   1      44.689  30.380  31.738  1.00  0.00     0.029 A 
ATOM     55  C   UNL A   1      44.880  29.025  31.449  1.00  0.00     0.049 A 
ATOM     56  H   UNL A   1      44.958  27.524  32.930  1.00  0.00     0.167 HD
ATOM     57  C   UNL A   1      45.025  27.020  29.959  1.00  0.00     0.074 A 
ATOM     58  C   UNL A   1      44.366  25.984  30.758  1.00  0.00     0.031 C 
ATOM     59  C   UNL A   1      45.248  28.345  30.218  1.00  0.00     0.034 A 
BRANCH  46  60
ATOM     60  C   UNL A   1      42.646  27.474  34.972  1.00  0.00     0.023 A 
ATOM     61  C   UNL A   1      43.384  26.329  34.641  1.00  0.00     0.031 A 
ATOM     62  C   UNL A   1      41.849  27.387  36.139  1.00  0.00     0.131 A 
ATOM     63  C   UNL A   1      43.246  25.150  35.387  1.00  0.00     0.055 A 
ATOM     64  C   UNL A   1      41.762  26.230  36.912  1.00  0.00     0.041 A 
ATOM     65  F   UNL A   1      41.036  28.366  36.548  1.00  0.00    -0.206 F 
ATOM     66  C   UNL A   1      42.438  25.090  36.520  1.00  0.00     0.022 A 
BRANCH  63  67
ATOM     67  S   UNL A   1      44.032  23.649  34.757  1.00  0.00     0.124 S 
ATOM     68  O   UNL A   1      42.918  22.993  34.083  1.00  0.00    -0.237 OA
ATOM     69  O   UNL A   1      45.074  24.198  33.895  1.00  0.00    -0.237 OA
ATOM     70  O   UNL A   1      44.508  22.986  35.968  1.00  0.00    -0.744 OA
ENDBRANCH  63  67
ENDBRANCH  46  60
BRANCH  47  71
ATOM     71  C   UNL A   1      42.930  23.961  26.935  1.00  0.00     0.023 A 
ATOM     72  C   UNL A   1      43.838  23.331  26.052  1.00  0.00     0.031 A 
ATOM     73  C   UNL A   1      41.834  23.173  27.363  1.00  0.00     0.131 A 
ATOM     74  C   UNL A   1      43.626  21.990  25.637  1.00  0.00     0.055 A 
ATOM     75  C   UNL A   1      41.630  21.854  26.950  1.00  0.00     0.041 A 
ATOM     76  F   UNL A   1      40.959  23.627  28.273  1.00  0.00    -0.206 F 
ATOM     77  C   UNL A   1      42.531  21.253  26.091  1.00  0.00     0.022 A 
BRANCH  74  78
ATOM     78  S   UNL A   1      44.833  21.135  24.567  1.00  0.00     0.124 S 
ATOM     79  O   UNL A   1      44.300  19.780  24.522  1.00  0.00    -0.237 OA
ATOM     80  O   UNL A   1      44.759  21.904  23.330  1.00  0.00    -0.237 OA
ATOM     81  O   UNL A   1      46.095  21.276  25.297  1.00  0.00    -0.744 OA
ENDBRANCH  74  78
ENDBRANCH  47  71
BRANCH  59  82
ATOM     82  C   UNL A   1      45.750  29.238  29.095  1.00  0.00     0.023 A 
ATOM     83  C   UNL A   1      44.942  30.088  28.300  1.00  0.00     0.031 A 
ATOM     84  C   UNL A   1      47.144  29.366  28.974  1.00  0.00     0.131 A 
ATOM     85  C   UNL A   1      45.548  31.024  27.432  1.00  0.00     0.055 A 
ATOM     86  C   UNL A   1      47.736  30.308  28.136  1.00  0.00     0.041 A 
ATOM     87  F   UNL A   1      47.961  28.612  29.729  1.00  0.00    -0.206 F 
ATOM     88  C   UNL A   1      46.940  31.142  27.361  1.00  0.00     0.022 A 
BRANCH  85  89
ATOM     89  S   UNL A   1      44.535  32.141  26.403  1.00  0.00     0.124 S 
ATOM     90  O   UNL A   1      43.454  31.277  25.940  1.00  0.00    -0.237 OA
ATOM     91  O   UNL A   1      44.157  33.194  27.342  1.00  0.00    -0.237 OA
ATOM     92  O   UNL A   1      45.459  32.573  25.351  1.00  0.00    -0.744 OA
ENDBRANCH  85  89
ENDBRANCH  59  82
ENDBRANCH  33  34
ENDBRANCH  26  28
ENDBRANCH  25  26
ENDBRANCH   1  25
TORSDOF 15
ENDMDL
MODEL 3
REMARK VINA RESULT:     -12.5      8.286     14.952
REMARK SMILES C[C@H]1CCc2sc3ncn4nc(/C=C\C(=O)OCCOC(=O)c5ccc(-c6c7nc(c(-c8cc(S(=O)(=O)[O-])ccc8F)c8ccc([nH]8)c(-c8cc(S(=O)(=O)[O-])ccc8F)c8nc(c(-c9cc(S(=O)(=O)[O-])ccc9F)c9ccc6[nH]9)C=C8)C=C7)cc5)nc4c3c2C1
REMARK SMILES IDX 19 1 18 2 17 3 15 4 16 5 14 6 13 7 12 8 1 9 2 10 3 11 90 12
REMARK SMILES IDX 4 13 89 14 5 15 88 16 6 17 7 18 87 19 8 20 10 21 86 22 9 23
REMARK SMILES IDX 11 24 20 25 21 26 22 27 23 28 24 29 85 30 25 31 84 32 26 33
REMARK SMILES IDX 27 34 28 35 78 36 29 37 83 38 77 39 79 40 30 41 82 42 76 43
REMARK SMILES IDX 75 44 31 46 63 47 43 48 62 49 44 50 47 51 61 52 80 53 45 54
REMARK SMILES IDX 46 55 60 57 81 58 48 59 32 60 33 61 41 62 34 63 40 64 42 65
REMARK SMILES IDX 39 66 35 67 36 68 37 69 38 70 64 71 65 72 73 73 66 74 72 75
REMARK SMILES IDX 74 76 71 77 67 78 68 79 69 80 70 81 49 82 50 83 58 84 51 85
REMARK SMILES IDX 57 86 59 87 56 88 52 89 53 90 54 91 55 92
REMARK H PARENT 79 45 47 56
REMARK Flexibility Score: inf
ROOT
ATOM      1  C   UNL A   1      45.630  37.900  27.188  1.00  0.00     0.275 C 
ENDROOT
BRANCH   1   2
ATOM      2  C   UNL A   1      45.002  39.234  26.890  1.00  0.00     0.275 C 
BRANCH   2   3
ATOM      3  O   UNL A   1      43.614  39.052  26.708  1.00  0.00    -0.459 OA
BRANCH   3   4
ATOM      4  C   UNL A   1      42.787  39.842  27.383  1.00  0.00     0.331 C 
ATOM      5  O   UNL A   1      42.987  40.406  28.451  1.00  0.00    -0.247 OA
BRANCH   4   6
ATOM      6  C   UNL A   1      41.560  39.957  26.593  1.00  0.00     0.097 C 
ATOM      7  C   UNL A   1      41.394  40.780  25.541  1.00  0.00     0.058 C 
BRANCH   7   8
ATOM      8  C   UNL A   1      42.290  41.702  24.891  1.00  0.00     0.175 A 
ATOM      9  C   UNL A   1      40.843  44.636  18.726  1.00  0.00     0.008 C 
ATOM     10  C   UNL A   1      41.789  43.433  18.721  1.00  0.00    -0.009 C 
ATOM     11  C   UNL A   1      43.066  43.650  17.901  1.00  0.00     0.009 C 
ATOM     12  C   UNL A   1      42.122  43.016  20.157  1.00  0.00     0.041 C 
ATOM     13  C   UNL A   1      44.063  44.627  18.554  1.00  0.00     0.047 C 
ATOM     14  C   UNL A   1      43.297  43.659  20.790  1.00  0.00    -0.020 A 
ATOM     15  C   UNL A   1      44.197  44.375  20.030  1.00  0.00     0.011 A 
ATOM     16  C   UNL A   1      43.721  43.565  22.149  1.00  0.00     0.060 A 
ATOM     17  S   UNL A   1      45.498  44.971  20.957  1.00  0.00    -0.120 S 
ATOM     18  C   UNL A   1      44.921  44.222  22.390  1.00  0.00     0.129 A 
ATOM     19  C   UNL A   1      43.182  42.870  23.354  1.00  0.00     0.168 A 
ATOM     20  N   UNL A   1      45.624  44.296  23.572  1.00  0.00    -0.225 NA
ATOM     21  N   UNL A   1      43.939  42.908  24.485  1.00  0.00    -0.201 N 
ATOM     22  N   UNL A   1      42.092  42.185  23.605  1.00  0.00    -0.207 NA
ATOM     23  C   UNL A   1      45.128  43.624  24.582  1.00  0.00     0.227 A 
ATOM     24  N   UNL A   1      43.396  42.190  25.485  1.00  0.00    -0.145 NA
ENDBRANCH   7   8
ENDBRANCH   4   6
ENDBRANCH   3   4
ENDBRANCH   2   3
ENDBRANCH   1   2
BRANCH   1  25
ATOM     25  O   UNL A   1      44.869  37.362  28.240  1.00  0.00    -0.458 OA
BRANCH  25  26
ATOM     26  C   UNL A   1      45.173  36.089  28.565  1.00  0.00     0.338 C 
ATOM     27  O   UNL A   1      46.256  35.533  28.601  1.00  0.00    -0.246 OA
BRANCH  26  28
ATOM     28  C   UNL A   1      43.904  35.389  28.619  1.00  0.00     0.060 A 
ATOM     29  C   UNL A   1      42.798  36.202  28.853  1.00  0.00     0.016 A 
ATOM     30  C   UNL A   1      43.942  34.012  28.899  1.00  0.00     0.016 A 
ATOM     31  C   UNL A   1      41.809  35.677  29.632  1.00  0.00     0.010 A 
ATOM     32  C   UNL A   1      42.977  33.506  29.706  1.00  0.00     0.010 A 
ATOM     33  C   UNL A   1      41.973  34.371  30.115  1.00  0.00    -0.014 A 
BRANCH  33  34
ATOM     34  C   UNL A   1      40.902  33.793  30.866  1.00  0.00     0.031 A 
ATOM     35  C   UNL A   1      41.319  33.656  32.273  1.00  0.00     0.074 A 
ATOM     36  C   UNL A   1      39.694  33.556  30.339  1.00  0.00     0.049 A 
ATOM     37  N   UNL A   1      41.763  32.574  32.814  1.00  0.00    -0.248 NA
ATOM     38  C   UNL A   1      41.621  34.876  33.046  1.00  0.00     0.031 C 
ATOM     39  C   UNL A   1      39.163  33.880  29.018  1.00  0.00     0.029 A 
ATOM     40  N   UNL A   1      38.633  33.008  30.968  1.00  0.00    -0.354 N 
ATOM     41  C   UNL A   1      42.110  32.936  34.101  1.00  0.00     0.074 A 
ATOM     42  C   UNL A   1      42.283  34.360  34.082  1.00  0.00     0.031 C 
ATOM     43  C   UNL A   1      37.816  33.722  29.033  1.00  0.00     0.029 A 
ATOM     44  C   UNL A   1      37.418  33.170  30.319  1.00  0.00     0.049 A 
ATOM     45  H   UNL A   1      38.716  32.530  31.824  1.00  0.00     0.167 HD
ATOM     46  C   UNL A   1      41.894  32.071  35.124  1.00  0.00     0.034 A 
ATOM     47  C   UNL A   1      36.201  32.928  30.879  1.00  0.00     0.034 A 
ATOM     48  C   UNL A   1      41.667  30.732  34.620  1.00  0.00     0.049 A 
ATOM     49  C   UNL A   1      36.455  31.955  31.986  1.00  0.00     0.074 A 
ATOM     50  C   UNL A   1      42.419  29.862  33.852  1.00  0.00     0.029 A 
ATOM     51  N   UNL A   1      40.358  30.315  34.491  1.00  0.00    -0.354 N 
ATOM     52  N   UNL A   1      36.910  30.745  31.766  1.00  0.00    -0.248 NA
ATOM     53  C   UNL A   1      36.756  32.486  33.313  1.00  0.00     0.031 C 
ATOM     54  C   UNL A   1      41.493  29.290  32.931  1.00  0.00     0.029 A 
ATOM     55  C   UNL A   1      40.211  29.750  33.245  1.00  0.00     0.049 A 
ATOM     56  H   UNL A   1      39.651  30.405  35.172  1.00  0.00     0.167 HD
ATOM     57  C   UNL A   1      37.893  30.539  32.727  1.00  0.00     0.074 A 
ATOM     58  C   UNL A   1      37.701  31.618  33.700  1.00  0.00     0.031 C 
ATOM     59  C   UNL A   1      38.968  29.726  32.491  1.00  0.00     0.034 A 
BRANCH  46  60
ATOM     60  C   UNL A   1      41.481  32.501  36.504  1.00  0.00     0.023 A 
ATOM     61  C   UNL A   1      40.139  32.291  36.852  1.00  0.00     0.031 A 
ATOM     62  C   UNL A   1      42.227  33.336  37.372  1.00  0.00     0.131 A 
ATOM     63  C   UNL A   1      39.572  32.960  37.946  1.00  0.00     0.055 A 
ATOM     64  C   UNL A   1      41.672  33.950  38.494  1.00  0.00     0.041 A 
ATOM     65  F   UNL A   1      43.496  33.687  37.141  1.00  0.00    -0.206 F 
ATOM     66  C   UNL A   1      40.328  33.790  38.770  1.00  0.00     0.022 A 
BRANCH  63  67
ATOM     67  S   UNL A   1      37.785  32.836  38.183  1.00  0.00     0.124 S 
ATOM     68  O   UNL A   1      37.558  31.410  37.973  1.00  0.00    -0.237 OA
ATOM     69  O   UNL A   1      37.630  33.319  39.552  1.00  0.00    -0.237 OA
ATOM     70  O   UNL A   1      37.246  33.714  37.148  1.00  0.00    -0.744 OA
ENDBRANCH  63  67
ENDBRANCH  46  60
BRANCH  47  71
ATOM     71  C   UNL A   1      34.976  33.779  30.754  1.00  0.00     0.023 A 
ATOM     72  C   UNL A   1      34.601  34.738  31.724  1.00  0.00     0.031 A 
ATOM     73  C   UNL A   1      34.259  33.818  29.534  1.00  0.00     0.131 A 
ATOM     74  C   UNL A   1      33.558  35.663  31.455  1.00  0.00     0.055 A 
ATOM     75  C   UNL A   1      33.232  34.729  29.277  1.00  0.00     0.041 A 
ATOM     76  F   UNL A   1      34.586  33.022  28.504  1.00  0.00    -0.206 F 
ATOM     77  C   UNL A   1      32.882  35.663  30.235  1.00  0.00     0.022 A 
BRANCH  74  78
ATOM     78  S   UNL A   1      33.120  36.961  32.662  1.00  0.00     0.124 S 
ATOM     79  O   UNL A   1      31.772  36.572  33.058  1.00  0.00    -0.237 OA
ATOM     80  O   UNL A   1      34.161  36.817  33.673  1.00  0.00    -0.237 OA
ATOM     81  O   UNL A   1      33.198  38.195  31.878  1.00  0.00    -0.744 OA
ENDBRANCH  74  78
ENDBRANCH  47  71
BRANCH  59  82
ATOM     82  C   UNL A   1      38.965  28.849  31.250  1.00  0.00     0.023 A 
ATOM     83  C   UNL A   1      39.507  29.208  29.991  1.00  0.00     0.031 A 
ATOM     84  C   UNL A   1      38.566  27.513  31.429  1.00  0.00     0.131 A 
ATOM     85  C   UNL A   1      39.635  28.232  28.976  1.00  0.00     0.055 A 
ATOM     86  C   UNL A   1      38.718  26.550  30.434  1.00  0.00     0.041 A 
ATOM     87  F   UNL A   1      38.079  27.106  32.614  1.00  0.00    -0.206 F 
ATOM     88  C   UNL A   1      39.253  26.906  29.203  1.00  0.00     0.022 A 
BRANCH  85  89
ATOM     89  S   UNL A   1      40.339  28.660  27.347  1.00  0.00     0.124 S 
ATOM     90  O   UNL A   1      41.550  29.398  27.692  1.00  0.00    -0.237 OA
ATOM     91  O   UNL A   1      40.539  27.353  26.728  1.00  0.00    -0.237 OA
ATOM     92  O   UNL A   1      39.292  29.470  26.721  1.00  0.00    -0.744 OA
ENDBRANCH  85  89
ENDBRANCH  59  82
ENDBRANCH  33  34
ENDBRANCH  26  28
ENDBRANCH  25  26
ENDBRANCH   1  25
TORSDOF 15
ENDMDL
