MODEL 1
REMARK VINA RESULT:     -11.5      0.000      0.000
REMARK SMILES CC(C)CN(C)c1cc2c(cc1Cl)C=C(C(=O)OCCOC(=O)c1ccc(-c3c4nc(c(-c5cc(S(=O)(=O)[O-])ccc5F)c5ccc([nH]5)c(-c5cc(S(=O)(=O)[O-])ccc5F)c5nc(c(-c6cc(S(=O)(=O)[O-])ccc6F)c6ccc3[nH]6)C=C5)C=C4)cc1)[C@H](C(F)(F)F)O2
REMARK SMILES IDX 19 1 18 2 16 3 17 4 15 5 7 6 8 7 12 8 9 9 11 10 13 11 10 12
REMARK SMILES IDX 92 13 14 14 87 15 5 16 6 17 4 18 2 19 1 20 3 21 88 22 89 23
REMARK SMILES IDX 90 24 91 25 20 26 21 27 22 28 23 29 24 30 25 31 86 32 26 33
REMARK SMILES IDX 85 34 27 35 28 36 29 37 79 38 30 39 84 40 78 41 80 42 31 43
REMARK SMILES IDX 83 44 77 45 76 46 32 48 64 49 44 50 63 51 45 52 48 53 62 54
REMARK SMILES IDX 81 55 46 56 47 57 61 59 82 60 49 61 33 62 34 63 42 64 35 65
REMARK SMILES IDX 41 66 43 67 40 68 36 69 37 70 38 71 39 72 65 73 66 74 74 75
REMARK SMILES IDX 67 76 73 77 75 78 72 79 68 80 69 81 70 82 71 83 50 84 51 85
REMARK SMILES IDX 59 86 52 87 58 88 60 89 57 90 53 91 54 92 55 93 56 94
REMARK H PARENT 80 47 48 58
REMARK Flexibility Score: inf
ROOT
ATOM      1  C   UNL A   1      31.790  30.033  25.128  1.00  0.00     0.275 C 
ENDROOT
BRANCH   1   2
ATOM      2  O   UNL A   1      32.691  28.910  25.254  1.00  0.00    -0.459 OA
BRANCH   2   3
ATOM      3  C   UNL A   1      33.067  28.336  24.096  1.00  0.00     0.338 C 
ATOM      4  O   UNL A   1      33.712  28.899  23.222  1.00  0.00    -0.246 OA
BRANCH   3   5
ATOM      5  C   UNL A   1      32.668  26.910  24.003  1.00  0.00     0.087 C 
ATOM      6  C   UNL A   1      33.199  21.869  23.826  1.00  0.00     0.059 A 
ATOM      7  C   UNL A   1      32.154  22.764  23.501  1.00  0.00     0.074 A 
ATOM      8  C   UNL A   1      34.419  22.428  24.258  1.00  0.00     0.065 A 
ATOM      9  C   UNL A   1      32.310  24.153  23.627  1.00  0.00     0.130 A 
ATOM     10  C   UNL A   1      34.544  23.799  24.469  1.00  0.00     0.034 A 
ATOM     11  Cl  UNL A   1      35.868  21.499  24.436  1.00  0.00    -0.082 Cl
ATOM     12  C   UNL A   1      33.492  24.655  24.150  1.00  0.00     0.019 A 
ATOM     13  O   UNL A   1      31.302  24.960  23.173  1.00  0.00    -0.475 OA
ATOM     14  C   UNL A   1      33.674  26.077  24.299  1.00  0.00     0.027 C 
ATOM     15  C   UNL A   1      31.366  26.416  23.414  1.00  0.00     0.316 C 
BRANCH   6  16
ATOM     16  N   UNL A   1      33.039  20.487  23.673  1.00  0.00    -0.373 N 
ATOM     17  C   UNL A   1      32.110  20.062  22.637  1.00  0.00     0.143 C 
BRANCH  16  18
ATOM     18  C   UNL A   1      33.175  19.622  24.866  1.00  0.00     0.119 C 
BRANCH  18  19
ATOM     19  C   UNL A   1      33.454  18.144  24.519  1.00  0.00     0.002 C 
ATOM     20  C   UNL A   1      34.954  17.836  24.528  1.00  0.00     0.009 C 
ATOM     21  C   UNL A   1      32.741  17.190  25.483  1.00  0.00     0.009 C 
ENDBRANCH  18  19
ENDBRANCH  16  18
ENDBRANCH   6  16
BRANCH  15  22
ATOM     22  C   UNL A   1      30.023  26.802  24.077  1.00  0.00     0.430 C 
ATOM     23  F   UNL A   1      30.090  26.785  25.428  1.00  0.00    -0.167 F 
ATOM     24  F   UNL A   1      29.530  28.002  23.720  1.00  0.00    -0.167 F 
ATOM     25  F   UNL A   1      29.073  25.889  23.722  1.00  0.00    -0.167 F 
ENDBRANCH  15  22
ENDBRANCH   3   5
ENDBRANCH   2   3
ENDBRANCH   1   2
BRANCH   1  26
ATOM     26  C   UNL A   1      31.680  30.809  26.443  1.00  0.00     0.275 C 
BRANCH  26  27
ATOM     27  O   UNL A   1      32.856  30.628  27.256  1.00  0.00    -0.458 OA
BRANCH  27  28
ATOM     28  C   UNL A   1      33.570  31.746  27.517  1.00  0.00     0.338 C 
ATOM     29  O   UNL A   1      33.186  32.903  27.443  1.00  0.00    -0.246 OA
BRANCH  28  30
ATOM     30  C   UNL A   1      34.907  31.377  28.006  1.00  0.00     0.060 A 
ATOM     31  C   UNL A   1      35.932  32.314  28.109  1.00  0.00     0.016 A 
ATOM     32  C   UNL A   1      35.094  30.083  28.486  1.00  0.00     0.016 A 
ATOM     33  C   UNL A   1      37.159  31.927  28.667  1.00  0.00     0.010 A 
ATOM     34  C   UNL A   1      36.288  29.718  29.104  1.00  0.00     0.010 A 
ATOM     35  C   UNL A   1      37.349  30.627  29.184  1.00  0.00    -0.014 A 
BRANCH  35  36
ATOM     36  C   UNL A   1      38.629  30.231  29.842  1.00  0.00     0.031 A 
ATOM     37  C   UNL A   1      38.982  30.715  31.226  1.00  0.00     0.074 A 
ATOM     38  C   UNL A   1      39.512  29.466  29.169  1.00  0.00     0.049 A 
ATOM     39  N   UNL A   1      40.031  30.431  31.958  1.00  0.00    -0.248 NA
ATOM     40  C   UNL A   1      38.061  31.673  31.857  1.00  0.00     0.031 C 
ATOM     41  C   UNL A   1      39.351  29.029  27.783  1.00  0.00     0.029 A 
ATOM     42  N   UNL A   1      40.711  28.916  29.555  1.00  0.00    -0.354 N 
ATOM     43  C   UNL A   1      39.897  31.175  33.127  1.00  0.00     0.074 A 
ATOM     44  C   UNL A   1      38.712  31.987  32.968  1.00  0.00     0.031 C 
ATOM     45  C   UNL A   1      40.374  28.227  27.455  1.00  0.00     0.029 A 
ATOM     46  C   UNL A   1      41.283  28.114  28.595  1.00  0.00     0.049 A 
ATOM     47  H   UNL A   1      41.121  29.081  30.434  1.00  0.00     0.167 HD
ATOM     48  C   UNL A   1      40.659  31.151  34.248  1.00  0.00     0.034 A 
ATOM     49  C   UNL A   1      42.396  27.350  28.628  1.00  0.00     0.034 A 
ATOM     50  C   UNL A   1      41.826  30.320  34.406  1.00  0.00     0.049 A 
ATOM     51  C   UNL A   1      43.192  27.271  29.905  1.00  0.00     0.074 A 
ATOM     52  C   UNL A   1      42.640  30.184  35.517  1.00  0.00     0.029 A 
ATOM     53  N   UNL A   1      42.339  29.474  33.432  1.00  0.00    -0.354 N 
ATOM     54  N   UNL A   1      42.990  27.899  31.041  1.00  0.00    -0.248 NA
ATOM     55  C   UNL A   1      44.353  26.369  29.921  1.00  0.00     0.031 C 
ATOM     56  C   UNL A   1      43.662  29.284  35.204  1.00  0.00     0.029 A 
ATOM     57  C   UNL A   1      43.456  28.814  33.916  1.00  0.00     0.049 A 
ATOM     58  H   UNL A   1      41.963  29.360  32.529  1.00  0.00     0.167 HD
ATOM     59  C   UNL A   1      43.987  27.458  31.908  1.00  0.00     0.074 A 
ATOM     60  C   UNL A   1      44.773  26.488  31.175  1.00  0.00     0.031 C 
ATOM     61  C   UNL A   1      44.230  27.834  33.189  1.00  0.00     0.034 A 
BRANCH  48  62
ATOM     62  C   UNL A   1      40.225  31.999  35.423  1.00  0.00     0.023 A 
ATOM     63  C   UNL A   1      39.246  31.541  36.325  1.00  0.00     0.031 A 
ATOM     64  C   UNL A   1      40.725  33.305  35.596  1.00  0.00     0.131 A 
ATOM     65  C   UNL A   1      38.797  32.385  37.351  1.00  0.00     0.055 A 
ATOM     66  C   UNL A   1      40.307  34.123  36.646  1.00  0.00     0.041 A 
ATOM     67  F   UNL A   1      41.652  33.797  34.757  1.00  0.00    -0.206 F 
ATOM     68  C   UNL A   1      39.332  33.666  37.524  1.00  0.00     0.022 A 
BRANCH  65  69
ATOM     69  S   UNL A   1      37.460  31.885  38.471  1.00  0.00     0.124 S 
ATOM     70  O   UNL A   1      38.105  31.999  39.777  1.00  0.00    -0.237 OA
ATOM     71  O   UNL A   1      36.436  32.889  38.193  1.00  0.00    -0.237 OA
ATOM     72  O   UNL A   1      37.137  30.526  38.049  1.00  0.00    -0.744 OA
ENDBRANCH  65  69
ENDBRANCH  48  62
BRANCH  49  73
ATOM     73  C   UNL A   1      42.717  26.509  27.438  1.00  0.00     0.023 A 
ATOM     74  C   UNL A   1      42.451  25.128  27.429  1.00  0.00     0.031 A 
ATOM     75  C   UNL A   1      43.442  27.051  26.362  1.00  0.00     0.131 A 
ATOM     76  C   UNL A   1      42.976  24.326  26.406  1.00  0.00     0.055 A 
ATOM     77  C   UNL A   1      43.902  26.258  25.310  1.00  0.00     0.041 A 
ATOM     78  F   UNL A   1      43.736  28.360  26.336  1.00  0.00    -0.206 F 
ATOM     79  C   UNL A   1      43.686  24.885  25.339  1.00  0.00     0.022 A 
BRANCH  76  80
ATOM     80  S   UNL A   1      42.880  22.516  26.500  1.00  0.00     0.124 S 
ATOM     81  O   UNL A   1      42.066  22.192  25.331  1.00  0.00    -0.237 OA
ATOM     82  O   UNL A   1      44.289  22.141  26.410  1.00  0.00    -0.237 OA
ATOM     83  O   UNL A   1      42.252  22.270  27.792  1.00  0.00    -0.744 OA
ENDBRANCH  76  80
ENDBRANCH  49  73
BRANCH  61  84
ATOM     84  C   UNL A   1      45.396  27.213  33.920  1.00  0.00     0.023 A 
ATOM     85  C   UNL A   1      45.223  26.011  34.634  1.00  0.00     0.031 A 
ATOM     86  C   UNL A   1      46.620  27.892  34.048  1.00  0.00     0.131 A 
ATOM     87  C   UNL A   1      46.241  25.547  35.476  1.00  0.00     0.055 A 
ATOM     88  C   UNL A   1      47.647  27.403  34.856  1.00  0.00     0.041 A 
ATOM     89  F   UNL A   1      46.829  29.048  33.398  1.00  0.00    -0.206 F 
ATOM     90  C   UNL A   1      47.455  26.234  35.587  1.00  0.00     0.022 A 
BRANCH  87  91
ATOM     91  S   UNL A   1      45.999  24.088  36.527  1.00  0.00     0.124 S 
ATOM     92  O   UNL A   1      46.146  24.653  37.866  1.00  0.00    -0.237 OA
ATOM     93  O   UNL A   1      44.644  23.674  36.171  1.00  0.00    -0.237 OA
ATOM     94  O   UNL A   1      47.063  23.176  36.117  1.00  0.00    -0.744 OA
ENDBRANCH  87  91
ENDBRANCH  61  84
ENDBRANCH  35  36
ENDBRANCH  28  30
ENDBRANCH  27  28
ENDBRANCH  26  27
ENDBRANCH   1  26
TORSDOF 18
ENDMDL
MODEL 2
REMARK VINA RESULT:     -11.4      3.678      9.180
REMARK SMILES CC(C)CN(C)c1cc2c(cc1Cl)C=C(C(=O)OCCOC(=O)c1ccc(-c3c4nc(c(-c5cc(S(=O)(=O)[O-])ccc5F)c5ccc([nH]5)c(-c5cc(S(=O)(=O)[O-])ccc5F)c5nc(c(-c6cc(S(=O)(=O)[O-])ccc6F)c6ccc3[nH]6)C=C5)C=C4)cc1)[C@H](C(F)(F)F)O2
REMARK SMILES IDX 19 1 18 2 16 3 17 4 15 5 7 6 8 7 12 8 9 9 11 10 13 11 10 12
REMARK SMILES IDX 92 13 14 14 87 15 5 16 6 17 4 18 2 19 1 20 3 21 88 22 89 23
REMARK SMILES IDX 90 24 91 25 20 26 21 27 22 28 23 29 24 30 25 31 86 32 26 33
REMARK SMILES IDX 85 34 27 35 28 36 29 37 79 38 30 39 84 40 78 41 80 42 31 43
REMARK SMILES IDX 83 44 77 45 76 46 32 48 64 49 44 50 63 51 45 52 48 53 62 54
REMARK SMILES IDX 81 55 46 56 47 57 61 59 82 60 49 61 33 62 34 63 42 64 35 65
REMARK SMILES IDX 41 66 43 67 40 68 36 69 37 70 38 71 39 72 65 73 66 74 74 75
REMARK SMILES IDX 67 76 73 77 75 78 72 79 68 80 69 81 70 82 71 83 50 84 51 85
REMARK SMILES IDX 59 86 52 87 58 88 60 89 57 90 53 91 54 92 55 93 56 94
REMARK H PARENT 80 47 48 58
REMARK Flexibility Score: inf
ROOT
ATOM      1  C   UNL A   1      34.154  34.799  28.821  1.00  0.00     0.275 C 
ENDROOT
BRANCH   1   2
ATOM      2  O   UNL A   1      33.871  33.521  28.210  1.00  0.00    -0.459 OA
BRANCH   2   3
ATOM      3  C   UNL A   1      34.362  32.448  28.858  1.00  0.00     0.338 C 
ATOM      4  O   UNL A   1      34.720  32.450  30.028  1.00  0.00    -0.246 OA
BRANCH   3   5
ATOM      5  C   UNL A   1      34.372  31.223  28.020  1.00  0.00     0.087 C 
ATOM      6  C   UNL A   1      32.649  27.692  24.812  1.00  0.00     0.059 A 
ATOM      7  C   UNL A   1      33.735  27.762  25.715  1.00  0.00     0.074 A 
ATOM      8  C   UNL A   1      31.771  28.795  24.771  1.00  0.00     0.065 A 
ATOM      9  C   UNL A   1      33.951  28.890  26.520  1.00  0.00     0.130 A 
ATOM     10  C   UNL A   1      32.036  29.950  25.502  1.00  0.00     0.034 A 
ATOM     11  Cl  UNL A   1      30.260  28.762  23.929  1.00  0.00    -0.082 Cl
ATOM     12  C   UNL A   1      33.122  29.992  26.375  1.00  0.00     0.019 A 
ATOM     13  O   UNL A   1      34.945  28.833  27.460  1.00  0.00    -0.475 OA
ATOM     14  C   UNL A   1      33.328  31.167  27.183  1.00  0.00     0.027 C 
ATOM     15  C   UNL A   1      35.296  30.045  28.228  1.00  0.00     0.316 C 
BRANCH   6  16
ATOM     16  N   UNL A   1      32.430  26.551  24.032  1.00  0.00    -0.373 N 
ATOM     17  C   UNL A   1      31.339  25.686  24.457  1.00  0.00     0.143 C 
BRANCH  16  18
ATOM     18  C   UNL A   1      33.588  25.913  23.369  1.00  0.00     0.119 C 
BRANCH  18  19
ATOM     19  C   UNL A   1      33.719  24.408  23.685  1.00  0.00     0.002 C 
ATOM     20  C   UNL A   1      33.347  23.543  22.478  1.00  0.00     0.009 C 
ATOM     21  C   UNL A   1      35.136  24.045  24.143  1.00  0.00     0.009 C 
ENDBRANCH  18  19
ENDBRANCH  16  18
ENDBRANCH   6  16
BRANCH  15  22
ATOM     22  C   UNL A   1      36.824  30.225  28.074  1.00  0.00     0.430 C 
ATOM     23  F   UNL A   1      37.234  30.087  26.793  1.00  0.00    -0.167 F 
ATOM     24  F   UNL A   1      37.312  31.396  28.522  1.00  0.00    -0.167 F 
ATOM     25  F   UNL A   1      37.461  29.257  28.794  1.00  0.00    -0.167 F 
ENDBRANCH  15  22
ENDBRANCH   3   5
ENDBRANCH   2   3
ENDBRANCH   1   2
BRANCH   1  26
ATOM     26  C   UNL A   1      32.900  35.397  29.466  1.00  0.00     0.275 C 
BRANCH  26  27
ATOM     27  O   UNL A   1      33.231  36.157  30.645  1.00  0.00    -0.458 OA
BRANCH  27  28
ATOM     28  C   UNL A   1      32.798  35.642  31.818  1.00  0.00     0.338 C 
ATOM     29  O   UNL A   1      31.660  35.669  32.262  1.00  0.00    -0.246 OA
BRANCH  28  30
ATOM     30  C   UNL A   1      33.902  34.940  32.489  1.00  0.00     0.060 A 
ATOM     31  C   UNL A   1      33.720  33.695  33.086  1.00  0.00     0.016 A 
ATOM     32  C   UNL A   1      35.176  35.494  32.405  1.00  0.00     0.016 A 
ATOM     33  C   UNL A   1      34.829  33.030  33.631  1.00  0.00     0.010 A 
ATOM     34  C   UNL A   1      36.287  34.802  32.883  1.00  0.00     0.010 A 
ATOM     35  C   UNL A   1      36.130  33.569  33.525  1.00  0.00    -0.014 A 
BRANCH  35  36
ATOM     36  C   UNL A   1      37.321  32.833  34.040  1.00  0.00     0.031 A 
ATOM     37  C   UNL A   1      37.960  31.720  33.247  1.00  0.00     0.074 A 
ATOM     38  C   UNL A   1      37.808  33.131  35.261  1.00  0.00     0.049 A 
ATOM     39  N   UNL A   1      39.023  31.009  33.530  1.00  0.00    -0.248 NA
ATOM     40  C   UNL A   1      37.299  31.325  31.994  1.00  0.00     0.031 C 
ATOM     41  C   UNL A   1      37.215  34.099  36.183  1.00  0.00     0.029 A 
ATOM     42  N   UNL A   1      38.910  32.662  35.936  1.00  0.00    -0.354 N 
ATOM     43  C   UNL A   1      39.154  30.086  32.496  1.00  0.00     0.074 A 
ATOM     44  C   UNL A   1      38.014  30.270  31.629  1.00  0.00     0.031 C 
ATOM     45  C   UNL A   1      37.991  34.202  37.271  1.00  0.00     0.029 A 
ATOM     46  C   UNL A   1      39.124  33.285  37.143  1.00  0.00     0.049 A 
ATOM     47  H   UNL A   1      39.491  31.947  35.588  1.00  0.00     0.167 HD
ATOM     48  C   UNL A   1      40.154  29.200  32.263  1.00  0.00     0.034 A 
ATOM     49  C   UNL A   1      40.127  33.161  38.038  1.00  0.00     0.034 A 
ATOM     50  C   UNL A   1      41.300  29.040  33.122  1.00  0.00     0.049 A 
ATOM     51  C   UNL A   1      41.271  32.229  37.731  1.00  0.00     0.074 A 
ATOM     52  C   UNL A   1      42.391  28.207  32.951  1.00  0.00     0.029 A 
ATOM     53  N   UNL A   1      41.511  29.735  34.305  1.00  0.00    -0.354 N 
ATOM     54  N   UNL A   1      41.434  31.441  36.694  1.00  0.00    -0.248 NA
ATOM     55  C   UNL A   1      42.378  32.181  38.697  1.00  0.00     0.031 C 
ATOM     56  C   UNL A   1      43.244  28.372  34.046  1.00  0.00     0.029 A 
ATOM     57  C   UNL A   1      42.714  29.350  34.874  1.00  0.00     0.049 A 
ATOM     58  H   UNL A   1      40.896  30.403  34.685  1.00  0.00     0.167 HD
ATOM     59  C   UNL A   1      42.665  30.815  36.875  1.00  0.00     0.074 A 
ATOM     60  C   UNL A   1      43.218  31.339  38.106  1.00  0.00     0.031 C 
ATOM     61  C   UNL A   1      43.272  29.885  36.094  1.00  0.00     0.034 A 
BRANCH  48  62
ATOM     62  C   UNL A   1      40.094  28.376  30.995  1.00  0.00     0.023 A 
ATOM     63  C   UNL A   1      40.845  28.736  29.861  1.00  0.00     0.031 A 
ATOM     64  C   UNL A   1      39.219  27.277  30.889  1.00  0.00     0.131 A 
ATOM     65  C   UNL A   1      40.700  28.007  28.671  1.00  0.00     0.055 A 
ATOM     66  C   UNL A   1      39.112  26.529  29.717  1.00  0.00     0.041 A 
ATOM     67  F   UNL A   1      38.469  26.898  31.938  1.00  0.00    -0.206 F 
ATOM     68  C   UNL A   1      39.849  26.899  28.598  1.00  0.00     0.022 A 
BRANCH  65  69
ATOM     69  S   UNL A   1      41.560  28.496  27.150  1.00  0.00     0.124 S 
ATOM     70  O   UNL A   1      42.116  27.223  26.698  1.00  0.00    -0.237 OA
ATOM     71  O   UNL A   1      40.467  29.023  26.336  1.00  0.00    -0.237 OA
ATOM     72  O   UNL A   1      42.538  29.480  27.600  1.00  0.00    -0.744 OA
ENDBRANCH  65  69
ENDBRANCH  48  62
BRANCH  49  73
ATOM     73  C   UNL A   1      40.127  34.052  39.236  1.00  0.00     0.023 A 
ATOM     74  C   UNL A   1      39.326  33.766  40.356  1.00  0.00     0.031 A 
ATOM     75  C   UNL A   1      40.808  35.281  39.204  1.00  0.00     0.131 A 
ATOM     76  C   UNL A   1      39.163  34.734  41.357  1.00  0.00     0.055 A 
ATOM     77  C   UNL A   1      40.697  36.212  40.238  1.00  0.00     0.041 A 
ATOM     78  F   UNL A   1      41.570  35.605  38.148  1.00  0.00    -0.206 F 
ATOM     79  C   UNL A   1      39.856  35.948  41.313  1.00  0.00     0.022 A 
BRANCH  76  80
ATOM     80  S   UNL A   1      37.937  34.511  42.677  1.00  0.00     0.124 S 
ATOM     81  O   UNL A   1      38.192  35.668  43.530  1.00  0.00    -0.237 OA
ATOM     82  O   UNL A   1      36.685  34.546  41.926  1.00  0.00    -0.237 OA
ATOM     83  O   UNL A   1      38.281  33.216  43.252  1.00  0.00    -0.744 OA
ENDBRANCH  76  80
ENDBRANCH  49  73
BRANCH  61  84
ATOM     84  C   UNL A   1      44.615  29.344  36.520  1.00  0.00     0.023 A 
ATOM     85  C   UNL A   1      44.690  28.322  37.487  1.00  0.00     0.031 A 
ATOM     86  C   UNL A   1      45.811  29.950  36.100  1.00  0.00     0.131 A 
ATOM     87  C   UNL A   1      45.932  27.966  38.031  1.00  0.00     0.055 A 
ATOM     88  C   UNL A   1      47.049  29.562  36.614  1.00  0.00     0.041 A 
ATOM     89  F   UNL A   1      45.792  30.937  35.190  1.00  0.00    -0.206 F 
ATOM     90  C   UNL A   1      47.112  28.577  37.595  1.00  0.00     0.022 A 
BRANCH  87  91
ATOM     91  S   UNL A   1      46.054  26.764  39.385  1.00  0.00     0.124 S 
ATOM     92  O   UNL A   1      46.409  25.540  38.671  1.00  0.00    -0.237 OA
ATOM     93  O   UNL A   1      47.115  27.335  40.209  1.00  0.00    -0.237 OA
ATOM     94  O   UNL A   1      44.722  26.770  39.983  1.00  0.00    -0.744 OA
ENDBRANCH  87  91
ENDBRANCH  61  84
ENDBRANCH  35  36
ENDBRANCH  28  30
ENDBRANCH  27  28
ENDBRANCH  26  27
ENDBRANCH   1  26
TORSDOF 18
ENDMDL
MODEL 3
REMARK VINA RESULT:     -11.2      5.038     10.160
REMARK SMILES CC(C)CN(C)c1cc2c(cc1Cl)C=C(C(=O)OCCOC(=O)c1ccc(-c3c4nc(c(-c5cc(S(=O)(=O)[O-])ccc5F)c5ccc([nH]5)c(-c5cc(S(=O)(=O)[O-])ccc5F)c5nc(c(-c6cc(S(=O)(=O)[O-])ccc6F)c6ccc3[nH]6)C=C5)C=C4)cc1)[C@H](C(F)(F)F)O2
REMARK SMILES IDX 19 1 18 2 16 3 17 4 15 5 7 6 8 7 12 8 9 9 11 10 13 11 10 12
REMARK SMILES IDX 92 13 14 14 87 15 5 16 6 17 4 18 2 19 1 20 3 21 88 22 89 23
REMARK SMILES IDX 90 24 91 25 20 26 21 27 22 28 23 29 24 30 25 31 86 32 26 33
REMARK SMILES IDX 85 34 27 35 28 36 29 37 79 38 30 39 84 40 78 41 80 42 31 43
REMARK SMILES IDX 83 44 77 45 76 46 32 48 64 49 44 50 63 51 45 52 48 53 62 54
REMARK SMILES IDX 81 55 46 56 47 57 61 59 82 60 49 61 33 62 34 63 42 64 35 65
REMARK SMILES IDX 41 66 43 67 40 68 36 69 37 70 38 71 39 72 65 73 66 74 74 75
REMARK SMILES IDX 67 76 73 77 75 78 72 79 68 80 69 81 70 82 71 83 50 84 51 85
REMARK SMILES IDX 59 86 52 87 58 88 60 89 57 90 53 91 54 92 55 93 56 94
REMARK H PARENT 80 47 48 58
REMARK Flexibility Score: inf
ROOT
ATOM      1  C   UNL A   1      35.668  21.953  26.199  1.00  0.00     0.275 C 
ENDROOT
BRANCH   1   2
ATOM      2  O   UNL A   1      34.655  22.271  25.219  1.00  0.00    -0.459 OA
BRANCH   2   3
ATOM      3  C   UNL A   1      33.383  22.177  25.649  1.00  0.00     0.338 C 
ATOM      4  O   UNL A   1      32.848  21.135  26.005  1.00  0.00    -0.246 OA
BRANCH   3   5
ATOM      5  C   UNL A   1      32.695  23.490  25.706  1.00  0.00     0.087 C 
ATOM      6  C   UNL A   1      31.874  28.422  24.850  1.00  0.00     0.059 A 
ATOM      7  C   UNL A   1      31.353  27.478  25.765  1.00  0.00     0.074 A 
ATOM      8  C   UNL A   1      32.890  27.984  23.976  1.00  0.00     0.065 A 
ATOM      9  C   UNL A   1      31.807  26.150  25.789  1.00  0.00     0.130 A 
ATOM     10  C   UNL A   1      33.276  26.646  23.939  1.00  0.00     0.034 A 
ATOM     11  Cl  UNL A   1      33.813  29.065  22.991  1.00  0.00    -0.082 Cl
ATOM     12  C   UNL A   1      32.736  25.737  24.847  1.00  0.00     0.019 A 
ATOM     13  O   UNL A   1      31.351  25.330  26.786  1.00  0.00    -0.475 OA
ATOM     14  C   UNL A   1      33.212  24.376  24.844  1.00  0.00     0.027 C 
ATOM     15  C   UNL A   1      31.694  23.893  26.764  1.00  0.00     0.316 C 
BRANCH   6  16
ATOM     16  N   UNL A   1      31.430  29.749  24.852  1.00  0.00    -0.373 N 
ATOM     17  C   UNL A   1      31.894  30.577  25.956  1.00  0.00     0.143 C 
BRANCH  16  18
ATOM     18  C   UNL A   1      30.098  30.051  24.285  1.00  0.00     0.119 C 
BRANCH  18  19
ATOM     19  C   UNL A   1      29.740  29.173  23.066  1.00  0.00     0.002 C 
ATOM     20  C   UNL A   1      28.228  28.982  22.933  1.00  0.00     0.009 C 
ATOM     21  C   UNL A   1      30.287  29.763  21.762  1.00  0.00     0.009 C 
ENDBRANCH  18  19
ENDBRANCH  16  18
ENDBRANCH   6  16
BRANCH  15  22
ATOM     22  C   UNL A   1      30.355  23.129  26.890  1.00  0.00     0.430 C 
ATOM     23  F   UNL A   1      30.347  22.269  27.933  1.00  0.00    -0.167 F 
ATOM     24  F   UNL A   1      29.261  23.904  27.008  1.00  0.00    -0.167 F 
ATOM     25  F   UNL A   1      30.161  22.381  25.766  1.00  0.00    -0.167 F 
ENDBRANCH  15  22
ENDBRANCH   3   5
ENDBRANCH   2   3
ENDBRANCH   1   2
BRANCH   1  26
ATOM     26  C   UNL A   1      36.772  21.080  25.596  1.00  0.00     0.275 C 
BRANCH  26  27
ATOM     27  O   UNL A   1      37.975  21.840  25.371  1.00  0.00    -0.458 OA
BRANCH  27  28
ATOM     28  C   UNL A   1      38.976  21.635  26.257  1.00  0.00     0.338 C 
ATOM     29  O   UNL A   1      39.368  20.564  26.695  1.00  0.00    -0.246 OA
BRANCH  28  30
ATOM     30  C   UNL A   1      39.620  22.916  26.582  1.00  0.00     0.060 A 
ATOM     31  C   UNL A   1      39.187  24.114  26.020  1.00  0.00     0.016 A 
ATOM     32  C   UNL A   1      40.602  22.923  27.569  1.00  0.00     0.016 A 
ATOM     33  C   UNL A   1      39.778  25.317  26.435  1.00  0.00     0.010 A 
ATOM     34  C   UNL A   1      41.140  24.123  28.031  1.00  0.00     0.010 A 
ATOM     35  C   UNL A   1      40.753  25.338  27.456  1.00  0.00    -0.014 A 
BRANCH  35  36
ATOM     36  C   UNL A   1      41.334  26.621  27.950  1.00  0.00     0.031 A 
ATOM     37  C   UNL A   1      42.770  26.992  27.670  1.00  0.00     0.074 A 
ATOM     38  C   UNL A   1      40.580  27.444  28.705  1.00  0.00     0.049 A 
ATOM     39  N   UNL A   1      43.417  28.085  27.988  1.00  0.00    -0.248 NA
ATOM     40  C   UNL A   1      43.597  25.993  26.977  1.00  0.00     0.031 C 
ATOM     41  C   UNL A   1      39.218  27.152  29.152  1.00  0.00     0.029 A 
ATOM     42  N   UNL A   1      40.841  28.689  29.225  1.00  0.00    -0.354 N 
ATOM     43  C   UNL A   1      44.722  27.902  27.540  1.00  0.00     0.074 A 
ATOM     44  C   UNL A   1      44.794  26.561  27.008  1.00  0.00     0.031 C 
ATOM     45  C   UNL A   1      38.739  28.211  29.820  1.00  0.00     0.029 A 
ATOM     46  C   UNL A   1      39.768  29.250  29.879  1.00  0.00     0.049 A 
ATOM     47  H   UNL A   1      41.713  29.138  29.138  1.00  0.00     0.167 HD
ATOM     48  C   UNL A   1      45.754  28.783  27.528  1.00  0.00     0.034 A 
ATOM     49  C   UNL A   1      39.611  30.468  30.439  1.00  0.00     0.034 A 
ATOM     50  C   UNL A   1      45.666  30.127  28.041  1.00  0.00     0.049 A 
ATOM     51  C   UNL A   1      40.737  31.465  30.352  1.00  0.00     0.074 A 
ATOM     52  C   UNL A   1      46.635  31.114  28.033  1.00  0.00     0.029 A 
ATOM     53  N   UNL A   1      44.541  30.679  28.640  1.00  0.00    -0.354 N 
ATOM     54  N   UNL A   1      41.932  31.313  29.827  1.00  0.00    -0.248 NA
ATOM     55  C   UNL A   1      40.497  32.804  30.909  1.00  0.00     0.031 C 
ATOM     56  C   UNL A   1      46.110  32.249  28.657  1.00  0.00     0.029 A 
ATOM     57  C   UNL A   1      44.793  31.991  29.005  1.00  0.00     0.049 A 
ATOM     58  H   UNL A   1      43.690  30.206  28.785  1.00  0.00     0.167 HD
ATOM     59  C   UNL A   1      42.578  32.538  29.978  1.00  0.00     0.074 A 
ATOM     60  C   UNL A   1      41.631  33.429  30.615  1.00  0.00     0.031 C 
ATOM     61  C   UNL A   1      43.842  32.883  29.627  1.00  0.00     0.034 A 
BRANCH  48  62
ATOM     62  C   UNL A   1      47.053  28.350  26.885  1.00  0.00     0.023 A 
ATOM     63  C   UNL A   1      47.159  28.217  25.487  1.00  0.00     0.031 A 
ATOM     64  C   UNL A   1      48.163  27.986  27.671  1.00  0.00     0.131 A 
ATOM     65  C   UNL A   1      48.346  27.726  24.924  1.00  0.00     0.055 A 
ATOM     66  C   UNL A   1      49.356  27.541  27.103  1.00  0.00     0.041 A 
ATOM     67  F   UNL A   1      48.111  28.082  29.010  1.00  0.00    -0.206 F 
ATOM     68  C   UNL A   1      49.449  27.402  25.723  1.00  0.00     0.022 A 
BRANCH  65  69
ATOM     69  S   UNL A   1      48.497  27.430  23.141  1.00  0.00     0.124 S 
ATOM     70  O   UNL A   1      47.338  28.151  22.619  1.00  0.00    -0.237 OA
ATOM     71  O   UNL A   1      49.793  28.033  22.839  1.00  0.00    -0.237 OA
ATOM     72  O   UNL A   1      48.436  25.978  23.018  1.00  0.00    -0.744 OA
ENDBRANCH  65  69
ENDBRANCH  48  62
BRANCH  49  73
ATOM     73  C   UNL A   1      38.277  30.823  31.007  1.00  0.00     0.023 A 
ATOM     74  C   UNL A   1      37.269  31.384  30.202  1.00  0.00     0.031 A 
ATOM     75  C   UNL A   1      38.056  30.754  32.394  1.00  0.00     0.131 A 
ATOM     76  C   UNL A   1      36.124  31.926  30.802  1.00  0.00     0.055 A 
ATOM     77  C   UNL A   1      36.882  31.232  32.978  1.00  0.00     0.041 A 
ATOM     78  F   UNL A   1      38.997  30.243  33.203  1.00  0.00    -0.206 F 
ATOM     79  C   UNL A   1      35.917  31.839  32.182  1.00  0.00     0.022 A 
BRANCH  76  80
ATOM     80  S   UNL A   1      34.931  32.889  29.830  1.00  0.00     0.124 S 
ATOM     81  O   UNL A   1      34.352  31.870  28.959  1.00  0.00    -0.237 OA
ATOM     82  O   UNL A   1      34.048  33.404  30.872  1.00  0.00    -0.237 OA
ATOM     83  O   UNL A   1      35.757  33.890  29.164  1.00  0.00    -0.744 OA
ENDBRANCH  76  80
ENDBRANCH  49  73
BRANCH  61  84
ATOM     84  C   UNL A   1      44.318  34.287  29.914  1.00  0.00     0.023 A 
ATOM     85  C   UNL A   1      44.189  35.291  28.934  1.00  0.00     0.031 A 
ATOM     86  C   UNL A   1      45.044  34.586  31.079  1.00  0.00     0.131 A 
ATOM     87  C   UNL A   1      44.812  36.532  29.119  1.00  0.00     0.055 A 
ATOM     88  C   UNL A   1      45.628  35.838  31.278  1.00  0.00     0.041 A 
ATOM     89  F   UNL A   1      45.207  33.660  32.037  1.00  0.00    -0.206 F 
ATOM     90  C   UNL A   1      45.527  36.812  30.289  1.00  0.00     0.022 A 
BRANCH  87  91
ATOM     91  S   UNL A   1      44.798  37.794  27.816  1.00  0.00     0.124 S 
ATOM     92  O   UNL A   1      45.785  37.269  26.876  1.00  0.00    -0.237 OA
ATOM     93  O   UNL A   1      43.412  37.746  27.356  1.00  0.00    -0.237 OA
ATOM     94  O   UNL A   1      45.188  39.019  28.506  1.00  0.00    -0.744 OA
ENDBRANCH  87  91
ENDBRANCH  61  84
ENDBRANCH  35  36
ENDBRANCH  28  30
ENDBRANCH  27  28
ENDBRANCH  26  27
ENDBRANCH   1  26
TORSDOF 18
ENDMDL
