MODEL 1
REMARK VINA RESULT:     -11.8      0.000      0.000
REMARK SMILES C[C@@H]1C[N@@H+]([C@@H]2CC[C@]([NH2+]C3CC3)(C(=O)OCCOC(=O)c3ccc(-c4c5nc(c(-c6cc(S(=O)(=O)[O-])ccc6F)c6ccc([nH]6)c(-c6cc(S(=O)(=O)[O-])ccc6F)c6nc(c(-c7cc(S(=O)(=O)[O-])ccc7F)c7ccc4[nH]7)C=C6)C=C5)cc3)C2)CC(C)(C)O1
REMARK SMILES IDX 17 1 16 2 15 3 13 4 14 5 8 6 5 7 6 8 84 9 7 10 4 11 1 12
REMARK SMILES IDX 2 13 3 14 89 15 86 16 85 17 87 19 88 20 9 21 10 24 11 25
REMARK SMILES IDX 12 26 18 27 19 28 20 29 21 30 22 31 83 32 23 33 82 34 24 35
REMARK SMILES IDX 25 36 26 37 76 38 27 39 81 40 75 41 77 42 28 43 80 44 74 45
REMARK SMILES IDX 73 46 29 48 61 49 41 50 60 51 42 52 45 53 59 54 78 55 43 56
REMARK SMILES IDX 44 57 58 59 79 60 46 61 30 62 31 63 39 64 32 65 38 66 40 67
REMARK SMILES IDX 37 68 33 69 34 70 35 71 36 72 62 73 63 74 71 75 64 76 70 77
REMARK SMILES IDX 72 78 69 79 65 80 66 81 67 82 68 83 47 84 48 85 56 86 49 87
REMARK SMILES IDX 55 88 57 89 54 90 50 91 51 92 52 93 53 94
REMARK H PARENT 4 18 9 22 9 23 77 47 45 58
REMARK Flexibility Score: inf
ROOT
ATOM      1  C   UNL A   1      32.246  30.016  25.516  1.00  0.00     0.275 C 
ENDROOT
BRANCH   1   2
ATOM      2  C   UNL A   1      33.277  29.304  24.640  1.00  0.00     0.274 C 
BRANCH   2   3
ATOM      3  O   UNL A   1      32.765  29.141  23.301  1.00  0.00    -0.457 OA
BRANCH   3   4
ATOM      4  C   UNL A   1      33.274  28.074  22.614  1.00  0.00     0.368 C 
ATOM      5  O   UNL A   1      34.233  28.150  21.849  1.00  0.00    -0.245 OA
BRANCH   4   6
ATOM      6  C   UNL A   1      32.571  26.733  22.982  1.00  0.00     0.200 C 
ATOM      7  C   UNL A   1      33.137  24.472  23.625  1.00  0.00     0.191 C 
ATOM      8  C   UNL A   1      33.039  24.467  22.099  1.00  0.00     0.072 C 
ATOM      9  C   UNL A   1      33.445  25.933  23.961  1.00  0.00     0.146 C 
ATOM     10  C   UNL A   1      32.441  25.827  21.729  1.00  0.00     0.087 C 
BRANCH   7  11
ATOM     11  N   UNL A   1      34.030  23.505  24.263  1.00  0.00    -0.328 N 
ATOM     12  C   UNL A   1      34.422  20.474  24.950  1.00  0.00     0.045 C 
ATOM     13  C   UNL A   1      34.451  21.683  25.882  1.00  0.00     0.171 C 
ATOM     14  C   UNL A   1      33.488  22.801  25.435  1.00  0.00     0.294 C 
ATOM     15  O   UNL A   1      35.787  22.157  26.118  1.00  0.00    -0.361 OA
ATOM     16  C   UNL A   1      36.332  23.060  25.133  1.00  0.00     0.112 C 
ATOM     17  C   UNL A   1      35.303  24.128  24.679  1.00  0.00     0.297 C 
ATOM     18  H   UNL A   1      34.164  22.812  23.527  1.00  0.00     0.348 HD
ATOM     19  C   UNL A   1      36.901  22.287  23.935  1.00  0.00     0.048 C 
ATOM     20  C   UNL A   1      37.500  23.767  25.837  1.00  0.00     0.048 C 
ENDBRANCH   7  11
BRANCH   6  21
ATOM     21  N   UNL A   1      31.260  27.099  23.580  1.00  0.00    -0.329 N 
ATOM     22  H   UNL A   1      31.435  27.874  24.220  1.00  0.00     0.347 HD
ATOM     23  H   UNL A   1      30.935  26.220  23.984  1.00  0.00     0.347 HD
BRANCH  21  24
ATOM     24  C   UNL A   1      30.152  27.503  22.721  1.00  0.00     0.183 C 
ATOM     25  C   UNL A   1      28.784  27.608  23.334  1.00  0.00     0.071 C 
ATOM     26  C   UNL A   1      29.527  28.852  22.951  1.00  0.00     0.071 C 
ENDBRANCH  21  24
ENDBRANCH   6  21
ENDBRANCH   4   6
ENDBRANCH   3   4
ENDBRANCH   2   3
ENDBRANCH   1   2
BRANCH   1  27
ATOM     27  O   UNL A   1      32.736  30.077  26.864  1.00  0.00    -0.458 OA
BRANCH  27  28
ATOM     28  C   UNL A   1      33.362  31.227  27.213  1.00  0.00     0.338 C 
ATOM     29  O   UNL A   1      32.909  32.354  27.121  1.00  0.00    -0.246 OA
BRANCH  28  30
ATOM     30  C   UNL A   1      34.706  30.915  27.757  1.00  0.00     0.060 A 
ATOM     31  C   UNL A   1      35.039  29.614  28.140  1.00  0.00     0.016 A 
ATOM     32  C   UNL A   1      35.623  31.945  27.960  1.00  0.00     0.016 A 
ATOM     33  C   UNL A   1      36.240  29.347  28.793  1.00  0.00     0.010 A 
ATOM     34  C   UNL A   1      36.873  31.658  28.522  1.00  0.00     0.010 A 
ATOM     35  C   UNL A   1      37.187  30.360  28.969  1.00  0.00    -0.014 A 
BRANCH  35  36
ATOM     36  C   UNL A   1      38.486  30.089  29.647  1.00  0.00     0.031 A 
ATOM     37  C   UNL A   1      39.475  29.147  29.011  1.00  0.00     0.074 A 
ATOM     38  C   UNL A   1      38.785  30.665  30.830  1.00  0.00     0.049 A 
ATOM     39  N   UNL A   1      40.529  28.572  29.529  1.00  0.00    -0.248 NA
ATOM     40  C   UNL A   1      39.225  28.794  27.605  1.00  0.00     0.031 C 
ATOM     41  C   UNL A   1      37.958  31.650  31.530  1.00  0.00     0.029 A 
ATOM     42  N   UNL A   1      39.868  30.497  31.658  1.00  0.00    -0.354 N 
ATOM     43  C   UNL A   1      41.035  27.742  28.534  1.00  0.00     0.074 A 
ATOM     44  C   UNL A   1      40.164  27.885  27.386  1.00  0.00     0.031 C 
ATOM     45  C   UNL A   1      38.572  32.014  32.666  1.00  0.00     0.029 A 
ATOM     46  C   UNL A   1      39.782  31.217  32.829  1.00  0.00     0.049 A 
ATOM     47  H   UNL A   1      40.633  29.918  31.436  1.00  0.00     0.167 HD
ATOM     48  C   UNL A   1      42.124  26.933  28.580  1.00  0.00     0.034 A 
ATOM     49  C   UNL A   1      40.553  31.195  33.935  1.00  0.00     0.034 A 
ATOM     50  C   UNL A   1      43.002  26.833  29.720  1.00  0.00     0.049 A 
ATOM     51  C   UNL A   1      41.719  30.244  33.990  1.00  0.00     0.074 A 
ATOM     52  C   UNL A   1      44.130  26.045  29.878  1.00  0.00     0.029 A 
ATOM     53  N   UNL A   1      42.857  27.554  30.899  1.00  0.00    -0.354 N 
ATOM     54  N   UNL A   1      42.138  29.396  33.079  1.00  0.00    -0.248 NA
ATOM     55  C   UNL A   1      42.506  30.235  35.230  1.00  0.00     0.031 C 
ATOM     56  C   UNL A   1      44.636  26.252  31.167  1.00  0.00     0.029 A 
ATOM     57  C   UNL A   1      43.863  27.216  31.792  1.00  0.00     0.049 A 
ATOM     58  H   UNL A   1      42.144  28.209  31.076  1.00  0.00     0.167 HD
ATOM     59  C   UNL A   1      43.248  28.765  33.632  1.00  0.00     0.074 A 
ATOM     60  C   UNL A   1      43.443  29.343  34.947  1.00  0.00     0.031 C 
ATOM     61  C   UNL A   1      44.036  27.794  33.103  1.00  0.00     0.034 A 
BRANCH  48  62
ATOM     62  C   UNL A   1      42.378  26.046  27.383  1.00  0.00     0.023 A 
ATOM     63  C   UNL A   1      41.940  24.711  27.336  1.00  0.00     0.031 A 
ATOM     64  C   UNL A   1      43.109  26.537  26.287  1.00  0.00     0.131 A 
ATOM     65  C   UNL A   1      42.304  23.894  26.254  1.00  0.00     0.055 A 
ATOM     66  C   UNL A   1      43.399  25.742  25.177  1.00  0.00     0.041 A 
ATOM     67  F   UNL A   1      43.574  27.797  26.284  1.00  0.00    -0.206 F 
ATOM     68  C   UNL A   1      43.009  24.406  25.163  1.00  0.00     0.022 A 
BRANCH  65  69
ATOM     69  S   UNL A   1      41.967  22.114  26.361  1.00  0.00     0.124 S 
ATOM     70  O   UNL A   1      42.251  21.845  27.769  1.00  0.00    -0.237 OA
ATOM     71  O   UNL A   1      40.566  22.034  25.966  1.00  0.00    -0.237 OA
ATOM     72  O   UNL A   1      42.918  21.528  25.418  1.00  0.00    -0.744 OA
ENDBRANCH  65  69
ENDBRANCH  48  62
BRANCH  49  73
ATOM     73  C   UNL A   1      40.205  32.040  35.114  1.00  0.00     0.023 A 
ATOM     74  C   UNL A   1      39.263  31.610  36.061  1.00  0.00     0.031 A 
ATOM     75  C   UNL A   1      40.781  33.312  35.287  1.00  0.00     0.131 A 
ATOM     76  C   UNL A   1      38.897  32.457  37.117  1.00  0.00     0.055 A 
ATOM     77  C   UNL A   1      40.455  34.129  36.371  1.00  0.00     0.041 A 
ATOM     78  F   UNL A   1      41.685  33.775  34.409  1.00  0.00    -0.206 F 
ATOM     79  C   UNL A   1      39.498  33.706  37.288  1.00  0.00     0.022 A 
BRANCH  76  80
ATOM     80  S   UNL A   1      37.563  31.934  38.229  1.00  0.00     0.124 S 
ATOM     81  O   UNL A   1      38.202  32.052  39.535  1.00  0.00    -0.237 OA
ATOM     82  O   UNL A   1      36.521  32.913  37.935  1.00  0.00    -0.237 OA
ATOM     83  O   UNL A   1      37.273  30.570  37.795  1.00  0.00    -0.744 OA
ENDBRANCH  76  80
ENDBRANCH  49  73
BRANCH  61  84
ATOM     84  C   UNL A   1      45.205  27.340  33.939  1.00  0.00     0.023 A 
ATOM     85  C   UNL A   1      45.115  26.233  34.800  1.00  0.00     0.031 A 
ATOM     86  C   UNL A   1      46.422  28.043  33.886  1.00  0.00     0.131 A 
ATOM     87  C   UNL A   1      46.205  25.893  35.615  1.00  0.00     0.055 A 
ATOM     88  C   UNL A   1      47.520  27.668  34.660  1.00  0.00     0.041 A 
ATOM     89  F   UNL A   1      46.561  29.109  33.081  1.00  0.00    -0.206 F 
ATOM     90  C   UNL A   1      47.412  26.595  35.539  1.00  0.00     0.022 A 
BRANCH  87  91
ATOM     91  S   UNL A   1      46.000  24.570  36.838  1.00  0.00     0.124 S 
ATOM     92  O   UNL A   1      47.381  24.284  37.212  1.00  0.00    -0.237 OA
ATOM     93  O   UNL A   1      45.183  25.214  37.862  1.00  0.00    -0.237 OA
ATOM     94  O   UNL A   1      45.329  23.510  36.088  1.00  0.00    -0.744 OA
ENDBRANCH  87  91
ENDBRANCH  61  84
ENDBRANCH  35  36
ENDBRANCH  28  30
ENDBRANCH  27  28
ENDBRANCH   1  27
TORSDOF 17
ENDMDL
MODEL 2
REMARK VINA RESULT:     -11.5      2.058      2.356
REMARK SMILES C[C@@H]1C[N@@H+]([C@@H]2CC[C@]([NH2+]C3CC3)(C(=O)OCCOC(=O)c3ccc(-c4c5nc(c(-c6cc(S(=O)(=O)[O-])ccc6F)c6ccc([nH]6)c(-c6cc(S(=O)(=O)[O-])ccc6F)c6nc(c(-c7cc(S(=O)(=O)[O-])ccc7F)c7ccc4[nH]7)C=C6)C=C5)cc3)C2)CC(C)(C)O1
REMARK SMILES IDX 17 1 16 2 15 3 13 4 14 5 8 6 5 7 6 8 84 9 7 10 4 11 1 12
REMARK SMILES IDX 2 13 3 14 89 15 86 16 85 17 87 19 88 20 9 21 10 24 11 25
REMARK SMILES IDX 12 26 18 27 19 28 20 29 21 30 22 31 83 32 23 33 82 34 24 35
REMARK SMILES IDX 25 36 26 37 76 38 27 39 81 40 75 41 77 42 28 43 80 44 74 45
REMARK SMILES IDX 73 46 29 48 61 49 41 50 60 51 42 52 45 53 59 54 78 55 43 56
REMARK SMILES IDX 44 57 58 59 79 60 46 61 30 62 31 63 39 64 32 65 38 66 40 67
REMARK SMILES IDX 37 68 33 69 34 70 35 71 36 72 62 73 63 74 71 75 64 76 70 77
REMARK SMILES IDX 72 78 69 79 65 80 66 81 67 82 68 83 47 84 48 85 56 86 49 87
REMARK SMILES IDX 55 88 57 89 54 90 50 91 51 92 52 93 53 94
REMARK H PARENT 4 18 9 22 9 23 77 47 45 58
REMARK Flexibility Score: inf
ROOT
ATOM      1  C   UNL A   1      31.815  29.772  25.251  1.00  0.00     0.275 C 
ENDROOT
BRANCH   1   2
ATOM      2  C   UNL A   1      32.941  29.280  24.342  1.00  0.00     0.274 C 
BRANCH   2   3
ATOM      3  O   UNL A   1      32.406  28.860  23.069  1.00  0.00    -0.457 OA
BRANCH   3   4
ATOM      4  C   UNL A   1      33.101  27.857  22.452  1.00  0.00     0.368 C 
ATOM      5  O   UNL A   1      34.161  28.028  21.856  1.00  0.00    -0.245 OA
BRANCH   4   6
ATOM      6  C   UNL A   1      32.454  26.456  22.674  1.00  0.00     0.200 C 
ATOM      7  C   UNL A   1      33.008  24.300  23.617  1.00  0.00     0.191 C 
ATOM      8  C   UNL A   1      33.401  24.231  22.141  1.00  0.00     0.072 C 
ATOM      9  C   UNL A   1      33.046  25.797  23.930  1.00  0.00     0.146 C 
ATOM     10  C   UNL A   1      32.819  25.499  21.510  1.00  0.00     0.087 C 
BRANCH   7  11
ATOM     11  N   UNL A   1      33.744  23.465  24.566  1.00  0.00    -0.328 N 
ATOM     12  C   UNL A   1      33.600  22.066  27.366  1.00  0.00     0.045 C 
ATOM     13  C   UNL A   1      34.648  23.038  26.829  1.00  0.00     0.171 C 
ATOM     14  C   UNL A   1      34.051  24.083  25.866  1.00  0.00     0.294 C 
ATOM     15  O   UNL A   1      35.790  22.359  26.281  1.00  0.00    -0.361 OA
ATOM     16  C   UNL A   1      35.678  21.918  24.911  1.00  0.00     0.112 C 
ATOM     17  C   UNL A   1      35.021  22.987  23.999  1.00  0.00     0.297 C 
ATOM     18  H   UNL A   1      33.090  22.702  24.740  1.00  0.00     0.348 HD
ATOM     19  C   UNL A   1      34.937  20.577  24.825  1.00  0.00     0.048 C 
ATOM     20  C   UNL A   1      37.124  21.691  24.442  1.00  0.00     0.048 C 
ENDBRANCH   7  11
BRANCH   6  21
ATOM     21  N   UNL A   1      30.992  26.688  22.807  1.00  0.00    -0.329 N 
ATOM     22  H   UNL A   1      30.593  26.594  21.873  1.00  0.00     0.347 HD
ATOM     23  H   UNL A   1      30.940  27.606  23.250  1.00  0.00     0.347 HD
BRANCH  21  24
ATOM     24  C   UNL A   1      30.195  25.844  23.691  1.00  0.00     0.183 C 
ATOM     25  C   UNL A   1      29.907  26.346  25.079  1.00  0.00     0.071 C 
ATOM     26  C   UNL A   1      28.810  26.303  24.058  1.00  0.00     0.071 C 
ENDBRANCH  21  24
ENDBRANCH   6  21
ENDBRANCH   4   6
ENDBRANCH   3   4
ENDBRANCH   2   3
ENDBRANCH   1   2
BRANCH   1  27
ATOM     27  O   UNL A   1      32.303  29.858  26.598  1.00  0.00    -0.458 OA
BRANCH  27  28
ATOM     28  C   UNL A   1      32.810  31.059  26.967  1.00  0.00     0.338 C 
ATOM     29  O   UNL A   1      32.257  32.140  26.866  1.00  0.00    -0.246 OA
BRANCH  28  30
ATOM     30  C   UNL A   1      34.163  30.870  27.545  1.00  0.00     0.060 A 
ATOM     31  C   UNL A   1      34.623  29.598  27.886  1.00  0.00     0.016 A 
ATOM     32  C   UNL A   1      34.955  31.983  27.822  1.00  0.00     0.016 A 
ATOM     33  C   UNL A   1      35.826  29.432  28.570  1.00  0.00     0.010 A 
ATOM     34  C   UNL A   1      36.211  31.808  28.415  1.00  0.00     0.010 A 
ATOM     35  C   UNL A   1      36.651  30.533  28.820  1.00  0.00    -0.014 A 
BRANCH  35  36
ATOM     36  C   UNL A   1      37.951  30.374  29.532  1.00  0.00     0.031 A 
ATOM     37  C   UNL A   1      39.024  29.502  28.934  1.00  0.00     0.074 A 
ATOM     38  C   UNL A   1      38.175  30.989  30.711  1.00  0.00     0.049 A 
ATOM     39  N   UNL A   1      40.106  29.018  29.486  1.00  0.00    -0.248 NA
ATOM     40  C   UNL A   1      38.836  29.109  27.530  1.00  0.00     0.031 C 
ATOM     41  C   UNL A   1      37.259  31.918  31.375  1.00  0.00     0.029 A 
ATOM     42  N   UNL A   1      39.248  30.919  31.566  1.00  0.00    -0.354 N 
ATOM     43  C   UNL A   1      40.699  28.215  28.517  1.00  0.00     0.074 A 
ATOM     44  C   UNL A   1      39.847  28.273  27.348  1.00  0.00     0.031 C 
ATOM     45  C   UNL A   1      37.815  32.345  32.519  1.00  0.00     0.029 A 
ATOM     46  C   UNL A   1      39.080  31.647  32.723  1.00  0.00     0.049 A 
ATOM     47  H   UNL A   1      40.060  30.397  31.372  1.00  0.00     0.167 HD
ATOM     48  C   UNL A   1      41.846  27.493  28.602  1.00  0.00     0.034 A 
ATOM     49  C   UNL A   1      39.823  31.703  33.846  1.00  0.00     0.034 A 
ATOM     50  C   UNL A   1      42.701  27.479  29.763  1.00  0.00     0.049 A 
ATOM     51  C   UNL A   1      41.057  30.846  33.944  1.00  0.00     0.074 A 
ATOM     52  C   UNL A   1      43.883  26.784  29.960  1.00  0.00     0.029 A 
ATOM     53  N   UNL A   1      42.473  28.205  30.926  1.00  0.00    -0.354 N 
ATOM     54  N   UNL A   1      41.562  30.018  33.058  1.00  0.00    -0.248 NA
ATOM     55  C   UNL A   1      41.812  30.916  35.202  1.00  0.00     0.031 C 
ATOM     56  C   UNL A   1      44.340  27.049  31.257  1.00  0.00     0.029 A 
ATOM     57  C   UNL A   1      43.480  27.960  31.848  1.00  0.00     0.049 A 
ATOM     58  H   UNL A   1      41.708  28.805  31.075  1.00  0.00     0.167 HD
ATOM     59  C   UNL A   1      42.704  29.484  33.646  1.00  0.00     0.074 A 
ATOM     60  C   UNL A   1      42.822  30.095  34.955  1.00  0.00     0.031 C 
ATOM     61  C   UNL A   1      43.576  28.570  33.152  1.00  0.00     0.034 A 
BRANCH  48  62
ATOM     62  C   UNL A   1      42.196  26.611  27.426  1.00  0.00     0.023 A 
ATOM     63  C   UNL A   1      41.755  25.279  27.334  1.00  0.00     0.031 A 
ATOM     64  C   UNL A   1      43.022  27.103  26.400  1.00  0.00     0.131 A 
ATOM     65  C   UNL A   1      42.205  24.465  26.283  1.00  0.00     0.055 A 
ATOM     66  C   UNL A   1      43.401  26.310  25.314  1.00  0.00     0.041 A 
ATOM     67  F   UNL A   1      43.493  28.359  26.444  1.00  0.00    -0.206 F 
ATOM     68  C   UNL A   1      43.005  24.978  25.259  1.00  0.00     0.022 A 
BRANCH  65  69
ATOM     69  S   UNL A   1      41.849  22.687  26.351  1.00  0.00     0.124 S 
ATOM     70  O   UNL A   1      42.437  22.318  27.637  1.00  0.00    -0.237 OA
ATOM     71  O   UNL A   1      40.393  22.654  26.282  1.00  0.00    -0.237 OA
ATOM     72  O   UNL A   1      42.544  22.153  25.181  1.00  0.00    -0.744 OA
ENDBRANCH  65  69
ENDBRANCH  48  62
BRANCH  49  73
ATOM     73  C   UNL A   1      39.382  32.536  35.003  1.00  0.00     0.023 A 
ATOM     74  C   UNL A   1      39.866  33.841  35.181  1.00  0.00     0.031 A 
ATOM     75  C   UNL A   1      38.502  32.020  35.971  1.00  0.00     0.131 A 
ATOM     76  C   UNL A   1      39.496  34.573  36.319  1.00  0.00     0.055 A 
ATOM     77  C   UNL A   1      38.093  32.773  37.073  1.00  0.00     0.041 A 
ATOM     78  F   UNL A   1      38.012  30.776  35.852  1.00  0.00    -0.206 F 
ATOM     79  C   UNL A   1      38.601  34.054  37.257  1.00  0.00     0.022 A 
BRANCH  76  80
ATOM     80  S   UNL A   1      40.264  36.193  36.598  1.00  0.00     0.124 S 
ATOM     81  O   UNL A   1      39.554  36.657  37.784  1.00  0.00    -0.237 OA
ATOM     82  O   UNL A   1      41.666  35.835  36.789  1.00  0.00    -0.237 OA
ATOM     83  O   UNL A   1      39.972  36.924  35.368  1.00  0.00    -0.744 OA
ENDBRANCH  76  80
ENDBRANCH  49  73
BRANCH  61  84
ATOM     84  C   UNL A   1      44.757  28.221  34.021  1.00  0.00     0.023 A 
ATOM     85  C   UNL A   1      45.964  28.939  33.954  1.00  0.00     0.031 A 
ATOM     86  C   UNL A   1      44.678  27.137  34.914  1.00  0.00     0.131 A 
ATOM     87  C   UNL A   1      47.061  28.531  34.727  1.00  0.00     0.055 A 
ATOM     88  C   UNL A   1      45.756  26.769  35.719  1.00  0.00     0.041 A 
ATOM     89  F   UNL A   1      43.549  26.417  35.015  1.00  0.00    -0.206 F 
ATOM     90  C   UNL A   1      46.960  27.460  35.620  1.00  0.00     0.022 A 
BRANCH  87  91
ATOM     91  S   UNL A   1      48.653  29.369  34.492  1.00  0.00     0.124 S 
ATOM     92  O   UNL A   1      48.243  30.759  34.321  1.00  0.00    -0.237 OA
ATOM     93  O   UNL A   1      49.356  29.059  35.732  1.00  0.00    -0.237 OA
ATOM     94  O   UNL A   1      49.202  28.733  33.295  1.00  0.00    -0.744 OA
ENDBRANCH  87  91
ENDBRANCH  61  84
ENDBRANCH  35  36
ENDBRANCH  28  30
ENDBRANCH  27  28
ENDBRANCH   1  27
TORSDOF 17
ENDMDL
MODEL 3
REMARK VINA RESULT:     -11.1      2.630      3.753
REMARK SMILES C[C@@H]1C[N@@H+]([C@@H]2CC[C@]([NH2+]C3CC3)(C(=O)OCCOC(=O)c3ccc(-c4c5nc(c(-c6cc(S(=O)(=O)[O-])ccc6F)c6ccc([nH]6)c(-c6cc(S(=O)(=O)[O-])ccc6F)c6nc(c(-c7cc(S(=O)(=O)[O-])ccc7F)c7ccc4[nH]7)C=C6)C=C5)cc3)C2)CC(C)(C)O1
REMARK SMILES IDX 17 1 16 2 15 3 13 4 14 5 8 6 5 7 6 8 84 9 7 10 4 11 1 12
REMARK SMILES IDX 2 13 3 14 89 15 86 16 85 17 87 19 88 20 9 21 10 24 11 25
REMARK SMILES IDX 12 26 18 27 19 28 20 29 21 30 22 31 83 32 23 33 82 34 24 35
REMARK SMILES IDX 25 36 26 37 76 38 27 39 81 40 75 41 77 42 28 43 80 44 74 45
REMARK SMILES IDX 73 46 29 48 61 49 41 50 60 51 42 52 45 53 59 54 78 55 43 56
REMARK SMILES IDX 44 57 58 59 79 60 46 61 30 62 31 63 39 64 32 65 38 66 40 67
REMARK SMILES IDX 37 68 33 69 34 70 35 71 36 72 62 73 63 74 71 75 64 76 70 77
REMARK SMILES IDX 72 78 69 79 65 80 66 81 67 82 68 83 47 84 48 85 56 86 49 87
REMARK SMILES IDX 55 88 57 89 54 90 50 91 51 92 52 93 53 94
REMARK H PARENT 4 18 9 22 9 23 77 47 45 58
REMARK Flexibility Score: inf
ROOT
ATOM      1  C   UNL A   1      31.796  33.091  26.854  1.00  0.00     0.275 C 
ENDROOT
BRANCH   1   2
ATOM      2  C   UNL A   1      31.345  31.670  26.517  1.00  0.00     0.274 C 
BRANCH   2   3
ATOM      3  O   UNL A   1      32.478  30.867  26.127  1.00  0.00    -0.457 OA
BRANCH   3   4
ATOM      4  C   UNL A   1      32.166  29.647  25.595  1.00  0.00     0.368 C 
ATOM      5  O   UNL A   1      31.695  29.493  24.470  1.00  0.00    -0.245 OA
BRANCH   4   6
ATOM      6  C   UNL A   1      32.564  28.466  26.530  1.00  0.00     0.200 C 
ATOM      7  C   UNL A   1      32.899  26.073  26.435  1.00  0.00     0.191 C 
ATOM      8  C   UNL A   1      31.430  26.281  26.804  1.00  0.00     0.072 C 
ATOM      9  C   UNL A   1      33.278  27.371  25.720  1.00  0.00     0.146 C 
ATOM     10  C   UNL A   1      31.298  27.777  27.103  1.00  0.00     0.087 C 
BRANCH   7  11
ATOM     11  N   UNL A   1      33.263  24.856  25.709  1.00  0.00    -0.328 N 
ATOM     12  C   UNL A   1      32.123  22.331  24.246  1.00  0.00     0.045 C 
ATOM     13  C   UNL A   1      33.138  22.406  25.384  1.00  0.00     0.171 C 
ATOM     14  C   UNL A   1      32.871  23.586  26.341  1.00  0.00     0.294 C 
ATOM     15  O   UNL A   1      34.493  22.367  24.909  1.00  0.00    -0.361 OA
ATOM     16  C   UNL A   1      35.062  23.624  24.485  1.00  0.00     0.112 C 
ATOM     17  C   UNL A   1      34.716  24.785  25.454  1.00  0.00     0.297 C 
ATOM     18  H   UNL A   1      32.724  24.946  24.848  1.00  0.00     0.348 HD
ATOM     19  C   UNL A   1      34.648  23.956  23.044  1.00  0.00     0.048 C 
ATOM     20  C   UNL A   1      36.583  23.404  24.502  1.00  0.00     0.048 C 
ENDBRANCH   7  11
BRANCH   6  21
ATOM     21  N   UNL A   1      33.444  29.042  27.580  1.00  0.00    -0.329 N 
ATOM     22  H   UNL A   1      33.303  28.484  28.421  1.00  0.00     0.347 HD
ATOM     23  H   UNL A   1      33.159  30.022  27.612  1.00  0.00     0.347 HD
BRANCH  21  24
ATOM     24  C   UNL A   1      34.885  29.121  27.363  1.00  0.00     0.183 C 
ATOM     25  C   UNL A   1      35.546  30.466  27.481  1.00  0.00     0.071 C 
ATOM     26  C   UNL A   1      35.768  29.430  28.542  1.00  0.00     0.071 C 
ENDBRANCH  21  24
ENDBRANCH   6  21
ENDBRANCH   4   6
ENDBRANCH   3   4
ENDBRANCH   2   3
ENDBRANCH   1   2
BRANCH   1  27
ATOM     27  O   UNL A   1      33.067  33.036  27.520  1.00  0.00    -0.458 OA
BRANCH  27  28
ATOM     28  C   UNL A   1      33.277  33.977  28.471  1.00  0.00     0.338 C 
ATOM     29  O   UNL A   1      32.594  34.965  28.675  1.00  0.00    -0.246 OA
BRANCH  28  30
ATOM     30  C   UNL A   1      34.478  33.620  29.264  1.00  0.00     0.060 A 
ATOM     31  C   UNL A   1      35.715  34.208  28.994  1.00  0.00     0.016 A 
ATOM     32  C   UNL A   1      34.390  32.630  30.241  1.00  0.00     0.016 A 
ATOM     33  C   UNL A   1      36.873  33.764  29.630  1.00  0.00     0.010 A 
ATOM     34  C   UNL A   1      35.535  32.256  30.954  1.00  0.00     0.010 A 
ATOM     35  C   UNL A   1      36.795  32.800  30.640  1.00  0.00    -0.014 A 
BRANCH  35  36
ATOM     36  C   UNL A   1      38.019  32.326  31.346  1.00  0.00     0.031 A 
ATOM     37  C   UNL A   1      38.876  31.260  30.716  1.00  0.00     0.074 A 
ATOM     38  C   UNL A   1      38.364  32.830  32.549  1.00  0.00     0.049 A 
ATOM     39  N   UNL A   1      39.817  30.525  31.249  1.00  0.00    -0.248 NA
ATOM     40  C   UNL A   1      38.618  30.973  29.296  1.00  0.00     0.031 C 
ATOM     41  C   UNL A   1      37.672  33.915  33.248  1.00  0.00     0.029 A 
ATOM     42  N   UNL A   1      39.386  32.489  33.401  1.00  0.00    -0.354 N 
ATOM     43  C   UNL A   1      40.225  29.647  30.250  1.00  0.00     0.074 A 
ATOM     44  C   UNL A   1      39.418  29.939  29.083  1.00  0.00     0.031 C 
ATOM     45  C   UNL A   1      38.300  34.163  34.408  1.00  0.00     0.029 A 
ATOM     46  C   UNL A   1      39.374  33.192  34.585  1.00  0.00     0.049 A 
ATOM     47  H   UNL A   1      40.063  31.807  33.187  1.00  0.00     0.167 HD
ATOM     48  C   UNL A   1      41.180  28.684  30.307  1.00  0.00     0.034 A 
ATOM     49  C   UNL A   1      40.099  33.037  35.710  1.00  0.00     0.034 A 
ATOM     50  C   UNL A   1      42.000  28.435  31.467  1.00  0.00     0.049 A 
ATOM     51  C   UNL A   1      41.110  31.923  35.776  1.00  0.00     0.074 A 
ATOM     52  C   UNL A   1      42.994  27.486  31.638  1.00  0.00     0.029 A 
ATOM     53  N   UNL A   1      41.928  29.148  32.657  1.00  0.00    -0.354 N 
ATOM     54  N   UNL A   1      41.425  31.037  34.858  1.00  0.00    -0.248 NA
ATOM     55  C   UNL A   1      41.850  31.774  37.036  1.00  0.00     0.031 C 
ATOM     56  C   UNL A   1      43.486  27.592  32.944  1.00  0.00     0.029 A 
ATOM     57  C   UNL A   1      42.846  28.650  33.570  1.00  0.00     0.049 A 
ATOM     58  H   UNL A   1      41.315  29.899  32.830  1.00  0.00     0.167 HD
ATOM     59  C   UNL A   1      42.413  30.239  35.426  1.00  0.00     0.074 A 
ATOM     60  C   UNL A   1      42.652  30.758  36.758  1.00  0.00     0.031 C 
ATOM     61  C   UNL A   1      43.064  29.172  34.897  1.00  0.00     0.034 A 
BRANCH  48  62
ATOM     62  C   UNL A   1      41.335  27.791  29.098  1.00  0.00     0.023 A 
ATOM     63  C   UNL A   1      42.330  28.010  28.130  1.00  0.00     0.031 A 
ATOM     64  C   UNL A   1      40.440  26.725  28.892  1.00  0.00     0.131 A 
ATOM     65  C   UNL A   1      42.358  27.226  26.966  1.00  0.00     0.055 A 
ATOM     66  C   UNL A   1      40.523  25.898  27.771  1.00  0.00     0.041 A 
ATOM     67  F   UNL A   1      39.455  26.481  29.771  1.00  0.00    -0.206 F 
ATOM     68  C   UNL A   1      41.477  26.156  26.791  1.00  0.00     0.022 A 
BRANCH  65  69
ATOM     69  S   UNL A   1      43.468  27.716  25.617  1.00  0.00     0.124 S 
ATOM     70  O   UNL A   1      44.120  28.894  26.186  1.00  0.00    -0.237 OA
ATOM     71  O   UNL A   1      44.309  26.536  25.456  1.00  0.00    -0.237 OA
ATOM     72  O   UNL A   1      42.557  27.992  24.507  1.00  0.00    -0.744 OA
ENDBRANCH  65  69
ENDBRANCH  48  62
BRANCH  49  73
ATOM     73  C   UNL A   1      39.846  33.903  36.899  1.00  0.00     0.023 A 
ATOM     74  C   UNL A   1      39.202  33.398  38.038  1.00  0.00     0.031 A 
ATOM     75  C   UNL A   1      40.207  35.263  36.892  1.00  0.00     0.131 A 
ATOM     76  C   UNL A   1      38.906  34.254  39.110  1.00  0.00     0.055 A 
ATOM     77  C   UNL A   1      39.960  36.097  37.984  1.00  0.00     0.041 A 
ATOM     78  F   UNL A   1      40.822  35.799  35.826  1.00  0.00    -0.206 F 
ATOM     79  C   UNL A   1      39.295  35.595  39.097  1.00  0.00     0.022 A 
BRANCH  76  80
ATOM     80  S   UNL A   1      37.934  33.606  40.497  1.00  0.00     0.124 S 
ATOM     81  O   UNL A   1      36.761  33.072  39.813  1.00  0.00    -0.237 OA
ATOM     82  O   UNL A   1      38.844  32.621  41.072  1.00  0.00    -0.237 OA
ATOM     83  O   UNL A   1      37.691  34.785  41.324  1.00  0.00    -0.744 OA
ENDBRANCH  76  80
ENDBRANCH  49  73
BRANCH  61  84
ATOM     84  C   UNL A   1      44.128  28.535  35.753  1.00  0.00     0.023 A 
ATOM     85  C   UNL A   1      45.463  28.974  35.723  1.00  0.00     0.031 A 
ATOM     86  C   UNL A   1      43.803  27.455  36.594  1.00  0.00     0.131 A 
ATOM     87  C   UNL A   1      46.435  28.302  36.480  1.00  0.00     0.055 A 
ATOM     88  C   UNL A   1      44.764  26.825  37.384  1.00  0.00     0.041 A 
ATOM     89  F   UNL A   1      42.543  26.996  36.658  1.00  0.00    -0.206 F 
ATOM     90  C   UNL A   1      46.091  27.240  37.321  1.00  0.00     0.022 A 
BRANCH  87  91
ATOM     91  S   UNL A   1      48.174  28.782  36.289  1.00  0.00     0.124 S 
ATOM     92  O   UNL A   1      48.169  30.152  36.791  1.00  0.00    -0.237 OA
ATOM     93  O   UNL A   1      48.862  27.800  37.122  1.00  0.00    -0.237 OA
ATOM     94  O   UNL A   1      48.412  28.647  34.853  1.00  0.00    -0.744 OA
ENDBRANCH  87  91
ENDBRANCH  61  84
ENDBRANCH  35  36
ENDBRANCH  28  30
ENDBRANCH  27  28
ENDBRANCH   1  27
TORSDOF 17
ENDMDL
