MODEL 1
REMARK VINA RESULT:     -13.2      0.000      0.000
REMARK SMILES CS(=O)(=O)c1ccc(/C=C(/C(=O)OCCOC(=O)c2ccc(-c3c4nc(c(-c5cc(S(=O)(=O)[O-])ccc5F)c5ccc([nH]5)c(-c5cc(S(=O)(=O)[O-])ccc5F)c5nc(c(-c6cc(S(=O)(=O)[O-])ccc6F)c6ccc3[nH]6)C=C5)C=C4)cc2)c2ccc(-c3ccc(F)cc3F)cc2)cc1
REMARK SMILES IDX 15 1 14 2 13 3 11 4 12 5 10 6 9 7 8 8 5 9 6 10 97 11 7 12
REMARK SMILES IDX 96 13 2 14 1 15 3 16 4 17 82 18 83 19 95 20 84 21 94 22
REMARK SMILES IDX 85 23 86 24 87 25 92 26 88 27 91 28 93 29 89 30 90 31 16 32
REMARK SMILES IDX 17 33 18 34 19 35 20 36 81 37 21 38 80 39 22 40 23 41 24 42
REMARK SMILES IDX 74 43 25 44 79 45 73 46 75 47 26 48 78 49 72 50 71 51 27 53
REMARK SMILES IDX 59 54 39 55 58 56 40 57 43 58 57 59 76 60 41 61 42 62 56 64
REMARK SMILES IDX 77 65 44 66 28 67 29 68 37 69 30 70 36 71 38 72 35 73 31 74
REMARK SMILES IDX 32 75 33 76 34 77 60 78 61 79 69 80 62 81 68 82 70 83 67 84
REMARK SMILES IDX 63 85 64 86 65 87 66 88 45 89 46 90 54 91 47 92 53 93 55 94
REMARK SMILES IDX 52 95 48 96 49 97 50 98 51 99
REMARK H PARENT 75 52 43 63
REMARK Flexibility Score: inf
ROOT
ATOM      1  C   UNL A   1      35.888  22.090  25.785  1.00  0.00     0.275 C 
ENDROOT
BRANCH   1   2
ATOM      2  C   UNL A   1      34.706  22.773  25.100  1.00  0.00     0.275 C 
BRANCH   2   3
ATOM      3  O   UNL A   1      34.348  23.990  25.788  1.00  0.00    -0.458 OA
BRANCH   3   4
ATOM      4  C   UNL A   1      33.030  24.126  26.091  1.00  0.00     0.338 C 
ATOM      5  O   UNL A   1      32.420  23.431  26.893  1.00  0.00    -0.246 OA
BRANCH   4   6
ATOM      6  C   UNL A   1      32.387  25.255  25.345  1.00  0.00     0.067 C 
ATOM      7  C   UNL A   1      31.536  25.007  24.323  1.00  0.00     0.024 C 
BRANCH   7   8
ATOM      8  C   UNL A   1      30.674  26.016  23.668  1.00  0.00    -0.025 A 
ATOM      9  C   UNL A   1      29.082  28.188  22.908  1.00  0.00     0.067 A 
ATOM     10  C   UNL A   1      30.375  28.069  22.403  1.00  0.00     0.021 A 
ATOM     11  C   UNL A   1      28.536  27.174  23.698  1.00  0.00     0.021 A 
ATOM     12  C   UNL A   1      31.152  26.966  22.757  1.00  0.00     0.009 A 
ATOM     13  C   UNL A   1      29.335  26.090  24.073  1.00  0.00     0.009 A 
BRANCH   9  14
ATOM     14  S   UNL A   1      28.178  29.684  22.602  1.00  0.00     0.175 S 
ATOM     15  C   UNL A   1      28.988  30.941  23.548  1.00  0.00     0.163 C 
ATOM     16  O   UNL A   1      26.855  29.525  23.173  1.00  0.00    -0.224 OA
ATOM     17  O   UNL A   1      28.365  30.005  21.200  1.00  0.00    -0.224 OA
ENDBRANCH   9  14
ENDBRANCH   7   8
BRANCH   6  18
ATOM     18  C   UNL A   1      32.683  26.627  25.809  1.00  0.00    -0.011 A 
ATOM     19  C   UNL A   1      31.852  27.183  26.782  1.00  0.00     0.009 A 
ATOM     20  C   UNL A   1      33.775  27.368  25.358  1.00  0.00     0.009 A 
ATOM     21  C   UNL A   1      32.090  28.469  27.272  1.00  0.00     0.009 A 
ATOM     22  C   UNL A   1      34.007  28.662  25.856  1.00  0.00     0.009 A 
ATOM     23  C   UNL A   1      33.155  29.259  26.804  1.00  0.00    -0.015 A 
BRANCH  23  24
ATOM     24  C   UNL A   1      33.311  30.664  27.274  1.00  0.00     0.018 A 
ATOM     25  C   UNL A   1      32.277  31.609  27.092  1.00  0.00     0.015 A 
ATOM     26  C   UNL A   1      34.504  31.145  27.854  1.00  0.00     0.133 A 
ATOM     27  C   UNL A   1      32.443  32.955  27.431  1.00  0.00     0.040 A 
ATOM     28  C   UNL A   1      34.670  32.481  28.220  1.00  0.00     0.079 A 
ATOM     29  F   UNL A   1      35.548  30.322  28.046  1.00  0.00    -0.206 F 
ATOM     30  C   UNL A   1      33.640  33.377  27.991  1.00  0.00     0.126 A 
ATOM     31  F   UNL A   1      33.796  34.667  28.311  1.00  0.00    -0.207 F 
ENDBRANCH  23  24
ENDBRANCH   6  18
ENDBRANCH   4   6
ENDBRANCH   3   4
ENDBRANCH   2   3
ENDBRANCH   1   2
BRANCH   1  32
ATOM     32  O   UNL A   1      37.113  22.507  25.156  1.00  0.00    -0.458 OA
BRANCH  32  33
ATOM     33  C   UNL A   1      38.250  22.043  25.726  1.00  0.00     0.338 C 
ATOM     34  O   UNL A   1      38.731  20.929  25.601  1.00  0.00    -0.246 OA
BRANCH  33  35
ATOM     35  C   UNL A   1      38.893  23.100  26.527  1.00  0.00     0.060 A 
ATOM     36  C   UNL A   1      38.312  24.360  26.585  1.00  0.00     0.016 A 
ATOM     37  C   UNL A   1      40.173  22.903  27.046  1.00  0.00     0.016 A 
ATOM     38  C   UNL A   1      39.078  25.450  26.999  1.00  0.00     0.010 A 
ATOM     39  C   UNL A   1      40.897  23.991  27.561  1.00  0.00     0.010 A 
ATOM     40  C   UNL A   1      40.397  25.301  27.457  1.00  0.00    -0.014 A 
BRANCH  40  41
ATOM     41  C   UNL A   1      41.266  26.507  27.682  1.00  0.00     0.031 A 
ATOM     42  C   UNL A   1      40.810  27.618  28.612  1.00  0.00     0.074 A 
ATOM     43  C   UNL A   1      42.509  26.589  27.158  1.00  0.00     0.049 A 
ATOM     44  N   UNL A   1      41.349  28.793  28.836  1.00  0.00    -0.248 NA
ATOM     45  C   UNL A   1      39.583  27.377  29.385  1.00  0.00     0.031 C 
ATOM     46  C   UNL A   1      43.143  25.573  26.316  1.00  0.00     0.029 A 
ATOM     47  N   UNL A   1      43.481  27.554  27.288  1.00  0.00    -0.354 N 
ATOM     48  C   UNL A   1      40.489  29.455  29.711  1.00  0.00     0.074 A 
ATOM     49  C   UNL A   1      39.391  28.549  29.973  1.00  0.00     0.031 C 
ATOM     50  C   UNL A   1      44.416  25.920  26.087  1.00  0.00     0.029 A 
ATOM     51  C   UNL A   1      44.659  27.244  26.646  1.00  0.00     0.049 A 
ATOM     52  H   UNL A   1      43.347  28.388  27.793  1.00  0.00     0.167 HD
ATOM     53  C   UNL A   1      40.596  30.700  30.243  1.00  0.00     0.034 A 
ATOM     54  C   UNL A   1      45.796  27.953  26.479  1.00  0.00     0.034 A 
ATOM     55  C   UNL A   1      41.721  31.581  30.027  1.00  0.00     0.049 A 
ATOM     56  C   UNL A   1      45.879  29.347  27.046  1.00  0.00     0.074 A 
ATOM     57  C   UNL A   1      41.908  32.874  30.489  1.00  0.00     0.029 A 
ATOM     58  N   UNL A   1      42.862  31.255  29.307  1.00  0.00    -0.354 N 
ATOM     59  N   UNL A   1      44.995  30.005  27.761  1.00  0.00    -0.248 NA
ATOM     60  C   UNL A   1      47.106  30.101  26.763  1.00  0.00     0.031 C 
ATOM     61  C   UNL A   1      43.134  33.345  30.006  1.00  0.00     0.029 A 
ATOM     62  C   UNL A   1      43.747  32.323  29.303  1.00  0.00     0.049 A 
ATOM     63  H   UNL A   1      43.020  30.390  28.863  1.00  0.00     0.167 HD
ATOM     64  C   UNL A   1      45.571  31.248  28.018  1.00  0.00     0.074 A 
ATOM     65  C   UNL A   1      46.886  31.232  27.415  1.00  0.00     0.031 C 
ATOM     66  C   UNL A   1      45.052  32.310  28.686  1.00  0.00     0.034 A 
BRANCH  53  67
ATOM     67  C   UNL A   1      39.424  31.213  31.050  1.00  0.00     0.023 A 
ATOM     68  C   UNL A   1      39.450  31.295  32.452  1.00  0.00     0.031 A 
ATOM     69  C   UNL A   1      38.237  31.593  30.392  1.00  0.00     0.131 A 
ATOM     70  C   UNL A   1      38.291  31.672  33.154  1.00  0.00     0.055 A 
ATOM     71  C   UNL A   1      37.116  32.044  31.091  1.00  0.00     0.041 A 
ATOM     72  F   UNL A   1      38.144  31.517  29.055  1.00  0.00    -0.206 F 
ATOM     73  C   UNL A   1      37.133  32.070  32.481  1.00  0.00     0.022 A 
BRANCH  70  74
ATOM     74  S   UNL A   1      38.268  31.484  34.957  1.00  0.00     0.124 S 
ATOM     75  O   UNL A   1      39.529  32.116  35.337  1.00  0.00    -0.237 OA
ATOM     76  O   UNL A   1      37.055  32.201  35.333  1.00  0.00    -0.237 OA
ATOM     77  O   UNL A   1      38.223  30.036  35.152  1.00  0.00    -0.744 OA
ENDBRANCH  70  74
ENDBRANCH  53  67
BRANCH  54  78
ATOM     78  C   UNL A   1      46.929  27.394  25.681  1.00  0.00     0.023 A 
ATOM     79  C   UNL A   1      47.173  27.824  24.366  1.00  0.00     0.031 A 
ATOM     80  C   UNL A   1      47.755  26.382  26.204  1.00  0.00     0.131 A 
ATOM     81  C   UNL A   1      48.189  27.220  23.610  1.00  0.00     0.055 A 
ATOM     82  C   UNL A   1      48.807  25.831  25.470  1.00  0.00     0.041 A 
ATOM     83  F   UNL A   1      47.559  25.919  27.449  1.00  0.00    -0.206 F 
ATOM     84  C   UNL A   1      49.020  26.242  24.159  1.00  0.00     0.022 A 
BRANCH  81  85
ATOM     85  S   UNL A   1      48.359  27.676  21.863  1.00  0.00     0.124 S 
ATOM     86  O   UNL A   1      47.075  28.311  21.594  1.00  0.00    -0.237 OA
ATOM     87  O   UNL A   1      49.521  28.559  21.896  1.00  0.00    -0.237 OA
ATOM     88  O   UNL A   1      48.572  26.393  21.196  1.00  0.00    -0.744 OA
ENDBRANCH  81  85
ENDBRANCH  54  78
BRANCH  66  89
ATOM     89  C   UNL A   1      45.937  33.526  28.825  1.00  0.00     0.023 A 
ATOM     90  C   UNL A   1      45.985  34.525  27.834  1.00  0.00     0.031 A 
ATOM     91  C   UNL A   1      46.776  33.668  29.944  1.00  0.00     0.131 A 
ATOM     92  C   UNL A   1      46.899  35.583  27.949  1.00  0.00     0.055 A 
ATOM     93  C   UNL A   1      47.641  34.754  30.082  1.00  0.00     0.041 A 
ATOM     94  F   UNL A   1      46.773  32.746  30.921  1.00  0.00    -0.206 F 
ATOM     95  C   UNL A   1      47.719  35.711  29.074  1.00  0.00     0.022 A 
BRANCH  92  96
ATOM     96  S   UNL A   1      47.083  36.733  26.558  1.00  0.00     0.124 S 
ATOM     97  O   UNL A   1      48.487  37.117  26.661  1.00  0.00    -0.237 OA
ATOM     98  O   UNL A   1      46.734  35.896  25.414  1.00  0.00    -0.237 OA
ATOM     99  O   UNL A   1      46.126  37.796  26.862  1.00  0.00    -0.744 OA
ENDBRANCH  92  96
ENDBRANCH  66  89
ENDBRANCH  40  41
ENDBRANCH  33  35
ENDBRANCH  32  33
ENDBRANCH   1  32
TORSDOF 18
ENDMDL
MODEL 2
REMARK VINA RESULT:     -13.2      4.556     10.679
REMARK SMILES CS(=O)(=O)c1ccc(/C=C(/C(=O)OCCOC(=O)c2ccc(-c3c4nc(c(-c5cc(S(=O)(=O)[O-])ccc5F)c5ccc([nH]5)c(-c5cc(S(=O)(=O)[O-])ccc5F)c5nc(c(-c6cc(S(=O)(=O)[O-])ccc6F)c6ccc3[nH]6)C=C5)C=C4)cc2)c2ccc(-c3ccc(F)cc3F)cc2)cc1
REMARK SMILES IDX 15 1 14 2 13 3 11 4 12 5 10 6 9 7 8 8 5 9 6 10 97 11 7 12
REMARK SMILES IDX 96 13 2 14 1 15 3 16 4 17 82 18 83 19 95 20 84 21 94 22
REMARK SMILES IDX 85 23 86 24 87 25 92 26 88 27 91 28 93 29 89 30 90 31 16 32
REMARK SMILES IDX 17 33 18 34 19 35 20 36 81 37 21 38 80 39 22 40 23 41 24 42
REMARK SMILES IDX 74 43 25 44 79 45 73 46 75 47 26 48 78 49 72 50 71 51 27 53
REMARK SMILES IDX 59 54 39 55 58 56 40 57 43 58 57 59 76 60 41 61 42 62 56 64
REMARK SMILES IDX 77 65 44 66 28 67 29 68 37 69 30 70 36 71 38 72 35 73 31 74
REMARK SMILES IDX 32 75 33 76 34 77 60 78 61 79 69 80 62 81 68 82 70 83 67 84
REMARK SMILES IDX 63 85 64 86 65 87 66 88 45 89 46 90 54 91 47 92 53 93 55 94
REMARK SMILES IDX 52 95 48 96 49 97 50 98 51 99
REMARK H PARENT 75 52 43 63
REMARK Flexibility Score: inf
ROOT
ATOM      1  C   UNL A   1      32.928  29.484  25.329  1.00  0.00     0.275 C 
ENDROOT
BRANCH   1   2
ATOM      2  C   UNL A   1      32.347  28.114  24.984  1.00  0.00     0.275 C 
BRANCH   2   3
ATOM      3  O   UNL A   1      33.384  27.214  24.540  1.00  0.00    -0.458 OA
BRANCH   3   4
ATOM      4  C   UNL A   1      33.056  26.415  23.490  1.00  0.00     0.338 C 
ATOM      5  O   UNL A   1      32.802  26.811  22.361  1.00  0.00    -0.246 OA
BRANCH   4   6
ATOM      6  C   UNL A   1      33.062  24.962  23.856  1.00  0.00     0.067 C 
ATOM      7  C   UNL A   1      31.939  24.218  23.733  1.00  0.00     0.024 C 
BRANCH   7   8
ATOM      8  C   UNL A   1      31.878  22.744  23.842  1.00  0.00    -0.025 A 
ATOM      9  C   UNL A   1      32.300  19.979  23.952  1.00  0.00     0.067 A 
ATOM     10  C   UNL A   1      32.066  20.690  25.128  1.00  0.00     0.021 A 
ATOM     11  C   UNL A   1      32.213  20.617  22.712  1.00  0.00     0.021 A 
ATOM     12  C   UNL A   1      31.821  22.061  25.064  1.00  0.00     0.009 A 
ATOM     13  C   UNL A   1      31.999  21.997  22.663  1.00  0.00     0.009 A 
BRANCH   9  14
ATOM     14  S   UNL A   1      32.796  18.279  24.064  1.00  0.00     0.175 S 
ATOM     15  C   UNL A   1      34.541  18.301  24.349  1.00  0.00     0.163 C 
ATOM     16  O   UNL A   1      32.598  17.675  22.761  1.00  0.00    -0.224 OA
ATOM     17  O   UNL A   1      32.166  17.738  25.254  1.00  0.00    -0.224 OA
ENDBRANCH   9  14
ENDBRANCH   7   8
BRANCH   6  18
ATOM     18  C   UNL A   1      34.347  24.382  24.300  1.00  0.00    -0.011 A 
ATOM     19  C   UNL A   1      34.606  24.331  25.670  1.00  0.00     0.009 A 
ATOM     20  C   UNL A   1      35.287  23.843  23.420  1.00  0.00     0.009 A 
ATOM     21  C   UNL A   1      35.795  23.779  26.151  1.00  0.00     0.009 A 
ATOM     22  C   UNL A   1      36.482  23.290  23.913  1.00  0.00     0.009 A 
ATOM     23  C   UNL A   1      36.782  23.270  25.289  1.00  0.00    -0.015 A 
BRANCH  23  24
ATOM     24  C   UNL A   1      38.082  22.789  25.835  1.00  0.00     0.018 A 
ATOM     25  C   UNL A   1      38.513  21.462  25.615  1.00  0.00     0.015 A 
ATOM     26  C   UNL A   1      38.911  23.591  26.647  1.00  0.00     0.133 A 
ATOM     27  C   UNL A   1      39.677  20.961  26.205  1.00  0.00     0.040 A 
ATOM     28  C   UNL A   1      40.088  23.108  27.219  1.00  0.00     0.079 A 
ATOM     29  F   UNL A   1      38.569  24.859  26.926  1.00  0.00    -0.206 F 
ATOM     30  C   UNL A   1      40.453  21.789  27.002  1.00  0.00     0.126 A 
ATOM     31  F   UNL A   1      41.564  21.305  27.567  1.00  0.00    -0.207 F 
ENDBRANCH  23  24
ENDBRANCH   6  18
ENDBRANCH   4   6
ENDBRANCH   3   4
ENDBRANCH   2   3
ENDBRANCH   1   2
BRANCH   1  32
ATOM     32  O   UNL A   1      33.282  29.519  26.723  1.00  0.00    -0.458 OA
BRANCH  32  33
ATOM     33  C   UNL A   1      33.761  30.701  27.175  1.00  0.00     0.338 C 
ATOM     34  O   UNL A   1      33.151  31.753  27.263  1.00  0.00    -0.246 OA
BRANCH  33  35
ATOM     35  C   UNL A   1      35.164  30.557  27.605  1.00  0.00     0.060 A 
ATOM     36  C   UNL A   1      35.730  29.291  27.671  1.00  0.00     0.016 A 
ATOM     37  C   UNL A   1      35.847  31.650  28.137  1.00  0.00     0.016 A 
ATOM     38  C   UNL A   1      36.889  29.097  28.423  1.00  0.00     0.010 A 
ATOM     39  C   UNL A   1      37.070  31.458  28.800  1.00  0.00     0.010 A 
ATOM     40  C   UNL A   1      37.564  30.163  29.037  1.00  0.00    -0.014 A 
BRANCH  40  41
ATOM     41  C   UNL A   1      38.673  29.899  30.018  1.00  0.00     0.031 A 
ATOM     42  C   UNL A   1      39.905  29.119  29.591  1.00  0.00     0.074 A 
ATOM     43  C   UNL A   1      38.659  30.433  31.259  1.00  0.00     0.049 A 
ATOM     44  N   UNL A   1      40.904  28.675  30.315  1.00  0.00    -0.248 NA
ATOM     45  C   UNL A   1      40.022  28.791  28.163  1.00  0.00     0.031 C 
ATOM     46  C   UNL A   1      37.599  31.282  31.806  1.00  0.00     0.029 A 
ATOM     47  N   UNL A   1      39.584  30.375  32.276  1.00  0.00    -0.354 N 
ATOM     48  C   UNL A   1      41.722  27.953  29.448  1.00  0.00     0.074 A 
ATOM     49  C   UNL A   1      41.099  28.018  28.143  1.00  0.00     0.031 C 
ATOM     50  C   UNL A   1      37.974  31.738  33.008  1.00  0.00     0.029 A 
ATOM     51  C   UNL A   1      39.235  31.113  33.386  1.00  0.00     0.049 A 
ATOM     52  H   UNL A   1      40.418  29.854  32.216  1.00  0.00     0.167 HD
ATOM     53  C   UNL A   1      42.881  27.293  29.709  1.00  0.00     0.034 A 
ATOM     54  C   UNL A   1      39.829  31.245  34.590  1.00  0.00     0.034 A 
ATOM     55  C   UNL A   1      43.532  27.278  30.998  1.00  0.00     0.049 A 
ATOM     56  C   UNL A   1      41.094  30.474  34.871  1.00  0.00     0.074 A 
ATOM     57  C   UNL A   1      44.687  26.609  31.375  1.00  0.00     0.029 A 
ATOM     58  N   UNL A   1      43.104  27.980  32.117  1.00  0.00    -0.354 N 
ATOM     59  N   UNL A   1      41.780  29.688  34.074  1.00  0.00    -0.248 NA
ATOM     60  C   UNL A   1      41.649  30.591  36.225  1.00  0.00     0.031 C 
ATOM     61  C   UNL A   1      44.925  26.865  32.731  1.00  0.00     0.029 A 
ATOM     62  C   UNL A   1      43.962  27.751  33.183  1.00  0.00     0.049 A 
ATOM     63  H   UNL A   1      42.307  28.557  32.148  1.00  0.00     0.167 HD
ATOM     64  C   UNL A   1      42.855  29.229  34.832  1.00  0.00     0.074 A 
ATOM     65  C   UNL A   1      42.743  29.851  36.134  1.00  0.00     0.031 C 
ATOM     66  C   UNL A   1      43.839  28.361  34.486  1.00  0.00     0.034 A 
BRANCH  53  67
ATOM     67  C   UNL A   1      43.475  26.465  28.591  1.00  0.00     0.023 A 
ATOM     68  C   UNL A   1      44.499  26.946  27.758  1.00  0.00     0.031 A 
ATOM     69  C   UNL A   1      42.971  25.176  28.334  1.00  0.00     0.131 A 
ATOM     70  C   UNL A   1      44.932  26.175  26.664  1.00  0.00     0.055 A 
ATOM     71  C   UNL A   1      43.462  24.382  27.296  1.00  0.00     0.041 A 
ATOM     72  F   UNL A   1      41.978  24.669  29.083  1.00  0.00    -0.206 F 
ATOM     73  C   UNL A   1      44.437  24.887  26.443  1.00  0.00     0.022 A 
BRANCH  70  74
ATOM     74  S   UNL A   1      46.035  26.940  25.445  1.00  0.00     0.124 S 
ATOM     75  O   UNL A   1      46.154  25.879  24.448  1.00  0.00    -0.237 OA
ATOM     76  O   UNL A   1      45.282  28.120  25.035  1.00  0.00    -0.237 OA
ATOM     77  O   UNL A   1      47.254  27.210  26.205  1.00  0.00    -0.744 OA
ENDBRANCH  70  74
ENDBRANCH  53  67
BRANCH  54  78
ATOM     78  C   UNL A   1      39.205  32.084  35.657  1.00  0.00     0.023 A 
ATOM     79  C   UNL A   1      38.536  31.498  36.744  1.00  0.00     0.031 A 
ATOM     80  C   UNL A   1      39.221  33.488  35.578  1.00  0.00     0.131 A 
ATOM     81  C   UNL A   1      37.884  32.310  37.685  1.00  0.00     0.055 A 
ATOM     82  C   UNL A   1      38.628  34.293  36.552  1.00  0.00     0.041 A 
ATOM     83  F   UNL A   1      39.831  34.105  34.553  1.00  0.00    -0.206 F 
ATOM     84  C   UNL A   1      37.943  33.702  37.607  1.00  0.00     0.022 A 
BRANCH  81  85
ATOM     85  S   UNL A   1      36.885  31.516  38.973  1.00  0.00     0.124 S 
ATOM     86  O   UNL A   1      36.727  30.168  38.440  1.00  0.00    -0.237 OA
ATOM     87  O   UNL A   1      37.745  31.650  40.145  1.00  0.00    -0.237 OA
ATOM     88  O   UNL A   1      35.666  32.321  39.003  1.00  0.00    -0.744 OA
ENDBRANCH  81  85
ENDBRANCH  54  78
BRANCH  66  89
ATOM     89  C   UNL A   1      44.892  28.071  35.529  1.00  0.00     0.023 A 
ATOM     90  C   UNL A   1      44.679  27.132  36.555  1.00  0.00     0.031 A 
ATOM     91  C   UNL A   1      46.109  28.774  35.521  1.00  0.00     0.131 A 
ATOM     92  C   UNL A   1      45.638  26.970  37.567  1.00  0.00     0.055 A 
ATOM     93  C   UNL A   1      47.084  28.567  36.497  1.00  0.00     0.041 A 
ATOM     94  F   UNL A   1      46.367  29.683  34.566  1.00  0.00    -0.206 F 
ATOM     95  C   UNL A   1      46.845  27.673  37.538  1.00  0.00     0.022 A 
BRANCH  92  96
ATOM     96  S   UNL A   1      45.240  25.911  38.986  1.00  0.00     0.124 S 
ATOM     97  O   UNL A   1      44.036  26.543  39.513  1.00  0.00    -0.237 OA
ATOM     98  O   UNL A   1      45.053  24.607  38.357  1.00  0.00    -0.237 OA
ATOM     99  O   UNL A   1      46.423  26.022  39.839  1.00  0.00    -0.744 OA
ENDBRANCH  92  96
ENDBRANCH  66  89
ENDBRANCH  40  41
ENDBRANCH  33  35
ENDBRANCH  32  33
ENDBRANCH   1  32
TORSDOF 18
ENDMDL
MODEL 3
REMARK VINA RESULT:     -13.1      1.238      1.466
REMARK SMILES CS(=O)(=O)c1ccc(/C=C(/C(=O)OCCOC(=O)c2ccc(-c3c4nc(c(-c5cc(S(=O)(=O)[O-])ccc5F)c5ccc([nH]5)c(-c5cc(S(=O)(=O)[O-])ccc5F)c5nc(c(-c6cc(S(=O)(=O)[O-])ccc6F)c6ccc3[nH]6)C=C5)C=C4)cc2)c2ccc(-c3ccc(F)cc3F)cc2)cc1
REMARK SMILES IDX 15 1 14 2 13 3 11 4 12 5 10 6 9 7 8 8 5 9 6 10 97 11 7 12
REMARK SMILES IDX 96 13 2 14 1 15 3 16 4 17 82 18 83 19 95 20 84 21 94 22
REMARK SMILES IDX 85 23 86 24 87 25 92 26 88 27 91 28 93 29 89 30 90 31 16 32
REMARK SMILES IDX 17 33 18 34 19 35 20 36 81 37 21 38 80 39 22 40 23 41 24 42
REMARK SMILES IDX 74 43 25 44 79 45 73 46 75 47 26 48 78 49 72 50 71 51 27 53
REMARK SMILES IDX 59 54 39 55 58 56 40 57 43 58 57 59 76 60 41 61 42 62 56 64
REMARK SMILES IDX 77 65 44 66 28 67 29 68 37 69 30 70 36 71 38 72 35 73 31 74
REMARK SMILES IDX 32 75 33 76 34 77 60 78 61 79 69 80 62 81 68 82 70 83 67 84
REMARK SMILES IDX 63 85 64 86 65 87 66 88 45 89 46 90 54 91 47 92 53 93 55 94
REMARK SMILES IDX 52 95 48 96 49 97 50 98 51 99
REMARK H PARENT 75 52 43 63
REMARK Flexibility Score: inf
ROOT
ATOM      1  C   UNL A   1      36.079  22.129  25.613  1.00  0.00     0.275 C 
ENDROOT
BRANCH   1   2
ATOM      2  C   UNL A   1      35.004  22.822  24.778  1.00  0.00     0.275 C 
BRANCH   2   3
ATOM      3  O   UNL A   1      34.732  24.144  25.288  1.00  0.00    -0.458 OA
BRANCH   3   4
ATOM      4  C   UNL A   1      33.491  24.326  25.812  1.00  0.00     0.338 C 
ATOM      5  O   UNL A   1      33.028  23.693  26.751  1.00  0.00    -0.246 OA
BRANCH   4   6
ATOM      6  C   UNL A   1      32.737  25.423  25.124  1.00  0.00     0.067 C 
ATOM      7  C   UNL A   1      31.882  25.142  24.114  1.00  0.00     0.024 C 
BRANCH   7   8
ATOM      8  C   UNL A   1      30.923  26.097  23.519  1.00  0.00    -0.025 A 
ATOM      9  C   UNL A   1      29.146  28.161  22.875  1.00  0.00     0.067 A 
ATOM     10  C   UNL A   1      30.423  28.150  22.317  1.00  0.00     0.021 A 
ATOM     11  C   UNL A   1      28.709  27.093  23.661  1.00  0.00     0.021 A 
ATOM     12  C   UNL A   1      31.292  27.100  22.613  1.00  0.00     0.009 A 
ATOM     13  C   UNL A   1      29.600  26.064  23.978  1.00  0.00     0.009 A 
BRANCH   9  14
ATOM     14  S   UNL A   1      28.124  29.593  22.641  1.00  0.00     0.175 S 
ATOM     15  C   UNL A   1      28.902  30.897  23.548  1.00  0.00     0.163 C 
ATOM     16  O   UNL A   1      26.853  29.338  23.291  1.00  0.00    -0.224 OA
ATOM     17  O   UNL A   1      28.199  29.935  21.234  1.00  0.00    -0.224 OA
ENDBRANCH   9  14
ENDBRANCH   7   8
BRANCH   6  18
ATOM     18  C   UNL A   1      32.931  26.798  25.633  1.00  0.00    -0.011 A 
ATOM     19  C   UNL A   1      32.170  27.205  26.729  1.00  0.00     0.009 A 
ATOM     20  C   UNL A   1      33.868  27.685  25.102  1.00  0.00     0.009 A 
ATOM     21  C   UNL A   1      32.320  28.485  27.265  1.00  0.00     0.009 A 
ATOM     22  C   UNL A   1      34.011  28.973  25.647  1.00  0.00     0.009 A 
ATOM     23  C   UNL A   1      33.221  29.419  26.724  1.00  0.00    -0.015 A 
BRANCH  23  24
ATOM     24  C   UNL A   1      33.275  30.809  27.256  1.00  0.00     0.018 A 
ATOM     25  C   UNL A   1      32.272  31.749  26.930  1.00  0.00     0.015 A 
ATOM     26  C   UNL A   1      34.344  31.282  28.045  1.00  0.00     0.133 A 
ATOM     27  C   UNL A   1      32.359  33.085  27.333  1.00  0.00     0.040 A 
ATOM     28  C   UNL A   1      34.426  32.607  28.475  1.00  0.00     0.079 A 
ATOM     29  F   UNL A   1      35.352  30.463  28.387  1.00  0.00    -0.206 F 
ATOM     30  C   UNL A   1      33.436  33.500  28.101  1.00  0.00     0.126 A 
ATOM     31  F   UNL A   1      33.516  34.779  28.483  1.00  0.00    -0.207 F 
ENDBRANCH  23  24
ENDBRANCH   6  18
ENDBRANCH   4   6
ENDBRANCH   3   4
ENDBRANCH   2   3
ENDBRANCH   1   2
BRANCH   1  32
ATOM     32  O   UNL A   1      37.374  22.396  25.047  1.00  0.00    -0.458 OA
BRANCH  32  33
ATOM     33  C   UNL A   1      38.430  21.957  25.771  1.00  0.00     0.338 C 
ATOM     34  O   UNL A   1      38.886  20.827  25.792  1.00  0.00    -0.246 OA
BRANCH  33  35
ATOM     35  C   UNL A   1      39.019  23.066  26.545  1.00  0.00     0.060 A 
ATOM     36  C   UNL A   1      38.445  24.328  26.472  1.00  0.00     0.016 A 
ATOM     37  C   UNL A   1      40.254  22.902  27.172  1.00  0.00     0.016 A 
ATOM     38  C   UNL A   1      39.185  25.442  26.868  1.00  0.00     0.010 A 
ATOM     39  C   UNL A   1      40.944  24.020  27.666  1.00  0.00     0.010 A 
ATOM     40  C   UNL A   1      40.464  25.321  27.435  1.00  0.00    -0.014 A 
BRANCH  40  41
ATOM     41  C   UNL A   1      41.323  26.538  27.644  1.00  0.00     0.031 A 
ATOM     42  C   UNL A   1      40.864  27.651  28.571  1.00  0.00     0.074 A 
ATOM     43  C   UNL A   1      42.559  26.629  27.107  1.00  0.00     0.049 A 
ATOM     44  N   UNL A   1      41.393  28.832  28.781  1.00  0.00    -0.248 NA
ATOM     45  C   UNL A   1      39.648  27.402  29.357  1.00  0.00     0.031 C 
ATOM     46  C   UNL A   1      43.195  25.614  26.265  1.00  0.00     0.029 A 
ATOM     47  N   UNL A   1      43.523  27.605  27.220  1.00  0.00    -0.354 N 
ATOM     48  C   UNL A   1      40.535  29.491  29.660  1.00  0.00     0.074 A 
ATOM     49  C   UNL A   1      39.450  28.576  29.940  1.00  0.00     0.031 C 
ATOM     50  C   UNL A   1      44.463  25.973  26.021  1.00  0.00     0.029 A 
ATOM     51  C   UNL A   1      44.698  27.303  26.568  1.00  0.00     0.049 A 
ATOM     52  H   UNL A   1      43.385  28.441  27.721  1.00  0.00     0.167 HD
ATOM     53  C   UNL A   1      40.635  30.741  30.183  1.00  0.00     0.034 A 
ATOM     54  C   UNL A   1      45.824  28.023  26.385  1.00  0.00     0.034 A 
ATOM     55  C   UNL A   1      41.748  31.632  29.950  1.00  0.00     0.049 A 
ATOM     56  C   UNL A   1      45.899  29.421  26.942  1.00  0.00     0.074 A 
ATOM     57  C   UNL A   1      41.926  32.930  30.401  1.00  0.00     0.029 A 
ATOM     58  N   UNL A   1      42.885  31.313  29.220  1.00  0.00    -0.354 N 
ATOM     59  N   UNL A   1      45.016  30.076  27.661  1.00  0.00    -0.248 NA
ATOM     60  C   UNL A   1      47.115  30.187  26.641  1.00  0.00     0.031 C 
ATOM     61  C   UNL A   1      43.142  33.411  29.902  1.00  0.00     0.029 A 
ATOM     62  C   UNL A   1      43.759  32.391  29.200  1.00  0.00     0.049 A 
ATOM     63  H   UNL A   1      43.047  30.447  28.781  1.00  0.00     0.167 HD
ATOM     64  C   UNL A   1      45.581  31.325  27.904  1.00  0.00     0.074 A 
ATOM     65  C   UNL A   1      46.889  31.319  27.288  1.00  0.00     0.031 C 
ATOM     66  C   UNL A   1      45.058  32.387  28.570  1.00  0.00     0.034 A 
BRANCH  53  67
ATOM     67  C   UNL A   1      39.465  31.248  30.998  1.00  0.00     0.023 A 
ATOM     68  C   UNL A   1      39.501  31.331  32.400  1.00  0.00     0.031 A 
ATOM     69  C   UNL A   1      38.272  31.619  30.349  1.00  0.00     0.131 A 
ATOM     70  C   UNL A   1      38.346  31.700  33.110  1.00  0.00     0.055 A 
ATOM     71  C   UNL A   1      37.153  32.064  31.056  1.00  0.00     0.041 A 
ATOM     72  F   UNL A   1      38.168  31.543  29.013  1.00  0.00    -0.206 F 
ATOM     73  C   UNL A   1      37.180  32.091  32.446  1.00  0.00     0.022 A 
BRANCH  70  74
ATOM     74  S   UNL A   1      38.337  31.513  34.914  1.00  0.00     0.124 S 
ATOM     75  O   UNL A   1      38.377  30.060  35.061  1.00  0.00    -0.237 OA
ATOM     76  O   UNL A   1      39.543  32.229  35.311  1.00  0.00    -0.237 OA
ATOM     77  O   UNL A   1      37.078  32.137  35.318  1.00  0.00    -0.744 OA
ENDBRANCH  70  74
ENDBRANCH  53  67
BRANCH  54  78
ATOM     78  C   UNL A   1      46.956  27.470  25.579  1.00  0.00     0.023 A 
ATOM     79  C   UNL A   1      47.174  27.885  24.255  1.00  0.00     0.031 A 
ATOM     80  C   UNL A   1      47.804  26.479  26.105  1.00  0.00     0.131 A 
ATOM     81  C   UNL A   1      48.190  27.287  23.494  1.00  0.00     0.055 A 
ATOM     82  C   UNL A   1      48.855  25.935  25.364  1.00  0.00     0.041 A 
ATOM     83  F   UNL A   1      47.633  26.031  27.359  1.00  0.00    -0.206 F 
ATOM     84  C   UNL A   1      49.044  26.330  24.045  1.00  0.00     0.022 A 
BRANCH  81  85
ATOM     85  S   UNL A   1      48.329  27.720  21.739  1.00  0.00     0.124 S 
ATOM     86  O   UNL A   1      47.029  28.326  21.477  1.00  0.00    -0.237 OA
ATOM     87  O   UNL A   1      49.473  28.625  21.743  1.00  0.00    -0.237 OA
ATOM     88  O   UNL A   1      48.559  26.432  21.087  1.00  0.00    -0.744 OA
ENDBRANCH  81  85
ENDBRANCH  54  78
BRANCH  66  89
ATOM     89  C   UNL A   1      45.931  33.613  28.692  1.00  0.00     0.023 A 
ATOM     90  C   UNL A   1      46.810  33.792  29.776  1.00  0.00     0.031 A 
ATOM     91  C   UNL A   1      45.852  34.637  27.733  1.00  0.00     0.131 A 
ATOM     92  C   UNL A   1      47.524  34.992  29.910  1.00  0.00     0.055 A 
ATOM     93  C   UNL A   1      46.608  35.805  27.839  1.00  0.00     0.041 A 
ATOM     94  F   UNL A   1      45.029  34.522  26.676  1.00  0.00    -0.206 F 
ATOM     95  C   UNL A   1      47.438  35.996  28.941  1.00  0.00     0.022 A 
BRANCH  92  96
ATOM     96  S   UNL A   1      48.483  35.275  31.424  1.00  0.00     0.124 S 
ATOM     97  O   UNL A   1      48.788  33.914  31.853  1.00  0.00    -0.237 OA
ATOM     98  O   UNL A   1      49.614  36.058  30.934  1.00  0.00    -0.237 OA
ATOM     99  O   UNL A   1      47.554  36.004  32.287  1.00  0.00    -0.744 OA
ENDBRANCH  92  96
ENDBRANCH  66  89
ENDBRANCH  40  41
ENDBRANCH  33  35
ENDBRANCH  32  33
ENDBRANCH   1  32
TORSDOF 18
ENDMDL
