MODEL 1
REMARK VINA RESULT:     -10.6      0.000      0.000
REMARK SMILES O=CN1CCC[C@@H](C(=O)OCCOC(=O)c2ccc(-c3c4nc(c(-c5cc(S(=O)(=O)[O-])ccc5F)c5ccc([nH]5)c(-c5cc(S(=O)(=O)[O-])ccc5F)c5nc(c(-c6cc(S(=O)(=O)[O-])ccc6F)c6ccc3[nH]6)C=C5)C=C4)cc2)C1
REMARK SMILES IDX 12 1 11 2 10 3 8 4 9 5 7 6 3 7 4 8 79 9 5 10 6 11 2 12 1 13
REMARK SMILES IDX 13 14 14 15 15 16 16 17 17 18 78 19 18 20 77 21 19 22 20 23
REMARK SMILES IDX 21 24 71 25 22 26 76 27 70 28 72 29 23 30 75 31 69 32 68 33
REMARK SMILES IDX 24 35 56 36 36 37 55 38 37 39 40 40 54 41 73 42 38 43 39 44
REMARK SMILES IDX 53 46 74 47 41 48 25 49 26 50 34 51 27 52 33 53 35 54 32 55
REMARK SMILES IDX 28 56 29 57 30 58 31 59 57 60 58 61 66 62 59 63 65 64 67 65
REMARK SMILES IDX 64 66 60 67 61 68 62 69 63 70 42 71 43 72 51 73 44 74 50 75
REMARK SMILES IDX 52 76 49 77 45 78 46 79 47 80 48 81
REMARK H PARENT 72 34 40 45
REMARK Flexibility Score: inf
ROOT
ATOM      1  C   UNL A   1      36.441  20.576  25.013  1.00  0.00     0.275 C 
ENDROOT
BRANCH   1   2
ATOM      2  C   UNL A   1      34.989  21.014  25.233  1.00  0.00     0.274 C 
BRANCH   2   3
ATOM      3  O   UNL A   1      34.036  19.933  25.181  1.00  0.00    -0.462 OA
BRANCH   3   4
ATOM      4  C   UNL A   1      32.791  20.258  24.738  1.00  0.00     0.310 C 
ATOM      5  O   UNL A   1      31.944  19.446  24.390  1.00  0.00    -0.252 OA
BRANCH   4   6
ATOM      6  C   UNL A   1      32.597  21.761  24.663  1.00  0.00     0.119 C 
ATOM      7  N   UNL A   1      31.964  23.519  23.047  1.00  0.00    -0.344 N 
ATOM      8  C   UNL A   1      30.801  23.942  23.812  1.00  0.00     0.119 C 
ATOM      9  C   UNL A   1      32.369  22.124  23.192  1.00  0.00     0.134 C 
ATOM     10  C   UNL A   1      31.041  23.677  25.294  1.00  0.00     0.022 C 
ATOM     11  C   UNL A   1      31.408  22.211  25.522  1.00  0.00     0.019 C 
BRANCH   7  12
ATOM     12  C   UNL A   1      32.647  24.382  22.222  1.00  0.00     0.339 C 
ATOM     13  O   UNL A   1      33.760  24.193  21.750  1.00  0.00    -0.279 OA
ENDBRANCH   7  12
ENDBRANCH   4   6
ENDBRANCH   3   4
ENDBRANCH   2   3
ENDBRANCH   1   2
BRANCH   1  14
ATOM     14  O   UNL A   1      37.376  21.637  25.275  1.00  0.00    -0.458 OA
BRANCH  14  15
ATOM     15  C   UNL A   1      38.540  21.235  25.837  1.00  0.00     0.338 C 
ATOM     16  O   UNL A   1      39.019  20.113  25.794  1.00  0.00    -0.246 OA
BRANCH  15  17
ATOM     17  C   UNL A   1      39.277  22.397  26.369  1.00  0.00     0.060 A 
ATOM     18  C   UNL A   1      38.861  23.649  25.917  1.00  0.00     0.016 A 
ATOM     19  C   UNL A   1      40.366  22.293  27.232  1.00  0.00     0.016 A 
ATOM     20  C   UNL A   1      39.499  24.809  26.338  1.00  0.00     0.010 A 
ATOM     21  C   UNL A   1      41.028  23.461  27.644  1.00  0.00     0.010 A 
ATOM     22  C   UNL A   1      40.595  24.726  27.200  1.00  0.00    -0.014 A 
BRANCH  22  23
ATOM     23  C   UNL A   1      41.313  25.972  27.565  1.00  0.00     0.031 A 
ATOM     24  C   UNL A   1      40.623  27.011  28.400  1.00  0.00     0.074 A 
ATOM     25  C   UNL A   1      42.603  26.136  27.211  1.00  0.00     0.049 A 
ATOM     26  N   UNL A   1      41.043  28.192  28.771  1.00  0.00    -0.248 NA
ATOM     27  C   UNL A   1      39.278  26.667  28.886  1.00  0.00     0.031 C 
ATOM     28  C   UNL A   1      43.404  25.159  26.473  1.00  0.00     0.029 A 
ATOM     29  N   UNL A   1      43.466  27.179  27.429  1.00  0.00    -0.354 N 
ATOM     30  C   UNL A   1      40.010  28.746  29.517  1.00  0.00     0.074 A 
ATOM     31  C   UNL A   1      38.936  27.773  29.531  1.00  0.00     0.031 C 
ATOM     32  C   UNL A   1      44.642  25.651  26.299  1.00  0.00     0.029 A 
ATOM     33  C   UNL A   1      44.706  26.997  26.859  1.00  0.00     0.049 A 
ATOM     34  H   UNL A   1      43.223  27.982  27.944  1.00  0.00     0.167 HD
ATOM     35  C   UNL A   1      39.964  29.956  30.131  1.00  0.00     0.034 A 
ATOM     36  C   UNL A   1      45.756  27.837  26.763  1.00  0.00     0.034 A 
ATOM     37  C   UNL A   1      41.045  30.910  30.107  1.00  0.00     0.049 A 
ATOM     38  C   UNL A   1      45.646  29.214  27.370  1.00  0.00     0.074 A 
ATOM     39  C   UNL A   1      41.103  32.165  30.691  1.00  0.00     0.029 A 
ATOM     40  N   UNL A   1      42.260  30.722  29.458  1.00  0.00    -0.354 N 
ATOM     41  N   UNL A   1      44.646  29.745  28.036  1.00  0.00    -0.248 NA
ATOM     42  C   UNL A   1      46.802  30.105  27.206  1.00  0.00     0.031 C 
ATOM     43  C   UNL A   1      42.322  32.757  30.342  1.00  0.00     0.029 A 
ATOM     44  C   UNL A   1      43.058  31.848  29.601  1.00  0.00     0.049 A 
ATOM     45  H   UNL A   1      42.517  29.908  28.969  1.00  0.00     0.167 HD
ATOM     46  C   UNL A   1      45.061  31.028  28.384  1.00  0.00     0.074 A 
ATOM     47  C   UNL A   1      46.408  31.180  27.873  1.00  0.00     0.031 C 
ATOM     48  C   UNL A   1      44.392  31.993  29.066  1.00  0.00     0.034 A 
BRANCH  35  49
ATOM     49  C   UNL A   1      38.672  30.334  30.814  1.00  0.00     0.023 A 
ATOM     50  C   UNL A   1      37.636  30.997  30.137  1.00  0.00     0.031 A 
ATOM     51  C   UNL A   1      38.493  30.052  32.180  1.00  0.00     0.131 A 
ATOM     52  C   UNL A   1      36.496  31.415  30.841  1.00  0.00     0.055 A 
ATOM     53  C   UNL A   1      37.326  30.406  32.859  1.00  0.00     0.041 A 
ATOM     54  F   UNL A   1      39.460  29.441  32.885  1.00  0.00    -0.206 F 
ATOM     55  C   UNL A   1      36.324  31.104  32.193  1.00  0.00     0.022 A 
BRANCH  52  56
ATOM     56  S   UNL A   1      35.301  32.492  30.002  1.00  0.00     0.124 S 
ATOM     57  O   UNL A   1      36.154  33.593  29.561  1.00  0.00    -0.237 OA
ATOM     58  O   UNL A   1      34.779  31.627  28.952  1.00  0.00    -0.237 OA
ATOM     59  O   UNL A   1      34.349  32.836  31.056  1.00  0.00    -0.744 OA
ENDBRANCH  52  56
ENDBRANCH  35  49
BRANCH  36  60
ATOM     60  C   UNL A   1      46.975  27.437  26.003  1.00  0.00     0.023 A 
ATOM     61  C   UNL A   1      47.142  27.785  24.653  1.00  0.00     0.031 A 
ATOM     62  C   UNL A   1      47.972  26.649  26.609  1.00  0.00     0.131 A 
ATOM     63  C   UNL A   1      48.259  27.314  23.944  1.00  0.00     0.055 A 
ATOM     64  C   UNL A   1      49.105  26.227  25.913  1.00  0.00     0.041 A 
ATOM     65  F   UNL A   1      47.858  26.282  27.895  1.00  0.00    -0.206 F 
ATOM     66  C   UNL A   1      49.248  26.550  24.568  1.00  0.00     0.022 A 
BRANCH  63  67
ATOM     67  S   UNL A   1      48.362  27.647  22.163  1.00  0.00     0.124 S 
ATOM     68  O   UNL A   1      49.500  28.556  22.096  1.00  0.00    -0.237 OA
ATOM     69  O   UNL A   1      48.576  26.311  21.617  1.00  0.00    -0.237 OA
ATOM     70  O   UNL A   1      47.065  28.244  21.854  1.00  0.00    -0.744 OA
ENDBRANCH  63  67
ENDBRANCH  36  60
BRANCH  48  71
ATOM     71  C   UNL A   1      45.131  33.283  29.321  1.00  0.00     0.023 A 
ATOM     72  C   UNL A   1      45.085  34.353  28.408  1.00  0.00     0.031 A 
ATOM     73  C   UNL A   1      45.907  33.438  30.482  1.00  0.00     0.131 A 
ATOM     74  C   UNL A   1      45.847  35.507  28.646  1.00  0.00     0.055 A 
ATOM     75  C   UNL A   1      46.617  34.611  30.742  1.00  0.00     0.041 A 
ATOM     76  F   UNL A   1      45.988  32.447  31.386  1.00  0.00    -0.206 F 
ATOM     77  C   UNL A   1      46.600  35.649  29.815  1.00  0.00     0.022 A 
BRANCH  74  78
ATOM     78  S   UNL A   1      45.910  36.791  27.366  1.00  0.00     0.124 S 
ATOM     79  O   UNL A   1      44.602  37.423  27.505  1.00  0.00    -0.237 OA
ATOM     80  O   UNL A   1      47.054  37.595  27.785  1.00  0.00    -0.237 OA
ATOM     81  O   UNL A   1      46.106  36.035  26.130  1.00  0.00    -0.744 OA
ENDBRANCH  74  78
ENDBRANCH  48  71
ENDBRANCH  22  23
ENDBRANCH  15  17
ENDBRANCH  14  15
ENDBRANCH   1  14
TORSDOF 15
ENDMDL
MODEL 2
REMARK VINA RESULT:     -10.5      5.472     10.353
REMARK SMILES O=CN1CCC[C@@H](C(=O)OCCOC(=O)c2ccc(-c3c4nc(c(-c5cc(S(=O)(=O)[O-])ccc5F)c5ccc([nH]5)c(-c5cc(S(=O)(=O)[O-])ccc5F)c5nc(c(-c6cc(S(=O)(=O)[O-])ccc6F)c6ccc3[nH]6)C=C5)C=C4)cc2)C1
REMARK SMILES IDX 12 1 11 2 10 3 8 4 9 5 7 6 3 7 4 8 79 9 5 10 6 11 2 12 1 13
REMARK SMILES IDX 13 14 14 15 15 16 16 17 17 18 78 19 18 20 77 21 19 22 20 23
REMARK SMILES IDX 21 24 71 25 22 26 76 27 70 28 72 29 23 30 75 31 69 32 68 33
REMARK SMILES IDX 24 35 56 36 36 37 55 38 37 39 40 40 54 41 73 42 38 43 39 44
REMARK SMILES IDX 53 46 74 47 41 48 25 49 26 50 34 51 27 52 33 53 35 54 32 55
REMARK SMILES IDX 28 56 29 57 30 58 31 59 57 60 58 61 66 62 59 63 65 64 67 65
REMARK SMILES IDX 64 66 60 67 61 68 62 69 63 70 42 71 43 72 51 73 44 74 50 75
REMARK SMILES IDX 52 76 49 77 45 78 46 79 47 80 48 81
REMARK H PARENT 72 34 40 45
REMARK Flexibility Score: inf
ROOT
ATOM      1  C   UNL A   1      31.710  29.623  26.144  1.00  0.00     0.275 C 
ENDROOT
BRANCH   1   2
ATOM      2  C   UNL A   1      31.777  28.114  26.400  1.00  0.00     0.274 C 
BRANCH   2   3
ATOM      3  O   UNL A   1      31.699  27.313  25.203  1.00  0.00    -0.462 OA
BRANCH   3   4
ATOM      4  C   UNL A   1      32.689  26.393  25.037  1.00  0.00     0.310 C 
ATOM      5  O   UNL A   1      33.584  26.478  24.206  1.00  0.00    -0.252 OA
BRANCH   4   6
ATOM      6  C   UNL A   1      32.515  25.207  25.967  1.00  0.00     0.119 C 
ATOM      7  N   UNL A   1      31.282  23.072  26.117  1.00  0.00    -0.344 N 
ATOM      8  C   UNL A   1      32.490  22.264  26.179  1.00  0.00     0.119 C 
ATOM      9  C   UNL A   1      31.380  24.343  25.406  1.00  0.00     0.134 C 
ATOM     10  C   UNL A   1      33.611  23.073  26.822  1.00  0.00     0.022 C 
ATOM     11  C   UNL A   1      33.810  24.395  26.080  1.00  0.00     0.019 C 
BRANCH   7  12
ATOM     12  C   UNL A   1      30.101  22.661  26.690  1.00  0.00     0.339 C 
ATOM     13  O   UNL A   1      29.530  23.206  27.626  1.00  0.00    -0.279 OA
ENDBRANCH   7  12
ENDBRANCH   4   6
ENDBRANCH   3   4
ENDBRANCH   2   3
ENDBRANCH   1   2
BRANCH   1  14
ATOM     14  O   UNL A   1      33.016  30.217  26.042  1.00  0.00    -0.458 OA
BRANCH  14  15
ATOM     15  C   UNL A   1      33.242  31.232  26.910  1.00  0.00     0.338 C 
ATOM     16  O   UNL A   1      32.464  32.125  27.202  1.00  0.00    -0.246 OA
BRANCH  15  17
ATOM     17  C   UNL A   1      34.516  31.018  27.622  1.00  0.00     0.060 A 
ATOM     18  C   UNL A   1      34.776  29.714  28.040  1.00  0.00     0.016 A 
ATOM     19  C   UNL A   1      35.412  32.042  27.928  1.00  0.00     0.016 A 
ATOM     20  C   UNL A   1      35.937  29.406  28.738  1.00  0.00     0.010 A 
ATOM     21  C   UNL A   1      36.576  31.738  28.652  1.00  0.00     0.010 A 
ATOM     22  C   UNL A   1      36.846  30.417  29.059  1.00  0.00    -0.014 A 
BRANCH  22  23
ATOM     23  C   UNL A   1      38.034  30.077  29.880  1.00  0.00     0.031 A 
ATOM     24  C   UNL A   1      39.077  29.149  29.329  1.00  0.00     0.074 A 
ATOM     25  C   UNL A   1      38.210  30.658  31.083  1.00  0.00     0.049 A 
ATOM     26  N   UNL A   1      40.151  28.672  29.904  1.00  0.00    -0.248 NA
ATOM     27  C   UNL A   1      38.886  28.704  27.941  1.00  0.00     0.031 C 
ATOM     28  C   UNL A   1      37.308  31.640  31.685  1.00  0.00     0.029 A 
ATOM     29  N   UNL A   1      39.210  30.510  32.011  1.00  0.00    -0.354 N 
ATOM     30  C   UNL A   1      40.756  27.852  28.959  1.00  0.00     0.074 A 
ATOM     31  C   UNL A   1      39.917  27.887  27.778  1.00  0.00     0.031 C 
ATOM     32  C   UNL A   1      37.796  32.005  32.882  1.00  0.00     0.029 A 
ATOM     33  C   UNL A   1      39.010  31.244  33.158  1.00  0.00     0.049 A 
ATOM     34  H   UNL A   1      39.997  29.935  31.870  1.00  0.00     0.167 HD
ATOM     35  C   UNL A   1      41.903  27.137  29.070  1.00  0.00     0.034 A 
ATOM     36  C   UNL A   1      39.704  31.265  34.314  1.00  0.00     0.034 A 
ATOM     37  C   UNL A   1      42.725  27.117  30.256  1.00  0.00     0.049 A 
ATOM     38  C   UNL A   1      40.922  30.387  34.449  1.00  0.00     0.074 A 
ATOM     39  C   UNL A   1      43.905  26.425  30.477  1.00  0.00     0.029 A 
ATOM     40  N   UNL A   1      42.453  27.816  31.426  1.00  0.00    -0.354 N 
ATOM     41  N   UNL A   1      41.462  29.580  33.564  1.00  0.00    -0.248 NA
ATOM     42  C   UNL A   1      41.621  30.417  35.741  1.00  0.00     0.031 C 
ATOM     43  C   UNL A   1      44.308  26.653  31.798  1.00  0.00     0.029 A 
ATOM     44  C   UNL A   1      43.423  27.545  32.381  1.00  0.00     0.049 A 
ATOM     45  H   UNL A   1      41.685  28.415  31.558  1.00  0.00     0.167 HD
ATOM     46  C   UNL A   1      42.573  29.020  34.188  1.00  0.00     0.074 A 
ATOM     47  C   UNL A   1      42.637  29.597  35.515  1.00  0.00     0.031 C 
ATOM     48  C   UNL A   1      43.461  28.112  33.708  1.00  0.00     0.034 A 
BRANCH  35  49
ATOM     49  C   UNL A   1      42.288  26.264  27.900  1.00  0.00     0.023 A 
ATOM     50  C   UNL A   1      41.800  24.955  27.754  1.00  0.00     0.031 A 
ATOM     51  C   UNL A   1      43.188  26.745  26.933  1.00  0.00     0.131 A 
ATOM     52  C   UNL A   1      42.266  24.149  26.703  1.00  0.00     0.055 A 
ATOM     53  C   UNL A   1      43.591  25.964  25.849  1.00  0.00     0.041 A 
ATOM     54  F   UNL A   1      43.705  27.981  27.034  1.00  0.00    -0.206 F 
ATOM     55  C   UNL A   1      43.141  24.653  25.736  1.00  0.00     0.022 A 
BRANCH  52  56
ATOM     56  S   UNL A   1      41.821  22.391  26.692  1.00  0.00     0.124 S 
ATOM     57  O   UNL A   1      40.374  22.450  26.882  1.00  0.00    -0.237 OA
ATOM     58  O   UNL A   1      42.276  21.958  25.376  1.00  0.00    -0.237 OA
ATOM     59  O   UNL A   1      42.567  21.840  27.821  1.00  0.00    -0.744 OA
ENDBRANCH  52  56
ENDBRANCH  35  49
BRANCH  36  60
ATOM     60  C   UNL A   1      39.227  32.085  35.465  1.00  0.00     0.023 A 
ATOM     61  C   UNL A   1      39.674  33.403  35.658  1.00  0.00     0.031 A 
ATOM     62  C   UNL A   1      38.353  31.539  36.423  1.00  0.00     0.131 A 
ATOM     63  C   UNL A   1      39.275  34.114  36.802  1.00  0.00     0.055 A 
ATOM     64  C   UNL A   1      37.919  32.269  37.530  1.00  0.00     0.041 A 
ATOM     65  F   UNL A   1      37.901  30.281  36.290  1.00  0.00    -0.206 F 
ATOM     66  C   UNL A   1      38.390  33.561  37.731  1.00  0.00     0.022 A 
BRANCH  63  67
ATOM     67  S   UNL A   1      39.997  35.751  37.103  1.00  0.00     0.124 S 
ATOM     68  O   UNL A   1      39.653  36.459  35.875  1.00  0.00    -0.237 OA
ATOM     69  O   UNL A   1      39.292  36.177  38.307  1.00  0.00    -0.237 OA
ATOM     70  O   UNL A   1      41.419  35.467  37.284  1.00  0.00    -0.744 OA
ENDBRANCH  63  67
ENDBRANCH  36  60
BRANCH  48  71
ATOM     71  C   UNL A   1      44.595  27.720  34.624  1.00  0.00     0.023 A 
ATOM     72  C   UNL A   1      44.497  26.614  35.488  1.00  0.00     0.031 A 
ATOM     73  C   UNL A   1      45.780  28.475  34.647  1.00  0.00     0.131 A 
ATOM     74  C   UNL A   1      45.545  26.328  36.377  1.00  0.00     0.055 A 
ATOM     75  C   UNL A   1      46.842  28.151  35.493  1.00  0.00     0.041 A 
ATOM     76  F   UNL A   1      45.926  29.542  33.844  1.00  0.00    -0.206 F 
ATOM     77  C   UNL A   1      46.723  27.080  36.373  1.00  0.00     0.022 A 
BRANCH  74  78
ATOM     78  S   UNL A   1      45.315  25.009  37.601  1.00  0.00     0.124 S 
ATOM     79  O   UNL A   1      43.947  25.248  38.050  1.00  0.00    -0.237 OA
ATOM     80  O   UNL A   1      45.523  23.803  36.806  1.00  0.00    -0.237 OA
ATOM     81  O   UNL A   1      46.351  25.280  38.597  1.00  0.00    -0.744 OA
ENDBRANCH  74  78
ENDBRANCH  48  71
ENDBRANCH  22  23
ENDBRANCH  15  17
ENDBRANCH  14  15
ENDBRANCH   1  14
TORSDOF 15
ENDMDL
MODEL 3
REMARK VINA RESULT:     -10.5      5.518     10.465
REMARK SMILES O=CN1CCC[C@@H](C(=O)OCCOC(=O)c2ccc(-c3c4nc(c(-c5cc(S(=O)(=O)[O-])ccc5F)c5ccc([nH]5)c(-c5cc(S(=O)(=O)[O-])ccc5F)c5nc(c(-c6cc(S(=O)(=O)[O-])ccc6F)c6ccc3[nH]6)C=C5)C=C4)cc2)C1
REMARK SMILES IDX 12 1 11 2 10 3 8 4 9 5 7 6 3 7 4 8 79 9 5 10 6 11 2 12 1 13
REMARK SMILES IDX 13 14 14 15 15 16 16 17 17 18 78 19 18 20 77 21 19 22 20 23
REMARK SMILES IDX 21 24 71 25 22 26 76 27 70 28 72 29 23 30 75 31 69 32 68 33
REMARK SMILES IDX 24 35 56 36 36 37 55 38 37 39 40 40 54 41 73 42 38 43 39 44
REMARK SMILES IDX 53 46 74 47 41 48 25 49 26 50 34 51 27 52 33 53 35 54 32 55
REMARK SMILES IDX 28 56 29 57 30 58 31 59 57 60 58 61 66 62 59 63 65 64 67 65
REMARK SMILES IDX 64 66 60 67 61 68 62 69 63 70 42 71 43 72 51 73 44 74 50 75
REMARK SMILES IDX 52 76 49 77 45 78 46 79 47 80 48 81
REMARK H PARENT 72 34 40 45
REMARK Flexibility Score: inf
ROOT
ATOM      1  C   UNL A   1      31.766  30.264  25.771  1.00  0.00     0.275 C 
ENDROOT
BRANCH   1   2
ATOM      2  C   UNL A   1      31.375  28.888  25.222  1.00  0.00     0.274 C 
BRANCH   2   3
ATOM      3  O   UNL A   1      30.600  28.940  24.007  1.00  0.00    -0.462 OA
BRANCH   3   4
ATOM      4  C   UNL A   1      30.013  27.772  23.625  1.00  0.00     0.310 C 
ATOM      5  O   UNL A   1      28.919  27.689  23.083  1.00  0.00    -0.252 OA
BRANCH   4   6
ATOM      6  C   UNL A   1      30.853  26.569  24.013  1.00  0.00     0.119 C 
ATOM      7  N   UNL A   1      30.647  24.405  25.187  1.00  0.00    -0.344 N 
ATOM      8  C   UNL A   1      31.026  23.624  24.020  1.00  0.00     0.119 C 
ATOM      9  C   UNL A   1      30.000  25.688  24.933  1.00  0.00     0.134 C 
ATOM     10  C   UNL A   1      31.953  24.447  23.134  1.00  0.00     0.022 C 
ATOM     11  C   UNL A   1      31.303  25.784  22.776  1.00  0.00     0.019 C 
BRANCH   7  12
ATOM     12  C   UNL A   1      30.878  23.961  26.468  1.00  0.00     0.339 C 
ATOM     13  O   UNL A   1      30.030  23.553  27.251  1.00  0.00    -0.279 OA
ENDBRANCH   7  12
ENDBRANCH   4   6
ENDBRANCH   3   4
ENDBRANCH   2   3
ENDBRANCH   1   2
BRANCH   1  14
ATOM     14  O   UNL A   1      33.153  30.327  26.146  1.00  0.00    -0.458 OA
BRANCH  14  15
ATOM     15  C   UNL A   1      33.467  31.351  26.974  1.00  0.00     0.338 C 
ATOM     16  O   UNL A   1      32.747  32.290  27.272  1.00  0.00    -0.246 OA
BRANCH  15  17
ATOM     17  C   UNL A   1      34.757  31.092  27.639  1.00  0.00     0.060 A 
ATOM     18  C   UNL A   1      34.968  29.789  28.087  1.00  0.00     0.016 A 
ATOM     19  C   UNL A   1      35.717  32.075  27.875  1.00  0.00     0.016 A 
ATOM     20  C   UNL A   1      36.141  29.440  28.745  1.00  0.00     0.010 A 
ATOM     21  C   UNL A   1      36.894  31.733  28.559  1.00  0.00     0.010 A 
ATOM     22  C   UNL A   1      37.113  30.411  28.996  1.00  0.00    -0.014 A 
BRANCH  22  23
ATOM     23  C   UNL A   1      38.317  30.034  29.777  1.00  0.00     0.031 A 
ATOM     24  C   UNL A   1      39.301  29.058  29.202  1.00  0.00     0.074 A 
ATOM     25  C   UNL A   1      38.561  30.622  30.965  1.00  0.00     0.049 A 
ATOM     26  N   UNL A   1      40.375  28.545  29.743  1.00  0.00    -0.248 NA
ATOM     27  C   UNL A   1      39.040  28.603  27.828  1.00  0.00     0.031 C 
ATOM     28  C   UNL A   1      37.722  31.647  31.586  1.00  0.00     0.029 A 
ATOM     29  N   UNL A   1      39.589  30.445  31.857  1.00  0.00    -0.354 N 
ATOM     30  C   UNL A   1      40.911  27.689  28.788  1.00  0.00     0.074 A 
ATOM     31  C   UNL A   1      40.030  27.743  27.637  1.00  0.00     0.031 C 
ATOM     32  C   UNL A   1      38.269  32.007  32.759  1.00  0.00     0.029 A 
ATOM     33  C   UNL A   1      39.461  31.200  33.000  1.00  0.00     0.049 A 
ATOM     34  H   UNL A   1      40.346  29.837  31.695  1.00  0.00     0.167 HD
ATOM     35  C   UNL A   1      42.032  26.929  28.866  1.00  0.00     0.034 A 
ATOM     36  C   UNL A   1      40.198  31.208  34.130  1.00  0.00     0.034 A 
ATOM     37  C   UNL A   1      42.896  26.890  30.021  1.00  0.00     0.049 A 
ATOM     38  C   UNL A   1      41.384  30.283  34.232  1.00  0.00     0.074 A 
ATOM     39  C   UNL A   1      44.054  26.154  30.208  1.00  0.00     0.029 A 
ATOM     40  N   UNL A   1      42.697  27.614  31.190  1.00  0.00    -0.354 N 
ATOM     41  N   UNL A   1      41.857  29.444  33.338  1.00  0.00    -0.248 NA
ATOM     42  C   UNL A   1      42.131  30.300  35.496  1.00  0.00     0.031 C 
ATOM     43  C   UNL A   1      44.516  26.382  31.509  1.00  0.00     0.029 A 
ATOM     44  C   UNL A   1      43.690  27.317  32.112  1.00  0.00     0.049 A 
ATOM     45  H   UNL A   1      41.958  28.246  31.343  1.00  0.00     0.167 HD
ATOM     46  C   UNL A   1      42.968  28.847  33.929  1.00  0.00     0.074 A 
ATOM     47  C   UNL A   1      43.105  29.437  35.245  1.00  0.00     0.031 C 
ATOM     48  C   UNL A   1      43.800  27.897  33.430  1.00  0.00     0.034 A 
BRANCH  35  49
ATOM     49  C   UNL A   1      42.337  26.027  27.695  1.00  0.00     0.023 A 
ATOM     50  C   UNL A   1      41.841  24.715  27.614  1.00  0.00     0.031 A 
ATOM     51  C   UNL A   1      43.170  26.482  26.658  1.00  0.00     0.131 A 
ATOM     52  C   UNL A   1      42.234  23.883  26.555  1.00  0.00     0.055 A 
ATOM     53  C   UNL A   1      43.499  25.674  25.569  1.00  0.00     0.041 A 
ATOM     54  F   UNL A   1      43.693  27.719  26.694  1.00  0.00    -0.206 F 
ATOM     55  C   UNL A   1      43.042  24.361  25.519  1.00  0.00     0.022 A 
BRANCH  52  56
ATOM     56  S   UNL A   1      41.790  22.125  26.617  1.00  0.00     0.124 S 
ATOM     57  O   UNL A   1      40.338  22.182  26.472  1.00  0.00    -0.237 OA
ATOM     58  O   UNL A   1      42.525  21.573  25.486  1.00  0.00    -0.237 OA
ATOM     59  O   UNL A   1      42.260  21.699  27.934  1.00  0.00    -0.744 OA
ENDBRANCH  52  56
ENDBRANCH  35  49
BRANCH  36  60
ATOM     60  C   UNL A   1      39.798  32.061  35.286  1.00  0.00     0.023 A 
ATOM     61  C   UNL A   1      38.988  31.561  36.318  1.00  0.00     0.031 A 
ATOM     62  C   UNL A   1      40.179  33.415  35.344  1.00  0.00     0.131 A 
ATOM     63  C   UNL A   1      38.556  32.418  37.343  1.00  0.00     0.055 A 
ATOM     64  C   UNL A   1      39.789  34.248  36.393  1.00  0.00     0.041 A 
ATOM     65  F   UNL A   1      40.946  33.946  34.379  1.00  0.00    -0.206 F 
ATOM     66  C   UNL A   1      38.962  33.753  37.395  1.00  0.00     0.022 A 
BRANCH  63  67
ATOM     67  S   UNL A   1      37.381  31.781  38.572  1.00  0.00     0.124 S 
ATOM     68  O   UNL A   1      36.256  32.696  38.410  1.00  0.00    -0.237 OA
ATOM     69  O   UNL A   1      37.168  30.415  38.107  1.00  0.00    -0.237 OA
ATOM     70  O   UNL A   1      38.110  31.902  39.833  1.00  0.00    -0.744 OA
ENDBRANCH  63  67
ENDBRANCH  36  60
BRANCH  48  71
ATOM     71  C   UNL A   1      44.951  27.471  34.308  1.00  0.00     0.023 A 
ATOM     72  C   UNL A   1      44.833  26.396  35.208  1.00  0.00     0.031 A 
ATOM     73  C   UNL A   1      46.174  28.162  34.258  1.00  0.00     0.131 A 
ATOM     74  C   UNL A   1      45.903  26.079  36.060  1.00  0.00     0.055 A 
ATOM     75  C   UNL A   1      47.253  27.806  35.068  1.00  0.00     0.041 A 
ATOM     76  F   UNL A   1      46.340  29.198  33.419  1.00  0.00    -0.206 F 
ATOM     77  C   UNL A   1      47.117  26.768  35.985  1.00  0.00     0.022 A 
BRANCH  74  78
ATOM     78  S   UNL A   1      45.658  24.810  37.332  1.00  0.00     0.124 S 
ATOM     79  O   UNL A   1      46.715  25.129  38.287  1.00  0.00    -0.237 OA
ATOM     80  O   UNL A   1      44.294  25.074  37.780  1.00  0.00    -0.237 OA
ATOM     81  O   UNL A   1      45.838  23.555  36.605  1.00  0.00    -0.744 OA
ENDBRANCH  74  78
ENDBRANCH  48  71
ENDBRANCH  22  23
ENDBRANCH  15  17
ENDBRANCH  14  15
ENDBRANCH   1  14
TORSDOF 15
ENDMDL
