MODEL 1
REMARK VINA RESULT:     -11.6      0.000      0.000
REMARK SMILES O=C(CCC(=O)N1CCC[C@@]2(CCC(=O)N(Cc3ccncc3)C2)C1)OCCOC(=O)c1ccc(-c2c3nc(c(-c4cc(S(=O)(=O)[O-])ccc4F)c4ccc([nH]4)c(-c4cc(S(=O)(=O)[O-])ccc4F)c4nc(c(-c5cc(S(=O)(=O)[O-])ccc5F)c5ccc2[nH]5)C=C4)C=C3)cc1
REMARK SMILES IDX 27 1 26 2 2 3 1 4 3 5 4 6 5 7 6 8 7 9 8 10 25 11 9 12 11 13
REMARK SMILES IDX 10 14 12 15 24 16 13 17 16 18 14 19 15 20 17 21 18 22 19 23
REMARK SMILES IDX 23 24 20 25 22 26 21 27 28 28 29 29 30 30 31 31 32 32 33 33
REMARK SMILES IDX 94 34 34 35 93 36 35 37 36 38 37 39 87 40 38 41 92 42 86 43
REMARK SMILES IDX 88 44 39 45 91 46 85 47 84 48 40 50 72 51 52 52 71 53 53 54
REMARK SMILES IDX 56 55 70 56 89 57 54 58 55 59 69 61 90 62 57 63 41 64 42 65
REMARK SMILES IDX 50 66 43 67 49 68 51 69 48 70 44 71 45 72 46 73 47 74 73 75
REMARK SMILES IDX 74 76 82 77 75 78 81 79 83 80 80 81 76 82 77 83 78 84 79 85
REMARK SMILES IDX 58 86 59 87 67 88 60 89 66 90 68 91 65 92 61 93 62 94 63 95
REMARK SMILES IDX 64 96
REMARK H PARENT 88 49 56 60
REMARK Flexibility Score: inf
ROOT
ATOM      1  C   UNL A   1      31.092  30.099  25.321  1.00  0.00     0.274 C 
ENDROOT
BRANCH   1   2
ATOM      2  O   UNL A   1      30.125  30.382  24.282  1.00  0.00    -0.462 OA
BRANCH   2   3
ATOM      3  C   UNL A   1      30.051  29.784  23.071  1.00  0.00     0.306 C 
ATOM      4  O   UNL A   1      29.302  30.238  22.207  1.00  0.00    -0.252 OA
BRANCH   3   5
ATOM      5  C   UNL A   1      30.956  28.622  22.753  1.00  0.00     0.132 C 
BRANCH   5   6
ATOM      6  C   UNL A   1      32.301  29.073  22.209  1.00  0.00     0.112 C 
BRANCH   6   7
ATOM      7  C   UNL A   1      33.369  28.055  22.545  1.00  0.00     0.223 C 
ATOM      8  O   UNL A   1      34.212  27.772  21.690  1.00  0.00    -0.275 OA
BRANCH   7   9
ATOM      9  N   UNL A   1      33.318  27.397  23.771  1.00  0.00    -0.342 N 
ATOM     10  C   UNL A   1      33.953  27.895  24.994  1.00  0.00     0.119 C 
ATOM     11  C   UNL A   1      32.971  25.977  23.741  1.00  0.00     0.128 C 
ATOM     12  C   UNL A   1      33.207  27.469  26.245  1.00  0.00     0.022 C 
ATOM     13  C   UNL A   1      32.312  25.422  25.027  1.00  0.00     0.006 C 
ATOM     14  C   UNL A   1      33.052  25.956  26.275  1.00  0.00     0.012 C 
ATOM     15  C   UNL A   1      30.804  25.742  25.054  1.00  0.00     0.020 C 
ATOM     16  C   UNL A   1      32.394  23.889  24.978  1.00  0.00     0.128 C 
ATOM     17  C   UNL A   1      30.049  25.044  26.181  1.00  0.00     0.101 C 
ATOM     18  N   UNL A   1      31.803  23.289  26.162  1.00  0.00    -0.338 N 
ATOM     19  C   UNL A   1      30.566  23.689  26.641  1.00  0.00     0.222 C 
ATOM     20  O   UNL A   1      29.956  23.071  27.515  1.00  0.00    -0.275 OA
BRANCH  18  21
ATOM     21  C   UNL A   1      32.614  22.389  26.970  1.00  0.00     0.155 C 
BRANCH  21  22
ATOM     22  C   UNL A   1      33.788  21.772  26.264  1.00  0.00    -0.026 A 
ATOM     23  C   UNL A   1      35.081  22.279  26.399  1.00  0.00     0.025 A 
ATOM     24  C   UNL A   1      33.601  20.632  25.475  1.00  0.00     0.025 A 
ATOM     25  C   UNL A   1      36.117  21.624  25.753  1.00  0.00     0.111 A 
ATOM     26  C   UNL A   1      34.700  20.050  24.868  1.00  0.00     0.111 A 
ATOM     27  N   UNL A   1      35.960  20.513  24.999  1.00  0.00    -0.265 NA
ENDBRANCH  21  22
ENDBRANCH  18  21
ENDBRANCH   7   9
ENDBRANCH   6   7
ENDBRANCH   5   6
ENDBRANCH   3   5
ENDBRANCH   2   3
ENDBRANCH   1   2
BRANCH   1  28
ATOM     28  C   UNL A   1      31.427  31.358  26.115  1.00  0.00     0.275 C 
BRANCH  28  29
ATOM     29  O   UNL A   1      32.629  31.138  26.861  1.00  0.00    -0.458 OA
BRANCH  29  30
ATOM     30  C   UNL A   1      33.216  32.252  27.373  1.00  0.00     0.338 C 
ATOM     31  O   UNL A   1      32.692  33.332  27.552  1.00  0.00    -0.246 OA
BRANCH  30  32
ATOM     32  C   UNL A   1      34.546  31.861  27.891  1.00  0.00     0.060 A 
ATOM     33  C   UNL A   1      34.761  30.518  28.232  1.00  0.00     0.016 A 
ATOM     34  C   UNL A   1      35.586  32.791  27.982  1.00  0.00     0.016 A 
ATOM     35  C   UNL A   1      36.013  30.108  28.691  1.00  0.00     0.010 A 
ATOM     36  C   UNL A   1      36.833  32.384  28.443  1.00  0.00     0.010 A 
ATOM     37  C   UNL A   1      37.041  31.049  28.831  1.00  0.00    -0.014 A 
BRANCH  37  38
ATOM     38  C   UNL A   1      38.260  30.737  29.608  1.00  0.00     0.031 A 
ATOM     39  C   UNL A   1      39.207  29.730  29.022  1.00  0.00     0.074 A 
ATOM     40  C   UNL A   1      38.463  31.251  30.831  1.00  0.00     0.049 A 
ATOM     41  N   UNL A   1      40.233  29.135  29.565  1.00  0.00    -0.248 NA
ATOM     42  C   UNL A   1      38.925  29.317  27.638  1.00  0.00     0.031 C 
ATOM     43  C   UNL A   1      37.613  32.244  31.484  1.00  0.00     0.029 A 
ATOM     44  N   UNL A   1      39.435  30.972  31.758  1.00  0.00    -0.354 N 
ATOM     45  C   UNL A   1      40.714  28.264  28.593  1.00  0.00     0.074 A 
ATOM     46  C   UNL A   1      39.838  28.380  27.448  1.00  0.00     0.031 C 
ATOM     47  C   UNL A   1      38.080  32.464  32.726  1.00  0.00     0.029 A 
ATOM     48  C   UNL A   1      39.236  31.600  32.964  1.00  0.00     0.049 A 
ATOM     49  H   UNL A   1      40.201  30.380  31.577  1.00  0.00     0.167 HD
ATOM     50  C   UNL A   1      41.791  27.443  28.653  1.00  0.00     0.034 A 
ATOM     51  C   UNL A   1      39.889  31.454  34.135  1.00  0.00     0.034 A 
ATOM     52  C   UNL A   1      42.625  27.319  29.821  1.00  0.00     0.049 A 
ATOM     53  C   UNL A   1      41.046  30.488  34.211  1.00  0.00     0.074 A 
ATOM     54  C   UNL A   1      43.751  26.538  30.002  1.00  0.00     0.029 A 
ATOM     55  N   UNL A   1      42.405  27.986  31.022  1.00  0.00    -0.354 N 
ATOM     56  N   UNL A   1      41.517  29.687  33.282  1.00  0.00    -0.248 NA
ATOM     57  C   UNL A   1      41.764  30.412  35.490  1.00  0.00     0.031 C 
ATOM     58  C   UNL A   1      44.169  26.677  31.330  1.00  0.00     0.029 A 
ATOM     59  C   UNL A   1      43.354  27.608  31.957  1.00  0.00     0.049 A 
ATOM     60  H   UNL A   1      41.680  28.632  31.184  1.00  0.00     0.167 HD
ATOM     61  C   UNL A   1      42.607  29.035  33.854  1.00  0.00     0.074 A 
ATOM     62  C   UNL A   1      42.720  29.536  35.210  1.00  0.00     0.031 C 
ATOM     63  C   UNL A   1      43.446  28.118  33.306  1.00  0.00     0.034 A 
BRANCH  50  64
ATOM     64  C   UNL A   1      42.059  26.584  27.440  1.00  0.00     0.023 A 
ATOM     65  C   UNL A   1      41.600  25.256  27.364  1.00  0.00     0.031 A 
ATOM     66  C   UNL A   1      42.867  27.061  26.394  1.00  0.00     0.131 A 
ATOM     67  C   UNL A   1      42.040  24.422  26.326  1.00  0.00     0.055 A 
ATOM     68  C   UNL A   1      43.222  26.253  25.312  1.00  0.00     0.041 A 
ATOM     69  F   UNL A   1      43.358  28.310  26.424  1.00  0.00    -0.206 F 
ATOM     70  C   UNL A   1      42.828  24.918  25.285  1.00  0.00     0.022 A 
BRANCH  67  71
ATOM     71  S   UNL A   1      41.736  22.638  26.464  1.00  0.00     0.124 S 
ATOM     72  O   UNL A   1      40.275  22.588  26.468  1.00  0.00    -0.237 OA
ATOM     73  O   UNL A   1      42.391  22.115  25.269  1.00  0.00    -0.237 OA
ATOM     74  O   UNL A   1      42.368  22.280  27.732  1.00  0.00    -0.744 OA
ENDBRANCH  67  71
ENDBRANCH  50  64
BRANCH  51  75
ATOM     75  C   UNL A   1      39.435  32.206  35.338  1.00  0.00     0.023 A 
ATOM     76  C   UNL A   1      39.901  33.503  35.605  1.00  0.00     0.031 A 
ATOM     77  C   UNL A   1      38.531  31.628  36.248  1.00  0.00     0.131 A 
ATOM     78  C   UNL A   1      39.480  34.170  36.767  1.00  0.00     0.055 A 
ATOM     79  C   UNL A   1      38.085  32.311  37.380  1.00  0.00     0.041 A 
ATOM     80  F   UNL A   1      38.052  30.392  36.033  1.00  0.00    -0.206 F 
ATOM     81  C   UNL A   1      38.567  33.588  37.649  1.00  0.00     0.022 A 
BRANCH  78  82
ATOM     82  S   UNL A   1      40.178  35.804  37.134  1.00  0.00     0.124 S 
ATOM     83  O   UNL A   1      39.670  36.600  36.023  1.00  0.00    -0.237 OA
ATOM     84  O   UNL A   1      39.603  36.092  38.445  1.00  0.00    -0.237 OA
ATOM     85  O   UNL A   1      41.620  35.567  37.128  1.00  0.00    -0.744 OA
ENDBRANCH  78  82
ENDBRANCH  51  75
BRANCH  63  86
ATOM     86  C   UNL A   1      44.601  27.643  34.153  1.00  0.00     0.023 A 
ATOM     87  C   UNL A   1      45.837  28.311  34.174  1.00  0.00     0.031 A 
ATOM     88  C   UNL A   1      44.441  26.515  34.979  1.00  0.00     0.131 A 
ATOM     89  C   UNL A   1      46.877  27.825  34.982  1.00  0.00     0.055 A 
ATOM     90  C   UNL A   1      45.461  26.068  35.817  1.00  0.00     0.041 A 
ATOM     91  F   UNL A   1      43.279  25.841  34.996  1.00  0.00    -0.206 F 
ATOM     92  C   UNL A   1      46.691  26.719  35.817  1.00  0.00     0.022 A 
BRANCH  89  93
ATOM     93  S   UNL A   1      48.504  28.622  34.889  1.00  0.00     0.124 S 
ATOM     94  O   UNL A   1      48.822  28.829  36.298  1.00  0.00    -0.237 OA
ATOM     95  O   UNL A   1      49.304  27.618  34.194  1.00  0.00    -0.237 OA
ATOM     96  O   UNL A   1      48.245  29.842  34.126  1.00  0.00    -0.744 OA
ENDBRANCH  89  93
ENDBRANCH  63  86
ENDBRANCH  37  38
ENDBRANCH  30  32
ENDBRANCH  29  30
ENDBRANCH  28  29
ENDBRANCH   1  28
TORSDOF 19
ENDMDL
MODEL 2
REMARK VINA RESULT:     -11.6      4.254      8.736
REMARK SMILES O=C(CCC(=O)N1CCC[C@@]2(CCC(=O)N(Cc3ccncc3)C2)C1)OCCOC(=O)c1ccc(-c2c3nc(c(-c4cc(S(=O)(=O)[O-])ccc4F)c4ccc([nH]4)c(-c4cc(S(=O)(=O)[O-])ccc4F)c4nc(c(-c5cc(S(=O)(=O)[O-])ccc5F)c5ccc2[nH]5)C=C4)C=C3)cc1
REMARK SMILES IDX 27 1 26 2 2 3 1 4 3 5 4 6 5 7 6 8 7 9 8 10 25 11 9 12 11 13
REMARK SMILES IDX 10 14 12 15 24 16 13 17 16 18 14 19 15 20 17 21 18 22 19 23
REMARK SMILES IDX 23 24 20 25 22 26 21 27 28 28 29 29 30 30 31 31 32 32 33 33
REMARK SMILES IDX 94 34 34 35 93 36 35 37 36 38 37 39 87 40 38 41 92 42 86 43
REMARK SMILES IDX 88 44 39 45 91 46 85 47 84 48 40 50 72 51 52 52 71 53 53 54
REMARK SMILES IDX 56 55 70 56 89 57 54 58 55 59 69 61 90 62 57 63 41 64 42 65
REMARK SMILES IDX 50 66 43 67 49 68 51 69 48 70 44 71 45 72 46 73 47 74 73 75
REMARK SMILES IDX 74 76 82 77 75 78 81 79 83 80 80 81 76 82 77 83 78 84 79 85
REMARK SMILES IDX 58 86 59 87 67 88 60 89 66 90 68 91 65 92 61 93 62 94 63 95
REMARK SMILES IDX 64 96
REMARK H PARENT 88 49 56 60
REMARK Flexibility Score: inf
ROOT
ATOM      1  C   UNL A   1      34.293  34.897  31.199  1.00  0.00     0.274 C 
ENDROOT
BRANCH   1   2
ATOM      2  O   UNL A   1      34.784  34.433  29.920  1.00  0.00    -0.462 OA
BRANCH   2   3
ATOM      3  C   UNL A   1      34.056  33.834  28.950  1.00  0.00     0.306 C 
ATOM      4  O   UNL A   1      32.985  34.324  28.594  1.00  0.00    -0.252 OA
BRANCH   3   5
ATOM      5  C   UNL A   1      34.606  32.621  28.243  1.00  0.00     0.132 C 
BRANCH   5   6
ATOM      6  C   UNL A   1      33.506  31.732  27.688  1.00  0.00     0.112 C 
BRANCH   6   7
ATOM      7  C   UNL A   1      34.094  30.444  27.155  1.00  0.00     0.223 C 
ATOM      8  O   UNL A   1      35.280  30.191  27.386  1.00  0.00    -0.275 OA
BRANCH   7   9
ATOM      9  N   UNL A   1      33.315  29.626  26.343  1.00  0.00    -0.342 N 
ATOM     10  C   UNL A   1      31.861  29.753  26.208  1.00  0.00     0.119 C 
ATOM     11  C   UNL A   1      33.905  28.353  25.932  1.00  0.00     0.128 C 
ATOM     12  C   UNL A   1      31.369  29.317  24.839  1.00  0.00     0.022 C 
ATOM     13  C   UNL A   1      33.373  27.767  24.601  1.00  0.00     0.006 C 
ATOM     14  C   UNL A   1      31.834  27.900  24.541  1.00  0.00     0.012 C 
ATOM     15  C   UNL A   1      34.069  28.426  23.394  1.00  0.00     0.020 C 
ATOM     16  C   UNL A   1      33.780  26.288  24.538  1.00  0.00     0.128 C 
ATOM     17  C   UNL A   1      33.755  27.752  22.062  1.00  0.00     0.101 C 
ATOM     18  N   UNL A   1      33.306  25.659  23.316  1.00  0.00    -0.338 N 
ATOM     19  C   UNL A   1      33.474  26.257  22.078  1.00  0.00     0.222 C 
ATOM     20  O   UNL A   1      33.263  25.667  21.017  1.00  0.00    -0.275 OA
BRANCH  18  21
ATOM     21  C   UNL A   1      32.467  24.474  23.418  1.00  0.00     0.155 C 
BRANCH  21  22
ATOM     22  C   UNL A   1      32.020  24.120  24.809  1.00  0.00    -0.026 A 
ATOM     23  C   UNL A   1      30.790  24.539  25.318  1.00  0.00     0.025 A 
ATOM     24  C   UNL A   1      32.833  23.315  25.614  1.00  0.00     0.025 A 
ATOM     25  C   UNL A   1      30.431  24.130  26.593  1.00  0.00     0.111 A 
ATOM     26  C   UNL A   1      32.386  22.961  26.875  1.00  0.00     0.111 A 
ATOM     27  N   UNL A   1      31.194  23.341  27.381  1.00  0.00    -0.265 NA
ENDBRANCH  21  22
ENDBRANCH  18  21
ENDBRANCH   7   9
ENDBRANCH   6   7
ENDBRANCH   5   6
ENDBRANCH   3   5
ENDBRANCH   2   3
ENDBRANCH   1   2
BRANCH   1  28
ATOM     28  C   UNL A   1      33.847  33.729  32.073  1.00  0.00     0.275 C 
BRANCH  28  29
ATOM     29  O   UNL A   1      34.705  32.608  31.835  1.00  0.00    -0.458 OA
BRANCH  29  30
ATOM     30  C   UNL A   1      35.688  32.415  32.753  1.00  0.00     0.338 C 
ATOM     31  O   UNL A   1      35.636  32.670  33.938  1.00  0.00    -0.246 OA
BRANCH  30  32
ATOM     32  C   UNL A   1      36.758  31.624  32.105  1.00  0.00     0.060 A 
ATOM     33  C   UNL A   1      37.397  30.625  32.854  1.00  0.00     0.016 A 
ATOM     34  C   UNL A   1      37.087  31.820  30.760  1.00  0.00     0.016 A 
ATOM     35  C   UNL A   1      38.387  29.837  32.265  1.00  0.00     0.010 A 
ATOM     36  C   UNL A   1      38.075  31.038  30.173  1.00  0.00     0.010 A 
ATOM     37  C   UNL A   1      38.752  30.068  30.933  1.00  0.00    -0.014 A 
BRANCH  37  38
ATOM     38  C   UNL A   1      39.995  29.495  30.372  1.00  0.00     0.031 A 
ATOM     39  C   UNL A   1      41.185  30.405  30.276  1.00  0.00     0.074 A 
ATOM     40  C   UNL A   1      40.030  28.250  29.872  1.00  0.00     0.049 A 
ATOM     41  N   UNL A   1      42.322  30.229  29.659  1.00  0.00    -0.248 NA
ATOM     42  C   UNL A   1      41.050  31.708  30.945  1.00  0.00     0.031 C 
ATOM     43  C   UNL A   1      38.935  27.284  29.927  1.00  0.00     0.029 A 
ATOM     44  N   UNL A   1      41.022  27.601  29.183  1.00  0.00    -0.354 N 
ATOM     45  C   UNL A   1      43.035  31.407  29.853  1.00  0.00     0.074 A 
ATOM     46  C   UNL A   1      42.182  32.301  30.605  1.00  0.00     0.031 C 
ATOM     47  C   UNL A   1      39.303  26.175  29.262  1.00  0.00     0.029 A 
ATOM     48  C   UNL A   1      40.641  26.371  28.705  1.00  0.00     0.049 A 
ATOM     49  H   UNL A   1      41.921  27.979  29.045  1.00  0.00     0.167 HD
ATOM     50  C   UNL A   1      44.290  31.713  29.440  1.00  0.00     0.034 A 
ATOM     51  C   UNL A   1      41.286  25.525  27.875  1.00  0.00     0.034 A 
ATOM     52  C   UNL A   1      45.103  30.818  28.658  1.00  0.00     0.049 A 
ATOM     53  C   UNL A   1      42.655  25.903  27.366  1.00  0.00     0.074 A 
ATOM     54  C   UNL A   1      46.392  31.002  28.192  1.00  0.00     0.029 A 
ATOM     55  N   UNL A   1      44.690  29.568  28.205  1.00  0.00    -0.354 N 
ATOM     56  N   UNL A   1      43.340  27.006  27.575  1.00  0.00    -0.248 NA
ATOM     57  C   UNL A   1      43.342  24.922  26.516  1.00  0.00     0.031 C 
ATOM     58  C   UNL A   1      46.731  29.898  27.401  1.00  0.00     0.029 A 
ATOM     59  C   UNL A   1      45.687  28.986  27.439  1.00  0.00     0.049 A 
ATOM     60  H   UNL A   1      43.817  29.158  28.401  1.00  0.00     0.167 HD
ATOM     61  C   UNL A   1      44.551  26.836  26.909  1.00  0.00     0.074 A 
ATOM     62  C   UNL A   1      44.501  25.526  26.290  1.00  0.00     0.031 C 
ATOM     63  C   UNL A   1      45.613  27.679  26.828  1.00  0.00     0.034 A 
BRANCH  50  64
ATOM     64  C   UNL A   1      44.799  33.093  29.778  1.00  0.00     0.023 A 
ATOM     65  C   UNL A   1      44.478  34.212  28.987  1.00  0.00     0.031 A 
ATOM     66  C   UNL A   1      45.697  33.279  30.843  1.00  0.00     0.131 A 
ATOM     67  C   UNL A   1      45.130  35.433  29.203  1.00  0.00     0.055 A 
ATOM     68  C   UNL A   1      46.271  34.524  31.113  1.00  0.00     0.041 A 
ATOM     69  F   UNL A   1      46.064  32.246  31.617  1.00  0.00    -0.206 F 
ATOM     70  C   UNL A   1      46.007  35.604  30.277  1.00  0.00     0.022 A 
BRANCH  67  71
ATOM     71  S   UNL A   1      44.973  36.730  27.944  1.00  0.00     0.124 S 
ATOM     72  O   UNL A   1      44.900  37.935  28.769  1.00  0.00    -0.237 OA
ATOM     73  O   UNL A   1      46.195  36.562  27.166  1.00  0.00    -0.237 OA
ATOM     74  O   UNL A   1      43.735  36.386  27.248  1.00  0.00    -0.744 OA
ENDBRANCH  67  71
ENDBRANCH  50  64
BRANCH  51  75
ATOM     75  C   UNL A   1      40.625  24.263  27.439  1.00  0.00     0.023 A 
ATOM     76  C   UNL A   1      39.430  24.284  26.703  1.00  0.00     0.031 A 
ATOM     77  C   UNL A   1      41.181  23.012  27.764  1.00  0.00     0.131 A 
ATOM     78  C   UNL A   1      38.815  23.075  26.339  1.00  0.00     0.055 A 
ATOM     79  C   UNL A   1      40.586  21.815  27.364  1.00  0.00     0.041 A 
ATOM     80  F   UNL A   1      42.326  22.940  28.461  1.00  0.00    -0.206 F 
ATOM     81  C   UNL A   1      39.390  21.842  26.654  1.00  0.00     0.022 A 
BRANCH  78  82
ATOM     82  S   UNL A   1      37.220  23.135  25.476  1.00  0.00     0.124 S 
ATOM     83  O   UNL A   1      36.621  24.338  26.043  1.00  0.00    -0.237 OA
ATOM     84  O   UNL A   1      37.634  23.222  24.079  1.00  0.00    -0.237 OA
ATOM     85  O   UNL A   1      36.580  21.878  25.855  1.00  0.00    -0.744 OA
ENDBRANCH  78  82
ENDBRANCH  51  75
BRANCH  63  86
ATOM     86  C   UNL A   1      46.836  27.184  26.095  1.00  0.00     0.023 A 
ATOM     87  C   UNL A   1      47.904  26.557  26.760  1.00  0.00     0.031 A 
ATOM     88  C   UNL A   1      46.910  27.316  24.696  1.00  0.00     0.131 A 
ATOM     89  C   UNL A   1      49.016  26.114  26.027  1.00  0.00     0.055 A 
ATOM     90  C   UNL A   1      47.995  26.829  23.968  1.00  0.00     0.041 A 
ATOM     91  F   UNL A   1      45.916  27.908  24.013  1.00  0.00    -0.206 F 
ATOM     92  C   UNL A   1      49.060  26.231  24.634  1.00  0.00     0.022 A 
BRANCH  89  93
ATOM     93  S   UNL A   1      50.439  25.434  26.922  1.00  0.00     0.124 S 
ATOM     94  O   UNL A   1      49.843  24.303  27.625  1.00  0.00    -0.237 OA
ATOM     95  O   UNL A   1      51.359  25.098  25.839  1.00  0.00    -0.237 OA
ATOM     96  O   UNL A   1      50.868  26.539  27.777  1.00  0.00    -0.744 OA
ENDBRANCH  89  93
ENDBRANCH  63  86
ENDBRANCH  37  38
ENDBRANCH  30  32
ENDBRANCH  29  30
ENDBRANCH  28  29
ENDBRANCH   1  28
TORSDOF 19
ENDMDL
MODEL 3
REMARK VINA RESULT:     -11.6      2.383      3.339
REMARK SMILES O=C(CCC(=O)N1CCC[C@@]2(CCC(=O)N(Cc3ccncc3)C2)C1)OCCOC(=O)c1ccc(-c2c3nc(c(-c4cc(S(=O)(=O)[O-])ccc4F)c4ccc([nH]4)c(-c4cc(S(=O)(=O)[O-])ccc4F)c4nc(c(-c5cc(S(=O)(=O)[O-])ccc5F)c5ccc2[nH]5)C=C4)C=C3)cc1
REMARK SMILES IDX 27 1 26 2 2 3 1 4 3 5 4 6 5 7 6 8 7 9 8 10 25 11 9 12 11 13
REMARK SMILES IDX 10 14 12 15 24 16 13 17 16 18 14 19 15 20 17 21 18 22 19 23
REMARK SMILES IDX 23 24 20 25 22 26 21 27 28 28 29 29 30 30 31 31 32 32 33 33
REMARK SMILES IDX 94 34 34 35 93 36 35 37 36 38 37 39 87 40 38 41 92 42 86 43
REMARK SMILES IDX 88 44 39 45 91 46 85 47 84 48 40 50 72 51 52 52 71 53 53 54
REMARK SMILES IDX 56 55 70 56 89 57 54 58 55 59 69 61 90 62 57 63 41 64 42 65
REMARK SMILES IDX 50 66 43 67 49 68 51 69 48 70 44 71 45 72 46 73 47 74 73 75
REMARK SMILES IDX 74 76 82 77 75 78 81 79 83 80 80 81 76 82 77 83 78 84 79 85
REMARK SMILES IDX 58 86 59 87 67 88 60 89 66 90 68 91 65 92 61 93 62 94 63 95
REMARK SMILES IDX 64 96
REMARK H PARENT 88 49 56 60
REMARK Flexibility Score: inf
ROOT
ATOM      1  C   UNL A   1      31.606  31.604  26.783  1.00  0.00     0.274 C 
ENDROOT
BRANCH   1   2
ATOM      2  O   UNL A   1      32.661  30.712  26.353  1.00  0.00    -0.462 OA
BRANCH   2   3
ATOM      3  C   UNL A   1      32.520  29.628  25.557  1.00  0.00     0.306 C 
ATOM      4  O   UNL A   1      33.349  29.399  24.677  1.00  0.00    -0.252 OA
BRANCH   3   5
ATOM      5  C   UNL A   1      31.400  28.651  25.814  1.00  0.00     0.132 C 
BRANCH   5   6
ATOM      6  C   UNL A   1      31.858  27.451  26.626  1.00  0.00     0.112 C 
BRANCH   6   7
ATOM      7  C   UNL A   1      31.196  26.191  26.115  1.00  0.00     0.223 C 
ATOM      8  O   UNL A   1      30.050  25.926  26.491  1.00  0.00    -0.275 OA
BRANCH   7   9
ATOM      9  N   UNL A   1      31.924  25.317  25.313  1.00  0.00    -0.342 N 
ATOM     10  C   UNL A   1      32.276  25.590  23.917  1.00  0.00     0.119 C 
ATOM     11  C   UNL A   1      31.986  23.923  25.746  1.00  0.00     0.128 C 
ATOM     12  C   UNL A   1      33.582  24.930  23.513  1.00  0.00     0.022 C 
ATOM     13  C   UNL A   1      33.230  23.131  25.277  1.00  0.00     0.006 C 
ATOM     14  C   UNL A   1      33.524  23.436  23.790  1.00  0.00     0.012 C 
ATOM     15  C   UNL A   1      34.441  23.419  26.187  1.00  0.00     0.020 C 
ATOM     16  C   UNL A   1      32.939  21.635  25.463  1.00  0.00     0.128 C 
ATOM     17  C   UNL A   1      35.640  22.514  25.918  1.00  0.00     0.101 C 
ATOM     18  N   UNL A   1      34.061  20.818  25.033  1.00  0.00    -0.338 N 
ATOM     19  C   UNL A   1      35.360  21.106  25.417  1.00  0.00     0.222 C 
ATOM     20  O   UNL A   1      36.299  20.329  25.234  1.00  0.00    -0.275 OA
BRANCH  18  21
ATOM     21  C   UNL A   1      33.836  19.796  24.020  1.00  0.00     0.155 C 
BRANCH  21  22
ATOM     22  C   UNL A   1      33.768  18.385  24.534  1.00  0.00    -0.026 A 
ATOM     23  C   UNL A   1      34.810  17.478  24.343  1.00  0.00     0.025 A 
ATOM     24  C   UNL A   1      32.648  17.967  25.262  1.00  0.00     0.025 A 
ATOM     25  C   UNL A   1      34.689  16.210  24.890  1.00  0.00     0.111 A 
ATOM     26  C   UNL A   1      32.621  16.679  25.767  1.00  0.00     0.111 A 
ATOM     27  N   UNL A   1      33.625  15.791  25.608  1.00  0.00    -0.265 NA
ENDBRANCH  21  22
ENDBRANCH  18  21
ENDBRANCH   7   9
ENDBRANCH   6   7
ENDBRANCH   5   6
ENDBRANCH   3   5
ENDBRANCH   2   3
ENDBRANCH   1   2
BRANCH   1  28
ATOM     28  C   UNL A   1      32.111  33.040  26.885  1.00  0.00     0.275 C 
BRANCH  28  29
ATOM     29  O   UNL A   1      32.215  33.406  28.265  1.00  0.00    -0.458 OA
BRANCH  29  30
ATOM     30  C   UNL A   1      33.118  34.381  28.548  1.00  0.00     0.338 C 
ATOM     31  O   UNL A   1      32.906  35.575  28.599  1.00  0.00    -0.246 OA
BRANCH  30  32
ATOM     32  C   UNL A   1      34.359  33.722  29.011  1.00  0.00     0.060 A 
ATOM     33  C   UNL A   1      34.249  32.540  29.758  1.00  0.00     0.016 A 
ATOM     34  C   UNL A   1      35.617  34.227  28.663  1.00  0.00     0.016 A 
ATOM     35  C   UNL A   1      35.400  31.874  30.181  1.00  0.00     0.010 A 
ATOM     36  C   UNL A   1      36.763  33.565  29.088  1.00  0.00     0.010 A 
ATOM     37  C   UNL A   1      36.659  32.406  29.877  1.00  0.00    -0.014 A 
BRANCH  37  38
ATOM     38  C   UNL A   1      37.877  31.929  30.567  1.00  0.00     0.031 A 
ATOM     39  C   UNL A   1      38.687  30.873  29.874  1.00  0.00     0.074 A 
ATOM     40  C   UNL A   1      38.189  32.342  31.806  1.00  0.00     0.049 A 
ATOM     41  N   UNL A   1      39.674  30.147  30.325  1.00  0.00    -0.248 NA
ATOM     42  C   UNL A   1      38.300  30.578  28.486  1.00  0.00     0.031 C 
ATOM     43  C   UNL A   1      37.476  33.371  32.560  1.00  0.00     0.029 A 
ATOM     44  N   UNL A   1      39.171  31.912  32.661  1.00  0.00    -0.354 N 
ATOM     45  C   UNL A   1      40.017  29.297  29.280  1.00  0.00     0.074 A 
ATOM     46  C   UNL A   1      39.103  29.569  28.193  1.00  0.00     0.031 C 
ATOM     47  C   UNL A   1      38.022  33.466  33.785  1.00  0.00     0.029 A 
ATOM     48  C   UNL A   1      39.094  32.479  33.910  1.00  0.00     0.049 A 
ATOM     49  H   UNL A   1      39.864  31.261  32.405  1.00  0.00     0.167 HD
ATOM     50  C   UNL A   1      41.008  28.372  29.234  1.00  0.00     0.034 A 
ATOM     51  C   UNL A   1      39.785  32.197  35.034  1.00  0.00     0.034 A 
ATOM     52  C   UNL A   1      41.880  28.094  30.346  1.00  0.00     0.049 A 
ATOM     53  C   UNL A   1      40.841  31.120  34.991  1.00  0.00     0.074 A 
ATOM     54  C   UNL A   1      42.929  27.197  30.421  1.00  0.00     0.029 A 
ATOM     55  N   UNL A   1      41.786  28.702  31.594  1.00  0.00    -0.354 N 
ATOM     56  N   UNL A   1      41.184  30.336  33.993  1.00  0.00    -0.248 NA
ATOM     57  C   UNL A   1      41.608  30.893  36.223  1.00  0.00     0.031 C 
ATOM     58  C   UNL A   1      43.421  27.211  31.731  1.00  0.00     0.029 A 
ATOM     59  C   UNL A   1      42.736  28.175  32.453  1.00  0.00     0.049 A 
ATOM     60  H   UNL A   1      41.138  29.405  31.832  1.00  0.00     0.167 HD
ATOM     61  C   UNL A   1      42.228  29.547  34.467  1.00  0.00     0.074 A 
ATOM     62  C   UNL A   1      42.457  29.947  35.842  1.00  0.00     0.031 C 
ATOM     63  C   UNL A   1      42.943  28.588  33.823  1.00  0.00     0.034 A 
BRANCH  50  64
ATOM     64  C   UNL A   1      41.129  27.569  27.961  1.00  0.00     0.023 A 
ATOM     65  C   UNL A   1      40.734  26.219  27.903  1.00  0.00     0.031 A 
ATOM     66  C   UNL A   1      41.738  28.125  26.824  1.00  0.00     0.131 A 
ATOM     67  C   UNL A   1      41.051  25.446  26.777  1.00  0.00     0.055 A 
ATOM     68  C   UNL A   1      41.964  27.374  25.669  1.00  0.00     0.041 A 
ATOM     69  F   UNL A   1      42.162  29.399  26.828  1.00  0.00    -0.206 F 
ATOM     70  C   UNL A   1      41.641  26.020  25.649  1.00  0.00     0.022 A 
BRANCH  67  71
ATOM     71  S   UNL A   1      40.866  23.644  26.888  1.00  0.00     0.124 S 
ATOM     72  O   UNL A   1      41.278  23.390  28.267  1.00  0.00    -0.237 OA
ATOM     73  O   UNL A   1      39.449  23.456  26.598  1.00  0.00    -0.237 OA
ATOM     74  O   UNL A   1      41.786  23.141  25.869  1.00  0.00    -0.744 OA
ENDBRANCH  67  71
ENDBRANCH  50  64
BRANCH  51  75
ATOM     75  C   UNL A   1      39.468  32.912  36.301  1.00  0.00     0.023 A 
ATOM     76  C   UNL A   1      38.549  32.387  37.223  1.00  0.00     0.031 A 
ATOM     77  C   UNL A   1      40.076  34.145  36.603  1.00  0.00     0.131 A 
ATOM     78  C   UNL A   1      38.246  33.105  38.392  1.00  0.00     0.055 A 
ATOM     79  C   UNL A   1      39.802  34.834  37.785  1.00  0.00     0.041 A 
ATOM     80  F   UNL A   1      40.966  34.685  35.756  1.00  0.00    -0.206 F 
ATOM     81  C   UNL A   1      38.873  34.318  38.684  1.00  0.00     0.022 A 
BRANCH  78  82
ATOM     82  S   UNL A   1      36.980  32.447  39.514  1.00  0.00     0.124 S 
ATOM     83  O   UNL A   1      37.415  31.065  39.674  1.00  0.00    -0.237 OA
ATOM     84  O   UNL A   1      37.134  33.308  40.682  1.00  0.00    -0.237 OA
ATOM     85  O   UNL A   1      35.737  32.631  38.768  1.00  0.00    -0.744 OA
ENDBRANCH  78  82
ENDBRANCH  51  75
BRANCH  63  86
ATOM     86  C   UNL A   1      44.084  27.950  34.577  1.00  0.00     0.023 A 
ATOM     87  C   UNL A   1      43.974  26.679  35.165  1.00  0.00     0.031 A 
ATOM     88  C   UNL A   1      45.317  28.624  34.674  1.00  0.00     0.131 A 
ATOM     89  C   UNL A   1      45.070  26.134  35.853  1.00  0.00     0.055 A 
ATOM     90  C   UNL A   1      46.416  28.054  35.315  1.00  0.00     0.041 A 
ATOM     91  F   UNL A   1      45.474  29.841  34.128  1.00  0.00    -0.206 F 
ATOM     92  C   UNL A   1      46.294  26.805  35.917  1.00  0.00     0.022 A 
BRANCH  89  93
ATOM     93  S   UNL A   1      44.860  24.555  36.721  1.00  0.00     0.124 S 
ATOM     94  O   UNL A   1      44.550  24.993  38.078  1.00  0.00    -0.237 OA
ATOM     95  O   UNL A   1      43.763  23.936  35.984  1.00  0.00    -0.237 OA
ATOM     96  O   UNL A   1      46.158  23.901  36.562  1.00  0.00    -0.744 OA
ENDBRANCH  89  93
ENDBRANCH  63  86
ENDBRANCH  37  38
ENDBRANCH  30  32
ENDBRANCH  29  30
ENDBRANCH  28  29
ENDBRANCH   1  28
TORSDOF 19
ENDMDL
