MODEL 1
REMARK VINA RESULT:     -12.0      0.000      0.000
REMARK SMILES CC[C@](C)(NC(=O)N1Cc2ccccc2C1)C(=O)OCCOC(=O)c1ccc(-c2c3nc(c(-c4cc(S(=O)(=O)[O-])ccc4F)c4ccc([nH]4)c(-c4cc(S(=O)(=O)[O-])ccc4F)c4nc(c(-c5cc(S(=O)(=O)[O-])ccc5F)c5ccc2[nH]5)C=C4)C=C3)cc1
REMARK SMILES IDX 21 1 20 2 19 3 17 4 18 5 3 6 4 7 2 8 1 9 5 10 6 11 7 13 8 14
REMARK SMILES IDX 9 15 16 16 10 17 15 18 11 19 14 20 12 21 13 22 22 23 23 24
REMARK SMILES IDX 24 25 25 26 26 27 87 28 27 29 86 30 28 31 29 32 30 33 80 34
REMARK SMILES IDX 31 35 85 36 79 37 81 38 32 39 84 40 78 41 77 42 33 44 65 45
REMARK SMILES IDX 45 46 64 47 46 48 49 49 63 50 82 51 47 52 48 53 62 55 83 56
REMARK SMILES IDX 50 57 34 58 35 59 43 60 36 61 42 62 44 63 41 64 37 65 38 66
REMARK SMILES IDX 39 67 40 68 66 69 67 70 75 71 68 72 74 73 76 74 73 75 69 76
REMARK SMILES IDX 70 77 71 78 72 79 51 80 52 81 60 82 53 83 59 84 61 85 58 86
REMARK SMILES IDX 54 87 55 88 56 89 57 90
REMARK H PARENT 5 12 81 43 49 54
REMARK Flexibility Score: inf
ROOT
ATOM      1  C   UNL A   1      37.237  20.160  25.100  1.00  0.00     0.275 C 
ENDROOT
BRANCH   1   2
ATOM      2  C   UNL A   1      35.867  20.728  24.749  1.00  0.00     0.274 C 
BRANCH   2   3
ATOM      3  O   UNL A   1      35.855  22.160  24.930  1.00  0.00    -0.460 OA
BRANCH   3   4
ATOM      4  C   UNL A   1      35.368  22.921  23.912  1.00  0.00     0.331 C 
ATOM      5  O   UNL A   1      35.880  22.971  22.797  1.00  0.00    -0.249 OA
BRANCH   4   6
ATOM      6  C   UNL A   1      34.138  23.796  24.328  1.00  0.00     0.136 C 
ATOM      7  C   UNL A   1      34.155  25.055  23.441  1.00  0.00     0.047 C 
BRANCH   6   8
ATOM      8  C   UNL A   1      34.366  24.121  25.841  1.00  0.00     0.037 C 
ATOM      9  C   UNL A   1      33.285  23.630  26.801  1.00  0.00     0.007 C 
ENDBRANCH   6   8
BRANCH   6  10
ATOM     10  N   UNL A   1      32.849  23.050  24.197  1.00  0.00    -0.322 N 
ATOM     11  C   UNL A   1      32.605  22.169  23.181  1.00  0.00     0.318 C 
ATOM     12  H   UNL A   1      32.147  23.200  24.871  1.00  0.00     0.166 HD
ATOM     13  O   UNL A   1      32.719  22.496  22.004  1.00  0.00    -0.249 OA
ATOM     14  N   UNL A   1      32.196  20.922  23.554  1.00  0.00    -0.316 N 
ATOM     15  C   UNL A   1      32.259  19.843  22.570  1.00  0.00     0.157 C 
ATOM     16  C   UNL A   1      32.034  20.396  24.908  1.00  0.00     0.157 C 
ATOM     17  C   UNL A   1      32.649  18.666  23.410  1.00  0.00    -0.023 A 
ATOM     18  C   UNL A   1      32.530  18.987  24.771  1.00  0.00    -0.023 A 
ATOM     19  C   UNL A   1      33.163  17.448  22.999  1.00  0.00     0.006 A 
ATOM     20  C   UNL A   1      32.916  18.088  25.749  1.00  0.00     0.006 A 
ATOM     21  C   UNL A   1      33.579  16.546  23.979  1.00  0.00     0.000 A 
ATOM     22  C   UNL A   1      33.454  16.862  25.342  1.00  0.00     0.000 A 
ENDBRANCH   6  10
ENDBRANCH   4   6
ENDBRANCH   3   4
ENDBRANCH   2   3
ENDBRANCH   1   2
BRANCH   1  23
ATOM     23  O   UNL A   1      38.139  21.250  25.312  1.00  0.00    -0.458 OA
BRANCH  23  24
ATOM     24  C   UNL A   1      39.183  21.015  26.135  1.00  0.00     0.338 C 
ATOM     25  O   UNL A   1      39.615  19.935  26.514  1.00  0.00    -0.246 OA
BRANCH  24  26
ATOM     26  C   UNL A   1      39.711  22.305  26.589  1.00  0.00     0.060 A 
ATOM     27  C   UNL A   1      40.813  22.351  27.443  1.00  0.00     0.016 A 
ATOM     28  C   UNL A   1      39.098  23.481  26.159  1.00  0.00     0.016 A 
ATOM     29  C   UNL A   1      41.286  23.570  27.899  1.00  0.00     0.010 A 
ATOM     30  C   UNL A   1      39.648  24.708  26.522  1.00  0.00     0.010 A 
ATOM     31  C   UNL A   1      40.752  24.760  27.389  1.00  0.00    -0.014 A 
BRANCH  31  32
ATOM     32  C   UNL A   1      41.422  26.044  27.704  1.00  0.00     0.031 A 
ATOM     33  C   UNL A   1      40.739  27.069  28.556  1.00  0.00     0.074 A 
ATOM     34  C   UNL A   1      42.657  26.257  27.205  1.00  0.00     0.049 A 
ATOM     35  N   UNL A   1      41.119  28.286  28.845  1.00  0.00    -0.248 NA
ATOM     36  C   UNL A   1      39.445  26.688  29.140  1.00  0.00     0.031 C 
ATOM     37  C   UNL A   1      43.396  25.311  26.358  1.00  0.00     0.029 A 
ATOM     38  N   UNL A   1      43.521  27.308  27.347  1.00  0.00    -0.354 N 
ATOM     39  C   UNL A   1      40.097  28.831  29.615  1.00  0.00     0.074 A 
ATOM     40  C   UNL A   1      39.069  27.817  29.724  1.00  0.00     0.031 C 
ATOM     41  C   UNL A   1      44.620  25.796  26.117  1.00  0.00     0.029 A 
ATOM     42  C   UNL A   1      44.724  27.124  26.702  1.00  0.00     0.049 A 
ATOM     43  H   UNL A   1      43.305  28.119  27.863  1.00  0.00     0.167 HD
ATOM     44  C   UNL A   1      40.035  30.066  30.171  1.00  0.00     0.034 A 
ATOM     45  C   UNL A   1      45.780  27.948  26.567  1.00  0.00     0.034 A 
ATOM     46  C   UNL A   1      41.090  31.046  30.041  1.00  0.00     0.049 A 
ATOM     47  C   UNL A   1      45.687  29.303  27.211  1.00  0.00     0.074 A 
ATOM     48  C   UNL A   1      41.137  32.344  30.518  1.00  0.00     0.029 A 
ATOM     49  N   UNL A   1      42.298  30.825  29.384  1.00  0.00    -0.354 N 
ATOM     50  N   UNL A   1      44.690  29.826  27.889  1.00  0.00    -0.248 NA
ATOM     51  C   UNL A   1      46.854  30.179  27.071  1.00  0.00     0.031 C 
ATOM     52  C   UNL A   1      42.348  32.919  30.114  1.00  0.00     0.029 A 
ATOM     53  C   UNL A   1      43.092  31.962  29.440  1.00  0.00     0.049 A 
ATOM     54  H   UNL A   1      42.553  29.982  28.942  1.00  0.00     0.167 HD
ATOM     55  C   UNL A   1      45.108  31.100  28.252  1.00  0.00     0.074 A 
ATOM     56  C   UNL A   1      46.467  31.240  27.761  1.00  0.00     0.031 C 
ATOM     57  C   UNL A   1      44.432  32.076  28.912  1.00  0.00     0.034 A 
BRANCH  44  58
ATOM     58  C   UNL A   1      38.766  30.430  30.908  1.00  0.00     0.023 A 
ATOM     59  C   UNL A   1      37.674  31.033  30.258  1.00  0.00     0.031 A 
ATOM     60  C   UNL A   1      38.665  30.221  32.296  1.00  0.00     0.131 A 
ATOM     61  C   UNL A   1      36.567  31.472  31.003  1.00  0.00     0.055 A 
ATOM     62  C   UNL A   1      37.528  30.588  33.019  1.00  0.00     0.041 A 
ATOM     63  F   UNL A   1      39.682  29.673  32.980  1.00  0.00    -0.206 F 
ATOM     64  C   UNL A   1      36.476  31.233  32.376  1.00  0.00     0.022 A 
BRANCH  61  65
ATOM     65  S   UNL A   1      35.307  32.485  30.177  1.00  0.00     0.124 S 
ATOM     66  O   UNL A   1      36.067  33.687  29.846  1.00  0.00    -0.237 OA
ATOM     67  O   UNL A   1      34.914  31.646  29.051  1.00  0.00    -0.237 OA
ATOM     68  O   UNL A   1      34.284  32.667  31.205  1.00  0.00    -0.744 OA
ENDBRANCH  61  65
ENDBRANCH  44  58
BRANCH  45  69
ATOM     69  C   UNL A   1      46.967  27.535  25.763  1.00  0.00     0.023 A 
ATOM     70  C   UNL A   1      47.096  27.893  24.412  1.00  0.00     0.031 A 
ATOM     71  C   UNL A   1      47.995  26.765  26.339  1.00  0.00     0.131 A 
ATOM     72  C   UNL A   1      48.208  27.454  23.674  1.00  0.00     0.055 A 
ATOM     73  C   UNL A   1      49.127  26.382  25.618  1.00  0.00     0.041 A 
ATOM     74  F   UNL A   1      47.927  26.393  27.627  1.00  0.00    -0.206 F 
ATOM     75  C   UNL A   1      49.232  26.716  24.272  1.00  0.00     0.022 A 
BRANCH  72  76
ATOM     76  S   UNL A   1      48.258  27.787  21.892  1.00  0.00     0.124 S 
ATOM     77  O   UNL A   1      46.933  28.350  21.653  1.00  0.00    -0.237 OA
ATOM     78  O   UNL A   1      49.377  28.717  21.789  1.00  0.00    -0.237 OA
ATOM     79  O   UNL A   1      48.490  26.469  21.305  1.00  0.00    -0.744 OA
ENDBRANCH  72  76
ENDBRANCH  45  69
BRANCH  57  80
ATOM     80  C   UNL A   1      45.183  33.363  29.131  1.00  0.00     0.023 A 
ATOM     81  C   UNL A   1      45.095  34.423  28.212  1.00  0.00     0.031 A 
ATOM     82  C   UNL A   1      46.046  33.504  30.230  1.00  0.00     0.131 A 
ATOM     83  C   UNL A   1      45.919  35.546  28.363  1.00  0.00     0.055 A 
ATOM     84  C   UNL A   1      46.815  34.653  30.411  1.00  0.00     0.041 A 
ATOM     85  F   UNL A   1      46.169  32.519  31.134  1.00  0.00    -0.206 F 
ATOM     86  C   UNL A   1      46.769  35.673  29.465  1.00  0.00     0.022 A 
BRANCH  83  87
ATOM     87  S   UNL A   1      45.963  36.774  27.029  1.00  0.00     0.124 S 
ATOM     88  O   UNL A   1      46.478  35.991  25.911  1.00  0.00    -0.237 OA
ATOM     89  O   UNL A   1      44.563  37.179  26.934  1.00  0.00    -0.237 OA
ATOM     90  O   UNL A   1      46.871  37.800  27.540  1.00  0.00    -0.744 OA
ENDBRANCH  83  87
ENDBRANCH  57  80
ENDBRANCH  31  32
ENDBRANCH  24  26
ENDBRANCH  23  24
ENDBRANCH   1  23
TORSDOF 16
ENDMDL
MODEL 2
REMARK VINA RESULT:     -11.8      0.384      7.644
REMARK SMILES CC[C@](C)(NC(=O)N1Cc2ccccc2C1)C(=O)OCCOC(=O)c1ccc(-c2c3nc(c(-c4cc(S(=O)(=O)[O-])ccc4F)c4ccc([nH]4)c(-c4cc(S(=O)(=O)[O-])ccc4F)c4nc(c(-c5cc(S(=O)(=O)[O-])ccc5F)c5ccc2[nH]5)C=C4)C=C3)cc1
REMARK SMILES IDX 21 1 20 2 19 3 17 4 18 5 3 6 4 7 2 8 1 9 5 10 6 11 7 13 8 14
REMARK SMILES IDX 9 15 16 16 10 17 15 18 11 19 14 20 12 21 13 22 22 23 23 24
REMARK SMILES IDX 24 25 25 26 26 27 87 28 27 29 86 30 28 31 29 32 30 33 80 34
REMARK SMILES IDX 31 35 85 36 79 37 81 38 32 39 84 40 78 41 77 42 33 44 65 45
REMARK SMILES IDX 45 46 64 47 46 48 49 49 63 50 82 51 47 52 48 53 62 55 83 56
REMARK SMILES IDX 50 57 34 58 35 59 43 60 36 61 42 62 44 63 41 64 37 65 38 66
REMARK SMILES IDX 39 67 40 68 66 69 67 70 75 71 68 72 74 73 76 74 73 75 69 76
REMARK SMILES IDX 70 77 71 78 72 79 51 80 52 81 60 82 53 83 59 84 61 85 58 86
REMARK SMILES IDX 54 87 55 88 56 89 57 90
REMARK H PARENT 5 12 81 43 49 54
REMARK Flexibility Score: inf
ROOT
ATOM      1  C   UNL A   1      37.222  20.183  25.141  1.00  0.00     0.275 C 
ENDROOT
BRANCH   1   2
ATOM      2  C   UNL A   1      35.866  20.702  24.679  1.00  0.00     0.274 C 
BRANCH   2   3
ATOM      3  O   UNL A   1      35.764  22.122  24.914  1.00  0.00    -0.460 OA
BRANCH   3   4
ATOM      4  C   UNL A   1      35.349  22.905  23.881  1.00  0.00     0.331 C 
ATOM      5  O   UNL A   1      35.922  22.958  22.797  1.00  0.00    -0.249 OA
BRANCH   4   6
ATOM      6  C   UNL A   1      34.116  23.801  24.239  1.00  0.00     0.136 C 
ATOM      7  C   UNL A   1      34.127  24.999  23.272  1.00  0.00     0.047 C 
BRANCH   6   8
ATOM      8  C   UNL A   1      34.342  24.224  25.728  1.00  0.00     0.037 C 
ATOM      9  C   UNL A   1      33.234  23.846  26.708  1.00  0.00     0.007 C 
ENDBRANCH   6   8
BRANCH   6  10
ATOM     10  N   UNL A   1      32.830  23.042  24.159  1.00  0.00    -0.322 N 
ATOM     11  C   UNL A   1      32.560  22.147  23.160  1.00  0.00     0.318 C 
ATOM     12  H   UNL A   1      32.148  23.193  24.852  1.00  0.00     0.166 HD
ATOM     13  O   UNL A   1      32.634  22.462  21.977  1.00  0.00    -0.249 OA
ATOM     14  N   UNL A   1      32.175  20.901  23.560  1.00  0.00    -0.316 N 
ATOM     15  C   UNL A   1      32.216  19.812  22.586  1.00  0.00     0.157 C 
ATOM     16  C   UNL A   1      32.062  20.389  24.924  1.00  0.00     0.157 C 
ATOM     17  C   UNL A   1      32.643  18.647  23.426  1.00  0.00    -0.023 A 
ATOM     18  C   UNL A   1      32.565  18.983  24.786  1.00  0.00    -0.023 A 
ATOM     19  C   UNL A   1      33.154  17.430  23.012  1.00  0.00     0.006 A 
ATOM     20  C   UNL A   1      32.990  18.098  25.761  1.00  0.00     0.006 A 
ATOM     21  C   UNL A   1      33.609  16.542  23.988  1.00  0.00     0.000 A 
ATOM     22  C   UNL A   1      33.526  16.872  25.351  1.00  0.00     0.000 A 
ENDBRANCH   6  10
ENDBRANCH   4   6
ENDBRANCH   3   4
ENDBRANCH   2   3
ENDBRANCH   1   2
BRANCH   1  23
ATOM     23  O   UNL A   1      38.093  21.302  25.336  1.00  0.00    -0.458 OA
BRANCH  23  24
ATOM     24  C   UNL A   1      39.172  21.096  26.121  1.00  0.00     0.338 C 
ATOM     25  O   UNL A   1      39.648  20.028  26.480  1.00  0.00    -0.246 OA
BRANCH  24  26
ATOM     26  C   UNL A   1      39.677  22.399  26.562  1.00  0.00     0.060 A 
ATOM     27  C   UNL A   1      40.818  22.477  27.360  1.00  0.00     0.016 A 
ATOM     28  C   UNL A   1      39.002  23.557  26.176  1.00  0.00     0.016 A 
ATOM     29  C   UNL A   1      41.270  23.707  27.805  1.00  0.00     0.010 A 
ATOM     30  C   UNL A   1      39.526  24.799  26.524  1.00  0.00     0.010 A 
ATOM     31  C   UNL A   1      40.671  24.882  27.335  1.00  0.00    -0.014 A 
BRANCH  31  32
ATOM     32  C   UNL A   1      41.310  26.187  27.631  1.00  0.00     0.031 A 
ATOM     33  C   UNL A   1      42.667  26.510  27.087  1.00  0.00     0.074 A 
ATOM     34  C   UNL A   1      40.633  27.067  28.397  1.00  0.00     0.049 A 
ATOM     35  N   UNL A   1      43.426  27.547  27.328  1.00  0.00    -0.248 NA
ATOM     36  C   UNL A   1      43.264  25.526  26.172  1.00  0.00     0.031 C 
ATOM     37  C   UNL A   1      39.304  26.830  28.976  1.00  0.00     0.029 A 
ATOM     38  N   UNL A   1      40.943  28.336  28.806  1.00  0.00    -0.354 N 
ATOM     39  C   UNL A   1      44.605  27.327  26.624  1.00  0.00     0.074 A 
ATOM     40  C   UNL A   1      44.468  26.044  25.968  1.00  0.00     0.031 C 
ATOM     41  C   UNL A   1      38.889  27.939  29.601  1.00  0.00     0.029 A 
ATOM     42  C   UNL A   1      39.955  28.928  29.559  1.00  0.00     0.049 A 
ATOM     43  H   UNL A   1      41.792  28.783  28.582  1.00  0.00     0.167 HD
ATOM     44  C   UNL A   1      45.694  28.130  26.543  1.00  0.00     0.034 A 
ATOM     45  C   UNL A   1      39.924  30.125  30.176  1.00  0.00     0.034 A 
ATOM     46  C   UNL A   1      45.785  29.408  27.212  1.00  0.00     0.049 A 
ATOM     47  C   UNL A   1      41.140  31.000  30.052  1.00  0.00     0.074 A 
ATOM     48  C   UNL A   1      46.843  30.300  27.246  1.00  0.00     0.029 A 
ATOM     49  N   UNL A   1      44.763  29.983  27.963  1.00  0.00    -0.354 N 
ATOM     50  N   UNL A   1      42.270  30.754  29.429  1.00  0.00    -0.248 NA
ATOM     51  C   UNL A   1      41.080  32.306  30.713  1.00  0.00     0.031 C 
ATOM     52  C   UNL A   1      46.478  31.387  28.051  1.00  0.00     0.029 A 
ATOM     53  C   UNL A   1      45.167  31.211  28.468  1.00  0.00     0.049 A 
ATOM     54  H   UNL A   1      43.879  29.576  28.115  1.00  0.00     0.167 HD
ATOM     55  C   UNL A   1      43.063  31.877  29.630  1.00  0.00     0.074 A 
ATOM     56  C   UNL A   1      42.257  32.817  30.387  1.00  0.00     0.031 C 
ATOM     57  C   UNL A   1      44.345  32.109  29.246  1.00  0.00     0.034 A 
BRANCH  44  58
ATOM     58  C   UNL A   1      46.878  27.614  25.758  1.00  0.00     0.023 A 
ATOM     59  C   UNL A   1      47.112  27.998  24.425  1.00  0.00     0.031 A 
ATOM     60  C   UNL A   1      47.758  26.678  26.331  1.00  0.00     0.131 A 
ATOM     61  C   UNL A   1      48.148  27.396  23.691  1.00  0.00     0.055 A 
ATOM     62  C   UNL A   1      48.834  26.142  25.621  1.00  0.00     0.041 A 
ATOM     63  F   UNL A   1      47.575  26.251  27.591  1.00  0.00    -0.206 F 
ATOM     64  C   UNL A   1      49.026  26.488  24.286  1.00  0.00     0.022 A 
BRANCH  61  65
ATOM     65  S   UNL A   1      48.249  27.711  21.906  1.00  0.00     0.124 S 
ATOM     66  O   UNL A   1      46.939  28.299  21.636  1.00  0.00    -0.237 OA
ATOM     67  O   UNL A   1      49.388  28.617  21.808  1.00  0.00    -0.237 OA
ATOM     68  O   UNL A   1      48.458  26.383  21.334  1.00  0.00    -0.744 OA
ENDBRANCH  61  65
ENDBRANCH  44  58
BRANCH  45  69
ATOM     69  C   UNL A   1      38.740  30.528  30.990  1.00  0.00     0.023 A 
ATOM     70  C   UNL A   1      37.646  31.190  30.413  1.00  0.00     0.031 A 
ATOM     71  C   UNL A   1      38.691  30.260  32.372  1.00  0.00     0.131 A 
ATOM     72  C   UNL A   1      36.565  31.591  31.217  1.00  0.00     0.055 A 
ATOM     73  C   UNL A   1      37.589  30.606  33.155  1.00  0.00     0.041 A 
ATOM     74  F   UNL A   1      39.708  29.628  32.979  1.00  0.00    -0.206 F 
ATOM     75  C   UNL A   1      36.522  31.288  32.580  1.00  0.00     0.022 A 
BRANCH  72  76
ATOM     76  S   UNL A   1      35.250  32.594  30.474  1.00  0.00     0.124 S 
ATOM     77  O   UNL A   1      34.855  31.775  29.333  1.00  0.00    -0.237 OA
ATOM     78  O   UNL A   1      34.284  32.683  31.563  1.00  0.00    -0.237 OA
ATOM     79  O   UNL A   1      35.925  33.846  30.138  1.00  0.00    -0.744 OA
ENDBRANCH  72  76
ENDBRANCH  45  69
BRANCH  57  80
ATOM     80  C   UNL A   1      44.919  33.443  29.646  1.00  0.00     0.023 A 
ATOM     81  C   UNL A   1      44.825  34.560  28.799  1.00  0.00     0.031 A 
ATOM     82  C   UNL A   1      45.624  33.580  30.853  1.00  0.00     0.131 A 
ATOM     83  C   UNL A   1      45.498  35.744  29.130  1.00  0.00     0.055 A 
ATOM     84  C   UNL A   1      46.235  34.781  31.210  1.00  0.00     0.041 A 
ATOM     85  F   UNL A   1      45.745  32.542  31.696  1.00  0.00    -0.206 F 
ATOM     86  C   UNL A   1      46.190  35.866  30.338  1.00  0.00     0.022 A 
BRANCH  83  87
ATOM     87  S   UNL A   1      45.565  37.076  27.900  1.00  0.00     0.124 S 
ATOM     88  O   UNL A   1      44.543  37.994  28.391  1.00  0.00    -0.237 OA
ATOM     89  O   UNL A   1      46.945  37.535  28.015  1.00  0.00    -0.237 OA
ATOM     90  O   UNL A   1      45.239  36.398  26.645  1.00  0.00    -0.744 OA
ENDBRANCH  83  87
ENDBRANCH  57  80
ENDBRANCH  31  32
ENDBRANCH  24  26
ENDBRANCH  23  24
ENDBRANCH   1  23
TORSDOF 16
ENDMDL
MODEL 3
REMARK VINA RESULT:     -11.6      1.490      3.335
REMARK SMILES CC[C@](C)(NC(=O)N1Cc2ccccc2C1)C(=O)OCCOC(=O)c1ccc(-c2c3nc(c(-c4cc(S(=O)(=O)[O-])ccc4F)c4ccc([nH]4)c(-c4cc(S(=O)(=O)[O-])ccc4F)c4nc(c(-c5cc(S(=O)(=O)[O-])ccc5F)c5ccc2[nH]5)C=C4)C=C3)cc1
REMARK SMILES IDX 21 1 20 2 19 3 17 4 18 5 3 6 4 7 2 8 1 9 5 10 6 11 7 13 8 14
REMARK SMILES IDX 9 15 16 16 10 17 15 18 11 19 14 20 12 21 13 22 22 23 23 24
REMARK SMILES IDX 24 25 25 26 26 27 87 28 27 29 86 30 28 31 29 32 30 33 80 34
REMARK SMILES IDX 31 35 85 36 79 37 81 38 32 39 84 40 78 41 77 42 33 44 65 45
REMARK SMILES IDX 45 46 64 47 46 48 49 49 63 50 82 51 47 52 48 53 62 55 83 56
REMARK SMILES IDX 50 57 34 58 35 59 43 60 36 61 42 62 44 63 41 64 37 65 38 66
REMARK SMILES IDX 39 67 40 68 66 69 67 70 75 71 68 72 74 73 76 74 73 75 69 76
REMARK SMILES IDX 70 77 71 78 72 79 51 80 52 81 60 82 53 83 59 84 61 85 58 86
REMARK SMILES IDX 54 87 55 88 56 89 57 90
REMARK H PARENT 5 12 81 43 49 54
REMARK Flexibility Score: inf
ROOT
ATOM      1  C   UNL A   1      37.693  19.834  25.002  1.00  0.00     0.275 C 
ENDROOT
BRANCH   1   2
ATOM      2  C   UNL A   1      36.197  20.075  24.835  1.00  0.00     0.274 C 
BRANCH   2   3
ATOM      3  O   UNL A   1      35.763  21.151  25.693  1.00  0.00    -0.460 OA
BRANCH   3   4
ATOM      4  C   UNL A   1      35.008  22.138  25.135  1.00  0.00     0.331 C 
ATOM      5  O   UNL A   1      35.429  22.913  24.280  1.00  0.00    -0.249 OA
BRANCH   4   6
ATOM      6  C   UNL A   1      33.574  22.245  25.753  1.00  0.00     0.136 C 
ATOM      7  C   UNL A   1      33.741  22.700  27.215  1.00  0.00     0.047 C 
BRANCH   6   8
ATOM      8  C   UNL A   1      32.973  20.806  25.635  1.00  0.00     0.037 C 
ATOM      9  C   UNL A   1      32.526  20.380  24.238  1.00  0.00     0.007 C 
ENDBRANCH   6   8
BRANCH   6  10
ATOM     10  N   UNL A   1      32.701  23.183  24.982  1.00  0.00    -0.322 N 
ATOM     11  C   UNL A   1      31.680  23.886  25.560  1.00  0.00     0.318 C 
ATOM     12  H   UNL A   1      32.866  23.297  24.019  1.00  0.00     0.166 HD
ATOM     13  O   UNL A   1      30.793  23.328  26.196  1.00  0.00    -0.249 OA
ATOM     14  N   UNL A   1      31.694  25.235  25.358  1.00  0.00    -0.316 N 
ATOM     15  C   UNL A   1      30.863  26.078  26.217  1.00  0.00     0.157 C 
ATOM     16  C   UNL A   1      32.691  26.028  24.641  1.00  0.00     0.157 C 
ATOM     17  C   UNL A   1      31.715  27.297  26.389  1.00  0.00    -0.023 A 
ATOM     18  C   UNL A   1      32.785  27.267  25.482  1.00  0.00    -0.023 A 
ATOM     19  C   UNL A   1      31.605  28.297  27.340  1.00  0.00     0.006 A 
ATOM     20  C   UNL A   1      33.763  28.246  25.504  1.00  0.00     0.006 A 
ATOM     21  C   UNL A   1      32.601  29.273  27.386  1.00  0.00     0.000 A 
ATOM     22  C   UNL A   1      33.670  29.249  26.474  1.00  0.00     0.000 A 
ENDBRANCH   6  10
ENDBRANCH   4   6
ENDBRANCH   3   4
ENDBRANCH   2   3
ENDBRANCH   1   2
BRANCH   1  23
ATOM     23  O   UNL A   1      38.270  20.984  25.630  1.00  0.00    -0.458 OA
BRANCH  23  24
ATOM     24  C   UNL A   1      39.496  20.822  26.171  1.00  0.00     0.338 C 
ATOM     25  O   UNL A   1      40.116  19.780  26.331  1.00  0.00    -0.246 OA
BRANCH  24  26
ATOM     26  C   UNL A   1      39.975  22.131  26.626  1.00  0.00     0.060 A 
ATOM     27  C   UNL A   1      41.049  22.216  27.511  1.00  0.00     0.016 A 
ATOM     28  C   UNL A   1      39.343  23.285  26.165  1.00  0.00     0.016 A 
ATOM     29  C   UNL A   1      41.474  23.452  27.967  1.00  0.00     0.010 A 
ATOM     30  C   UNL A   1      39.848  24.530  26.530  1.00  0.00     0.010 A 
ATOM     31  C   UNL A   1      40.925  24.622  27.428  1.00  0.00    -0.014 A 
BRANCH  31  32
ATOM     32  C   UNL A   1      41.549  25.927  27.749  1.00  0.00     0.031 A 
ATOM     33  C   UNL A   1      40.812  26.944  28.565  1.00  0.00     0.074 A 
ATOM     34  C   UNL A   1      42.794  26.167  27.288  1.00  0.00     0.049 A 
ATOM     35  N   UNL A   1      41.150  28.173  28.851  1.00  0.00    -0.248 NA
ATOM     36  C   UNL A   1      39.509  26.535  29.111  1.00  0.00     0.031 C 
ATOM     37  C   UNL A   1      43.585  25.231  26.477  1.00  0.00     0.029 A 
ATOM     38  N   UNL A   1      43.625  27.242  27.445  1.00  0.00    -0.354 N 
ATOM     39  C   UNL A   1      40.089  28.700  29.580  1.00  0.00     0.074 A 
ATOM     40  C   UNL A   1      39.086  27.660  29.668  1.00  0.00     0.031 C 
ATOM     41  C   UNL A   1      44.804  25.746  26.270  1.00  0.00     0.029 A 
ATOM     42  C   UNL A   1      44.852  27.083  26.841  1.00  0.00     0.049 A 
ATOM     43  H   UNL A   1      43.371  28.054  27.943  1.00  0.00     0.167 HD
ATOM     44  C   UNL A   1      39.976  29.940  30.118  1.00  0.00     0.034 A 
ATOM     45  C   UNL A   1      45.890  27.933  26.731  1.00  0.00     0.034 A 
ATOM     46  C   UNL A   1      41.008  30.945  30.010  1.00  0.00     0.049 A 
ATOM     47  C   UNL A   1      45.741  29.293  27.354  1.00  0.00     0.074 A 
ATOM     48  C   UNL A   1      41.005  32.250  30.472  1.00  0.00     0.029 A 
ATOM     49  N   UNL A   1      42.243  30.749  29.396  1.00  0.00    -0.354 N 
ATOM     50  N   UNL A   1      44.709  29.797  27.992  1.00  0.00    -0.248 NA
ATOM     51  C   UNL A   1      46.888  30.198  27.241  1.00  0.00     0.031 C 
ATOM     52  C   UNL A   1      42.214  32.852  30.100  1.00  0.00     0.029 A 
ATOM     53  C   UNL A   1      43.004  31.907  29.463  1.00  0.00     0.049 A 
ATOM     54  H   UNL A   1      42.535  29.909  28.973  1.00  0.00     0.167 HD
ATOM     55  C   UNL A   1      45.081  31.086  28.353  1.00  0.00     0.074 A 
ATOM     56  C   UNL A   1      46.451  31.257  27.905  1.00  0.00     0.031 C 
ATOM     57  C   UNL A   1      44.357  32.051  28.977  1.00  0.00     0.034 A 
BRANCH  44  58
ATOM     58  C   UNL A   1      38.675  30.278  30.809  1.00  0.00     0.023 A 
ATOM     59  C   UNL A   1      37.624  30.932  30.139  1.00  0.00     0.031 A 
ATOM     60  C   UNL A   1      38.500  29.992  32.175  1.00  0.00     0.131 A 
ATOM     61  C   UNL A   1      36.484  31.342  30.850  1.00  0.00     0.055 A 
ATOM     62  C   UNL A   1      37.330  30.333  32.859  1.00  0.00     0.041 A 
ATOM     63  F   UNL A   1      39.474  29.391  32.878  1.00  0.00    -0.206 F 
ATOM     64  C   UNL A   1      36.319  31.026  32.200  1.00  0.00     0.022 A 
BRANCH  61  65
ATOM     65  S   UNL A   1      35.280  32.418  30.021  1.00  0.00     0.124 S 
ATOM     66  O   UNL A   1      34.331  32.684  31.100  1.00  0.00    -0.237 OA
ATOM     67  O   UNL A   1      36.101  33.547  29.599  1.00  0.00    -0.237 OA
ATOM     68  O   UNL A   1      34.763  31.584  28.938  1.00  0.00    -0.744 OA
ENDBRANCH  61  65
ENDBRANCH  44  58
BRANCH  45  69
ATOM     69  C   UNL A   1      47.113  27.543  25.971  1.00  0.00     0.023 A 
ATOM     70  C   UNL A   1      47.250  27.832  24.604  1.00  0.00     0.031 A 
ATOM     71  C   UNL A   1      48.171  26.864  26.606  1.00  0.00     0.131 A 
ATOM     72  C   UNL A   1      48.398  27.415  23.910  1.00  0.00     0.055 A 
ATOM     73  C   UNL A   1      49.336  26.505  25.927  1.00  0.00     0.041 A 
ATOM     74  F   UNL A   1      48.098  26.561  27.912  1.00  0.00    -0.206 F 
ATOM     75  C   UNL A   1      49.449  26.769  24.566  1.00  0.00     0.022 A 
BRANCH  72  76
ATOM     76  S   UNL A   1      48.466  27.652  22.113  1.00  0.00     0.124 S 
ATOM     77  O   UNL A   1      47.155  28.229  21.837  1.00  0.00    -0.237 OA
ATOM     78  O   UNL A   1      49.605  28.551  21.969  1.00  0.00    -0.237 OA
ATOM     79  O   UNL A   1      48.672  26.300  21.600  1.00  0.00    -0.744 OA
ENDBRANCH  72  76
ENDBRANCH  45  69
BRANCH  57  80
ATOM     80  C   UNL A   1      45.067  33.360  29.204  1.00  0.00     0.023 A 
ATOM     81  C   UNL A   1      45.003  34.397  28.257  1.00  0.00     0.031 A 
ATOM     82  C   UNL A   1      45.868  33.547  30.343  1.00  0.00     0.131 A 
ATOM     83  C   UNL A   1      45.793  35.542  28.424  1.00  0.00     0.055 A 
ATOM     84  C   UNL A   1      46.600  34.717  30.537  1.00  0.00     0.041 A 
ATOM     85  F   UNL A   1      45.964  32.586  31.276  1.00  0.00    -0.206 F 
ATOM     86  C   UNL A   1      46.581  35.715  29.566  1.00  0.00     0.022 A 
BRANCH  83  87
ATOM     87  S   UNL A   1      45.879  36.741  27.065  1.00  0.00     0.124 S 
ATOM     88  O   UNL A   1      46.849  37.706  27.573  1.00  0.00    -0.237 OA
ATOM     89  O   UNL A   1      46.325  35.914  25.949  1.00  0.00    -0.237 OA
ATOM     90  O   UNL A   1      44.507  37.237  26.960  1.00  0.00    -0.744 OA
ENDBRANCH  83  87
ENDBRANCH  57  80
ENDBRANCH  31  32
ENDBRANCH  24  26
ENDBRANCH  23  24
ENDBRANCH   1  23
TORSDOF 16
ENDMDL
