MODEL 1
REMARK VINA RESULT:     -12.6      0.000      0.000
REMARK SMILES O=C(OCCOC(=O)[C@@]1(CCc2ccccc2)CCC[N@H+](Cc2cccnc2)C1)c1ccc(-c2c3nc(c(-c4cc(S(=O)(=O)[O-])ccc4F)c4ccc([nH]4)c(-c4cc(S(=O)(=O)[O-])ccc4F)c4nc(c(-c5cc(S(=O)(=O)[O-])ccc5F)c5ccc2[nH]5)C=C4)C=C3)cc1
REMARK SMILES IDX 4 1 3 2 2 3 1 4 30 5 31 6 92 7 32 8 91 9 33 10 34 11 35 12
REMARK SMILES IDX 85 13 36 14 90 15 84 16 86 17 37 18 89 19 83 20 82 21 38 23
REMARK SMILES IDX 70 24 50 25 69 26 51 27 54 28 68 29 87 30 52 31 53 32 67 34
REMARK SMILES IDX 88 35 55 36 39 37 40 38 48 39 41 40 47 41 49 42 46 43 42 44
REMARK SMILES IDX 43 45 44 46 45 47 71 48 72 49 80 50 73 51 79 52 81 53 78 54
REMARK SMILES IDX 74 55 75 56 76 57 77 58 56 59 57 60 65 61 58 62 64 63 66 64
REMARK SMILES IDX 63 65 59 66 60 67 61 68 62 69 5 70 6 71 7 72 8 73 9 74 18 75
REMARK SMILES IDX 29 76 19 77 21 78 20 79 10 81 11 82 12 83 13 84 17 85 14 86
REMARK SMILES IDX 16 87 15 88 22 89 23 90 24 91 28 92 25 93 27 94 26 95
REMARK H PARENT 86 22 54 33 21 80
REMARK Flexibility Score: inf
ROOT
ATOM      1  C   UNL A   1      37.199  21.961  25.093  1.00  0.00     0.275 C 
ENDROOT
BRANCH   1   2
ATOM      2  O   UNL A   1      38.492  21.470  25.555  1.00  0.00    -0.458 OA
BRANCH   2   3
ATOM      3  C   UNL A   1      39.384  21.905  26.496  1.00  0.00     0.338 C 
ATOM      4  O   UNL A   1      40.054  21.038  27.064  1.00  0.00    -0.246 OA
BRANCH   3   5
ATOM      5  C   UNL A   1      39.645  23.342  26.921  1.00  0.00     0.060 A 
ATOM      6  C   UNL A   1      38.954  24.454  26.496  1.00  0.00     0.016 A 
ATOM      7  C   UNL A   1      40.739  23.635  27.775  1.00  0.00     0.016 A 
ATOM      8  C   UNL A   1      39.257  25.742  27.053  1.00  0.00     0.010 A 
ATOM      9  C   UNL A   1      40.955  24.930  28.383  1.00  0.00     0.010 A 
ATOM     10  C   UNL A   1      40.125  26.030  28.121  1.00  0.00    -0.014 A 
BRANCH  10  11
ATOM     11  C   UNL A   1      40.415  27.522  28.589  1.00  0.00     0.031 A 
ATOM     12  C   UNL A   1      41.876  27.848  28.486  1.00  0.00     0.074 A 
ATOM     13  C   UNL A   1      39.621  28.614  28.929  1.00  0.00     0.049 A 
ATOM     14  N   UNL A   1      42.475  28.991  28.667  1.00  0.00    -0.248 NA
ATOM     15  C   UNL A   1      42.762  26.754  28.051  1.00  0.00     0.031 C 
ATOM     16  C   UNL A   1      38.192  28.747  28.768  1.00  0.00     0.029 A 
ATOM     17  N   UNL A   1      39.853  29.910  29.414  1.00  0.00    -0.354 N 
ATOM     18  C   UNL A   1      43.782  28.773  28.280  1.00  0.00     0.074 A 
ATOM     19  C   UNL A   1      43.917  27.375  27.943  1.00  0.00     0.031 C 
ATOM     20  C   UNL A   1      37.629  29.854  29.223  1.00  0.00     0.029 A 
ATOM     21  C   UNL A   1      38.696  30.675  29.676  1.00  0.00     0.049 A 
ATOM     22  H   UNL A   1      40.761  30.262  29.561  1.00  0.00     0.167 HD
ATOM     23  C   UNL A   1      44.785  29.667  28.184  1.00  0.00     0.034 A 
ATOM     24  C   UNL A   1      38.400  31.917  30.116  1.00  0.00     0.034 A 
ATOM     25  C   UNL A   1      44.680  31.030  28.615  1.00  0.00     0.049 A 
ATOM     26  C   UNL A   1      39.568  32.808  30.245  1.00  0.00     0.074 A 
ATOM     27  C   UNL A   1      45.693  31.959  28.735  1.00  0.00     0.029 A 
ATOM     28  N   UNL A   1      43.506  31.652  29.028  1.00  0.00    -0.354 N 
ATOM     29  N   UNL A   1      40.801  32.529  29.909  1.00  0.00    -0.248 NA
ATOM     30  C   UNL A   1      39.337  34.163  30.739  1.00  0.00     0.031 C 
ATOM     31  C   UNL A   1      45.156  33.109  29.315  1.00  0.00     0.029 A 
ATOM     32  C   UNL A   1      43.790  32.935  29.475  1.00  0.00     0.049 A 
ATOM     33  H   UNL A   1      42.610  31.245  29.008  1.00  0.00     0.167 HD
ATOM     34  C   UNL A   1      41.506  33.685  30.133  1.00  0.00     0.074 A 
ATOM     35  C   UNL A   1      40.549  34.677  30.594  1.00  0.00     0.031 C 
ATOM     36  C   UNL A   1      42.833  33.890  29.975  1.00  0.00     0.034 A 
BRANCH  23  37
ATOM     37  C   UNL A   1      46.091  29.097  27.722  1.00  0.00     0.023 A 
ATOM     38  C   UNL A   1      46.364  28.911  26.352  1.00  0.00     0.031 A 
ATOM     39  C   UNL A   1      46.977  28.555  28.664  1.00  0.00     0.131 A 
ATOM     40  C   UNL A   1      47.463  28.131  25.969  1.00  0.00     0.055 A 
ATOM     41  C   UNL A   1      48.111  27.849  28.274  1.00  0.00     0.041 A 
ATOM     42  F   UNL A   1      46.714  28.646  29.978  1.00  0.00    -0.206 F 
ATOM     43  C   UNL A   1      48.352  27.622  26.920  1.00  0.00     0.022 A 
BRANCH  40  44
ATOM     44  S   UNL A   1      47.616  27.640  24.229  1.00  0.00     0.124 S 
ATOM     45  O   UNL A   1      49.049  27.808  23.995  1.00  0.00    -0.237 OA
ATOM     46  O   UNL A   1      47.130  26.266  24.240  1.00  0.00    -0.237 OA
ATOM     47  O   UNL A   1      46.762  28.598  23.529  1.00  0.00    -0.744 OA
ENDBRANCH  40  44
ENDBRANCH  23  37
BRANCH  24  48
ATOM     48  C   UNL A   1      36.981  32.374  30.413  1.00  0.00     0.023 A 
ATOM     49  C   UNL A   1      36.165  33.063  29.490  1.00  0.00     0.031 A 
ATOM     50  C   UNL A   1      36.418  32.128  31.686  1.00  0.00     0.131 A 
ATOM     51  C   UNL A   1      34.872  33.501  29.861  1.00  0.00     0.055 A 
ATOM     52  C   UNL A   1      35.120  32.522  32.032  1.00  0.00     0.041 A 
ATOM     53  F   UNL A   1      37.122  31.472  32.623  1.00  0.00    -0.206 F 
ATOM     54  C   UNL A   1      34.343  33.226  31.123  1.00  0.00     0.022 A 
BRANCH  51  55
ATOM     55  S   UNL A   1      33.898  34.527  28.712  1.00  0.00     0.124 S 
ATOM     56  O   UNL A   1      33.860  35.809  29.404  1.00  0.00    -0.237 OA
ATOM     57  O   UNL A   1      34.708  34.472  27.500  1.00  0.00    -0.237 OA
ATOM     58  O   UNL A   1      32.616  33.828  28.632  1.00  0.00    -0.744 OA
ENDBRANCH  51  55
ENDBRANCH  24  48
BRANCH  36  59
ATOM     59  C   UNL A   1      43.304  35.255  30.349  1.00  0.00     0.023 A 
ATOM     60  C   UNL A   1      43.441  35.612  31.698  1.00  0.00     0.031 A 
ATOM     61  C   UNL A   1      43.539  36.218  29.360  1.00  0.00     0.131 A 
ATOM     62  C   UNL A   1      43.715  36.939  32.029  1.00  0.00     0.055 A 
ATOM     63  C   UNL A   1      43.904  37.518  29.696  1.00  0.00     0.041 A 
ATOM     64  F   UNL A   1      43.400  35.915  28.059  1.00  0.00    -0.206 F 
ATOM     65  C   UNL A   1      43.973  37.890  31.037  1.00  0.00     0.022 A 
BRANCH  62  66
ATOM     66  S   UNL A   1      43.576  37.426  33.767  1.00  0.00     0.124 S 
ATOM     67  O   UNL A   1      44.970  37.397  34.197  1.00  0.00    -0.237 OA
ATOM     68  O   UNL A   1      42.964  38.747  33.675  1.00  0.00    -0.237 OA
ATOM     69  O   UNL A   1      42.725  36.386  34.342  1.00  0.00    -0.744 OA
ENDBRANCH  62  66
ENDBRANCH  36  59
ENDBRANCH  10  11
ENDBRANCH   3   5
ENDBRANCH   2   3
ENDBRANCH   1   2
BRANCH   1  70
ATOM     70  C   UNL A   1      36.035  21.525  25.979  1.00  0.00     0.274 C 
BRANCH  70  71
ATOM     71  O   UNL A   1      34.934  22.305  25.542  1.00  0.00    -0.461 OA
BRANCH  71  72
ATOM     72  C   UNL A   1      33.739  21.792  25.189  1.00  0.00     0.317 C 
ATOM     73  O   UNL A   1      33.560  20.627  24.844  1.00  0.00    -0.251 OA
BRANCH  72  74
ATOM     74  C   UNL A   1      32.701  22.929  25.226  1.00  0.00     0.117 C 
ATOM     75  C   UNL A   1      31.729  22.736  26.383  1.00  0.00     0.030 C 
ATOM     76  C   UNL A   1      33.604  24.182  25.553  1.00  0.00     0.281 C 
ATOM     77  C   UNL A   1      30.862  23.973  26.499  1.00  0.00     0.063 C 
ATOM     78  N   UNL A   1      33.041  25.429  25.937  1.00  0.00    -0.330 N 
ATOM     79  C   UNL A   1      31.610  25.312  26.277  1.00  0.00     0.262 C 
ATOM     80  H   UNL A   1      32.809  26.242  26.507  1.00  0.00     0.348 HD
BRANCH  74  81
ATOM     81  C   UNL A   1      31.793  22.903  23.940  1.00  0.00     0.029 C 
BRANCH  81  82
ATOM     82  C   UNL A   1      32.372  23.357  22.597  1.00  0.00     0.037 C 
BRANCH  82  83
ATOM     83  C   UNL A   1      32.204  24.833  22.393  1.00  0.00    -0.048 A 
ATOM     84  C   UNL A   1      33.301  25.620  22.020  1.00  0.00     0.004 A 
ATOM     85  C   UNL A   1      31.007  25.450  22.770  1.00  0.00     0.004 A 
ATOM     86  C   UNL A   1      33.267  26.996  22.210  1.00  0.00     0.000 A 
ATOM     87  C   UNL A   1      30.968  26.834  22.934  1.00  0.00     0.000 A 
ATOM     88  C   UNL A   1      32.111  27.598  22.697  1.00  0.00     0.000 A 
ENDBRANCH  82  83
ENDBRANCH  81  82
ENDBRANCH  74  81
BRANCH  78  89
ATOM     89  C   UNL A   1      34.009  26.627  25.802  1.00  0.00     0.300 C 
BRANCH  89  90
ATOM     90  C   UNL A   1      33.773  28.100  26.271  1.00  0.00     0.025 A 
ATOM     91  C   UNL A   1      34.749  28.852  26.963  1.00  0.00     0.013 A 
ATOM     92  C   UNL A   1      32.632  28.855  25.970  1.00  0.00     0.120 A 
ATOM     93  C   UNL A   1      34.458  30.132  27.501  1.00  0.00     0.021 A 
ATOM     94  N   UNL A   1      32.313  30.080  26.490  1.00  0.00    -0.264 NA
ATOM     95  C   UNL A   1      33.203  30.672  27.297  1.00  0.00     0.111 A 
ENDBRANCH  89  90
ENDBRANCH  78  89
ENDBRANCH  72  74
ENDBRANCH  71  72
ENDBRANCH  70  71
ENDBRANCH   1  70
TORSDOF 19
ENDMDL
MODEL 2
REMARK VINA RESULT:     -12.5      1.870      2.898
REMARK SMILES O=C(OCCOC(=O)[C@@]1(CCc2ccccc2)CCC[N@H+](Cc2cccnc2)C1)c1ccc(-c2c3nc(c(-c4cc(S(=O)(=O)[O-])ccc4F)c4ccc([nH]4)c(-c4cc(S(=O)(=O)[O-])ccc4F)c4nc(c(-c5cc(S(=O)(=O)[O-])ccc5F)c5ccc2[nH]5)C=C4)C=C3)cc1
REMARK SMILES IDX 4 1 3 2 2 3 1 4 30 5 31 6 92 7 32 8 91 9 33 10 34 11 35 12
REMARK SMILES IDX 85 13 36 14 90 15 84 16 86 17 37 18 89 19 83 20 82 21 38 23
REMARK SMILES IDX 70 24 50 25 69 26 51 27 54 28 68 29 87 30 52 31 53 32 67 34
REMARK SMILES IDX 88 35 55 36 39 37 40 38 48 39 41 40 47 41 49 42 46 43 42 44
REMARK SMILES IDX 43 45 44 46 45 47 71 48 72 49 80 50 73 51 79 52 81 53 78 54
REMARK SMILES IDX 74 55 75 56 76 57 77 58 56 59 57 60 65 61 58 62 64 63 66 64
REMARK SMILES IDX 63 65 59 66 60 67 61 68 62 69 5 70 6 71 7 72 8 73 9 74 18 75
REMARK SMILES IDX 29 76 19 77 21 78 20 79 10 81 11 82 12 83 13 84 17 85 14 86
REMARK SMILES IDX 16 87 15 88 22 89 23 90 24 91 28 92 25 93 27 94 26 95
REMARK H PARENT 86 22 54 33 21 80
REMARK Flexibility Score: inf
ROOT
ATOM      1  C   UNL A   1      37.780  21.912  25.043  1.00  0.00     0.275 C 
ENDROOT
BRANCH   1   2
ATOM      2  O   UNL A   1      38.922  21.370  25.771  1.00  0.00    -0.458 OA
BRANCH   2   3
ATOM      3  C   UNL A   1      39.731  21.862  26.757  1.00  0.00     0.338 C 
ATOM      4  O   UNL A   1      40.367  21.034  27.414  1.00  0.00    -0.246 OA
BRANCH   3   5
ATOM      5  C   UNL A   1      39.937  23.321  27.135  1.00  0.00     0.060 A 
ATOM      6  C   UNL A   1      39.160  24.383  26.732  1.00  0.00     0.016 A 
ATOM      7  C   UNL A   1      41.064  23.694  27.911  1.00  0.00     0.016 A 
ATOM      8  C   UNL A   1      39.424  25.699  27.242  1.00  0.00     0.010 A 
ATOM      9  C   UNL A   1      41.245  25.013  28.477  1.00  0.00     0.010 A 
ATOM     10  C   UNL A   1      40.340  26.059  28.246  1.00  0.00    -0.014 A 
BRANCH  10  11
ATOM     11  C   UNL A   1      40.574  27.576  28.664  1.00  0.00     0.031 A 
ATOM     12  C   UNL A   1      42.014  27.967  28.498  1.00  0.00     0.074 A 
ATOM     13  C   UNL A   1      39.742  28.638  29.005  1.00  0.00     0.049 A 
ATOM     14  N   UNL A   1      42.563  29.141  28.626  1.00  0.00    -0.248 NA
ATOM     15  C   UNL A   1      42.935  26.905  28.059  1.00  0.00     0.031 C 
ATOM     16  C   UNL A   1      38.303  28.699  28.893  1.00  0.00     0.029 A 
ATOM     17  N   UNL A   1      39.928  29.957  29.446  1.00  0.00    -0.354 N 
ATOM     18  C   UNL A   1      43.864  28.975  28.197  1.00  0.00     0.074 A 
ATOM     19  C   UNL A   1      44.054  27.576  27.892  1.00  0.00     0.031 C 
ATOM     20  C   UNL A   1      37.704  29.791  29.339  1.00  0.00     0.029 A 
ATOM     21  C   UNL A   1      38.747  30.673  29.731  1.00  0.00     0.049 A 
ATOM     22  H   UNL A   1      40.823  30.355  29.550  1.00  0.00     0.167 HD
ATOM     23  C   UNL A   1      44.819  29.912  28.040  1.00  0.00     0.034 A 
ATOM     24  C   UNL A   1      38.407  31.912  30.149  1.00  0.00     0.034 A 
ATOM     25  C   UNL A   1      44.664  31.280  28.439  1.00  0.00     0.049 A 
ATOM     26  C   UNL A   1      39.535  32.860  30.211  1.00  0.00     0.074 A 
ATOM     27  C   UNL A   1      45.635  32.258  28.497  1.00  0.00     0.029 A 
ATOM     28  N   UNL A   1      43.477  31.858  28.879  1.00  0.00    -0.354 N 
ATOM     29  N   UNL A   1      40.766  32.630  29.837  1.00  0.00    -0.248 NA
ATOM     30  C   UNL A   1      39.256  34.216  30.678  1.00  0.00     0.031 C 
ATOM     31  C   UNL A   1      45.064  33.398  29.067  1.00  0.00     0.029 A 
ATOM     32  C   UNL A   1      43.715  33.164  29.281  1.00  0.00     0.049 A 
ATOM     33  H   UNL A   1      42.602  31.408  28.903  1.00  0.00     0.167 HD
ATOM     34  C   UNL A   1      41.423  33.824  30.004  1.00  0.00     0.074 A 
ATOM     35  C   UNL A   1      40.436  34.783  30.474  1.00  0.00     0.031 C 
ATOM     36  C   UNL A   1      42.733  34.087  29.792  1.00  0.00     0.034 A 
BRANCH  23  37
ATOM     37  C   UNL A   1      46.134  29.391  27.545  1.00  0.00     0.023 A 
ATOM     38  C   UNL A   1      46.327  29.068  26.187  1.00  0.00     0.031 A 
ATOM     39  C   UNL A   1      47.124  29.031  28.471  1.00  0.00     0.131 A 
ATOM     40  C   UNL A   1      47.459  28.333  25.810  1.00  0.00     0.055 A 
ATOM     41  C   UNL A   1      48.284  28.371  28.075  1.00  0.00     0.041 A 
ATOM     42  F   UNL A   1      46.944  29.255  29.783  1.00  0.00    -0.206 F 
ATOM     43  C   UNL A   1      48.450  28.006  26.740  1.00  0.00     0.022 A 
BRANCH  40  44
ATOM     44  S   UNL A   1      47.533  27.655  24.128  1.00  0.00     0.124 S 
ATOM     45  O   UNL A   1      48.965  27.720  23.843  1.00  0.00    -0.237 OA
ATOM     46  O   UNL A   1      46.978  26.318  24.297  1.00  0.00    -0.237 OA
ATOM     47  O   UNL A   1      46.709  28.580  23.352  1.00  0.00    -0.744 OA
ENDBRANCH  40  44
ENDBRANCH  23  37
BRANCH  24  48
ATOM     48  C   UNL A   1      36.979  32.310  30.487  1.00  0.00     0.023 A 
ATOM     49  C   UNL A   1      36.106  32.953  29.583  1.00  0.00     0.031 A 
ATOM     50  C   UNL A   1      36.467  32.053  31.779  1.00  0.00     0.131 A 
ATOM     51  C   UNL A   1      34.807  33.338  29.991  1.00  0.00     0.055 A 
ATOM     52  C   UNL A   1      35.165  32.394  32.163  1.00  0.00     0.041 A 
ATOM     53  F   UNL A   1      37.229  31.438  32.699  1.00  0.00    -0.206 F 
ATOM     54  C   UNL A   1      34.330  33.054  31.272  1.00  0.00     0.022 A 
BRANCH  51  55
ATOM     55  S   UNL A   1      33.754  34.309  28.864  1.00  0.00     0.124 S 
ATOM     56  O   UNL A   1      33.289  33.293  27.929  1.00  0.00    -0.237 OA
ATOM     57  O   UNL A   1      32.754  34.850  29.779  1.00  0.00    -0.237 OA
ATOM     58  O   UNL A   1      34.675  35.296  28.301  1.00  0.00    -0.744 OA
ENDBRANCH  51  55
ENDBRANCH  24  48
BRANCH  36  59
ATOM     59  C   UNL A   1      43.150  35.482  30.112  1.00  0.00     0.023 A 
ATOM     60  C   UNL A   1      43.157  36.467  29.112  1.00  0.00     0.031 A 
ATOM     61  C   UNL A   1      43.614  35.806  31.392  1.00  0.00     0.131 A 
ATOM     62  C   UNL A   1      43.713  37.716  29.387  1.00  0.00     0.055 A 
ATOM     63  C   UNL A   1      44.081  37.084  31.685  1.00  0.00     0.041 A 
ATOM     64  F   UNL A   1      43.638  34.884  32.367  1.00  0.00    -0.206 F 
ATOM     65  C   UNL A   1      44.151  38.041  30.674  1.00  0.00     0.022 A 
BRANCH  62  66
ATOM     66  S   UNL A   1      43.989  38.845  28.000  1.00  0.00     0.124 S 
ATOM     67  O   UNL A   1      45.446  38.904  27.948  1.00  0.00    -0.237 OA
ATOM     68  O   UNL A   1      43.339  38.149  26.894  1.00  0.00    -0.237 OA
ATOM     69  O   UNL A   1      43.330  40.077  28.431  1.00  0.00    -0.744 OA
ENDBRANCH  62  66
ENDBRANCH  36  59
ENDBRANCH  10  11
ENDBRANCH   3   5
ENDBRANCH   2   3
ENDBRANCH   1   2
BRANCH   1  70
ATOM     70  C   UNL A   1      36.709  20.869  24.735  1.00  0.00     0.274 C 
BRANCH  70  71
ATOM     71  O   UNL A   1      35.496  21.451  25.184  1.00  0.00    -0.461 OA
BRANCH  71  72
ATOM     72  C   UNL A   1      34.702  22.225  24.418  1.00  0.00     0.317 C 
ATOM     73  O   UNL A   1      35.025  22.679  23.323  1.00  0.00    -0.251 OA
BRANCH  72  74
ATOM     74  C   UNL A   1      33.394  22.479  25.190  1.00  0.00     0.117 C 
ATOM     75  C   UNL A   1      33.550  22.103  26.657  1.00  0.00     0.030 C 
ATOM     76  C   UNL A   1      33.265  24.049  25.101  1.00  0.00     0.281 C 
ATOM     77  C   UNL A   1      32.315  22.556  27.409  1.00  0.00     0.063 C 
ATOM     78  N   UNL A   1      32.332  24.769  25.896  1.00  0.00    -0.330 N 
ATOM     79  C   UNL A   1      31.764  23.938  26.975  1.00  0.00     0.262 C 
ATOM     80  H   UNL A   1      31.964  25.412  26.597  1.00  0.00     0.348 HD
BRANCH  74  81
ATOM     81  C   UNL A   1      32.241  21.544  24.664  1.00  0.00     0.029 C 
BRANCH  81  82
ATOM     82  C   UNL A   1      32.505  20.613  23.478  1.00  0.00     0.037 C 
BRANCH  82  83
ATOM     83  C   UNL A   1      32.554  19.176  23.904  1.00  0.00    -0.048 A 
ATOM     84  C   UNL A   1      32.497  18.845  25.265  1.00  0.00     0.004 A 
ATOM     85  C   UNL A   1      32.859  18.187  22.965  1.00  0.00     0.004 A 
ATOM     86  C   UNL A   1      32.929  17.597  25.695  1.00  0.00     0.000 A 
ATOM     87  C   UNL A   1      33.268  16.927  23.398  1.00  0.00     0.000 A 
ATOM     88  C   UNL A   1      33.345  16.650  24.764  1.00  0.00     0.000 A 
ENDBRANCH  82  83
ENDBRANCH  81  82
ENDBRANCH  74  81
BRANCH  78  89
ATOM     89  C   UNL A   1      32.042  26.200  25.389  1.00  0.00     0.300 C 
BRANCH  89  90
ATOM     90  C   UNL A   1      32.577  27.546  25.979  1.00  0.00     0.025 A 
ATOM     91  C   UNL A   1      33.945  27.782  26.238  1.00  0.00     0.013 A 
ATOM     92  C   UNL A   1      31.787  28.680  26.209  1.00  0.00     0.120 A 
ATOM     93  C   UNL A   1      34.385  28.955  26.905  1.00  0.00     0.021 A 
ATOM     94  N   UNL A   1      32.175  29.815  26.868  1.00  0.00    -0.264 NA
ATOM     95  C   UNL A   1      33.452  29.909  27.261  1.00  0.00     0.111 A 
ENDBRANCH  89  90
ENDBRANCH  78  89
ENDBRANCH  72  74
ENDBRANCH  71  72
ENDBRANCH  70  71
ENDBRANCH   1  70
TORSDOF 19
ENDMDL
MODEL 3
REMARK VINA RESULT:     -12.5      4.613      9.933
REMARK SMILES O=C(OCCOC(=O)[C@@]1(CCc2ccccc2)CCC[N@H+](Cc2cccnc2)C1)c1ccc(-c2c3nc(c(-c4cc(S(=O)(=O)[O-])ccc4F)c4ccc([nH]4)c(-c4cc(S(=O)(=O)[O-])ccc4F)c4nc(c(-c5cc(S(=O)(=O)[O-])ccc5F)c5ccc2[nH]5)C=C4)C=C3)cc1
REMARK SMILES IDX 4 1 3 2 2 3 1 4 30 5 31 6 92 7 32 8 91 9 33 10 34 11 35 12
REMARK SMILES IDX 85 13 36 14 90 15 84 16 86 17 37 18 89 19 83 20 82 21 38 23
REMARK SMILES IDX 70 24 50 25 69 26 51 27 54 28 68 29 87 30 52 31 53 32 67 34
REMARK SMILES IDX 88 35 55 36 39 37 40 38 48 39 41 40 47 41 49 42 46 43 42 44
REMARK SMILES IDX 43 45 44 46 45 47 71 48 72 49 80 50 73 51 79 52 81 53 78 54
REMARK SMILES IDX 74 55 75 56 76 57 77 58 56 59 57 60 65 61 58 62 64 63 66 64
REMARK SMILES IDX 63 65 59 66 60 67 61 68 62 69 5 70 6 71 7 72 8 73 9 74 18 75
REMARK SMILES IDX 29 76 19 77 21 78 20 79 10 81 11 82 12 83 13 84 17 85 14 86
REMARK SMILES IDX 16 87 15 88 22 89 23 90 24 91 28 92 25 93 27 94 26 95
REMARK H PARENT 86 22 54 33 21 80
REMARK Flexibility Score: inf
ROOT
ATOM      1  C   UNL A   1      32.664  30.733  26.264  1.00  0.00     0.275 C 
ENDROOT
BRANCH   1   2
ATOM      2  O   UNL A   1      33.141  31.563  27.364  1.00  0.00    -0.458 OA
BRANCH   2   3
ATOM      3  C   UNL A   1      34.370  32.052  27.711  1.00  0.00     0.338 C 
ATOM      4  O   UNL A   1      34.514  33.276  27.651  1.00  0.00    -0.246 OA
BRANCH   3   5
ATOM      5  C   UNL A   1      35.582  31.254  28.167  1.00  0.00     0.060 A 
ATOM      6  C   UNL A   1      35.628  29.896  28.383  1.00  0.00     0.016 A 
ATOM      7  C   UNL A   1      36.788  31.930  28.489  1.00  0.00     0.016 A 
ATOM      8  C   UNL A   1      36.871  29.266  28.728  1.00  0.00     0.010 A 
ATOM      9  C   UNL A   1      38.040  31.253  28.745  1.00  0.00     0.010 A 
ATOM     10  C   UNL A   1      38.148  29.855  28.760  1.00  0.00    -0.014 A 
BRANCH  10  11
ATOM     11  C   UNL A   1      39.434  29.044  29.230  1.00  0.00     0.031 A 
ATOM     12  C   UNL A   1      39.963  29.576  30.530  1.00  0.00     0.074 A 
ATOM     13  C   UNL A   1      40.080  27.892  28.792  1.00  0.00     0.049 A 
ATOM     14  N   UNL A   1      40.921  29.104  31.278  1.00  0.00    -0.248 NA
ATOM     15  C   UNL A   1      39.270  30.748  31.089  1.00  0.00     0.031 C 
ATOM     16  C   UNL A   1      39.613  26.941  27.810  1.00  0.00     0.029 A 
ATOM     17  N   UNL A   1      41.252  27.204  29.142  1.00  0.00    -0.354 N 
ATOM     18  C   UNL A   1      40.879  29.864  32.429  1.00  0.00     0.074 A 
ATOM     19  C   UNL A   1      39.873  30.884  32.251  1.00  0.00     0.031 C 
ATOM     20  C   UNL A   1      40.423  25.944  27.496  1.00  0.00     0.029 A 
ATOM     21  C   UNL A   1      41.547  26.071  28.355  1.00  0.00     0.049 A 
ATOM     22  H   UNL A   1      41.827  27.493  29.887  1.00  0.00     0.167 HD
ATOM     23  C   UNL A   1      41.601  29.712  33.557  1.00  0.00     0.034 A 
ATOM     24  C   UNL A   1      42.500  25.115  28.302  1.00  0.00     0.034 A 
ATOM     25  C   UNL A   1      42.670  28.768  33.696  1.00  0.00     0.049 A 
ATOM     26  C   UNL A   1      43.441  25.133  29.437  1.00  0.00     0.074 A 
ATOM     27  C   UNL A   1      43.581  28.668  34.727  1.00  0.00     0.029 A 
ATOM     28  N   UNL A   1      42.998  27.784  32.768  1.00  0.00    -0.354 N 
ATOM     29  N   UNL A   1      43.383  25.916  30.483  1.00  0.00    -0.248 NA
ATOM     30  C   UNL A   1      44.518  24.147  29.441  1.00  0.00     0.031 C 
ATOM     31  C   UNL A   1      44.520  27.696  34.380  1.00  0.00     0.029 A 
ATOM     32  C   UNL A   1      44.147  27.123  33.175  1.00  0.00     0.049 A 
ATOM     33  H   UNL A   1      42.492  27.588  31.947  1.00  0.00     0.167 HD
ATOM     34  C   UNL A   1      44.413  25.509  31.295  1.00  0.00     0.074 A 
ATOM     35  C   UNL A   1      45.048  24.381  30.632  1.00  0.00     0.031 C 
ATOM     36  C   UNL A   1      44.793  26.038  32.479  1.00  0.00     0.034 A 
BRANCH  23  37
ATOM     37  C   UNL A   1      41.303  30.713  34.631  1.00  0.00     0.023 A 
ATOM     38  C   UNL A   1      40.168  30.585  35.456  1.00  0.00     0.031 A 
ATOM     39  C   UNL A   1      42.049  31.899  34.692  1.00  0.00     0.131 A 
ATOM     40  C   UNL A   1      39.771  31.666  36.253  1.00  0.00     0.055 A 
ATOM     41  C   UNL A   1      41.694  32.938  35.547  1.00  0.00     0.041 A 
ATOM     42  F   UNL A   1      43.094  32.090  33.870  1.00  0.00    -0.206 F 
ATOM     43  C   UNL A   1      40.541  32.831  36.323  1.00  0.00     0.022 A 
BRANCH  40  44
ATOM     44  S   UNL A   1      38.146  31.603  37.057  1.00  0.00     0.124 S 
ATOM     45  O   UNL A   1      37.352  32.477  36.196  1.00  0.00    -0.237 OA
ATOM     46  O   UNL A   1      37.816  30.184  37.000  1.00  0.00    -0.237 OA
ATOM     47  O   UNL A   1      38.407  32.129  38.396  1.00  0.00    -0.744 OA
ENDBRANCH  40  44
ENDBRANCH  23  37
BRANCH  24  48
ATOM     48  C   UNL A   1      42.573  24.080  27.189  1.00  0.00     0.023 A 
ATOM     49  C   UNL A   1      41.973  22.805  27.259  1.00  0.00     0.031 A 
ATOM     50  C   UNL A   1      43.292  24.372  26.008  1.00  0.00     0.131 A 
ATOM     51  C   UNL A   1      42.131  21.878  26.202  1.00  0.00     0.055 A 
ATOM     52  C   UNL A   1      43.406  23.468  24.944  1.00  0.00     0.041 A 
ATOM     53  F   UNL A   1      43.889  25.565  25.855  1.00  0.00    -0.206 F 
ATOM     54  C   UNL A   1      42.836  22.207  25.043  1.00  0.00     0.022 A 
BRANCH  51  55
ATOM     55  S   UNL A   1      41.486  20.182  26.379  1.00  0.00     0.124 S 
ATOM     56  O   UNL A   1      40.066  20.365  26.105  1.00  0.00    -0.237 OA
ATOM     57  O   UNL A   1      42.253  19.463  25.367  1.00  0.00    -0.237 OA
ATOM     58  O   UNL A   1      41.811  19.836  27.763  1.00  0.00    -0.744 OA
ENDBRANCH  51  55
ENDBRANCH  24  48
BRANCH  36  59
ATOM     59  C   UNL A   1      45.987  25.393  33.098  1.00  0.00     0.023 A 
ATOM     60  C   UNL A   1      45.829  24.352  34.025  1.00  0.00     0.031 A 
ATOM     61  C   UNL A   1      47.273  25.871  32.821  1.00  0.00     0.131 A 
ATOM     62  C   UNL A   1      46.943  23.881  34.720  1.00  0.00     0.055 A 
ATOM     63  C   UNL A   1      48.391  25.331  33.449  1.00  0.00     0.041 A 
ATOM     64  F   UNL A   1      47.458  26.878  31.952  1.00  0.00    -0.206 F 
ATOM     65  C   UNL A   1      48.227  24.345  34.420  1.00  0.00     0.022 A 
BRANCH  62  66
ATOM     66  S   UNL A   1      46.662  22.768  36.119  1.00  0.00     0.124 S 
ATOM     67  O   UNL A   1      46.857  23.662  37.255  1.00  0.00    -0.237 OA
ATOM     68  O   UNL A   1      45.293  22.316  35.891  1.00  0.00    -0.237 OA
ATOM     69  O   UNL A   1      47.690  21.744  35.948  1.00  0.00    -0.744 OA
ENDBRANCH  62  66
ENDBRANCH  36  59
ENDBRANCH  10  11
ENDBRANCH   3   5
ENDBRANCH   2   3
ENDBRANCH   1   2
BRANCH   1  70
ATOM     70  C   UNL A   1      31.844  29.530  26.726  1.00  0.00     0.274 C 
BRANCH  70  71
ATOM     71  O   UNL A   1      32.033  28.554  25.714  1.00  0.00    -0.461 OA
BRANCH  71  72
ATOM     72  C   UNL A   1      31.337  28.518  24.561  1.00  0.00     0.317 C 
ATOM     73  O   UNL A   1      30.483  29.341  24.242  1.00  0.00    -0.251 OA
BRANCH  72  74
ATOM     74  C   UNL A   1      31.753  27.251  23.790  1.00  0.00     0.117 C 
ATOM     75  C   UNL A   1      32.229  27.603  22.387  1.00  0.00     0.030 C 
ATOM     76  C   UNL A   1      33.003  26.763  24.621  1.00  0.00     0.281 C 
ATOM     77  C   UNL A   1      32.812  26.360  21.747  1.00  0.00     0.063 C 
ATOM     78  N   UNL A   1      33.879  25.756  24.130  1.00  0.00    -0.330 N 
ATOM     79  C   UNL A   1      33.659  25.478  22.698  1.00  0.00     0.262 C 
ATOM     80  H   UNL A   1      34.728  25.307  23.786  1.00  0.00     0.348 HD
BRANCH  74  81
ATOM     81  C   UNL A   1      30.517  26.303  23.561  1.00  0.00     0.029 C 
BRANCH  81  82
ATOM     82  C   UNL A   1      30.061  25.371  24.687  1.00  0.00     0.037 C 
BRANCH  82  83
ATOM     83  C   UNL A   1      30.652  24.000  24.543  1.00  0.00    -0.048 A 
ATOM     84  C   UNL A   1      31.113  23.311  25.673  1.00  0.00     0.004 A 
ATOM     85  C   UNL A   1      30.927  23.497  23.268  1.00  0.00     0.004 A 
ATOM     86  C   UNL A   1      31.998  22.251  25.527  1.00  0.00     0.000 A 
ATOM     87  C   UNL A   1      31.795  22.416  23.126  1.00  0.00     0.000 A 
ATOM     88  C   UNL A   1      32.364  21.825  24.254  1.00  0.00     0.000 A 
ENDBRANCH  82  83
ENDBRANCH  81  82
ENDBRANCH  74  81
BRANCH  78  89
ATOM     89  C   UNL A   1      34.769  25.110  25.216  1.00  0.00     0.300 C 
BRANCH  89  90
ATOM     90  C   UNL A   1      35.477  23.717  25.162  1.00  0.00     0.025 A 
ATOM     91  C   UNL A   1      36.365  23.346  24.127  1.00  0.00     0.013 A 
ATOM     92  C   UNL A   1      35.394  22.745  26.168  1.00  0.00     0.120 A 
ATOM     93  C   UNL A   1      36.881  22.028  24.027  1.00  0.00     0.021 A 
ATOM     94  N   UNL A   1      35.862  21.461  26.092  1.00  0.00    -0.264 NA
ATOM     95  C   UNL A   1      36.543  21.103  24.996  1.00  0.00     0.111 A 
ENDBRANCH  89  90
ENDBRANCH  78  89
ENDBRANCH  72  74
ENDBRANCH  71  72
ENDBRANCH  70  71
ENDBRANCH   1  70
TORSDOF 19
ENDMDL
