MODEL 1
REMARK VINA RESULT:     -11.5      0.000      0.000
REMARK SMILES Cc1cc(-c2ccc(/C=C/C(=O)OCCOC(=O)c3ccc(-c4c5nc(c(-c6cc(S(=O)(=O)[O-])ccc6F)c6ccc([nH]6)c(-c6cc(S(=O)(=O)[O-])ccc6F)c6nc(c(-c7cc(S(=O)(=O)[O-])ccc7F)c7ccc4[nH]7)C=C6)C=C5)cc3)o2)c(C)cc1Br
REMARK SMILES IDX 15 1 14 2 13 3 11 4 12 5 10 6 9 7 8 8 5 9 6 10 82 11 7 12
REMARK SMILES IDX 4 13 1 14 2 15 3 16 86 17 85 18 87 19 83 20 84 21 16 22
REMARK SMILES IDX 17 23 18 24 19 25 20 26 81 27 21 28 80 29 22 30 23 31 24 32
REMARK SMILES IDX 74 33 25 34 79 35 73 36 75 37 26 38 78 39 72 40 71 41 27 43
REMARK SMILES IDX 59 44 39 45 58 46 40 47 43 48 57 49 76 50 41 51 42 52 56 54
REMARK SMILES IDX 77 55 44 56 28 57 29 58 37 59 30 60 36 61 38 62 35 63 31 64
REMARK SMILES IDX 32 65 33 66 34 67 60 68 61 69 69 70 62 71 68 72 70 73 67 74
REMARK SMILES IDX 63 75 64 76 65 77 66 78 45 79 46 80 54 81 47 82 53 83 55 84
REMARK SMILES IDX 52 85 48 86 49 87 50 88 51 89
REMARK H PARENT 75 42 43 53
REMARK Flexibility Score: inf
ROOT
ATOM      1  C   UNL A   1      45.909  23.782  24.929  1.00  0.00     0.275 C 
ENDROOT
BRANCH   1   2
ATOM      2  C   UNL A   1      45.921  22.531  24.045  1.00  0.00     0.275 C 
BRANCH   2   3
ATOM      3  O   UNL A   1      46.816  21.531  24.568  1.00  0.00    -0.459 OA
BRANCH   3   4
ATOM      4  C   UNL A   1      46.273  20.310  24.791  1.00  0.00     0.331 C 
ATOM      5  O   UNL A   1      46.788  19.235  24.523  1.00  0.00    -0.247 OA
BRANCH   4   6
ATOM      6  C   UNL A   1      44.971  20.393  25.477  1.00  0.00     0.097 C 
ATOM      7  C   UNL A   1      43.934  19.577  25.244  1.00  0.00     0.054 C 
BRANCH   7   8
ATOM      8  C   UNL A   1      42.706  19.766  25.934  1.00  0.00     0.127 A 
ATOM      9  C   UNL A   1      40.679  20.552  26.399  1.00  0.00     0.135 A 
ATOM     10  C   UNL A   1      40.975  19.654  27.397  1.00  0.00     0.051 A 
ATOM     11  O   UNL A   1      41.719  20.639  25.528  1.00  0.00    -0.457 OA
ATOM     12  C   UNL A   1      42.255  19.137  27.089  1.00  0.00     0.051 A 
BRANCH   9  13
ATOM     13  C   UNL A   1      39.527  21.395  26.122  1.00  0.00     0.020 A 
ATOM     14  C   UNL A   1      38.520  24.975  26.962  1.00  0.00     0.045 C 
ATOM     15  C   UNL A   1      38.439  23.579  26.412  1.00  0.00    -0.036 A 
ATOM     16  C   UNL A   1      39.535  22.719  26.596  1.00  0.00     0.016 A 
ATOM     17  C   UNL A   1      37.301  23.074  25.771  1.00  0.00     0.021 A 
ATOM     18  C   UNL A   1      37.286  21.765  25.276  1.00  0.00     0.020 A 
ATOM     19  Br  UNL A   1      35.720  24.105  25.557  1.00  0.00    -0.051 Br
ATOM     20  C   UNL A   1      38.394  20.914  25.441  1.00  0.00    -0.039 A 
ATOM     21  C   UNL A   1      38.331  19.516  24.888  1.00  0.00     0.045 C 
ENDBRANCH   9  13
ENDBRANCH   7   8
ENDBRANCH   4   6
ENDBRANCH   3   4
ENDBRANCH   2   3
ENDBRANCH   1   2
BRANCH   1  22
ATOM     22  O   UNL A   1      44.812  24.652  24.597  1.00  0.00    -0.458 OA
BRANCH  22  23
ATOM     23  C   UNL A   1      43.579  24.213  24.959  1.00  0.00     0.338 C 
ATOM     24  O   UNL A   1      43.022  23.204  24.573  1.00  0.00    -0.246 OA
BRANCH  23  25
ATOM     25  C   UNL A   1      43.069  25.086  26.036  1.00  0.00     0.060 A 
ATOM     26  C   UNL A   1      43.278  26.467  26.008  1.00  0.00     0.016 A 
ATOM     27  C   UNL A   1      42.378  24.493  27.098  1.00  0.00     0.016 A 
ATOM     28  C   UNL A   1      42.825  27.253  27.071  1.00  0.00     0.010 A 
ATOM     29  C   UNL A   1      41.931  25.279  28.161  1.00  0.00     0.010 A 
ATOM     30  C   UNL A   1      42.165  26.662  28.161  1.00  0.00    -0.014 A 
BRANCH  30  31
ATOM     31  C   UNL A   1      41.693  27.496  29.291  1.00  0.00     0.031 A 
ATOM     32  C   UNL A   1      40.435  28.304  29.169  1.00  0.00     0.074 A 
ATOM     33  C   UNL A   1      42.417  27.531  30.425  1.00  0.00     0.049 A 
ATOM     34  N   UNL A   1      39.834  29.027  30.078  1.00  0.00    -0.248 NA
ATOM     35  C   UNL A   1      39.768  28.305  27.859  1.00  0.00     0.031 C 
ATOM     36  C   UNL A   1      43.674  26.814  30.632  1.00  0.00     0.029 A 
ATOM     37  N   UNL A   1      42.208  28.196  31.607  1.00  0.00    -0.354 N 
ATOM     38  C   UNL A   1      38.707  29.554  29.460  1.00  0.00     0.074 A 
ATOM     39  C   UNL A   1      38.737  29.111  28.083  1.00  0.00     0.031 C 
ATOM     40  C   UNL A   1      44.120  27.068  31.871  1.00  0.00     0.029 A 
ATOM     41  C   UNL A   1      43.193  27.981  32.540  1.00  0.00     0.049 A 
ATOM     42  H   UNL A   1      41.426  28.771  31.770  1.00  0.00     0.167 HD
ATOM     43  C   UNL A   1      37.728  30.317  30.003  1.00  0.00     0.034 A 
ATOM     44  C   UNL A   1      43.333  28.456  33.795  1.00  0.00     0.034 A 
ATOM     45  C   UNL A   1      37.725  30.763  31.374  1.00  0.00     0.049 A 
ATOM     46  C   UNL A   1      42.244  29.329  34.369  1.00  0.00     0.074 A 
ATOM     47  C   UNL A   1      36.753  31.494  32.033  1.00  0.00     0.029 A 
ATOM     48  N   UNL A   1      38.741  30.532  32.292  1.00  0.00    -0.354 N 
ATOM     49  N   UNL A   1      41.122  29.719  33.812  1.00  0.00    -0.248 NA
ATOM     50  C   UNL A   1      42.427  29.811  35.745  1.00  0.00     0.031 C 
ATOM     51  C   UNL A   1      37.206  31.758  33.326  1.00  0.00     0.029 A 
ATOM     52  C   UNL A   1      38.431  31.135  33.501  1.00  0.00     0.049 A 
ATOM     53  H   UNL A   1      39.558  30.016  32.112  1.00  0.00     0.167 HD
ATOM     54  C   UNL A   1      40.455  30.472  34.776  1.00  0.00     0.074 A 
ATOM     55  C   UNL A   1      41.290  30.462  35.958  1.00  0.00     0.031 C 
ATOM     56  C   UNL A   1      39.262  31.114  34.683  1.00  0.00     0.034 A 
BRANCH  43  57
ATOM     57  C   UNL A   1      36.552  30.703  29.140  1.00  0.00     0.023 A 
ATOM     58  C   UNL A   1      35.694  29.716  28.622  1.00  0.00     0.031 A 
ATOM     59  C   UNL A   1      36.368  32.033  28.721  1.00  0.00     0.131 A 
ATOM     60  C   UNL A   1      34.707  30.071  27.692  1.00  0.00     0.055 A 
ATOM     61  C   UNL A   1      35.361  32.386  27.822  1.00  0.00     0.041 A 
ATOM     62  F   UNL A   1      37.166  33.010  29.182  1.00  0.00    -0.206 F 
ATOM     63  C   UNL A   1      34.533  31.402  27.295  1.00  0.00     0.022 A 
BRANCH  60  64
ATOM     64  S   UNL A   1      33.652  28.818  26.913  1.00  0.00     0.124 S 
ATOM     65  O   UNL A   1      32.756  28.457  28.009  1.00  0.00    -0.237 OA
ATOM     66  O   UNL A   1      33.034  29.573  25.826  1.00  0.00    -0.237 OA
ATOM     67  O   UNL A   1      34.587  27.776  26.505  1.00  0.00    -0.744 OA
ENDBRANCH  60  64
ENDBRANCH  43  57
BRANCH  44  68
ATOM     68  C   UNL A   1      44.516  28.036  34.599  1.00  0.00     0.023 A 
ATOM     69  C   UNL A   1      44.395  27.076  35.621  1.00  0.00     0.031 A 
ATOM     70  C   UNL A   1      45.756  28.675  34.435  1.00  0.00     0.131 A 
ATOM     71  C   UNL A   1      45.476  26.833  36.480  1.00  0.00     0.055 A 
ATOM     72  C   UNL A   1      46.849  28.382  35.251  1.00  0.00     0.041 A 
ATOM     73  F   UNL A   1      45.914  29.608  33.483  1.00  0.00    -0.206 F 
ATOM     74  C   UNL A   1      46.707  27.469  36.291  1.00  0.00     0.022 A 
BRANCH  71  75
ATOM     75  S   UNL A   1      45.281  25.787  37.949  1.00  0.00     0.124 S 
ATOM     76  O   UNL A   1      46.668  25.507  38.309  1.00  0.00    -0.237 OA
ATOM     77  O   UNL A   1      44.562  26.678  38.858  1.00  0.00    -0.237 OA
ATOM     78  O   UNL A   1      44.512  24.647  37.463  1.00  0.00    -0.744 OA
ENDBRANCH  71  75
ENDBRANCH  44  68
BRANCH  56  79
ATOM     79  C   UNL A   1      38.757  31.877  35.884  1.00  0.00     0.023 A 
ATOM     80  C   UNL A   1      38.107  31.196  36.932  1.00  0.00     0.031 A 
ATOM     81  C   UNL A   1      38.777  33.282  35.916  1.00  0.00     0.131 A 
ATOM     82  C   UNL A   1      37.467  31.922  37.945  1.00  0.00     0.055 A 
ATOM     83  C   UNL A   1      38.176  34.000  36.952  1.00  0.00     0.041 A 
ATOM     84  F   UNL A   1      39.374  33.978  34.936  1.00  0.00    -0.206 F 
ATOM     85  C   UNL A   1      37.505  33.320  37.964  1.00  0.00     0.022 A 
BRANCH  82  86
ATOM     86  S   UNL A   1      36.487  31.086  39.224  1.00  0.00     0.124 S 
ATOM     87  O   UNL A   1      37.376  31.160  40.381  1.00  0.00    -0.237 OA
ATOM     88  O   UNL A   1      35.295  31.927  39.297  1.00  0.00    -0.237 OA
ATOM     89  O   UNL A   1      36.276  29.746  38.687  1.00  0.00    -0.744 OA
ENDBRANCH  82  86
ENDBRANCH  56  79
ENDBRANCH  30  31
ENDBRANCH  23  25
ENDBRANCH  22  23
ENDBRANCH   1  22
TORSDOF 16
ENDMDL
MODEL 2
REMARK VINA RESULT:     -11.5      4.339     12.502
REMARK SMILES Cc1cc(-c2ccc(/C=C/C(=O)OCCOC(=O)c3ccc(-c4c5nc(c(-c6cc(S(=O)(=O)[O-])ccc6F)c6ccc([nH]6)c(-c6cc(S(=O)(=O)[O-])ccc6F)c6nc(c(-c7cc(S(=O)(=O)[O-])ccc7F)c7ccc4[nH]7)C=C6)C=C5)cc3)o2)c(C)cc1Br
REMARK SMILES IDX 15 1 14 2 13 3 11 4 12 5 10 6 9 7 8 8 5 9 6 10 82 11 7 12
REMARK SMILES IDX 4 13 1 14 2 15 3 16 86 17 85 18 87 19 83 20 84 21 16 22
REMARK SMILES IDX 17 23 18 24 19 25 20 26 81 27 21 28 80 29 22 30 23 31 24 32
REMARK SMILES IDX 74 33 25 34 79 35 73 36 75 37 26 38 78 39 72 40 71 41 27 43
REMARK SMILES IDX 59 44 39 45 58 46 40 47 43 48 57 49 76 50 41 51 42 52 56 54
REMARK SMILES IDX 77 55 44 56 28 57 29 58 37 59 30 60 36 61 38 62 35 63 31 64
REMARK SMILES IDX 32 65 33 66 34 67 60 68 61 69 69 70 62 71 68 72 70 73 67 74
REMARK SMILES IDX 63 75 64 76 65 77 66 78 45 79 46 80 54 81 47 82 53 83 55 84
REMARK SMILES IDX 52 85 48 86 49 87 50 88 51 89
REMARK H PARENT 75 42 43 53
REMARK Flexibility Score: inf
ROOT
ATOM      1  C   UNL A   1      33.463  33.919  28.037  1.00  0.00     0.275 C 
ENDROOT
BRANCH   1   2
ATOM      2  C   UNL A   1      33.460  35.254  28.787  1.00  0.00     0.275 C 
BRANCH   2   3
ATOM      3  O   UNL A   1      32.582  35.211  29.928  1.00  0.00    -0.459 OA
BRANCH   3   4
ATOM      4  C   UNL A   1      33.004  35.886  31.024  1.00  0.00     0.331 C 
ATOM      5  O   UNL A   1      32.549  36.942  31.437  1.00  0.00    -0.247 OA
BRANCH   4   6
ATOM      6  C   UNL A   1      34.069  35.169  31.748  1.00  0.00     0.097 C 
ATOM      7  C   UNL A   1      34.180  33.835  31.814  1.00  0.00     0.054 C 
BRANCH   7   8
ATOM      8  C   UNL A   1      35.225  33.241  32.572  1.00  0.00     0.127 A 
ATOM      9  C   UNL A   1      36.821  33.023  34.105  1.00  0.00     0.135 A 
ATOM     10  C   UNL A   1      36.770  31.823  33.437  1.00  0.00     0.051 A 
ATOM     11  O   UNL A   1      35.911  33.886  33.580  1.00  0.00    -0.457 OA
ATOM     12  C   UNL A   1      35.739  31.953  32.478  1.00  0.00     0.051 A 
BRANCH   9  13
ATOM     13  C   UNL A   1      37.635  33.525  35.201  1.00  0.00     0.020 A 
ATOM     14  C   UNL A   1      37.535  33.246  39.002  1.00  0.00     0.045 C 
ATOM     15  C   UNL A   1      37.985  33.659  37.629  1.00  0.00    -0.036 A 
ATOM     16  C   UNL A   1      37.280  33.173  36.515  1.00  0.00     0.016 A 
ATOM     17  C   UNL A   1      39.044  34.547  37.406  1.00  0.00     0.021 A 
ATOM     18  C   UNL A   1      39.421  34.891  36.103  1.00  0.00     0.020 A 
ATOM     19  Br  UNL A   1      40.005  35.353  38.833  1.00  0.00    -0.051 Br
ATOM     20  C   UNL A   1      38.728  34.385  34.989  1.00  0.00    -0.039 A 
ATOM     21  C   UNL A   1      39.174  34.781  33.608  1.00  0.00     0.045 C 
ENDBRANCH   9  13
ENDBRANCH   7   8
ENDBRANCH   4   6
ENDBRANCH   3   4
ENDBRANCH   2   3
ENDBRANCH   1   2
BRANCH   1  22
ATOM     22  O   UNL A   1      34.637  33.145  28.341  1.00  0.00    -0.458 OA
BRANCH  22  23
ATOM     23  C   UNL A   1      34.522  31.804  28.164  1.00  0.00     0.338 C 
ATOM     24  O   UNL A   1      33.603  31.214  27.629  1.00  0.00    -0.246 OA
BRANCH  23  25
ATOM     25  C   UNL A   1      35.784  31.165  28.590  1.00  0.00     0.060 A 
ATOM     26  C   UNL A   1      35.805  29.852  29.068  1.00  0.00     0.016 A 
ATOM     27  C   UNL A   1      36.964  31.913  28.516  1.00  0.00     0.016 A 
ATOM     28  C   UNL A   1      37.010  29.300  29.510  1.00  0.00     0.010 A 
ATOM     29  C   UNL A   1      38.165  31.362  28.964  1.00  0.00     0.010 A 
ATOM     30  C   UNL A   1      38.193  30.058  29.477  1.00  0.00    -0.014 A 
BRANCH  30  31
ATOM     31  C   UNL A   1      39.468  29.473  29.955  1.00  0.00     0.031 A 
ATOM     32  C   UNL A   1      40.159  30.033  31.164  1.00  0.00     0.074 A 
ATOM     33  C   UNL A   1      40.009  28.443  29.280  1.00  0.00     0.049 A 
ATOM     34  N   UNL A   1      41.236  29.602  31.766  1.00  0.00    -0.248 NA
ATOM     35  C   UNL A   1      39.567  31.234  31.772  1.00  0.00     0.031 C 
ATOM     36  C   UNL A   1      39.439  27.849  28.071  1.00  0.00     0.029 A 
ATOM     37  N   UNL A   1      41.151  27.718  29.506  1.00  0.00    -0.354 N 
ATOM     38  C   UNL A   1      41.444  30.462  32.837  1.00  0.00     0.074 A 
ATOM     39  C   UNL A   1      40.410  31.472  32.769  1.00  0.00     0.031 C 
ATOM     40  C   UNL A   1      40.228  26.843  27.667  1.00  0.00     0.029 A 
ATOM     41  C   UNL A   1      41.370  26.731  28.574  1.00  0.00     0.049 A 
ATOM     42  H   UNL A   1      41.756  27.888  30.263  1.00  0.00     0.167 HD
ATOM     43  C   UNL A   1      42.396  30.395  33.798  1.00  0.00     0.034 A 
ATOM     44  C   UNL A   1      42.371  25.833  28.465  1.00  0.00     0.034 A 
ATOM     45  C   UNL A   1      43.427  29.389  33.837  1.00  0.00     0.049 A 
ATOM     46  C   UNL A   1      43.437  25.797  29.531  1.00  0.00     0.074 A 
ATOM     47  C   UNL A   1      44.405  29.206  34.799  1.00  0.00     0.029 A 
ATOM     48  N   UNL A   1      43.625  28.407  32.876  1.00  0.00    -0.354 N 
ATOM     49  N   UNL A   1      43.552  26.540  30.607  1.00  0.00    -0.248 NA
ATOM     50  C   UNL A   1      44.499  24.792  29.384  1.00  0.00     0.031 C 
ATOM     51  C   UNL A   1      45.228  28.156  34.390  1.00  0.00     0.029 A 
ATOM     52  C   UNL A   1      44.728  27.636  33.206  1.00  0.00     0.049 A 
ATOM     53  H   UNL A   1      43.064  28.278  32.078  1.00  0.00     0.167 HD
ATOM     54  C   UNL A   1      44.683  26.077  31.276  1.00  0.00     0.074 A 
ATOM     55  C   UNL A   1      45.203  24.975  30.495  1.00  0.00     0.031 C 
ATOM     56  C   UNL A   1      45.237  26.530  32.429  1.00  0.00     0.034 A 
BRANCH  43  57
ATOM     57  C   UNL A   1      42.366  31.410  34.914  1.00  0.00     0.023 A 
ATOM     58  C   UNL A   1      43.153  32.574  34.841  1.00  0.00     0.031 A 
ATOM     59  C   UNL A   1      41.666  31.154  36.106  1.00  0.00     0.131 A 
ATOM     60  C   UNL A   1      43.242  33.425  35.950  1.00  0.00     0.055 A 
ATOM     61  C   UNL A   1      41.730  32.023  37.196  1.00  0.00     0.041 A 
ATOM     62  F   UNL A   1      40.907  30.053  36.228  1.00  0.00    -0.206 F 
ATOM     63  C   UNL A   1      42.530  33.158  37.125  1.00  0.00     0.022 A 
BRANCH  60  64
ATOM     64  S   UNL A   1      44.331  34.875  35.941  1.00  0.00     0.124 S 
ATOM     65  O   UNL A   1      45.542  34.345  36.564  1.00  0.00    -0.237 OA
ATOM     66  O   UNL A   1      44.442  35.166  34.515  1.00  0.00    -0.237 OA
ATOM     67  O   UNL A   1      43.607  35.863  36.733  1.00  0.00    -0.744 OA
ENDBRANCH  60  64
ENDBRANCH  43  57
BRANCH  44  68
ATOM     68  C   UNL A   1      42.342  24.854  27.341  1.00  0.00     0.023 A 
ATOM     69  C   UNL A   1      41.531  23.706  27.398  1.00  0.00     0.031 A 
ATOM     70  C   UNL A   1      43.216  24.992  26.249  1.00  0.00     0.131 A 
ATOM     71  C   UNL A   1      41.657  22.713  26.418  1.00  0.00     0.055 A 
ATOM     72  C   UNL A   1      43.291  24.032  25.240  1.00  0.00     0.041 A 
ATOM     73  F   UNL A   1      44.021  26.063  26.160  1.00  0.00    -0.206 F 
ATOM     74  C   UNL A   1      42.523  22.876  25.331  1.00  0.00     0.022 A 
BRANCH  71  75
ATOM     75  S   UNL A   1      40.807  21.120  26.590  1.00  0.00     0.124 S 
ATOM     76  O   UNL A   1      41.681  20.225  25.837  1.00  0.00    -0.237 OA
ATOM     77  O   UNL A   1      40.812  20.933  28.040  1.00  0.00    -0.237 OA
ATOM     78  O   UNL A   1      39.494  21.363  26.001  1.00  0.00    -0.744 OA
ENDBRANCH  71  75
ENDBRANCH  44  68
BRANCH  56  79
ATOM     79  C   UNL A   1      46.485  25.853  32.947  1.00  0.00     0.023 A 
ATOM     80  C   UNL A   1      47.718  26.050  32.294  1.00  0.00     0.031 A 
ATOM     81  C   UNL A   1      46.422  24.899  33.976  1.00  0.00     0.131 A 
ATOM     82  C   UNL A   1      48.827  25.271  32.651  1.00  0.00     0.055 A 
ATOM     83  C   UNL A   1      47.541  24.157  34.358  1.00  0.00     0.041 A 
ATOM     84  F   UNL A   1      45.268  24.666  34.621  1.00  0.00    -0.206 F 
ATOM     85  C   UNL A   1      48.747  24.332  33.684  1.00  0.00     0.022 A 
BRANCH  82  86
ATOM     86  S   UNL A   1      50.388  25.384  31.731  1.00  0.00     0.124 S 
ATOM     87  O   UNL A   1      50.808  23.986  31.678  1.00  0.00    -0.237 OA
ATOM     88  O   UNL A   1      49.954  25.954  30.458  1.00  0.00    -0.237 OA
ATOM     89  O   UNL A   1      51.221  26.253  32.555  1.00  0.00    -0.744 OA
ENDBRANCH  82  86
ENDBRANCH  56  79
ENDBRANCH  30  31
ENDBRANCH  23  25
ENDBRANCH  22  23
ENDBRANCH   1  22
TORSDOF 16
ENDMDL
MODEL 3
REMARK VINA RESULT:     -11.5      5.409      9.521
REMARK SMILES Cc1cc(-c2ccc(/C=C/C(=O)OCCOC(=O)c3ccc(-c4c5nc(c(-c6cc(S(=O)(=O)[O-])ccc6F)c6ccc([nH]6)c(-c6cc(S(=O)(=O)[O-])ccc6F)c6nc(c(-c7cc(S(=O)(=O)[O-])ccc7F)c7ccc4[nH]7)C=C6)C=C5)cc3)o2)c(C)cc1Br
REMARK SMILES IDX 15 1 14 2 13 3 11 4 12 5 10 6 9 7 8 8 5 9 6 10 82 11 7 12
REMARK SMILES IDX 4 13 1 14 2 15 3 16 86 17 85 18 87 19 83 20 84 21 16 22
REMARK SMILES IDX 17 23 18 24 19 25 20 26 81 27 21 28 80 29 22 30 23 31 24 32
REMARK SMILES IDX 74 33 25 34 79 35 73 36 75 37 26 38 78 39 72 40 71 41 27 43
REMARK SMILES IDX 59 44 39 45 58 46 40 47 43 48 57 49 76 50 41 51 42 52 56 54
REMARK SMILES IDX 77 55 44 56 28 57 29 58 37 59 30 60 36 61 38 62 35 63 31 64
REMARK SMILES IDX 32 65 33 66 34 67 60 68 61 69 69 70 62 71 68 72 70 73 67 74
REMARK SMILES IDX 63 75 64 76 65 77 66 78 45 79 46 80 54 81 47 82 53 83 55 84
REMARK SMILES IDX 52 85 48 86 49 87 50 88 51 89
REMARK H PARENT 75 42 43 53
REMARK Flexibility Score: inf
ROOT
ATOM      1  C   UNL A   1      40.703  20.029  26.462  1.00  0.00     0.275 C 
ENDROOT
BRANCH   1   2
ATOM      2  C   UNL A   1      42.228  20.116  26.571  1.00  0.00     0.275 C 
BRANCH   2   3
ATOM      3  O   UNL A   1      42.819  20.531  25.325  1.00  0.00    -0.459 OA
BRANCH   3   4
ATOM      4  C   UNL A   1      43.503  21.701  25.355  1.00  0.00     0.331 C 
ATOM      5  O   UNL A   1      44.038  22.244  24.402  1.00  0.00    -0.247 OA
BRANCH   4   6
ATOM      6  C   UNL A   1      43.488  22.323  26.692  1.00  0.00     0.097 C 
ATOM      7  C   UNL A   1      44.563  22.843  27.301  1.00  0.00     0.054 C 
BRANCH   7   8
ATOM      8  C   UNL A   1      44.450  23.387  28.609  1.00  0.00     0.127 A 
ATOM      9  C   UNL A   1      44.460  24.890  30.248  1.00  0.00     0.135 A 
ATOM     10  C   UNL A   1      44.122  23.693  30.833  1.00  0.00     0.051 A 
ATOM     11  O   UNL A   1      44.677  24.712  28.917  1.00  0.00    -0.457 OA
ATOM     12  C   UNL A   1      44.093  22.741  29.788  1.00  0.00     0.051 A 
BRANCH   9  13
ATOM     13  C   UNL A   1      44.636  26.240  30.759  1.00  0.00     0.020 A 
ATOM     14  C   UNL A   1      42.350  28.883  32.284  1.00  0.00     0.045 C 
ATOM     15  C   UNL A   1      43.595  28.233  31.750  1.00  0.00    -0.036 A 
ATOM     16  C   UNL A   1      43.516  26.909  31.283  1.00  0.00     0.016 A 
ATOM     17  C   UNL A   1      44.821  28.900  31.645  1.00  0.00     0.021 A 
ATOM     18  C   UNL A   1      45.949  28.240  31.143  1.00  0.00     0.020 A 
ATOM     19  Br  UNL A   1      45.027  30.722  32.143  1.00  0.00    -0.051 Br
ATOM     20  C   UNL A   1      45.873  26.908  30.699  1.00  0.00    -0.039 A 
ATOM     21  C   UNL A   1      47.114  26.241  30.171  1.00  0.00     0.045 C 
ENDBRANCH   9  13
ENDBRANCH   7   8
ENDBRANCH   4   6
ENDBRANCH   3   4
ENDBRANCH   2   3
ENDBRANCH   1   2
BRANCH   1  22
ATOM     22  O   UNL A   1      40.060  21.072  27.216  1.00  0.00    -0.458 OA
BRANCH  22  23
ATOM     23  C   UNL A   1      39.377  21.992  26.487  1.00  0.00     0.338 C 
ATOM     24  O   UNL A   1      38.464  21.778  25.713  1.00  0.00    -0.246 OA
BRANCH  23  25
ATOM     25  C   UNL A   1      39.817  23.340  26.902  1.00  0.00     0.060 A 
ATOM     26  C   UNL A   1      39.463  24.475  26.167  1.00  0.00     0.016 A 
ATOM     27  C   UNL A   1      40.613  23.454  28.046  1.00  0.00     0.016 A 
ATOM     28  C   UNL A   1      39.941  25.727  26.562  1.00  0.00     0.010 A 
ATOM     29  C   UNL A   1      41.095  24.705  28.435  1.00  0.00     0.010 A 
ATOM     30  C   UNL A   1      40.774  25.846  27.687  1.00  0.00    -0.014 A 
BRANCH  30  31
ATOM     31  C   UNL A   1      41.288  27.174  28.099  1.00  0.00     0.031 A 
ATOM     32  C   UNL A   1      42.708  27.565  27.814  1.00  0.00     0.074 A 
ATOM     33  C   UNL A   1      40.466  28.020  28.747  1.00  0.00     0.049 A 
ATOM     34  N   UNL A   1      43.303  28.708  28.033  1.00  0.00    -0.248 NA
ATOM     35  C   UNL A   1      43.572  26.540  27.211  1.00  0.00     0.031 C 
ATOM     36  C   UNL A   1      39.081  27.724  29.107  1.00  0.00     0.029 A 
ATOM     37  N   UNL A   1      40.674  29.291  29.221  1.00  0.00    -0.354 N 
ATOM     38  C   UNL A   1      44.606  28.552  27.577  1.00  0.00     0.074 A 
ATOM     39  C   UNL A   1      44.729  27.185  27.119  1.00  0.00     0.031 C 
ATOM     40  C   UNL A   1      38.558  28.786  29.736  1.00  0.00     0.029 A 
ATOM     41  C   UNL A   1      39.574  29.832  29.843  1.00  0.00     0.049 A 
ATOM     42  H   UNL A   1      41.529  29.769  29.125  1.00  0.00     0.167 HD
ATOM     43  C   UNL A   1      45.597  29.475  27.525  1.00  0.00     0.034 A 
ATOM     44  C   UNL A   1      39.400  31.037  30.426  1.00  0.00     0.034 A 
ATOM     45  C   UNL A   1      45.459  30.827  28.003  1.00  0.00     0.049 A 
ATOM     46  C   UNL A   1      40.527  32.038  30.383  1.00  0.00     0.074 A 
ATOM     47  C   UNL A   1      46.387  31.852  27.946  1.00  0.00     0.029 A 
ATOM     48  N   UNL A   1      44.333  31.343  28.632  1.00  0.00    -0.354 N 
ATOM     49  N   UNL A   1      41.715  31.918  29.838  1.00  0.00    -0.248 NA
ATOM     50  C   UNL A   1      40.289  33.344  31.014  1.00  0.00     0.031 C 
ATOM     51  C   UNL A   1      45.848  32.965  28.594  1.00  0.00     0.029 A 
ATOM     52  C   UNL A   1      44.557  32.662  28.997  1.00  0.00     0.049 A 
ATOM     53  H   UNL A   1      43.500  30.846  28.795  1.00  0.00     0.167 HD
ATOM     54  C   UNL A   1      42.357  33.138  30.040  1.00  0.00     0.074 A 
ATOM     55  C   UNL A   1      41.415  33.989  30.736  1.00  0.00     0.031 C 
ATOM     56  C   UNL A   1      43.611  33.511  29.682  1.00  0.00     0.034 A 
BRANCH  43  57
ATOM     57  C   UNL A   1      46.916  29.083  26.906  1.00  0.00     0.023 A 
ATOM     58  C   UNL A   1      46.977  28.667  25.563  1.00  0.00     0.031 A 
ATOM     59  C   UNL A   1      48.082  28.990  27.686  1.00  0.00     0.131 A 
ATOM     60  C   UNL A   1      48.174  28.151  25.049  1.00  0.00     0.055 A 
ATOM     61  C   UNL A   1      49.281  28.509  27.159  1.00  0.00     0.041 A 
ATOM     62  F   UNL A   1      48.072  29.367  28.975  1.00  0.00    -0.206 F 
ATOM     63  C   UNL A   1      49.327  28.076  25.838  1.00  0.00     0.022 A 
BRANCH  60  64
ATOM     64  S   UNL A   1      48.270  27.500  23.359  1.00  0.00     0.124 S 
ATOM     65  O   UNL A   1      49.662  27.777  23.010  1.00  0.00    -0.237 OA
ATOM     66  O   UNL A   1      47.948  26.089  23.556  1.00  0.00    -0.237 OA
ATOM     67  O   UNL A   1      47.279  28.278  22.625  1.00  0.00    -0.744 OA
ENDBRANCH  60  64
ENDBRANCH  43  57
BRANCH  44  68
ATOM     68  C   UNL A   1      38.072  31.365  31.019  1.00  0.00     0.023 A 
ATOM     69  C   UNL A   1      37.061  31.968  30.246  1.00  0.00     0.031 A 
ATOM     70  C   UNL A   1      37.838  31.191  32.393  1.00  0.00     0.131 A 
ATOM     71  C   UNL A   1      35.894  32.433  30.866  1.00  0.00     0.055 A 
ATOM     72  C   UNL A   1      36.646  31.596  32.995  1.00  0.00     0.041 A 
ATOM     73  F   UNL A   1      38.779  30.635  33.172  1.00  0.00    -0.206 F 
ATOM     74  C   UNL A   1      35.674  32.237  32.234  1.00  0.00     0.022 A 
BRANCH  71  75
ATOM     75  S   UNL A   1      34.683  33.425  29.949  1.00  0.00     0.124 S 
ATOM     76  O   UNL A   1      33.842  33.948  31.022  1.00  0.00    -0.237 OA
ATOM     77  O   UNL A   1      35.541  34.406  29.287  1.00  0.00    -0.237 OA
ATOM     78  O   UNL A   1      34.046  32.459  29.061  1.00  0.00    -0.744 OA
ENDBRANCH  71  75
ENDBRANCH  44  68
BRANCH  56  79
ATOM     79  C   UNL A   1      44.077  34.906  30.029  1.00  0.00     0.023 A 
ATOM     80  C   UNL A   1      43.803  35.979  29.157  1.00  0.00     0.031 A 
ATOM     81  C   UNL A   1      44.918  35.141  31.129  1.00  0.00     0.131 A 
ATOM     82  C   UNL A   1      44.401  37.227  29.378  1.00  0.00     0.055 A 
ATOM     83  C   UNL A   1      45.476  36.399  31.370  1.00  0.00     0.041 A 
ATOM     84  F   UNL A   1      45.218  34.150  31.983  1.00  0.00    -0.206 F 
ATOM     85  C   UNL A   1      45.229  37.444  30.484  1.00  0.00     0.022 A 
BRANCH  82  86
ATOM     86  S   UNL A   1      44.200  38.587  28.193  1.00  0.00     0.124 S 
ATOM     87  O   UNL A   1      43.098  39.342  28.786  1.00  0.00    -0.237 OA
ATOM     88  O   UNL A   1      45.505  39.240  28.250  1.00  0.00    -0.237 OA
ATOM     89  O   UNL A   1      43.888  37.917  26.936  1.00  0.00    -0.744 OA
ENDBRANCH  82  86
ENDBRANCH  56  79
ENDBRANCH  30  31
ENDBRANCH  23  25
ENDBRANCH  22  23
ENDBRANCH   1  22
TORSDOF 16
ENDMDL
