MODEL 1
REMARK VINA RESULT:     -11.3      0.000      0.000
REMARK SMILES CC[C@H](C)Nc1ncnc(N2CCC(C(=O)OCCOC(=O)c3ccc(-c4c5nc(c(-c6cc(S(=O)(=O)[O-])ccc6F)c6ccc([nH]6)c(-c6cc(S(=O)(=O)[O-])ccc6F)c6nc(c(-c7cc(S(=O)(=O)[O-])ccc7F)c7ccc4[nH]7)C=C6)C=C5)cc3)CC2)c1[N+](=O)[O-]
REMARK SMILES IDX 18 1 17 2 15 3 16 4 14 5 11 6 12 7 87 8 13 9 86 10 10 11
REMARK SMILES IDX 6 12 7 13 88 14 8 15 9 16 5 17 3 19 4 20 2 21 1 22 89 23
REMARK SMILES IDX 90 24 91 25 19 26 20 27 21 28 22 29 23 30 24 31 85 32 25 33
REMARK SMILES IDX 84 34 26 35 27 36 28 37 78 38 29 39 83 40 77 41 79 42 30 43
REMARK SMILES IDX 82 44 76 45 75 46 31 48 63 49 43 50 62 51 44 52 47 53 61 54
REMARK SMILES IDX 80 55 45 56 46 57 60 59 81 60 48 61 32 62 33 63 41 64 34 65
REMARK SMILES IDX 40 66 42 67 39 68 35 69 36 70 37 71 38 72 64 73 65 74 73 75
REMARK SMILES IDX 66 76 72 77 74 78 71 79 67 80 68 81 69 82 70 83 49 84 50 85
REMARK SMILES IDX 58 86 51 87 57 88 59 89 56 90 52 91 53 92 54 93 55 94
REMARK H PARENT 5 18 79 47 47 58
REMARK Flexibility Score: inf
ROOT
ATOM      1  C   UNL A   1      31.377  29.486  24.340  1.00  0.00     0.274 C 
ENDROOT
BRANCH   1   2
ATOM      2  O   UNL A   1      30.535  28.324  24.449  1.00  0.00    -0.462 OA
BRANCH   2   3
ATOM      3  C   UNL A   1      30.556  27.471  23.394  1.00  0.00     0.309 C 
ATOM      4  O   UNL A   1      30.599  27.815  22.218  1.00  0.00    -0.252 OA
BRANCH   3   5
ATOM      5  C   UNL A   1      30.503  26.015  23.804  1.00  0.00     0.103 C 
ATOM      6  N   UNL A   1      31.389  23.427  24.568  1.00  0.00    -0.351 N 
ATOM      7  C   UNL A   1      30.802  23.594  23.242  1.00  0.00     0.119 C 
ATOM      8  C   UNL A   1      31.044  24.381  25.618  1.00  0.00     0.119 C 
ATOM      9  C   UNL A   1      31.000  25.023  22.750  1.00  0.00     0.037 C 
ATOM     10  C   UNL A   1      31.250  25.808  25.119  1.00  0.00     0.037 C 
BRANCH   6  11
ATOM     11  C   UNL A   1      32.400  22.507  24.734  1.00  0.00     0.213 A 
ATOM     12  C   UNL A   1      34.673  21.748  24.626  1.00  0.00     0.211 A 
ATOM     13  N   UNL A   1      34.279  20.526  25.031  1.00  0.00    -0.213 NA
ATOM     14  C   UNL A   1      33.738  22.753  24.451  1.00  0.00     0.353 A 
ATOM     15  C   UNL A   1      32.980  20.367  25.316  1.00  0.00     0.227 A 
ATOM     16  N   UNL A   1      32.029  21.299  25.205  1.00  0.00    -0.212 NA
BRANCH  12  17
ATOM     17  N   UNL A   1      36.033  21.813  24.423  1.00  0.00    -0.362 N 
ATOM     18  H   UNL A   1      36.356  22.261  23.608  1.00  0.00     0.162 HD
BRANCH  17  19
ATOM     19  C   UNL A   1      37.028  21.259  25.341  1.00  0.00     0.077 C 
ATOM     20  C   UNL A   1      37.644  20.016  24.691  1.00  0.00     0.031 C 
BRANCH  19  21
ATOM     21  C   UNL A   1      38.078  22.342  25.633  1.00  0.00     0.021 C 
ATOM     22  C   UNL A   1      37.476  23.697  25.974  1.00  0.00     0.006 C 
ENDBRANCH  19  21
ENDBRANCH  17  19
ENDBRANCH  12  17
BRANCH  14  23
ATOM     23  N   UNL A   1      34.124  24.034  23.956  1.00  0.00     0.070 N 
ATOM     24  O   UNL A   1      34.348  24.926  24.788  1.00  0.00    -0.258 OA
ATOM     25  O   UNL A   1      34.210  24.165  22.725  1.00  0.00    -0.258 OA
ENDBRANCH  14  23
ENDBRANCH   6  11
ENDBRANCH   3   5
ENDBRANCH   2   3
ENDBRANCH   1   2
BRANCH   1  26
ATOM     26  C   UNL A   1      31.479  30.216  25.680  1.00  0.00     0.275 C 
BRANCH  26  27
ATOM     27  O   UNL A   1      32.818  30.178  26.205  1.00  0.00    -0.458 OA
BRANCH  27  28
ATOM     28  C   UNL A   1      33.157  31.226  26.993  1.00  0.00     0.338 C 
ATOM     29  O   UNL A   1      32.479  32.204  27.252  1.00  0.00    -0.246 OA
BRANCH  28  30
ATOM     30  C   UNL A   1      34.467  30.974  27.612  1.00  0.00     0.060 A 
ATOM     31  C   UNL A   1      34.818  29.656  27.910  1.00  0.00     0.016 A 
ATOM     32  C   UNL A   1      35.300  32.030  27.983  1.00  0.00     0.016 A 
ATOM     33  C   UNL A   1      36.006  29.381  28.583  1.00  0.00     0.010 A 
ATOM     34  C   UNL A   1      36.494  31.753  28.656  1.00  0.00     0.010 A 
ATOM     35  C   UNL A   1      36.849  30.428  28.969  1.00  0.00    -0.014 A 
BRANCH  35  36
ATOM     36  C   UNL A   1      38.076  30.143  29.754  1.00  0.00     0.031 A 
ATOM     37  C   UNL A   1      39.110  29.206  29.199  1.00  0.00     0.074 A 
ATOM     38  C   UNL A   1      38.258  30.723  30.955  1.00  0.00     0.049 A 
ATOM     39  N   UNL A   1      40.178  28.716  29.771  1.00  0.00    -0.248 NA
ATOM     40  C   UNL A   1      38.907  28.761  27.813  1.00  0.00     0.031 C 
ATOM     41  C   UNL A   1      37.351  31.694  31.569  1.00  0.00     0.029 A 
ATOM     42  N   UNL A   1      39.263  30.574  31.877  1.00  0.00    -0.354 N 
ATOM     43  C   UNL A   1      40.764  27.882  28.826  1.00  0.00     0.074 A 
ATOM     44  C   UNL A   1      39.921  27.924  27.649  1.00  0.00     0.031 C 
ATOM     45  C   UNL A   1      37.835  32.044  32.771  1.00  0.00     0.029 A 
ATOM     46  C   UNL A   1      39.052  31.282  33.037  1.00  0.00     0.049 A 
ATOM     47  H   UNL A   1      40.058  30.014  31.723  1.00  0.00     0.167 HD
ATOM     48  C   UNL A   1      41.901  27.148  28.936  1.00  0.00     0.034 A 
ATOM     49  C   UNL A   1      39.738  31.282  34.197  1.00  0.00     0.034 A 
ATOM     50  C   UNL A   1      42.729  27.123  30.118  1.00  0.00     0.049 A 
ATOM     51  C   UNL A   1      40.957  30.404  34.323  1.00  0.00     0.074 A 
ATOM     52  C   UNL A   1      43.903  26.424  30.335  1.00  0.00     0.029 A 
ATOM     53  N   UNL A   1      42.467  27.828  31.286  1.00  0.00    -0.354 N 
ATOM     54  N   UNL A   1      41.485  29.593  33.435  1.00  0.00    -0.248 NA
ATOM     55  C   UNL A   1      41.669  30.439  35.607  1.00  0.00     0.031 C 
ATOM     56  C   UNL A   1      44.318  26.659  31.653  1.00  0.00     0.029 A 
ATOM     57  C   UNL A   1      43.439  27.558  32.236  1.00  0.00     0.049 A 
ATOM     58  H   UNL A   1      41.701  28.432  31.420  1.00  0.00     0.167 HD
ATOM     59  C   UNL A   1      42.603  29.035  34.049  1.00  0.00     0.074 A 
ATOM     60  C   UNL A   1      42.679  29.613  35.376  1.00  0.00     0.031 C 
ATOM     61  C   UNL A   1      43.489  28.131  33.561  1.00  0.00     0.034 A 
BRANCH  48  62
ATOM     62  C   UNL A   1      42.267  26.264  27.769  1.00  0.00     0.023 A 
ATOM     63  C   UNL A   1      41.913  24.904  27.725  1.00  0.00     0.031 A 
ATOM     64  C   UNL A   1      43.017  26.785  26.699  1.00  0.00     0.131 A 
ATOM     65  C   UNL A   1      42.366  24.098  26.670  1.00  0.00     0.055 A 
ATOM     66  C   UNL A   1      43.403  25.994  25.616  1.00  0.00     0.041 A 
ATOM     67  F   UNL A   1      43.403  28.070  26.699  1.00  0.00    -0.206 F 
ATOM     68  C   UNL A   1      43.090  24.638  25.603  1.00  0.00     0.022 A 
BRANCH  65  69
ATOM     69  S   UNL A   1      42.113  22.304  26.775  1.00  0.00     0.124 S 
ATOM     70  O   UNL A   1      40.941  22.220  27.641  1.00  0.00    -0.237 OA
ATOM     71  O   UNL A   1      41.905  21.933  25.380  1.00  0.00    -0.237 OA
ATOM     72  O   UNL A   1      43.355  21.816  27.371  1.00  0.00    -0.744 OA
ENDBRANCH  65  69
ENDBRANCH  48  62
BRANCH  49  73
ATOM     73  C   UNL A   1      39.253  32.083  35.356  1.00  0.00     0.023 A 
ATOM     74  C   UNL A   1      39.713  33.389  35.583  1.00  0.00     0.031 A 
ATOM     75  C   UNL A   1      38.342  31.533  36.276  1.00  0.00     0.131 A 
ATOM     76  C   UNL A   1      39.289  34.091  36.722  1.00  0.00     0.055 A 
ATOM     77  C   UNL A   1      37.885  32.252  37.382  1.00  0.00     0.041 A 
ATOM     78  F   UNL A   1      37.872  30.288  36.105  1.00  0.00    -0.206 F 
ATOM     79  C   UNL A   1      38.368  33.536  37.615  1.00  0.00     0.022 A 
BRANCH  76  80
ATOM     80  S   UNL A   1      40.012  35.720  37.061  1.00  0.00     0.124 S 
ATOM     81  O   UNL A   1      39.653  36.461  35.858  1.00  0.00    -0.237 OA
ATOM     82  O   UNL A   1      39.319  36.108  38.285  1.00  0.00    -0.237 OA
ATOM     83  O   UNL A   1      41.436  35.433  37.217  1.00  0.00    -0.744 OA
ENDBRANCH  76  80
ENDBRANCH  49  73
BRANCH  61  84
ATOM     84  C   UNL A   1      44.638  27.750  34.460  1.00  0.00     0.023 A 
ATOM     85  C   UNL A   1      44.562  26.645  35.326  1.00  0.00     0.031 A 
ATOM     86  C   UNL A   1      45.818  28.513  34.457  1.00  0.00     0.131 A 
ATOM     87  C   UNL A   1      45.633  26.362  36.188  1.00  0.00     0.055 A 
ATOM     88  C   UNL A   1      46.898  28.197  35.282  1.00  0.00     0.041 A 
ATOM     89  F   UNL A   1      45.940  29.580  33.649  1.00  0.00    -0.206 F 
ATOM     90  C   UNL A   1      46.804  27.122  36.161  1.00  0.00     0.022 A 
BRANCH  87  91
ATOM     91  S   UNL A   1      45.445  25.027  37.402  1.00  0.00     0.124 S 
ATOM     92  O   UNL A   1      44.033  25.132  37.755  1.00  0.00    -0.237 OA
ATOM     93  O   UNL A   1      45.823  23.847  36.630  1.00  0.00    -0.237 OA
ATOM     94  O   UNL A   1      46.379  25.395  38.464  1.00  0.00    -0.744 OA
ENDBRANCH  87  91
ENDBRANCH  61  84
ENDBRANCH  35  36
ENDBRANCH  28  30
ENDBRANCH  27  28
ENDBRANCH  26  27
ENDBRANCH   1  26
TORSDOF 19
ENDMDL
MODEL 2
REMARK VINA RESULT:     -11.2      4.638     10.077
REMARK SMILES CC[C@H](C)Nc1ncnc(N2CCC(C(=O)OCCOC(=O)c3ccc(-c4c5nc(c(-c6cc(S(=O)(=O)[O-])ccc6F)c6ccc([nH]6)c(-c6cc(S(=O)(=O)[O-])ccc6F)c6nc(c(-c7cc(S(=O)(=O)[O-])ccc7F)c7ccc4[nH]7)C=C6)C=C5)cc3)CC2)c1[N+](=O)[O-]
REMARK SMILES IDX 18 1 17 2 15 3 16 4 14 5 11 6 12 7 87 8 13 9 86 10 10 11
REMARK SMILES IDX 6 12 7 13 88 14 8 15 9 16 5 17 3 19 4 20 2 21 1 22 89 23
REMARK SMILES IDX 90 24 91 25 19 26 20 27 21 28 22 29 23 30 24 31 85 32 25 33
REMARK SMILES IDX 84 34 26 35 27 36 28 37 78 38 29 39 83 40 77 41 79 42 30 43
REMARK SMILES IDX 82 44 76 45 75 46 31 48 63 49 43 50 62 51 44 52 47 53 61 54
REMARK SMILES IDX 80 55 45 56 46 57 60 59 81 60 48 61 32 62 33 63 41 64 34 65
REMARK SMILES IDX 40 66 42 67 39 68 35 69 36 70 37 71 38 72 64 73 65 74 73 75
REMARK SMILES IDX 66 76 72 77 74 78 71 79 67 80 68 81 69 82 70 83 49 84 50 85
REMARK SMILES IDX 58 86 51 87 57 88 59 89 56 90 52 91 53 92 54 93 55 94
REMARK H PARENT 5 18 79 47 47 58
REMARK Flexibility Score: inf
ROOT
ATOM      1  C   UNL A   1      36.089  19.963  24.839  1.00  0.00     0.274 C 
ENDROOT
BRANCH   1   2
ATOM      2  O   UNL A   1      35.529  21.148  25.433  1.00  0.00    -0.462 OA
BRANCH   2   3
ATOM      3  C   UNL A   1      34.177  21.260  25.379  1.00  0.00     0.309 C 
ATOM      4  O   UNL A   1      33.389  20.453  25.858  1.00  0.00    -0.252 OA
BRANCH   3   5
ATOM      5  C   UNL A   1      33.712  22.493  24.636  1.00  0.00     0.103 C 
ATOM      6  N   UNL A   1      32.770  25.134  24.181  1.00  0.00    -0.351 N 
ATOM      7  C   UNL A   1      31.864  24.021  23.917  1.00  0.00     0.119 C 
ATOM      8  C   UNL A   1      34.209  24.895  24.147  1.00  0.00     0.119 C 
ATOM      9  C   UNL A   1      32.225  22.824  24.788  1.00  0.00     0.037 C 
ATOM     10  C   UNL A   1      34.564  23.699  25.025  1.00  0.00     0.037 C 
BRANCH   6  11
ATOM     11  C   UNL A   1      32.247  26.317  24.653  1.00  0.00     0.213 A 
ATOM     12  C   UNL A   1      31.393  28.547  24.426  1.00  0.00     0.211 A 
ATOM     13  N   UNL A   1      31.307  28.646  25.766  1.00  0.00    -0.213 NA
ATOM     14  C   UNL A   1      31.884  27.390  23.847  1.00  0.00     0.353 A 
ATOM     15  C   UNL A   1      31.645  27.564  26.480  1.00  0.00     0.227 A 
ATOM     16  N   UNL A   1      32.091  26.404  25.989  1.00  0.00    -0.212 NA
BRANCH  12  17
ATOM     17  N   UNL A   1      30.963  29.692  23.795  1.00  0.00    -0.362 N 
ATOM     18  H   UNL A   1      31.641  30.359  23.538  1.00  0.00     0.162 HD
BRANCH  17  19
ATOM     19  C   UNL A   1      29.564  29.981  23.480  1.00  0.00     0.077 C 
ATOM     20  C   UNL A   1      29.259  31.417  23.916  1.00  0.00     0.031 C 
BRANCH  19  21
ATOM     21  C   UNL A   1      29.351  29.774  21.972  1.00  0.00     0.021 C 
ATOM     22  C   UNL A   1      28.394  30.778  21.348  1.00  0.00     0.006 C 
ENDBRANCH  19  21
ENDBRANCH  17  19
ENDBRANCH  12  17
BRANCH  14  23
ATOM     23  N   UNL A   1      32.048  27.291  22.434  1.00  0.00     0.070 N 
ATOM     24  O   UNL A   1      33.165  27.558  21.968  1.00  0.00    -0.258 OA
ATOM     25  O   UNL A   1      31.059  26.944  21.770  1.00  0.00    -0.258 OA
ENDBRANCH  14  23
ENDBRANCH   6  11
ENDBRANCH   3   5
ENDBRANCH   2   3
ENDBRANCH   1   2
BRANCH   1  26
ATOM     26  C   UNL A   1      37.617  20.023  24.834  1.00  0.00     0.275 C 
BRANCH  26  27
ATOM     27  O   UNL A   1      38.110  21.073  25.687  1.00  0.00    -0.458 OA
BRANCH  27  28
ATOM     28  C   UNL A   1      39.331  20.849  26.228  1.00  0.00     0.338 C 
ATOM     29  O   UNL A   1      39.953  19.802  26.236  1.00  0.00    -0.246 OA
BRANCH  28  30
ATOM     30  C   UNL A   1      39.885  22.113  26.735  1.00  0.00     0.060 A 
ATOM     31  C   UNL A   1      39.421  23.309  26.185  1.00  0.00     0.016 A 
ATOM     32  C   UNL A   1      40.918  22.118  27.672  1.00  0.00     0.016 A 
ATOM     33  C   UNL A   1      39.985  24.523  26.567  1.00  0.00     0.010 A 
ATOM     34  C   UNL A   1      41.484  23.338  28.058  1.00  0.00     0.010 A 
ATOM     35  C   UNL A   1      41.028  24.547  27.500  1.00  0.00    -0.014 A 
BRANCH  35  36
ATOM     36  C   UNL A   1      41.683  25.832  27.850  1.00  0.00     0.031 A 
ATOM     37  C   UNL A   1      40.915  26.872  28.612  1.00  0.00     0.074 A 
ATOM     38  C   UNL A   1      42.959  26.059  27.486  1.00  0.00     0.049 A 
ATOM     39  N   UNL A   1      41.245  28.104  28.898  1.00  0.00    -0.248 NA
ATOM     40  C   UNL A   1      39.594  26.467  29.116  1.00  0.00     0.031 C 
ATOM     41  C   UNL A   1      43.822  25.100  26.794  1.00  0.00     0.029 A 
ATOM     42  N   UNL A   1      43.749  27.170  27.639  1.00  0.00    -0.354 N 
ATOM     43  C   UNL A   1      40.164  28.635  29.592  1.00  0.00     0.074 A 
ATOM     44  C   UNL A   1      39.163  27.591  29.670  1.00  0.00     0.031 C 
ATOM     45  C   UNL A   1      45.018  25.670  26.572  1.00  0.00     0.029 A 
ATOM     46  C   UNL A   1      44.987  27.049  27.053  1.00  0.00     0.049 A 
ATOM     47  H   UNL A   1      43.457  27.977  28.122  1.00  0.00     0.167 HD
ATOM     48  C   UNL A   1      40.023  29.879  30.113  1.00  0.00     0.034 A 
ATOM     49  C   UNL A   1      45.966  27.958  26.884  1.00  0.00     0.034 A 
ATOM     50  C   UNL A   1      41.036  30.905  30.028  1.00  0.00     0.049 A 
ATOM     51  C   UNL A   1      45.760  29.357  27.407  1.00  0.00     0.074 A 
ATOM     52  C   UNL A   1      41.002  32.195  30.526  1.00  0.00     0.029 A 
ATOM     53  N   UNL A   1      42.265  30.756  29.398  1.00  0.00    -0.354 N 
ATOM     54  N   UNL A   1      44.720  29.859  28.032  1.00  0.00    -0.248 NA
ATOM     55  C   UNL A   1      46.856  30.311  27.198  1.00  0.00     0.031 C 
ATOM     56  C   UNL A   1      42.184  32.844  30.147  1.00  0.00     0.029 A 
ATOM     57  C   UNL A   1      42.985  31.938  29.470  1.00  0.00     0.049 A 
ATOM     58  H   UNL A   1      42.580  29.930  28.964  1.00  0.00     0.167 HD
ATOM     59  C   UNL A   1      45.047  31.184  28.308  1.00  0.00     0.074 A 
ATOM     60  C   UNL A   1      46.384  31.398  27.792  1.00  0.00     0.031 C 
ATOM     61  C   UNL A   1      44.311  32.137  28.934  1.00  0.00     0.034 A 
BRANCH  48  62
ATOM     62  C   UNL A   1      38.699  30.213  30.757  1.00  0.00     0.023 A 
ATOM     63  C   UNL A   1      37.672  30.866  30.054  1.00  0.00     0.031 A 
ATOM     64  C   UNL A   1      38.477  29.904  32.111  1.00  0.00     0.131 A 
ATOM     65  C   UNL A   1      36.500  31.248  30.724  1.00  0.00     0.055 A 
ATOM     66  C   UNL A   1      37.280  30.222  32.753  1.00  0.00     0.041 A 
ATOM     67  F   UNL A   1      39.431  29.301  32.839  1.00  0.00    -0.206 F 
ATOM     68  C   UNL A   1      36.287  30.911  32.063  1.00  0.00     0.022 A 
BRANCH  65  69
ATOM     69  S   UNL A   1      35.311  32.312  29.859  1.00  0.00     0.124 S 
ATOM     70  O   UNL A   1      36.165  33.411  29.415  1.00  0.00    -0.237 OA
ATOM     71  O   UNL A   1      34.806  31.433  28.811  1.00  0.00    -0.237 OA
ATOM     72  O   UNL A   1      34.346  32.664  30.898  1.00  0.00    -0.744 OA
ENDBRANCH  65  69
ENDBRANCH  48  62
BRANCH  49  73
ATOM     73  C   UNL A   1      47.200  27.601  26.129  1.00  0.00     0.023 A 
ATOM     74  C   UNL A   1      47.304  27.833  24.749  1.00  0.00     0.031 A 
ATOM     75  C   UNL A   1      48.285  26.985  26.779  1.00  0.00     0.131 A 
ATOM     76  C   UNL A   1      48.453  27.421  24.056  1.00  0.00     0.055 A 
ATOM     77  C   UNL A   1      49.446  26.621  26.095  1.00  0.00     0.041 A 
ATOM     78  F   UNL A   1      48.236  26.741  28.099  1.00  0.00    -0.206 F 
ATOM     79  C   UNL A   1      49.529  26.828  24.723  1.00  0.00     0.022 A 
BRANCH  76  80
ATOM     80  S   UNL A   1      48.495  27.606  22.252  1.00  0.00     0.124 S 
ATOM     81  O   UNL A   1      48.706  26.230  21.816  1.00  0.00    -0.237 OA
ATOM     82  O   UNL A   1      47.179  28.172  21.975  1.00  0.00    -0.237 OA
ATOM     83  O   UNL A   1      49.621  28.511  22.029  1.00  0.00    -0.744 OA
ENDBRANCH  76  80
ENDBRANCH  49  73
BRANCH  61  84
ATOM     84  C   UNL A   1      44.964  33.483  29.127  1.00  0.00     0.023 A 
ATOM     85  C   UNL A   1      45.730  33.775  30.269  1.00  0.00     0.031 A 
ATOM     86  C   UNL A   1      44.803  34.488  28.159  1.00  0.00     0.131 A 
ATOM     87  C   UNL A   1      46.269  35.060  30.436  1.00  0.00     0.055 A 
ATOM     88  C   UNL A   1      45.384  35.749  28.307  1.00  0.00     0.041 A 
ATOM     89  F   UNL A   1      44.080  34.261  27.050  1.00  0.00    -0.206 F 
ATOM     90  C   UNL A   1      46.112  36.043  29.456  1.00  0.00     0.022 A 
BRANCH  87  91
ATOM     91  S   UNL A   1      47.119  35.454  31.989  1.00  0.00     0.124 S 
ATOM     92  O   UNL A   1      46.508  34.510  32.919  1.00  0.00    -0.237 OA
ATOM     93  O   UNL A   1      48.517  35.202  31.653  1.00  0.00    -0.237 OA
ATOM     94  O   UNL A   1      46.781  36.857  32.218  1.00  0.00    -0.744 OA
ENDBRANCH  87  91
ENDBRANCH  61  84
ENDBRANCH  35  36
ENDBRANCH  28  30
ENDBRANCH  27  28
ENDBRANCH  26  27
ENDBRANCH   1  26
TORSDOF 19
ENDMDL
MODEL 3
REMARK VINA RESULT:     -11.2      1.774      2.563
REMARK SMILES CC[C@H](C)Nc1ncnc(N2CCC(C(=O)OCCOC(=O)c3ccc(-c4c5nc(c(-c6cc(S(=O)(=O)[O-])ccc6F)c6ccc([nH]6)c(-c6cc(S(=O)(=O)[O-])ccc6F)c6nc(c(-c7cc(S(=O)(=O)[O-])ccc7F)c7ccc4[nH]7)C=C6)C=C5)cc3)CC2)c1[N+](=O)[O-]
REMARK SMILES IDX 18 1 17 2 15 3 16 4 14 5 11 6 12 7 87 8 13 9 86 10 10 11
REMARK SMILES IDX 6 12 7 13 88 14 8 15 9 16 5 17 3 19 4 20 2 21 1 22 89 23
REMARK SMILES IDX 90 24 91 25 19 26 20 27 21 28 22 29 23 30 24 31 85 32 25 33
REMARK SMILES IDX 84 34 26 35 27 36 28 37 78 38 29 39 83 40 77 41 79 42 30 43
REMARK SMILES IDX 82 44 76 45 75 46 31 48 63 49 43 50 62 51 44 52 47 53 61 54
REMARK SMILES IDX 80 55 45 56 46 57 60 59 81 60 48 61 32 62 33 63 41 64 34 65
REMARK SMILES IDX 40 66 42 67 39 68 35 69 36 70 37 71 38 72 64 73 65 74 73 75
REMARK SMILES IDX 66 76 72 77 74 78 71 79 67 80 68 81 69 82 70 83 49 84 50 85
REMARK SMILES IDX 58 86 51 87 57 88 59 89 56 90 52 91 53 92 54 93 55 94
REMARK H PARENT 5 18 79 47 47 58
REMARK Flexibility Score: inf
ROOT
ATOM      1  C   UNL A   1      31.728  28.539  24.355  1.00  0.00     0.274 C 
ENDROOT
BRANCH   1   2
ATOM      2  O   UNL A   1      30.568  27.687  24.334  1.00  0.00    -0.462 OA
BRANCH   2   3
ATOM      3  C   UNL A   1      30.778  26.387  24.660  1.00  0.00     0.309 C 
ATOM      4  O   UNL A   1      29.921  25.630  25.101  1.00  0.00    -0.252 OA
BRANCH   3   5
ATOM      5  C   UNL A   1      32.209  25.942  24.444  1.00  0.00     0.103 C 
ATOM      6  N   UNL A   1      34.470  24.233  24.262  1.00  0.00    -0.351 N 
ATOM      7  C   UNL A   1      34.403  25.176  25.374  1.00  0.00     0.119 C 
ATOM      8  C   UNL A   1      33.720  24.523  23.044  1.00  0.00     0.119 C 
ATOM      9  C   UNL A   1      32.952  25.501  25.708  1.00  0.00     0.037 C 
ATOM     10  C   UNL A   1      32.268  24.843  23.386  1.00  0.00     0.037 C 
BRANCH   6  11
ATOM     11  C   UNL A   1      35.066  23.008  24.467  1.00  0.00     0.213 A 
ATOM     12  C   UNL A   1      35.078  20.672  25.005  1.00  0.00     0.211 A 
ATOM     13  N   UNL A   1      36.422  20.667  24.937  1.00  0.00    -0.213 NA
ATOM     14  C   UNL A   1      34.378  21.846  24.792  1.00  0.00     0.353 A 
ATOM     15  C   UNL A   1      37.019  21.815  24.589  1.00  0.00     0.227 A 
ATOM     16  N   UNL A   1      36.408  22.975  24.334  1.00  0.00    -0.212 NA
BRANCH  12  17
ATOM     17  N   UNL A   1      34.571  19.428  25.308  1.00  0.00    -0.362 N 
ATOM     18  H   UNL A   1      34.615  19.129  26.245  1.00  0.00     0.162 HD
BRANCH  17  19
ATOM     19  C   UNL A   1      33.971  18.523  24.327  1.00  0.00     0.077 C 
ATOM     20  C   UNL A   1      34.829  17.257  24.252  1.00  0.00     0.031 C 
BRANCH  19  21
ATOM     21  C   UNL A   1      32.528  18.223  24.761  1.00  0.00     0.021 C 
ATOM     22  C   UNL A   1      32.338  16.820  25.317  1.00  0.00     0.006 C 
ENDBRANCH  19  21
ENDBRANCH  17  19
ENDBRANCH  12  17
BRANCH  14  23
ATOM     23  N   UNL A   1      32.959  21.888  24.927  1.00  0.00     0.070 N 
ATOM     24  O   UNL A   1      32.499  22.281  26.009  1.00  0.00    -0.258 OA
ATOM     25  O   UNL A   1      32.284  21.527  23.951  1.00  0.00    -0.258 OA
ENDBRANCH  14  23
ENDBRANCH   6  11
ENDBRANCH   3   5
ENDBRANCH   2   3
ENDBRANCH   1   2
BRANCH   1  26
ATOM     26  C   UNL A   1      31.720  29.445  25.587  1.00  0.00     0.275 C 
BRANCH  26  27
ATOM     27  O   UNL A   1      32.963  30.157  25.730  1.00  0.00    -0.458 OA
BRANCH  27  28
ATOM     28  C   UNL A   1      32.980  31.094  26.708  1.00  0.00     0.338 C 
ATOM     29  O   UNL A   1      32.162  31.977  26.897  1.00  0.00    -0.246 OA
BRANCH  28  30
ATOM     30  C   UNL A   1      34.105  30.835  27.619  1.00  0.00     0.060 A 
ATOM     31  C   UNL A   1      34.920  31.906  27.987  1.00  0.00     0.016 A 
ATOM     32  C   UNL A   1      34.410  29.538  28.030  1.00  0.00     0.016 A 
ATOM     33  C   UNL A   1      36.052  31.690  28.770  1.00  0.00     0.010 A 
ATOM     34  C   UNL A   1      35.545  29.321  28.819  1.00  0.00     0.010 A 
ATOM     35  C   UNL A   1      36.378  30.394  29.185  1.00  0.00    -0.014 A 
BRANCH  35  36
ATOM     36  C   UNL A   1      37.624  30.152  29.953  1.00  0.00     0.031 A 
ATOM     37  C   UNL A   1      38.711  29.306  29.356  1.00  0.00     0.074 A 
ATOM     38  C   UNL A   1      37.777  30.693  31.177  1.00  0.00     0.049 A 
ATOM     39  N   UNL A   1      39.810  28.859  29.904  1.00  0.00    -0.248 NA
ATOM     40  C   UNL A   1      38.529  28.907  27.953  1.00  0.00     0.031 C 
ATOM     41  C   UNL A   1      36.815  31.579  31.833  1.00  0.00     0.029 A 
ATOM     42  N   UNL A   1      38.794  30.567  32.089  1.00  0.00    -0.354 N 
ATOM     43  C   UNL A   1      40.442  28.102  28.923  1.00  0.00     0.074 A 
ATOM     44  C   UNL A   1      39.591  28.142  27.752  1.00  0.00     0.031 C 
ATOM     45  C   UNL A   1      37.283  31.907  33.048  1.00  0.00     0.029 A 
ATOM     46  C   UNL A   1      38.547  31.212  33.278  1.00  0.00     0.049 A 
ATOM     47  H   UNL A   1      39.621  30.065  31.909  1.00  0.00     0.167 HD
ATOM     48  C   UNL A   1      41.622  27.437  28.999  1.00  0.00     0.034 A 
ATOM     49  C   UNL A   1      39.237  31.206  34.435  1.00  0.00     0.034 A 
ATOM     50  C   UNL A   1      42.457  27.414  30.176  1.00  0.00     0.049 A 
ATOM     51  C   UNL A   1      40.509  30.400  34.520  1.00  0.00     0.074 A 
ATOM     52  C   UNL A   1      43.673  26.780  30.361  1.00  0.00     0.029 A 
ATOM     53  N   UNL A   1      42.158  28.051  31.374  1.00  0.00    -0.354 N 
ATOM     54  N   UNL A   1      41.081  29.661  33.598  1.00  0.00    -0.248 NA
ATOM     55  C   UNL A   1      41.225  30.426  35.802  1.00  0.00     0.031 C 
ATOM     56  C   UNL A   1      44.079  26.984  31.685  1.00  0.00     0.029 A 
ATOM     57  C   UNL A   1      43.150  27.802  32.309  1.00  0.00     0.049 A 
ATOM     58  H   UNL A   1      41.357  28.601  31.535  1.00  0.00     0.167 HD
ATOM     59  C   UNL A   1      42.234  29.149  34.185  1.00  0.00     0.074 A 
ATOM     60  C   UNL A   1      42.283  29.674  35.534  1.00  0.00     0.031 C 
ATOM     61  C   UNL A   1      43.172  28.322  33.656  1.00  0.00     0.034 A 
BRANCH  48  62
ATOM     62  C   UNL A   1      42.036  26.626  27.795  1.00  0.00     0.023 A 
ATOM     63  C   UNL A   1      41.734  25.257  27.678  1.00  0.00     0.031 A 
ATOM     64  C   UNL A   1      42.778  27.227  26.762  1.00  0.00     0.131 A 
ATOM     65  C   UNL A   1      42.230  24.523  26.591  1.00  0.00     0.055 A 
ATOM     66  C   UNL A   1      43.207  26.507  25.647  1.00  0.00     0.041 A 
ATOM     67  F   UNL A   1      43.115  28.525  26.831  1.00  0.00    -0.206 F 
ATOM     68  C   UNL A   1      42.945  25.142  25.563  1.00  0.00     0.022 A 
BRANCH  65  69
ATOM     69  S   UNL A   1      42.044  22.718  26.603  1.00  0.00     0.124 S 
ATOM     70  O   UNL A   1      40.662  22.565  27.050  1.00  0.00    -0.237 OA
ATOM     71  O   UNL A   1      42.310  22.364  25.214  1.00  0.00    -0.237 OA
ATOM     72  O   UNL A   1      43.053  22.275  27.564  1.00  0.00    -0.744 OA
ENDBRANCH  65  69
ENDBRANCH  48  62
BRANCH  49  73
ATOM     73  C   UNL A   1      38.710  31.927  35.628  1.00  0.00     0.023 A 
ATOM     74  C   UNL A   1      38.133  31.234  36.703  1.00  0.00     0.031 A 
ATOM     75  C   UNL A   1      38.746  33.332  35.689  1.00  0.00     0.131 A 
ATOM     76  C   UNL A   1      37.585  31.948  37.779  1.00  0.00     0.055 A 
ATOM     77  C   UNL A   1      38.242  34.036  36.783  1.00  0.00     0.041 A 
ATOM     78  F   UNL A   1      39.286  34.042  34.685  1.00  0.00    -0.206 F 
ATOM     79  C   UNL A   1      37.647  33.344  37.832  1.00  0.00     0.022 A 
BRANCH  76  80
ATOM     80  S   UNL A   1      36.721  31.030  39.084  1.00  0.00     0.124 S 
ATOM     81  O   UNL A   1      36.619  29.700  38.494  1.00  0.00    -0.237 OA
ATOM     82  O   UNL A   1      37.640  31.165  40.208  1.00  0.00    -0.237 OA
ATOM     83  O   UNL A   1      35.456  31.748  39.225  1.00  0.00    -0.744 OA
ENDBRANCH  76  80
ENDBRANCH  49  73
BRANCH  61  84
ATOM     84  C   UNL A   1      44.347  27.975  34.535  1.00  0.00     0.023 A 
ATOM     85  C   UNL A   1      44.349  26.826  35.345  1.00  0.00     0.031 A 
ATOM     86  C   UNL A   1      45.473  28.815  34.570  1.00  0.00     0.131 A 
ATOM     87  C   UNL A   1      45.439  26.574  36.193  1.00  0.00     0.055 A 
ATOM     88  C   UNL A   1      46.575  28.533  35.377  1.00  0.00     0.041 A 
ATOM     89  F   UNL A   1      45.521  29.927  33.816  1.00  0.00    -0.206 F 
ATOM     90  C   UNL A   1      46.557  27.412  36.203  1.00  0.00     0.022 A 
BRANCH  87  91
ATOM     91  S   UNL A   1      45.346  25.171  37.339  1.00  0.00     0.124 S 
ATOM     92  O   UNL A   1      43.964  25.245  37.799  1.00  0.00    -0.237 OA
ATOM     93  O   UNL A   1      45.671  24.040  36.475  1.00  0.00    -0.237 OA
ATOM     94  O   UNL A   1      46.355  25.486  38.349  1.00  0.00    -0.744 OA
ENDBRANCH  87  91
ENDBRANCH  61  84
ENDBRANCH  35  36
ENDBRANCH  28  30
ENDBRANCH  27  28
ENDBRANCH  26  27
ENDBRANCH   1  26
TORSDOF 19
ENDMDL
