MODEL 1
REMARK VINA RESULT:     -12.5      0.000      0.000
REMARK SMILES COc1ccc(NC(=O)[C@@H]2[C@@H](C(=O)OCCOC(=O)c3ccc(-c4c5nc(c(-c6cc(S(=O)(=O)[O-])ccc6F)c6ccc([nH]6)c(-c6cc(S(=O)(=O)[O-])ccc6F)c6nc(c(-c7cc(S(=O)(=O)[O-])ccc7F)c7ccc4[nH]7)C=C6)C=C5)cc3)[C@H]3C=C[C@@H]2C3)cc1O
REMARK SMILES IDX 15 1 14 2 12 3 13 4 11 5 10 6 86 7 83 8 85 9 87 10 84 11
REMARK SMILES IDX 8 12 7 13 9 15 6 16 3 17 4 18 89 19 5 20 88 21 2 22 1 23
REMARK SMILES IDX 90 24 16 26 17 27 18 28 19 29 20 30 21 31 82 32 22 33 81 34
REMARK SMILES IDX 23 35 24 36 25 37 75 38 26 39 80 40 74 41 76 42 27 43 79 44
REMARK SMILES IDX 73 45 72 46 28 48 60 49 40 50 59 51 41 52 44 53 58 54 77 55
REMARK SMILES IDX 42 56 43 57 57 59 78 60 45 61 29 62 30 63 38 64 31 65 37 66
REMARK SMILES IDX 39 67 36 68 32 69 33 70 34 71 35 72 61 73 62 74 70 75 63 76
REMARK SMILES IDX 69 77 71 78 68 79 64 80 65 81 66 82 67 83 46 84 47 85 55 86
REMARK SMILES IDX 48 87 54 88 56 89 53 90 49 91 50 92 51 93 52 94
REMARK H PARENT 7 14 90 25 76 47 44 58
REMARK Flexibility Score: inf
ROOT
ATOM      1  C   UNL A   1      35.655  20.381  25.006  1.00  0.00     0.274 C 
ENDROOT
BRANCH   1   2
ATOM      2  O   UNL A   1      35.132  21.212  26.060  1.00  0.00    -0.462 OA
BRANCH   2   3
ATOM      3  C   UNL A   1      33.954  21.813  25.762  1.00  0.00     0.310 C 
ATOM      4  O   UNL A   1      33.006  21.202  25.280  1.00  0.00    -0.252 OA
BRANCH   3   5
ATOM      5  C   UNL A   1      33.901  23.309  26.023  1.00  0.00     0.119 C 
ATOM      6  C   UNL A   1      32.605  23.972  25.481  1.00  0.00     0.100 C 
ATOM      7  C   UNL A   1      33.223  25.150  24.637  1.00  0.00     0.025 C 
ATOM      8  C   UNL A   1      35.056  24.132  25.398  1.00  0.00     0.027 C 
ATOM      9  C   UNL A   1      33.958  24.583  23.441  1.00  0.00    -0.027 C 
ATOM     10  C   UNL A   1      34.446  25.533  25.485  1.00  0.00     0.017 C 
ATOM     11  C   UNL A   1      35.068  23.991  23.900  1.00  0.00    -0.027 C 
BRANCH   6  12
ATOM     12  C   UNL A   1      31.547  24.593  26.411  1.00  0.00     0.228 C 
ATOM     13  N   UNL A   1      30.716  25.635  26.151  1.00  0.00    -0.326 N 
ATOM     14  H   UNL A   1      30.003  25.725  26.823  1.00  0.00     0.169 HD
ATOM     15  O   UNL A   1      31.379  24.068  27.525  1.00  0.00    -0.274 OA
BRANCH  13  16
ATOM     16  C   UNL A   1      30.636  26.609  25.152  1.00  0.00     0.045 A 
ATOM     17  C   UNL A   1      30.194  28.800  23.478  1.00  0.00     0.160 A 
ATOM     18  C   UNL A   1      29.671  27.557  23.143  1.00  0.00     0.052 A 
ATOM     19  C   UNL A   1      31.055  28.908  24.565  1.00  0.00     0.159 A 
ATOM     20  C   UNL A   1      29.918  26.450  23.972  1.00  0.00     0.030 A 
ATOM     21  C   UNL A   1      31.312  27.811  25.380  1.00  0.00     0.076 A 
BRANCH  17  22
ATOM     22  O   UNL A   1      29.722  29.943  22.896  1.00  0.00    -0.493 OA
ATOM     23  C   UNL A   1      28.473  29.770  22.239  1.00  0.00     0.278 C 
ENDBRANCH  17  22
BRANCH  19  24
ATOM     24  O   UNL A   1      31.608  30.108  24.905  1.00  0.00    -0.504 OA
ATOM     25  H   UNL A   1      31.719  30.333  25.808  1.00  0.00     0.293 HD
ENDBRANCH  19  24
ENDBRANCH  13  16
ENDBRANCH   6  12
ENDBRANCH   3   5
ENDBRANCH   2   3
ENDBRANCH   1   2
BRANCH   1  26
ATOM     26  C   UNL A   1      37.152  20.594  24.753  1.00  0.00     0.275 C 
BRANCH  26  27
ATOM     27  O   UNL A   1      37.689  21.679  25.532  1.00  0.00    -0.458 OA
BRANCH  27  28
ATOM     28  C   UNL A   1      38.955  21.501  25.976  1.00  0.00     0.338 C 
ATOM     29  O   UNL A   1      39.651  20.510  25.833  1.00  0.00    -0.246 OA
BRANCH  28  30
ATOM     30  C   UNL A   1      39.434  22.708  26.671  1.00  0.00     0.060 A 
ATOM     31  C   UNL A   1      39.042  23.971  26.223  1.00  0.00     0.016 A 
ATOM     32  C   UNL A   1      40.409  22.588  27.659  1.00  0.00     0.016 A 
ATOM     33  C   UNL A   1      39.654  25.119  26.714  1.00  0.00     0.010 A 
ATOM     34  C   UNL A   1      40.992  23.743  28.188  1.00  0.00     0.010 A 
ATOM     35  C   UNL A   1      40.639  25.014  27.698  1.00  0.00    -0.014 A 
BRANCH  35  36
ATOM     36  C   UNL A   1      41.363  26.219  28.166  1.00  0.00     0.031 A 
ATOM     37  C   UNL A   1      40.607  27.281  28.912  1.00  0.00     0.074 A 
ATOM     38  C   UNL A   1      42.678  26.361  27.921  1.00  0.00     0.049 A 
ATOM     39  N   UNL A   1      40.953  28.510  29.184  1.00  0.00    -0.248 NA
ATOM     40  C   UNL A   1      39.277  26.900  29.412  1.00  0.00     0.031 C 
ATOM     41  C   UNL A   1      43.541  25.352  27.305  1.00  0.00     0.029 A 
ATOM     42  N   UNL A   1      43.514  27.426  28.143  1.00  0.00    -0.354 N 
ATOM     43  C   UNL A   1      39.868  29.067  29.852  1.00  0.00     0.074 A 
ATOM     44  C   UNL A   1      38.852  28.039  29.941  1.00  0.00     0.031 C 
ATOM     45  C   UNL A   1      44.779  25.854  27.178  1.00  0.00     0.029 A 
ATOM     46  C   UNL A   1      44.775  27.244  27.624  1.00  0.00     0.049 A 
ATOM     47  H   UNL A   1      43.239  28.240  28.624  1.00  0.00     0.167 HD
ATOM     48  C   UNL A   1      39.736  30.328  30.334  1.00  0.00     0.034 A 
ATOM     49  C   UNL A   1      45.787  28.119  27.465  1.00  0.00     0.034 A 
ATOM     50  C   UNL A   1      40.771  31.329  30.235  1.00  0.00     0.049 A 
ATOM     51  C   UNL A   1      45.584  29.546  27.907  1.00  0.00     0.074 A 
ATOM     52  C   UNL A   1      40.749  32.644  30.663  1.00  0.00     0.029 A 
ATOM     53  N   UNL A   1      42.021  31.118  29.666  1.00  0.00    -0.354 N 
ATOM     54  N   UNL A   1      44.526  30.097  28.458  1.00  0.00    -0.248 NA
ATOM     55  C   UNL A   1      46.703  30.471  27.691  1.00  0.00     0.031 C 
ATOM     56  C   UNL A   1      41.962  33.243  30.302  1.00  0.00     0.029 A 
ATOM     57  C   UNL A   1      42.768  32.284  29.708  1.00  0.00     0.049 A 
ATOM     58  H   UNL A   1      42.330  30.264  29.286  1.00  0.00     0.167 HD
ATOM     59  C   UNL A   1      44.862  31.429  28.675  1.00  0.00     0.074 A 
ATOM     60  C   UNL A   1      46.222  31.596  28.200  1.00  0.00     0.031 C 
ATOM     61  C   UNL A   1      44.119  32.425  29.221  1.00  0.00     0.034 A 
BRANCH  48  62
ATOM     62  C   UNL A   1      38.401  30.706  30.927  1.00  0.00     0.023 A 
ATOM     63  C   UNL A   1      37.399  31.338  30.171  1.00  0.00     0.031 A 
ATOM     64  C   UNL A   1      38.146  30.466  32.290  1.00  0.00     0.131 A 
ATOM     65  C   UNL A   1      36.218  31.767  30.797  1.00  0.00     0.055 A 
ATOM     66  C   UNL A   1      36.940  30.832  32.890  1.00  0.00     0.041 A 
ATOM     67  F   UNL A   1      39.076  29.888  33.067  1.00  0.00    -0.206 F 
ATOM     68  C   UNL A   1      35.973  31.499  32.146  1.00  0.00     0.022 A 
BRANCH  65  69
ATOM     69  S   UNL A   1      35.062  32.801  29.856  1.00  0.00     0.124 S 
ATOM     70  O   UNL A   1      35.963  33.777  29.249  1.00  0.00    -0.237 OA
ATOM     71  O   UNL A   1      34.450  31.842  28.944  1.00  0.00    -0.237 OA
ATOM     72  O   UNL A   1      34.171  33.342  30.882  1.00  0.00    -0.744 OA
ENDBRANCH  65  69
ENDBRANCH  48  62
BRANCH  49  73
ATOM     73  C   UNL A   1      47.040  27.698  26.779  1.00  0.00     0.023 A 
ATOM     74  C   UNL A   1      47.190  27.842  25.392  1.00  0.00     0.031 A 
ATOM     75  C   UNL A   1      48.098  27.119  27.503  1.00  0.00     0.131 A 
ATOM     76  C   UNL A   1      48.361  27.385  24.767  1.00  0.00     0.055 A 
ATOM     77  C   UNL A   1      49.280  26.710  26.884  1.00  0.00     0.041 A 
ATOM     78  F   UNL A   1      48.005  26.960  28.832  1.00  0.00    -0.206 F 
ATOM     79  C   UNL A   1      49.411  26.832  25.505  1.00  0.00     0.022 A 
BRANCH  76  80
ATOM     80  S   UNL A   1      48.469  27.466  22.959  1.00  0.00     0.124 S 
ATOM     81  O   UNL A   1      49.735  28.164  22.767  1.00  0.00    -0.237 OA
ATOM     82  O   UNL A   1      48.451  26.054  22.593  1.00  0.00    -0.237 OA
ATOM     83  O   UNL A   1      47.275  28.221  22.581  1.00  0.00    -0.744 OA
ENDBRANCH  76  80
ENDBRANCH  49  73
BRANCH  61  84
ATOM     84  C   UNL A   1      44.789  33.765  29.378  1.00  0.00     0.023 A 
ATOM     85  C   UNL A   1      44.867  34.681  28.316  1.00  0.00     0.031 A 
ATOM     86  C   UNL A   1      45.356  34.124  30.614  1.00  0.00     0.131 A 
ATOM     87  C   UNL A   1      45.534  35.901  28.499  1.00  0.00     0.055 A 
ATOM     88  C   UNL A   1      45.977  35.358  30.803  1.00  0.00     0.041 A 
ATOM     89  F   UNL A   1      45.306  33.280  31.657  1.00  0.00    -0.206 F 
ATOM     90  C   UNL A   1      46.077  36.251  29.739  1.00  0.00     0.022 A 
BRANCH  87  91
ATOM     91  S   UNL A   1      45.737  37.007  27.076  1.00  0.00     0.124 S 
ATOM     92  O   UNL A   1      46.827  37.871  27.517  1.00  0.00    -0.237 OA
ATOM     93  O   UNL A   1      46.056  36.077  25.998  1.00  0.00    -0.237 OA
ATOM     94  O   UNL A   1      44.435  37.662  26.963  1.00  0.00    -0.744 OA
ENDBRANCH  87  91
ENDBRANCH  61  84
ENDBRANCH  35  36
ENDBRANCH  28  30
ENDBRANCH  27  28
ENDBRANCH  26  27
ENDBRANCH   1  26
TORSDOF 18
ENDMDL
MODEL 2
REMARK VINA RESULT:     -12.3      4.928     10.129
REMARK SMILES COc1ccc(NC(=O)[C@@H]2[C@@H](C(=O)OCCOC(=O)c3ccc(-c4c5nc(c(-c6cc(S(=O)(=O)[O-])ccc6F)c6ccc([nH]6)c(-c6cc(S(=O)(=O)[O-])ccc6F)c6nc(c(-c7cc(S(=O)(=O)[O-])ccc7F)c7ccc4[nH]7)C=C6)C=C5)cc3)[C@H]3C=C[C@@H]2C3)cc1O
REMARK SMILES IDX 15 1 14 2 12 3 13 4 11 5 10 6 86 7 83 8 85 9 87 10 84 11
REMARK SMILES IDX 8 12 7 13 9 15 6 16 3 17 4 18 89 19 5 20 88 21 2 22 1 23
REMARK SMILES IDX 90 24 16 26 17 27 18 28 19 29 20 30 21 31 82 32 22 33 81 34
REMARK SMILES IDX 23 35 24 36 25 37 75 38 26 39 80 40 74 41 76 42 27 43 79 44
REMARK SMILES IDX 73 45 72 46 28 48 60 49 40 50 59 51 41 52 44 53 58 54 77 55
REMARK SMILES IDX 42 56 43 57 57 59 78 60 45 61 29 62 30 63 38 64 31 65 37 66
REMARK SMILES IDX 39 67 36 68 32 69 33 70 34 71 35 72 61 73 62 74 70 75 63 76
REMARK SMILES IDX 69 77 71 78 68 79 64 80 65 81 66 82 67 83 46 84 47 85 55 86
REMARK SMILES IDX 48 87 54 88 56 89 53 90 49 91 50 92 51 93 52 94
REMARK H PARENT 7 14 90 25 76 47 44 58
REMARK Flexibility Score: inf
ROOT
ATOM      1  C   UNL A   1      31.273  30.059  25.169  1.00  0.00     0.274 C 
ENDROOT
BRANCH   1   2
ATOM      2  O   UNL A   1      32.134  29.358  24.250  1.00  0.00    -0.462 OA
BRANCH   2   3
ATOM      3  C   UNL A   1      31.839  28.044  24.104  1.00  0.00     0.310 C 
ATOM      4  O   UNL A   1      30.722  27.651  23.785  1.00  0.00    -0.252 OA
BRANCH   3   5
ATOM      5  C   UNL A   1      32.976  27.082  24.406  1.00  0.00     0.119 C 
ATOM      6  C   UNL A   1      32.683  25.631  23.937  1.00  0.00     0.100 C 
ATOM      7  C   UNL A   1      32.986  24.839  25.264  1.00  0.00     0.025 C 
ATOM      8  C   UNL A   1      33.346  26.945  25.905  1.00  0.00     0.027 C 
ATOM      9  C   UNL A   1      31.944  25.181  26.307  1.00  0.00    -0.027 C 
ATOM     10  C   UNL A   1      34.156  25.647  25.849  1.00  0.00     0.017 C 
ATOM     11  C   UNL A   1      32.176  26.439  26.705  1.00  0.00    -0.027 C 
BRANCH   6  12
ATOM     12  C   UNL A   1      33.486  24.951  22.814  1.00  0.00     0.228 C 
ATOM     13  N   UNL A   1      33.705  23.623  22.631  1.00  0.00    -0.326 N 
ATOM     14  H   UNL A   1      34.083  23.422  21.745  1.00  0.00     0.169 HD
ATOM     15  O   UNL A   1      33.965  25.677  21.927  1.00  0.00    -0.274 OA
BRANCH  13  16
ATOM     16  C   UNL A   1      33.520  22.476  23.407  1.00  0.00     0.045 A 
ATOM     17  C   UNL A   1      33.452  19.967  24.633  1.00  0.00     0.160 A 
ATOM     18  C   UNL A   1      32.304  20.478  24.039  1.00  0.00     0.052 A 
ATOM     19  C   UNL A   1      34.581  20.772  24.740  1.00  0.00     0.159 A 
ATOM     20  C   UNL A   1      32.333  21.752  23.447  1.00  0.00     0.030 A 
ATOM     21  C   UNL A   1      34.609  22.039  24.167  1.00  0.00     0.076 A 
BRANCH  17  22
ATOM     22  O   UNL A   1      33.563  18.637  24.924  1.00  0.00    -0.493 OA
ATOM     23  C   UNL A   1      33.094  17.789  23.884  1.00  0.00     0.278 C 
ENDBRANCH  17  22
BRANCH  19  24
ATOM     24  O   UNL A   1      35.716  20.312  25.343  1.00  0.00    -0.504 OA
ATOM     25  H   UNL A   1      36.556  20.539  24.994  1.00  0.00     0.293 HD
ENDBRANCH  19  24
ENDBRANCH  13  16
ENDBRANCH   6  12
ENDBRANCH   3   5
ENDBRANCH   2   3
ENDBRANCH   1   2
BRANCH   1  26
ATOM     26  C   UNL A   1      31.903  30.268  26.551  1.00  0.00     0.275 C 
BRANCH  26  27
ATOM     27  O   UNL A   1      33.327  30.469  26.477  1.00  0.00    -0.458 OA
BRANCH  27  28
ATOM     28  C   UNL A   1      33.829  31.372  27.351  1.00  0.00     0.338 C 
ATOM     29  O   UNL A   1      33.262  32.356  27.797  1.00  0.00    -0.246 OA
BRANCH  28  30
ATOM     30  C   UNL A   1      35.202  31.008  27.740  1.00  0.00     0.060 A 
ATOM     31  C   UNL A   1      35.513  29.679  28.035  1.00  0.00     0.016 A 
ATOM     32  C   UNL A   1      36.137  32.013  27.979  1.00  0.00     0.016 A 
ATOM     33  C   UNL A   1      36.730  29.348  28.618  1.00  0.00     0.010 A 
ATOM     34  C   UNL A   1      37.380  31.676  28.521  1.00  0.00     0.010 A 
ATOM     35  C   UNL A   1      37.673  30.345  28.872  1.00  0.00    -0.014 A 
BRANCH  35  36
ATOM     36  C   UNL A   1      38.937  30.023  29.574  1.00  0.00     0.031 A 
ATOM     37  C   UNL A   1      39.867  29.010  28.973  1.00  0.00     0.074 A 
ATOM     38  C   UNL A   1      39.243  30.625  30.737  1.00  0.00     0.049 A 
ATOM     39  N   UNL A   1      40.877  28.384  29.516  1.00  0.00    -0.248 NA
ATOM     40  C   UNL A   1      39.618  28.653  27.568  1.00  0.00     0.031 C 
ATOM     41  C   UNL A   1      38.474  31.703  31.362  1.00  0.00     0.029 A 
ATOM     42  N   UNL A   1      40.275  30.399  31.612  1.00  0.00    -0.354 N 
ATOM     43  C   UNL A   1      41.361  27.526  28.534  1.00  0.00     0.074 A 
ATOM     44  C   UNL A   1      40.530  27.713  27.362  1.00  0.00     0.031 C 
ATOM     45  C   UNL A   1      39.049  32.028  32.531  1.00  0.00     0.029 A 
ATOM     46  C   UNL A   1      40.172  31.128  32.774  1.00  0.00     0.049 A 
ATOM     47  H   UNL A   1      41.015  29.776  31.428  1.00  0.00     0.167 HD
ATOM     48  C   UNL A   1      42.398  26.656  28.615  1.00  0.00     0.034 A 
ATOM     49  C   UNL A   1      40.861  31.031  33.927  1.00  0.00     0.034 A 
ATOM     50  C   UNL A   1      43.211  26.498  29.796  1.00  0.00     0.049 A 
ATOM     51  C   UNL A   1      41.939  29.983  34.039  1.00  0.00     0.074 A 
ATOM     52  C   UNL A   1      44.273  25.637  30.010  1.00  0.00     0.029 A 
ATOM     53  N   UNL A   1      43.050  27.226  30.969  1.00  0.00    -0.354 N 
ATOM     54  N   UNL A   1      42.338  29.111  33.141  1.00  0.00    -0.248 NA
ATOM     55  C   UNL A   1      42.647  29.896  35.322  1.00  0.00     0.031 C 
ATOM     56  C   UNL A   1      44.714  25.804  31.328  1.00  0.00     0.029 A 
ATOM     57  C   UNL A   1      43.974  26.816  31.917  1.00  0.00     0.049 A 
ATOM     58  H   UNL A   1      42.376  27.931  31.107  1.00  0.00     0.167 HD
ATOM     59  C   UNL A   1      43.360  28.386  33.746  1.00  0.00     0.074 A 
ATOM     60  C   UNL A   1      43.519  28.927  35.082  1.00  0.00     0.031 C 
ATOM     61  C   UNL A   1      44.105  27.368  33.244  1.00  0.00     0.034 A 
BRANCH  48  62
ATOM     62  C   UNL A   1      42.645  25.760  27.426  1.00  0.00     0.023 A 
ATOM     63  C   UNL A   1      42.116  24.460  27.347  1.00  0.00     0.031 A 
ATOM     64  C   UNL A   1      43.463  26.204  26.371  1.00  0.00     0.131 A 
ATOM     65  C   UNL A   1      42.465  23.628  26.272  1.00  0.00     0.055 A 
ATOM     66  C   UNL A   1      43.748  25.397  25.269  1.00  0.00     0.041 A 
ATOM     67  F   UNL A   1      44.016  27.428  26.404  1.00  0.00    -0.206 F 
ATOM     68  C   UNL A   1      43.260  24.095  25.222  1.00  0.00     0.022 A 
BRANCH  65  69
ATOM     69  S   UNL A   1      41.977  21.882  26.329  1.00  0.00     0.124 S 
ATOM     70  O   UNL A   1      40.548  21.964  26.041  1.00  0.00    -0.237 OA
ATOM     71  O   UNL A   1      42.807  21.287  25.287  1.00  0.00    -0.237 OA
ATOM     72  O   UNL A   1      42.307  21.477  27.695  1.00  0.00    -0.744 OA
ENDBRANCH  65  69
ENDBRANCH  48  62
BRANCH  49  73
ATOM     73  C   UNL A   1      40.493  31.882  35.093  1.00  0.00     0.023 A 
ATOM     74  C   UNL A   1      39.447  31.519  35.954  1.00  0.00     0.031 A 
ATOM     75  C   UNL A   1      41.170  33.090  35.346  1.00  0.00     0.131 A 
ATOM     76  C   UNL A   1      39.089  32.370  37.011  1.00  0.00     0.055 A 
ATOM     77  C   UNL A   1      40.841  33.908  36.427  1.00  0.00     0.041 A 
ATOM     78  F   UNL A   1      42.179  33.482  34.553  1.00  0.00    -0.206 F 
ATOM     79  C   UNL A   1      39.786  33.555  37.261  1.00  0.00     0.022 A 
BRANCH  76  80
ATOM     80  S   UNL A   1      37.649  31.936  38.026  1.00  0.00     0.124 S 
ATOM     81  O   UNL A   1      38.161  32.148  39.375  1.00  0.00    -0.237 OA
ATOM     82  O   UNL A   1      36.652  32.892  37.557  1.00  0.00    -0.237 OA
ATOM     83  O   UNL A   1      37.390  30.542  37.668  1.00  0.00    -0.744 OA
ENDBRANCH  76  80
ENDBRANCH  49  73
BRANCH  61  84
ATOM     84  C   UNL A   1      45.191  26.819  34.132  1.00  0.00     0.023 A 
ATOM     85  C   UNL A   1      44.999  25.660  34.901  1.00  0.00     0.031 A 
ATOM     86  C   UNL A   1      46.435  27.470  34.202  1.00  0.00     0.131 A 
ATOM     87  C   UNL A   1      46.026  25.207  35.743  1.00  0.00     0.055 A 
ATOM     88  C   UNL A   1      47.468  26.989  35.005  1.00  0.00     0.041 A 
ATOM     89  F   UNL A   1      46.664  28.582  33.485  1.00  0.00    -0.206 F 
ATOM     90  C   UNL A   1      47.264  25.856  35.789  1.00  0.00     0.022 A 
BRANCH  87  91
ATOM     91  S   UNL A   1      45.706  23.788  36.825  1.00  0.00     0.124 S 
ATOM     92  O   UNL A   1      47.022  23.163  36.902  1.00  0.00    -0.237 OA
ATOM     93  O   UNL A   1      45.230  24.426  38.048  1.00  0.00    -0.237 OA
ATOM     94  O   UNL A   1      44.697  23.021  36.096  1.00  0.00    -0.744 OA
ENDBRANCH  87  91
ENDBRANCH  61  84
ENDBRANCH  35  36
ENDBRANCH  28  30
ENDBRANCH  27  28
ENDBRANCH  26  27
ENDBRANCH   1  26
TORSDOF 18
ENDMDL
MODEL 3
REMARK VINA RESULT:     -12.3      1.322      1.634
REMARK SMILES COc1ccc(NC(=O)[C@@H]2[C@@H](C(=O)OCCOC(=O)c3ccc(-c4c5nc(c(-c6cc(S(=O)(=O)[O-])ccc6F)c6ccc([nH]6)c(-c6cc(S(=O)(=O)[O-])ccc6F)c6nc(c(-c7cc(S(=O)(=O)[O-])ccc7F)c7ccc4[nH]7)C=C6)C=C5)cc3)[C@H]3C=C[C@@H]2C3)cc1O
REMARK SMILES IDX 15 1 14 2 12 3 13 4 11 5 10 6 86 7 83 8 85 9 87 10 84 11
REMARK SMILES IDX 8 12 7 13 9 15 6 16 3 17 4 18 89 19 5 20 88 21 2 22 1 23
REMARK SMILES IDX 90 24 16 26 17 27 18 28 19 29 20 30 21 31 82 32 22 33 81 34
REMARK SMILES IDX 23 35 24 36 25 37 75 38 26 39 80 40 74 41 76 42 27 43 79 44
REMARK SMILES IDX 73 45 72 46 28 48 60 49 40 50 59 51 41 52 44 53 58 54 77 55
REMARK SMILES IDX 42 56 43 57 57 59 78 60 45 61 29 62 30 63 38 64 31 65 37 66
REMARK SMILES IDX 39 67 36 68 32 69 33 70 34 71 35 72 61 73 62 74 70 75 63 76
REMARK SMILES IDX 69 77 71 78 68 79 64 80 65 81 66 82 67 83 46 84 47 85 55 86
REMARK SMILES IDX 48 87 54 88 56 89 53 90 49 91 50 92 51 93 52 94
REMARK H PARENT 7 14 90 25 76 47 44 58
REMARK Flexibility Score: inf
ROOT
ATOM      1  C   UNL A   1      35.454  20.396  24.791  1.00  0.00     0.274 C 
ENDROOT
BRANCH   1   2
ATOM      2  O   UNL A   1      34.889  21.089  25.920  1.00  0.00    -0.462 OA
BRANCH   2   3
ATOM      3  C   UNL A   1      33.740  21.754  25.647  1.00  0.00     0.310 C 
ATOM      4  O   UNL A   1      32.769  21.208  25.134  1.00  0.00    -0.252 OA
BRANCH   3   5
ATOM      5  C   UNL A   1      33.750  23.237  25.977  1.00  0.00     0.119 C 
ATOM      6  C   UNL A   1      32.483  23.979  25.473  1.00  0.00     0.100 C 
ATOM      7  C   UNL A   1      33.147  25.167  24.681  1.00  0.00     0.025 C 
ATOM      8  C   UNL A   1      34.938  24.039  25.385  1.00  0.00     0.027 C 
ATOM      9  C   UNL A   1      33.854  24.627  23.457  1.00  0.00    -0.027 C 
ATOM     10  C   UNL A   1      34.388  25.459  25.541  1.00  0.00     0.017 C 
ATOM     11  C   UNL A   1      34.940  23.968  23.882  1.00  0.00    -0.027 C 
BRANCH   6  12
ATOM     12  C   UNL A   1      31.454  24.600  26.435  1.00  0.00     0.228 C 
ATOM     13  N   UNL A   1      30.640  25.663  26.213  1.00  0.00    -0.326 N 
ATOM     14  H   UNL A   1      29.941  25.753  26.901  1.00  0.00     0.169 HD
ATOM     15  O   UNL A   1      31.296  24.054  27.540  1.00  0.00    -0.274 OA
BRANCH  13  16
ATOM     16  C   UNL A   1      30.562  26.661  25.238  1.00  0.00     0.045 A 
ATOM     17  C   UNL A   1      30.159  28.909  23.631  1.00  0.00     0.160 A 
ATOM     18  C   UNL A   1      29.536  27.709  23.310  1.00  0.00     0.052 A 
ATOM     19  C   UNL A   1      31.092  28.939  24.662  1.00  0.00     0.159 A 
ATOM     20  C   UNL A   1      29.762  26.572  24.103  1.00  0.00     0.030 A 
ATOM     21  C   UNL A   1      31.328  27.812  25.441  1.00  0.00     0.076 A 
BRANCH  17  22
ATOM     22  O   UNL A   1      29.728  30.092  23.099  1.00  0.00    -0.493 OA
ATOM     23  C   UNL A   1      29.754  30.116  21.678  1.00  0.00     0.278 C 
ENDBRANCH  17  22
BRANCH  19  24
ATOM     24  O   UNL A   1      31.743  30.094  24.986  1.00  0.00    -0.504 OA
ATOM     25  H   UNL A   1      32.076  30.217  25.853  1.00  0.00     0.293 HD
ENDBRANCH  19  24
ENDBRANCH  13  16
ENDBRANCH   6  12
ENDBRANCH   3   5
ENDBRANCH   2   3
ENDBRANCH   1   2
BRANCH   1  26
ATOM     26  C   UNL A   1      36.949  20.672  24.596  1.00  0.00     0.275 C 
BRANCH  26  27
ATOM     27  O   UNL A   1      37.479  21.546  25.610  1.00  0.00    -0.458 OA
BRANCH  27  28
ATOM     28  C   UNL A   1      38.776  21.333  25.936  1.00  0.00     0.338 C 
ATOM     29  O   UNL A   1      39.436  20.335  25.706  1.00  0.00    -0.246 OA
BRANCH  28  30
ATOM     30  C   UNL A   1      39.337  22.510  26.621  1.00  0.00     0.060 A 
ATOM     31  C   UNL A   1      38.934  23.793  26.244  1.00  0.00     0.016 A 
ATOM     32  C   UNL A   1      40.390  22.344  27.518  1.00  0.00     0.016 A 
ATOM     33  C   UNL A   1      39.608  24.914  26.713  1.00  0.00     0.010 A 
ATOM     34  C   UNL A   1      41.040  23.473  28.027  1.00  0.00     0.010 A 
ATOM     35  C   UNL A   1      40.672  24.763  27.605  1.00  0.00    -0.014 A 
BRANCH  35  36
ATOM     36  C   UNL A   1      41.457  25.941  28.042  1.00  0.00     0.031 A 
ATOM     37  C   UNL A   1      40.779  27.014  28.842  1.00  0.00     0.074 A 
ATOM     38  C   UNL A   1      42.759  26.048  27.721  1.00  0.00     0.049 A 
ATOM     39  N   UNL A   1      41.176  28.230  29.107  1.00  0.00    -0.248 NA
ATOM     40  C   UNL A   1      39.470  26.666  29.416  1.00  0.00     0.031 C 
ATOM     41  C   UNL A   1      43.554  25.022  27.044  1.00  0.00     0.029 A 
ATOM     42  N   UNL A   1      43.638  27.086  27.904  1.00  0.00    -0.354 N 
ATOM     43  C   UNL A   1      40.149  28.810  29.844  1.00  0.00     0.074 A 
ATOM     44  C   UNL A   1      39.111  27.810  29.982  1.00  0.00     0.031 C 
ATOM     45  C   UNL A   1      44.796  25.490  26.849  1.00  0.00     0.029 A 
ATOM     46  C   UNL A   1      44.861  26.873  27.310  1.00  0.00     0.049 A 
ATOM     47  H   UNL A   1      43.416  27.901  28.410  1.00  0.00     0.167 HD
ATOM     48  C   UNL A   1      40.083  30.068  30.347  1.00  0.00     0.034 A 
ATOM     49  C   UNL A   1      45.886  27.721  27.101  1.00  0.00     0.034 A 
ATOM     50  C   UNL A   1      41.139  31.039  30.197  1.00  0.00     0.049 A 
ATOM     51  C   UNL A   1      45.752  29.147  27.569  1.00  0.00     0.074 A 
ATOM     52  C   UNL A   1      41.182  32.349  30.640  1.00  0.00     0.029 A 
ATOM     53  N   UNL A   1      42.348  30.800  29.553  1.00  0.00    -0.354 N 
ATOM     54  N   UNL A   1      44.746  29.721  28.188  1.00  0.00    -0.248 NA
ATOM     55  C   UNL A   1      46.884  30.042  27.298  1.00  0.00     0.031 C 
ATOM     56  C   UNL A   1      42.389  32.917  30.214  1.00  0.00     0.029 A 
ATOM     57  C   UNL A   1      43.130  31.943  29.563  1.00  0.00     0.049 A 
ATOM     58  H   UNL A   1      42.609  29.942  29.146  1.00  0.00     0.167 HD
ATOM     59  C   UNL A   1      45.133  31.041  28.399  1.00  0.00     0.074 A 
ATOM     60  C   UNL A   1      46.467  31.174  27.846  1.00  0.00     0.031 C 
ATOM     61  C   UNL A   1      44.453  32.051  28.998  1.00  0.00     0.034 A 
BRANCH  48  62
ATOM     62  C   UNL A   1      38.798  30.476  31.022  1.00  0.00     0.023 A 
ATOM     63  C   UNL A   1      37.732  31.057  30.312  1.00  0.00     0.031 A 
ATOM     64  C   UNL A   1      38.655  30.320  32.413  1.00  0.00     0.131 A 
ATOM     65  C   UNL A   1      36.602  31.520  31.004  1.00  0.00     0.055 A 
ATOM     66  C   UNL A   1      37.498  30.717  33.085  1.00  0.00     0.041 A 
ATOM     67  F   UNL A   1      39.649  29.793  33.146  1.00  0.00    -0.206 F 
ATOM     68  C   UNL A   1      36.469  31.334  32.383  1.00  0.00     0.022 A 
BRANCH  65  69
ATOM     69  S   UNL A   1      35.365  32.491  30.099  1.00  0.00     0.124 S 
ATOM     70  O   UNL A   1      34.284  32.579  31.077  1.00  0.00    -0.237 OA
ATOM     71  O   UNL A   1      36.079  33.732  29.821  1.00  0.00    -0.237 OA
ATOM     72  O   UNL A   1      35.070  31.666  28.928  1.00  0.00    -0.744 OA
ENDBRANCH  65  69
ENDBRANCH  48  62
BRANCH  49  73
ATOM     73  C   UNL A   1      47.084  27.272  26.337  1.00  0.00     0.023 A 
ATOM     74  C   UNL A   1      48.135  26.592  26.969  1.00  0.00     0.031 A 
ATOM     75  C   UNL A   1      47.205  27.546  24.962  1.00  0.00     0.131 A 
ATOM     76  C   UNL A   1      49.274  26.232  26.232  1.00  0.00     0.055 A 
ATOM     77  C   UNL A   1      48.318  27.143  24.223  1.00  0.00     0.041 A 
ATOM     78  F   UNL A   1      46.227  28.193  24.309  1.00  0.00    -0.206 F 
ATOM     79  C   UNL A   1      49.367  26.492  24.862  1.00  0.00     0.022 A 
BRANCH  76  80
ATOM     80  S   UNL A   1      50.669  25.470  27.106  1.00  0.00     0.124 S 
ATOM     81  O   UNL A   1      50.030  24.323  27.742  1.00  0.00    -0.237 OA
ATOM     82  O   UNL A   1      51.583  25.171  26.010  1.00  0.00    -0.237 OA
ATOM     83  O   UNL A   1      51.113  26.523  28.018  1.00  0.00    -0.744 OA
ENDBRANCH  76  80
ENDBRANCH  49  73
BRANCH  61  84
ATOM     84  C   UNL A   1      45.171  33.368  29.130  1.00  0.00     0.023 A 
ATOM     85  C   UNL A   1      45.089  34.356  28.135  1.00  0.00     0.031 A 
ATOM     86  C   UNL A   1      45.946  33.633  30.273  1.00  0.00     0.131 A 
ATOM     87  C   UNL A   1      45.806  35.553  28.285  1.00  0.00     0.055 A 
ATOM     88  C   UNL A   1      46.619  34.843  30.438  1.00  0.00     0.041 A 
ATOM     89  F   UNL A   1      46.054  32.718  31.250  1.00  0.00    -0.206 F 
ATOM     90  C   UNL A   1      46.558  35.808  29.435  1.00  0.00     0.022 A 
BRANCH  87  91
ATOM     91  S   UNL A   1      45.791  36.755  26.927  1.00  0.00     0.124 S 
ATOM     92  O   UNL A   1      46.252  35.947  25.803  1.00  0.00    -0.237 OA
ATOM     93  O   UNL A   1      44.392  37.166  26.886  1.00  0.00    -0.237 OA
ATOM     94  O   UNL A   1      46.726  37.787  27.372  1.00  0.00    -0.744 OA
ENDBRANCH  87  91
ENDBRANCH  61  84
ENDBRANCH  35  36
ENDBRANCH  28  30
ENDBRANCH  27  28
ENDBRANCH  26  27
ENDBRANCH   1  26
TORSDOF 18
ENDMDL
