MODEL 1
REMARK VINA RESULT:     -14.5      0.000      0.000
REMARK SMILES O=C(NC1(C(=O)OCCOC(=O)c2ccc(-c3c4nc(c(-c5cc(S(=O)(=O)[O-])ccc5F)c5ccc([nH]5)c(-c5cc(S(=O)(=O)[O-])ccc5F)c5nc(c(-c6cc(S(=O)(=O)[O-])ccc6F)c6ccc3[nH]6)C=C5)C=C4)cc2)CC[NH2+]CC1)OCC1c2ccccc2-c2ccccc21
REMARK SMILES IDX 8 1 7 2 5 3 6 4 4 5 76 6 80 7 77 8 79 9 78 10 3 13 1 14 2 15
REMARK SMILES IDX 81 17 82 18 83 19 84 20 95 21 85 22 89 23 90 24 94 25 86 26
REMARK SMILES IDX 88 27 91 28 93 29 87 30 92 31 9 32 10 33 11 34 12 35 13 36
REMARK SMILES IDX 14 37 75 38 15 39 74 40 16 41 17 42 18 43 68 44 19 45 73 46
REMARK SMILES IDX 67 47 69 48 20 49 72 50 66 51 65 52 21 54 53 55 33 56 52 57
REMARK SMILES IDX 34 58 37 59 51 60 70 61 35 62 36 63 50 65 71 66 38 67 22 68
REMARK SMILES IDX 23 69 31 70 24 71 30 72 32 73 29 74 25 75 26 76 27 77 28 78
REMARK SMILES IDX 54 79 55 80 63 81 56 82 62 83 64 84 61 85 57 86 58 87 59 88
REMARK SMILES IDX 60 89 39 90 40 91 48 92 41 93 47 94 49 95 46 96 42 97 43 98
REMARK SMILES IDX 44 99 45 100
REMARK H PARENT 78 11 78 12 3 16 69 53 37 64
REMARK Flexibility Score: inf
ROOT
ATOM      1  C   UNL A   1      31.403  31.565  26.464  1.00  0.00     0.274 C 
ENDROOT
BRANCH   1   2
ATOM      2  O   UNL A   1      31.758  29.852  26.006  1.00  0.00    -0.460 OA
BRANCH   2   3
ATOM      3  C   UNL A   1      31.576  28.090  26.707  1.00  0.00     0.332 C 
ATOM      4  O   UNL A   1      31.416  27.781  27.937  1.00  0.00    -0.249 OA
BRANCH   3   5
ATOM      5  C   UNL A   1      31.748  26.687  25.907  1.00  0.00     0.151 C 
ATOM      6  C   UNL A   1      30.466  26.763  24.418  1.00  0.00     0.102 C 
ATOM      7  C   UNL A   1      33.523  25.842  25.705  1.00  0.00     0.102 C 
ATOM      8  C   UNL A   1      31.121  26.056  22.753  1.00  0.00     0.263 C 
ATOM      9  C   UNL A   1      33.989  25.220  23.914  1.00  0.00     0.263 C 
ATOM     10  N   UNL A   1      32.844  25.463  22.507  1.00  0.00    -0.346 N 
ATOM     11  H   UNL A   1      33.292  26.136  21.884  1.00  0.00     0.346 HD
ATOM     12  H   UNL A   1      32.699  24.509  22.177  1.00  0.00     0.346 HD
BRANCH   5  13
ATOM     13  N   UNL A   1      31.087  25.753  26.859  1.00  0.00    -0.305 N 
ATOM     14  O   UNL A   1      29.737  23.930  26.902  1.00  0.00    -0.225 OA
ATOM     15  C   UNL A   1      30.611  24.606  26.372  1.00  0.00     0.408 C 
ATOM     16  H   UNL A   1      31.006  25.973  27.815  1.00  0.00     0.168 HD
BRANCH  15  17
ATOM     17  O   UNL A   1      31.113  24.380  25.148  1.00  0.00    -0.449 OA
BRANCH  17  18
ATOM     18  C   UNL A   1      31.375  22.953  24.708  1.00  0.00     0.248 C 
BRANCH  18  19
ATOM     19  C   UNL A   1      32.733  21.422  25.298  1.00  0.00     0.088 C 
ATOM     20  C   UNL A   1      33.084  19.790  24.964  1.00  0.00    -0.029 A 
ATOM     21  C   UNL A   1      34.404  21.567  26.122  1.00  0.00    -0.029 A 
ATOM     22  C   UNL A   1      32.306  18.655  25.193  1.00  0.00     0.005 A 
ATOM     23  C   UNL A   1      34.467  19.693  24.507  1.00  0.00    -0.014 A 
ATOM     24  C   UNL A   1      35.111  21.020  24.604  1.00  0.00    -0.014 A 
ATOM     25  C   UNL A   1      35.178  22.894  27.092  1.00  0.00     0.005 A 
ATOM     26  C   UNL A   1      32.915  17.409  25.103  1.00  0.00     0.000 A 
ATOM     27  C   UNL A   1      35.075  18.445  24.571  1.00  0.00     0.009 A 
ATOM     28  C   UNL A   1      36.309  22.057  23.805  1.00  0.00     0.009 A 
ATOM     29  C   UNL A   1      36.606  23.796  26.464  1.00  0.00     0.000 A 
ATOM     30  C   UNL A   1      34.295  17.310  24.871  1.00  0.00     0.001 A 
ATOM     31  C   UNL A   1      37.156  23.440  24.758  1.00  0.00     0.001 A 
ENDBRANCH  18  19
ENDBRANCH  17  18
ENDBRANCH  15  17
ENDBRANCH   5  13
ENDBRANCH   3   5
ENDBRANCH   2   3
ENDBRANCH   1   2
BRANCH   1  32
ATOM     32  C   UNL A   1      32.488  32.539  27.489  1.00  0.00     0.275 C 
BRANCH  32  33
ATOM     33  O   UNL A   1      32.233  34.042  27.746  1.00  0.00    -0.458 OA
BRANCH  33  34
ATOM     34  C   UNL A   1      32.956  34.838  28.635  1.00  0.00     0.338 C 
ATOM     35  O   UNL A   1      32.517  35.879  29.106  1.00  0.00    -0.246 OA
BRANCH  34  36
ATOM     36  C   UNL A   1      34.266  34.222  29.191  1.00  0.00     0.060 A 
ATOM     37  C   UNL A   1      34.290  33.479  30.388  1.00  0.00     0.016 A 
ATOM     38  C   UNL A   1      35.529  34.544  28.694  1.00  0.00     0.016 A 
ATOM     39  C   UNL A   1      35.460  32.903  30.958  1.00  0.00     0.010 A 
ATOM     40  C   UNL A   1      36.724  34.028  29.298  1.00  0.00     0.010 A 
ATOM     41  C   UNL A   1      36.714  33.164  30.417  1.00  0.00    -0.014 A 
BRANCH  41  42
ATOM     42  C   UNL A   1      37.987  32.699  31.093  1.00  0.00     0.031 A 
ATOM     43  C   UNL A   1      38.745  31.529  30.504  1.00  0.00     0.074 A 
ATOM     44  C   UNL A   1      38.523  33.292  32.188  1.00  0.00     0.049 A 
ATOM     45  N   UNL A   1      39.685  30.778  31.024  1.00  0.00    -0.248 NA
ATOM     46  C   UNL A   1      38.386  31.170  29.126  1.00  0.00     0.031 C 
ATOM     47  C   UNL A   1      38.055  34.537  32.792  1.00  0.00     0.029 A 
ATOM     48  N   UNL A   1      39.583  32.919  32.997  1.00  0.00    -0.354 N 
ATOM     49  C   UNL A   1      39.991  29.820  30.059  1.00  0.00     0.074 A 
ATOM     50  C   UNL A   1      39.137  30.098  28.920  1.00  0.00     0.031 C 
ATOM     51  C   UNL A   1      38.802  34.811  33.878  1.00  0.00     0.029 A 
ATOM     52  C   UNL A   1      39.757  33.725  34.106  1.00  0.00     0.049 A 
ATOM     53  H   UNL A   1      40.161  32.147  32.801  1.00  0.00     0.167 HD
ATOM     54  C   UNL A   1      40.883  28.795  30.120  1.00  0.00     0.034 A 
ATOM     55  C   UNL A   1      40.543  33.585  35.202  1.00  0.00     0.034 A 
ATOM     56  C   UNL A   1      41.750  28.544  31.251  1.00  0.00     0.049 A 
ATOM     57  C   UNL A   1      41.423  32.353  35.328  1.00  0.00     0.074 A 
ATOM     58  C   UNL A   1      42.659  27.516  31.431  1.00  0.00     0.029 A 
ATOM     59  N   UNL A   1      41.819  29.333  32.393  1.00  0.00    -0.354 N 
ATOM     60  N   UNL A   1      41.613  31.380  34.467  1.00  0.00    -0.248 NA
ATOM     61  C   UNL A   1      42.180  32.193  36.580  1.00  0.00     0.031 C 
ATOM     62  C   UNL A   1      43.209  27.629  32.712  1.00  0.00     0.029 A 
ATOM     63  C   UNL A   1      42.722  28.788  33.296  1.00  0.00     0.049 A 
ATOM     64  H   UNL A   1      41.302  30.157  32.541  1.00  0.00     0.167 HD
ATOM     65  C   UNL A   1      42.537  30.518  35.059  1.00  0.00     0.074 A 
ATOM     66  C   UNL A   1      42.876  31.091  36.344  1.00  0.00     0.031 C 
ATOM     67  C   UNL A   1      43.060  29.360  34.579  1.00  0.00     0.034 A 
BRANCH  54  68
ATOM     68  C   UNL A   1      40.885  27.802  28.978  1.00  0.00     0.023 A 
ATOM     69  C   UNL A   1      41.847  27.827  27.953  1.00  0.00     0.031 A 
ATOM     70  C   UNL A   1      39.866  26.833  28.896  1.00  0.00     0.131 A 
ATOM     71  C   UNL A   1      41.719  26.961  26.853  1.00  0.00     0.055 A 
ATOM     72  C   UNL A   1      39.798  25.916  27.846  1.00  0.00     0.041 A 
ATOM     73  F   UNL A   1      38.906  26.771  29.832  1.00  0.00    -0.206 F 
ATOM     74  C   UNL A   1      40.717  25.989  26.805  1.00  0.00     0.022 A 
BRANCH  71  75
ATOM     75  S   UNL A   1      42.779  27.230  25.404  1.00  0.00     0.124 S 
ATOM     76  O   UNL A   1      42.121  28.367  24.765  1.00  0.00    -0.237 OA
ATOM     77  O   UNL A   1      44.079  27.499  26.007  1.00  0.00    -0.237 OA
ATOM     78  O   UNL A   1      42.682  25.971  24.668  1.00  0.00    -0.744 OA
ENDBRANCH  71  75
ENDBRANCH  54  68
BRANCH  55  79
ATOM     79  C   UNL A   1      40.483  34.565  36.343  1.00  0.00     0.023 A 
ATOM     80  C   UNL A   1      41.540  35.457  36.614  1.00  0.00     0.031 A 
ATOM     81  C   UNL A   1      39.406  34.548  37.251  1.00  0.00     0.131 A 
ATOM     82  C   UNL A   1      41.517  36.252  37.776  1.00  0.00     0.055 A 
ATOM     83  C   UNL A   1      39.357  35.389  38.366  1.00  0.00     0.041 A 
ATOM     84  F   UNL A   1      38.382  33.700  37.076  1.00  0.00    -0.206 F 
ATOM     85  C   UNL A   1      40.423  36.239  38.642  1.00  0.00     0.022 A 
BRANCH  82  86
ATOM     86  S   UNL A   1      42.989  37.225  38.210  1.00  0.00     0.124 S 
ATOM     87  O   UNL A   1      43.421  37.710  36.904  1.00  0.00    -0.237 OA
ATOM     88  O   UNL A   1      42.439  38.224  39.119  1.00  0.00    -0.237 OA
ATOM     89  O   UNL A   1      43.876  36.243  38.833  1.00  0.00    -0.744 OA
ENDBRANCH  82  86
ENDBRANCH  55  79
BRANCH  67  90
ATOM     90  C   UNL A   1      44.111  28.665  35.416  1.00  0.00     0.023 A 
ATOM     91  C   UNL A   1      43.794  27.613  36.295  1.00  0.00     0.031 A 
ATOM     92  C   UNL A   1      45.459  29.064  35.330  1.00  0.00     0.131 A 
ATOM     93  C   UNL A   1      44.799  27.037  37.090  1.00  0.00     0.055 A 
ATOM     94  C   UNL A   1      46.463  28.441  36.070  1.00  0.00     0.041 A 
ATOM     95  F   UNL A   1      45.823  30.067  34.515  1.00  0.00    -0.206 F 
ATOM     96  C   UNL A   1      46.134  27.429  36.967  1.00  0.00     0.022 A 
BRANCH  93  97
ATOM     97  S   UNL A   1      44.324  25.836  38.366  1.00  0.00     0.124 S 
ATOM     98  O   UNL A   1      45.467  24.928  38.366  1.00  0.00    -0.237 OA
ATOM     99  O   UNL A   1      44.178  26.677  39.549  1.00  0.00    -0.237 OA
ATOM    100  O   UNL A   1      43.079  25.266  37.854  1.00  0.00    -0.744 OA
ENDBRANCH  93  97
ENDBRANCH  67  90
ENDBRANCH  41  42
ENDBRANCH  34  36
ENDBRANCH  33  34
ENDBRANCH  32  33
ENDBRANCH   1  32
TORSDOF 18
ENDMDL
MODEL 2
REMARK VINA RESULT:     -14.3      2.213      3.256
REMARK SMILES O=C(NC1(C(=O)OCCOC(=O)c2ccc(-c3c4nc(c(-c5cc(S(=O)(=O)[O-])ccc5F)c5ccc([nH]5)c(-c5cc(S(=O)(=O)[O-])ccc5F)c5nc(c(-c6cc(S(=O)(=O)[O-])ccc6F)c6ccc3[nH]6)C=C5)C=C4)cc2)CC[NH2+]CC1)OCC1c2ccccc2-c2ccccc21
REMARK SMILES IDX 8 1 7 2 5 3 6 4 4 5 76 6 80 7 77 8 79 9 78 10 3 13 1 14 2 15
REMARK SMILES IDX 81 17 82 18 83 19 84 20 95 21 85 22 89 23 90 24 94 25 86 26
REMARK SMILES IDX 88 27 91 28 93 29 87 30 92 31 9 32 10 33 11 34 12 35 13 36
REMARK SMILES IDX 14 37 75 38 15 39 74 40 16 41 17 42 18 43 68 44 19 45 73 46
REMARK SMILES IDX 67 47 69 48 20 49 72 50 66 51 65 52 21 54 53 55 33 56 52 57
REMARK SMILES IDX 34 58 37 59 51 60 70 61 35 62 36 63 50 65 71 66 38 67 22 68
REMARK SMILES IDX 23 69 31 70 24 71 30 72 32 73 29 74 25 75 26 76 27 77 28 78
REMARK SMILES IDX 54 79 55 80 63 81 56 82 62 83 64 84 61 85 57 86 58 87 59 88
REMARK SMILES IDX 60 89 39 90 40 91 48 92 41 93 47 94 49 95 46 96 42 97 43 98
REMARK SMILES IDX 44 99 45 100
REMARK H PARENT 78 11 78 12 3 16 69 53 37 64
REMARK Flexibility Score: inf
ROOT
ATOM      1  C   UNL A   1      33.538  29.327  23.555  1.00  0.00     0.274 C 
ENDROOT
BRANCH   1   2
ATOM      2  O   UNL A   1      33.650  28.025  22.306  1.00  0.00    -0.460 OA
BRANCH   2   3
ATOM      3  C   UNL A   1      32.972  26.278  21.959  1.00  0.00     0.332 C 
ATOM      4  O   UNL A   1      32.948  25.691  20.823  1.00  0.00    -0.249 OA
BRANCH   3   5
ATOM      5  C   UNL A   1      32.176  25.306  22.988  1.00  0.00     0.151 C 
ATOM      6  C   UNL A   1      33.513  24.709  24.299  1.00  0.00     0.102 C 
ATOM      7  C   UNL A   1      30.310  25.691  23.512  1.00  0.00     0.102 C 
ATOM      8  C   UNL A   1      32.887  24.641  26.116  1.00  0.00     0.263 C 
ATOM      9  C   UNL A   1      29.905  25.588  25.419  1.00  0.00     0.263 C 
ATOM     10  N   UNL A   1      31.215  25.200  26.638  1.00  0.00    -0.346 N 
ATOM     11  H   UNL A   1      31.355  26.048  27.189  1.00  0.00     0.346 HD
ATOM     12  H   UNL A   1      30.843  24.370  27.100  1.00  0.00     0.346 HD
BRANCH   5  13
ATOM     13  N   UNL A   1      31.995  24.101  22.133  1.00  0.00    -0.305 N 
ATOM     14  O   UNL A   1      31.776  21.847  22.275  1.00  0.00    -0.225 OA
ATOM     15  C   UNL A   1      31.604  22.973  22.728  1.00  0.00     0.408 C 
ATOM     16  H   UNL A   1      32.157  24.135  21.163  1.00  0.00     0.168 HD
BRANCH  15  17
ATOM     17  O   UNL A   1      31.139  23.237  23.959  1.00  0.00    -0.449 OA
BRANCH  17  18
ATOM     18  C   UNL A   1      31.301  22.197  25.050  1.00  0.00     0.248 C 
BRANCH  18  19
ATOM     19  C   UNL A   1      32.783  20.748  25.539  1.00  0.00     0.088 C 
ATOM     20  C   UNL A   1      33.218  19.148  25.158  1.00  0.00    -0.029 A 
ATOM     21  C   UNL A   1      34.484  20.989  26.276  1.00  0.00    -0.029 A 
ATOM     22  C   UNL A   1      32.528  17.961  25.407  1.00  0.00     0.005 A 
ATOM     23  C   UNL A   1      34.578  19.147  24.626  1.00  0.00    -0.014 A 
ATOM     24  C   UNL A   1      35.140  20.511  24.712  1.00  0.00    -0.014 A 
ATOM     25  C   UNL A   1      35.223  22.349  27.226  1.00  0.00     0.005 A 
ATOM     26  C   UNL A   1      33.209  16.758  25.263  1.00  0.00     0.000 A 
ATOM     27  C   UNL A   1      35.268  17.939  24.636  1.00  0.00     0.009 A 
ATOM     28  C   UNL A   1      36.226  21.635  23.870  1.00  0.00     0.009 A 
ATOM     29  C   UNL A   1      36.555  23.350  26.540  1.00  0.00     0.000 A 
ATOM     30  C   UNL A   1      34.578  16.752  24.957  1.00  0.00     0.001 A 
ATOM     31  C   UNL A   1      37.033  23.055  24.801  1.00  0.00     0.001 A 
ENDBRANCH  18  19
ENDBRANCH  17  18
ENDBRANCH  15  17
ENDBRANCH   5  13
ENDBRANCH   3   5
ENDBRANCH   2   3
ENDBRANCH   1   2
BRANCH   1  32
ATOM     32  C   UNL A   1      32.067  29.627  24.514  1.00  0.00     0.275 C 
BRANCH  32  33
ATOM     33  O   UNL A   1      32.121  29.837  26.045  1.00  0.00    -0.458 OA
BRANCH  33  34
ATOM     34  C   UNL A   1      32.639  30.965  26.682  1.00  0.00     0.338 C 
ATOM     35  O   UNL A   1      31.981  31.978  26.883  1.00  0.00    -0.246 OA
BRANCH  34  36
ATOM     36  C   UNL A   1      34.032  30.797  27.343  1.00  0.00     0.060 A 
ATOM     37  C   UNL A   1      34.459  29.565  27.876  1.00  0.00     0.016 A 
ATOM     38  C   UNL A   1      34.855  31.875  27.666  1.00  0.00     0.016 A 
ATOM     39  C   UNL A   1      35.716  29.350  28.507  1.00  0.00     0.010 A 
ATOM     40  C   UNL A   1      36.094  31.687  28.365  1.00  0.00     0.010 A 
ATOM     41  C   UNL A   1      36.571  30.416  28.764  1.00  0.00    -0.014 A 
BRANCH  41  42
ATOM     42  C   UNL A   1      37.839  30.245  29.575  1.00  0.00     0.031 A 
ATOM     43  C   UNL A   1      38.960  29.396  29.013  1.00  0.00     0.074 A 
ATOM     44  C   UNL A   1      38.057  30.840  30.773  1.00  0.00     0.049 A 
ATOM     45  N   UNL A   1      40.009  28.878  29.604  1.00  0.00    -0.248 NA
ATOM     46  C   UNL A   1      38.876  29.104  27.577  1.00  0.00     0.031 C 
ATOM     47  C   UNL A   1      37.190  31.837  31.394  1.00  0.00     0.029 A 
ATOM     48  N   UNL A   1      39.081  30.685  31.693  1.00  0.00    -0.354 N 
ATOM     49  C   UNL A   1      40.682  28.149  28.624  1.00  0.00     0.074 A 
ATOM     50  C   UNL A   1      39.918  28.306  27.401  1.00  0.00     0.031 C 
ATOM     51  C   UNL A   1      37.700  32.186  32.591  1.00  0.00     0.029 A 
ATOM     52  C   UNL A   1      38.892  31.383  32.871  1.00  0.00     0.049 A 
ATOM     53  H   UNL A   1      39.872  30.124  31.524  1.00  0.00     0.167 HD
ATOM     54  C   UNL A   1      41.815  27.406  28.735  1.00  0.00     0.034 A 
ATOM     55  C   UNL A   1      39.556  31.345  34.052  1.00  0.00     0.034 A 
ATOM     56  C   UNL A   1      42.583  27.280  29.954  1.00  0.00     0.049 A 
ATOM     57  C   UNL A   1      40.729  30.393  34.209  1.00  0.00     0.074 A 
ATOM     58  C   UNL A   1      43.721  26.525  30.184  1.00  0.00     0.029 A 
ATOM     59  N   UNL A   1      42.296  27.929  31.148  1.00  0.00    -0.354 N 
ATOM     60  N   UNL A   1      41.284  29.607  33.316  1.00  0.00    -0.248 NA
ATOM     61  C   UNL A   1      41.354  30.310  35.540  1.00  0.00     0.031 C 
ATOM     62  C   UNL A   1      44.067  26.645  31.534  1.00  0.00     0.029 A 
ATOM     63  C   UNL A   1      43.209  27.557  32.126  1.00  0.00     0.049 A 
ATOM     64  H   UNL A   1      41.554  28.561  31.282  1.00  0.00     0.167 HD
ATOM     65  C   UNL A   1      42.342  28.971  33.966  1.00  0.00     0.074 A 
ATOM     66  C   UNL A   1      42.357  29.472  35.324  1.00  0.00     0.031 C 
ATOM     67  C   UNL A   1      43.223  28.058  33.482  1.00  0.00     0.034 A 
BRANCH  54  68
ATOM     68  C   UNL A   1      42.228  26.581  27.536  1.00  0.00     0.023 A 
ATOM     69  C   UNL A   1      41.831  25.243  27.362  1.00  0.00     0.031 A 
ATOM     70  C   UNL A   1      43.081  27.142  26.564  1.00  0.00     0.131 A 
ATOM     71  C   UNL A   1      42.353  24.492  26.294  1.00  0.00     0.055 A 
ATOM     72  C   UNL A   1      43.523  26.415  25.457  1.00  0.00     0.041 A 
ATOM     73  F   UNL A   1      43.513  28.407  26.683  1.00  0.00    -0.206 F 
ATOM     74  C   UNL A   1      43.175  25.076  25.327  1.00  0.00     0.022 A 
BRANCH  71  75
ATOM     75  S   UNL A   1      42.080  22.698  26.278  1.00  0.00     0.124 S 
ATOM     76  O   UNL A   1      40.625  22.619  26.375  1.00  0.00    -0.237 OA
ATOM     77  O   UNL A   1      42.659  22.300  25.000  1.00  0.00    -0.237 OA
ATOM     78  O   UNL A   1      42.801  22.229  27.460  1.00  0.00    -0.744 OA
ENDBRANCH  71  75
ENDBRANCH  54  68
BRANCH  55  79
ATOM     79  C   UNL A   1      39.092  32.142  35.241  1.00  0.00     0.023 A 
ATOM     80  C   UNL A   1      39.529  33.462  35.467  1.00  0.00     0.031 A 
ATOM     81  C   UNL A   1      38.284  31.552  36.232  1.00  0.00     0.131 A 
ATOM     82  C   UNL A   1      39.196  34.123  36.666  1.00  0.00     0.055 A 
ATOM     83  C   UNL A   1      37.900  32.238  37.389  1.00  0.00     0.041 A 
ATOM     84  F   UNL A   1      37.860  30.286  36.100  1.00  0.00    -0.206 F 
ATOM     85  C   UNL A   1      38.368  33.527  37.617  1.00  0.00     0.022 A 
BRANCH  82  86
ATOM     86  S   UNL A   1      39.955  35.736  37.025  1.00  0.00     0.124 S 
ATOM     87  O   UNL A   1      39.244  36.136  38.233  1.00  0.00    -0.237 OA
ATOM     88  O   UNL A   1      41.361  35.383  37.190  1.00  0.00    -0.237 OA
ATOM     89  O   UNL A   1      39.652  36.528  35.833  1.00  0.00    -0.744 OA
ENDBRANCH  82  86
ENDBRANCH  55  79
BRANCH  67  90
ATOM     90  C   UNL A   1      44.326  27.589  34.404  1.00  0.00     0.023 A 
ATOM     91  C   UNL A   1      44.238  26.385  35.126  1.00  0.00     0.031 A 
ATOM     92  C   UNL A   1      45.491  28.365  34.562  1.00  0.00     0.131 A 
ATOM     93  C   UNL A   1      45.268  26.021  36.011  1.00  0.00     0.055 A 
ATOM     94  C   UNL A   1      46.540  27.963  35.389  1.00  0.00     0.041 A 
ATOM     95  F   UNL A   1      45.630  29.528  33.906  1.00  0.00    -0.206 F 
ATOM     96  C   UNL A   1      46.426  26.791  36.130  1.00  0.00     0.022 A 
BRANCH  93  97
ATOM     97  S   UNL A   1      45.028  24.578  37.086  1.00  0.00     0.124 S 
ATOM     98  O   UNL A   1      44.369  25.170  38.246  1.00  0.00    -0.237 OA
ATOM     99  O   UNL A   1      44.201  23.706  36.259  1.00  0.00    -0.237 OA
ATOM    100  O   UNL A   1      46.388  24.097  37.324  1.00  0.00    -0.744 OA
ENDBRANCH  93  97
ENDBRANCH  67  90
ENDBRANCH  41  42
ENDBRANCH  34  36
ENDBRANCH  33  34
ENDBRANCH  32  33
ENDBRANCH   1  32
TORSDOF 18
ENDMDL
MODEL 3
REMARK VINA RESULT:     -14.3      2.736      7.812
REMARK SMILES O=C(NC1(C(=O)OCCOC(=O)c2ccc(-c3c4nc(c(-c5cc(S(=O)(=O)[O-])ccc5F)c5ccc([nH]5)c(-c5cc(S(=O)(=O)[O-])ccc5F)c5nc(c(-c6cc(S(=O)(=O)[O-])ccc6F)c6ccc3[nH]6)C=C5)C=C4)cc2)CC[NH2+]CC1)OCC1c2ccccc2-c2ccccc21
REMARK SMILES IDX 8 1 7 2 5 3 6 4 4 5 76 6 80 7 77 8 79 9 78 10 3 13 1 14 2 15
REMARK SMILES IDX 81 17 82 18 83 19 84 20 95 21 85 22 89 23 90 24 94 25 86 26
REMARK SMILES IDX 88 27 91 28 93 29 87 30 92 31 9 32 10 33 11 34 12 35 13 36
REMARK SMILES IDX 14 37 75 38 15 39 74 40 16 41 17 42 18 43 68 44 19 45 73 46
REMARK SMILES IDX 67 47 69 48 20 49 72 50 66 51 65 52 21 54 53 55 33 56 52 57
REMARK SMILES IDX 34 58 37 59 51 60 70 61 35 62 36 63 50 65 71 66 38 67 22 68
REMARK SMILES IDX 23 69 31 70 24 71 30 72 32 73 29 74 25 75 26 76 27 77 28 78
REMARK SMILES IDX 54 79 55 80 63 81 56 82 62 83 64 84 61 85 57 86 58 87 59 88
REMARK SMILES IDX 60 89 39 90 40 91 48 92 41 93 47 94 49 95 46 96 42 97 43 98
REMARK SMILES IDX 44 99 45 100
REMARK H PARENT 78 11 78 12 3 16 69 53 37 64
REMARK Flexibility Score: inf
ROOT
ATOM      1  C   UNL A   1      31.776  31.064  26.586  1.00  0.00     0.274 C 
ENDROOT
BRANCH   1   2
ATOM      2  O   UNL A   1      32.897  30.036  25.608  1.00  0.00    -0.460 OA
BRANCH   2   3
ATOM      3  C   UNL A   1      32.861  28.869  24.103  1.00  0.00     0.332 C 
ATOM      4  O   UNL A   1      33.250  29.153  22.919  1.00  0.00    -0.249 OA
BRANCH   3   5
ATOM      5  C   UNL A   1      32.198  27.389  24.017  1.00  0.00     0.151 C 
ATOM      6  C   UNL A   1      32.973  26.370  25.509  1.00  0.00     0.102 C 
ATOM      7  C   UNL A   1      30.315  27.149  23.466  1.00  0.00     0.102 C 
ATOM      8  C   UNL A   1      31.735  25.227  26.435  1.00  0.00     0.263 C 
ATOM      9  C   UNL A   1      29.232  25.959  24.572  1.00  0.00     0.263 C 
ATOM     10  N   UNL A   1      29.936  25.159  26.061  1.00  0.00    -0.346 N 
ATOM     11  H   UNL A   1      29.461  25.575  26.862  1.00  0.00     0.346 HD
ATOM     12  H   UNL A   1      29.793  24.169  25.864  1.00  0.00     0.346 HD
BRANCH   5  13
ATOM     13  N   UNL A   1      32.919  26.839  22.837  1.00  0.00    -0.305 N 
ATOM     14  O   UNL A   1      33.718  24.887  22.001  1.00  0.00    -0.225 OA
ATOM     15  C   UNL A   1      32.897  25.517  22.658  1.00  0.00     0.408 C 
ATOM     16  H   UNL A   1      33.394  27.431  22.209  1.00  0.00     0.168 HD
BRANCH  15  17
ATOM     17  O   UNL A   1      31.944  24.963  23.423  1.00  0.00    -0.449 OA
BRANCH  17  18
ATOM     18  C   UNL A   1      31.811  23.453  23.460  1.00  0.00     0.248 C 
BRANCH  18  19
ATOM     19  C   UNL A   1      32.805  21.881  24.496  1.00  0.00     0.088 C 
ATOM     20  C   UNL A   1      33.065  20.202  24.380  1.00  0.00    -0.029 A 
ATOM     21  C   UNL A   1      34.208  21.968  25.728  1.00  0.00    -0.029 A 
ATOM     22  C   UNL A   1      32.145  19.158  24.466  1.00  0.00     0.005 A 
ATOM     23  C   UNL A   1      34.502  19.955  24.319  1.00  0.00    -0.014 A 
ATOM     24  C   UNL A   1      35.229  21.230  24.497  1.00  0.00    -0.014 A 
ATOM     25  C   UNL A   1      34.831  23.313  26.778  1.00  0.00     0.005 A 
ATOM     26  C   UNL A   1      32.627  17.865  24.628  1.00  0.00     0.000 A 
ATOM     27  C   UNL A   1      34.944  18.673  24.629  1.00  0.00     0.009 A 
ATOM     28  C   UNL A   1      36.693  22.091  23.983  1.00  0.00     0.009 A 
ATOM     29  C   UNL A   1      36.456  24.037  26.500  1.00  0.00     0.000 A 
ATOM     30  C   UNL A   1      34.001  17.636  24.784  1.00  0.00     0.001 A 
ATOM     31  C   UNL A   1      37.396  23.483  25.033  1.00  0.00     0.001 A 
ENDBRANCH  18  19
ENDBRANCH  17  18
ENDBRANCH  15  17
ENDBRANCH   5  13
ENDBRANCH   3   5
ENDBRANCH   2   3
ENDBRANCH   1   2
BRANCH   1  32
ATOM     32  C   UNL A   1      31.806  32.845  26.541  1.00  0.00     0.275 C 
BRANCH  32  33
ATOM     33  O   UNL A   1      32.202  33.685  27.778  1.00  0.00    -0.458 OA
BRANCH  33  34
ATOM     34  C   UNL A   1      33.440  34.299  27.968  1.00  0.00     0.338 C 
ATOM     35  O   UNL A   1      33.592  35.514  27.944  1.00  0.00    -0.246 OA
BRANCH  34  36
ATOM     36  C   UNL A   1      34.592  33.378  28.447  1.00  0.00     0.060 A 
ATOM     37  C   UNL A   1      34.348  32.097  28.980  1.00  0.00     0.016 A 
ATOM     38  C   UNL A   1      35.904  33.822  28.608  1.00  0.00     0.016 A 
ATOM     39  C   UNL A   1      35.358  31.213  29.451  1.00  0.00     0.010 A 
ATOM     40  C   UNL A   1      36.923  32.968  29.146  1.00  0.00     0.010 A 
ATOM     41  C   UNL A   1      36.681  31.631  29.541  1.00  0.00    -0.014 A 
BRANCH  41  42
ATOM     42  C   UNL A   1      37.748  30.771  30.186  1.00  0.00     0.031 A 
ATOM     43  C   UNL A   1      38.040  30.948  31.661  1.00  0.00     0.074 A 
ATOM     44  C   UNL A   1      38.446  29.813  29.530  1.00  0.00     0.049 A 
ATOM     45  N   UNL A   1      39.061  30.546  32.378  1.00  0.00    -0.248 NA
ATOM     46  C   UNL A   1      37.022  31.679  32.426  1.00  0.00     0.031 C 
ATOM     47  C   UNL A   1      38.187  29.359  28.167  1.00  0.00     0.029 A 
ATOM     48  N   UNL A   1      39.530  29.046  29.925  1.00  0.00    -0.354 N 
ATOM     49  C   UNL A   1      38.838  31.025  33.668  1.00  0.00     0.074 A 
ATOM     50  C   UNL A   1      37.576  31.739  33.628  1.00  0.00     0.031 C 
ATOM     51  C   UNL A   1      39.091  28.418  27.833  1.00  0.00     0.029 A 
ATOM     52  C   UNL A   1      40.052  28.249  28.924  1.00  0.00     0.049 A 
ATOM     53  H   UNL A   1      39.898  29.068  30.838  1.00  0.00     0.167 HD
ATOM     54  C   UNL A   1      39.616  30.898  34.776  1.00  0.00     0.034 A 
ATOM     55  C   UNL A   1      41.191  27.516  28.863  1.00  0.00     0.034 A 
ATOM     56  C   UNL A   1      40.859  30.160  34.811  1.00  0.00     0.049 A 
ATOM     57  C   UNL A   1      42.129  27.509  30.058  1.00  0.00     0.074 A 
ATOM     58  C   UNL A   1      41.741  30.002  35.867  1.00  0.00     0.029 A 
ATOM     59  N   UNL A   1      41.396  29.451  33.743  1.00  0.00    -0.354 N 
ATOM     60  N   UNL A   1      41.976  28.070  31.235  1.00  0.00    -0.248 NA
ATOM     61  C   UNL A   1      43.402  26.784  29.908  1.00  0.00     0.031 C 
ATOM     62  C   UNL A   1      42.849  29.278  35.415  1.00  0.00     0.029 A 
ATOM     63  C   UNL A   1      42.615  28.893  34.105  1.00  0.00     0.049 A 
ATOM     64  H   UNL A   1      40.974  29.359  32.860  1.00  0.00     0.167 HD
ATOM     65  C   UNL A   1      43.111  27.733  31.973  1.00  0.00     0.074 A 
ATOM     66  C   UNL A   1      43.935  26.910  31.115  1.00  0.00     0.031 C 
ATOM     67  C   UNL A   1      43.438  28.071  33.247  1.00  0.00     0.034 A 
BRANCH  54  68
ATOM     68  C   UNL A   1      39.202  31.669  36.012  1.00  0.00     0.023 A 
ATOM     69  C   UNL A   1      38.384  31.117  37.012  1.00  0.00     0.031 A 
ATOM     70  C   UNL A   1      39.607  33.010  36.163  1.00  0.00     0.131 A 
ATOM     71  C   UNL A   1      37.930  31.924  38.069  1.00  0.00     0.055 A 
ATOM     72  C   UNL A   1      39.225  33.780  37.263  1.00  0.00     0.041 A 
ATOM     73  F   UNL A   1      40.371  33.603  35.232  1.00  0.00    -0.206 F 
ATOM     74  C   UNL A   1      38.365  33.244  38.215  1.00  0.00     0.022 A 
BRANCH  71  75
ATOM     75  S   UNL A   1      36.629  31.281  39.159  1.00  0.00     0.124 S 
ATOM     76  O   UNL A   1      36.317  30.002  38.525  1.00  0.00    -0.237 OA
ATOM     77  O   UNL A   1      37.303  31.208  40.450  1.00  0.00    -0.237 OA
ATOM     78  O   UNL A   1      35.572  32.287  39.065  1.00  0.00    -0.744 OA
ENDBRANCH  71  75
ENDBRANCH  54  68
BRANCH  55  79
ATOM     79  C   UNL A   1      41.599  26.799  27.604  1.00  0.00     0.023 A 
ATOM     80  C   UNL A   1      41.498  25.399  27.480  1.00  0.00     0.031 A 
ATOM     81  C   UNL A   1      42.200  27.499  26.540  1.00  0.00     0.131 A 
ATOM     82  C   UNL A   1      42.028  24.748  26.350  1.00  0.00     0.055 A 
ATOM     83  C   UNL A   1      42.663  26.853  25.389  1.00  0.00     0.041 A 
ATOM     84  F   UNL A   1      42.362  28.829  26.605  1.00  0.00    -0.206 F 
ATOM     85  C   UNL A   1      42.591  25.468  25.295  1.00  0.00     0.022 A 
BRANCH  82  86
ATOM     86  S   UNL A   1      42.081  22.931  26.321  1.00  0.00     0.124 S 
ATOM     87  O   UNL A   1      42.960  22.641  27.448  1.00  0.00    -0.237 OA
ATOM     88  O   UNL A   1      40.675  22.581  26.492  1.00  0.00    -0.237 OA
ATOM     89  O   UNL A   1      42.638  22.627  25.003  1.00  0.00    -0.744 OA
ENDBRANCH  82  86
ENDBRANCH  55  79
BRANCH  67  90
ATOM     90  C   UNL A   1      44.713  27.494  33.821  1.00  0.00     0.023 A 
ATOM     91  C   UNL A   1      44.769  26.201  34.373  1.00  0.00     0.031 A 
ATOM     92  C   UNL A   1      45.897  28.256  33.813  1.00  0.00     0.131 A 
ATOM     93  C   UNL A   1      45.966  25.733  34.941  1.00  0.00     0.055 A 
ATOM     94  C   UNL A   1      47.100  27.758  34.316  1.00  0.00     0.041 A 
ATOM     95  F   UNL A   1      45.906  29.500  33.308  1.00  0.00    -0.206 F 
ATOM     96  C   UNL A   1      47.136  26.494  34.897  1.00  0.00     0.022 A 
BRANCH  93  97
ATOM     97  S   UNL A   1      45.950  24.153  35.835  1.00  0.00     0.124 S 
ATOM     98  O   UNL A   1      44.832  23.459  35.203  1.00  0.00    -0.237 OA
ATOM     99  O   UNL A   1      47.276  23.617  35.548  1.00  0.00    -0.237 OA
ATOM    100  O   UNL A   1      45.729  24.546  37.225  1.00  0.00    -0.744 OA
ENDBRANCH  93  97
ENDBRANCH  67  90
ENDBRANCH  41  42
ENDBRANCH  34  36
ENDBRANCH  33  34
ENDBRANCH  32  33
ENDBRANCH   1  32
TORSDOF 18
ENDMDL
