MODEL 1
REMARK VINA RESULT:     -12.5      0.000      0.000
REMARK SMILES O=C(OCCOC(=O)c1ccccc1-c1ccc(/C=C2\C(=O)N(c3cccc(Br)c3)C(=O)N=C2O)o1)c1ccc(-c2c3nc(c(-c4cc(S(=O)(=O)[O-])ccc4F)c4ccc([nH]4)c(-c4cc(S(=O)(=O)[O-])ccc4F)c4nc(c(-c5cc(S(=O)(=O)[O-])ccc5F)c5ccc2[nH]5)C=C4)C=C3)cc1
REMARK SMILES IDX 4 1 3 2 2 3 1 4 37 5 38 6 99 7 39 8 98 9 40 10 41 11 42 12
REMARK SMILES IDX 92 13 43 14 97 15 91 16 93 17 44 18 96 19 90 20 89 21 45 23
REMARK SMILES IDX 77 24 57 25 76 26 58 27 61 28 75 29 94 30 59 31 60 32 74 34
REMARK SMILES IDX 95 35 62 36 46 37 47 38 55 39 48 40 54 41 56 42 53 43 49 44
REMARK SMILES IDX 50 45 51 46 52 47 78 48 79 49 87 50 80 51 86 52 88 53 85 54
REMARK SMILES IDX 81 55 82 56 83 57 84 58 63 59 64 60 72 61 65 62 71 63 73 64
REMARK SMILES IDX 70 65 66 66 67 67 68 68 69 69 5 70 6 71 7 72 8 73 9 74 10 75
REMARK SMILES IDX 14 76 11 77 13 78 12 79 15 80 16 81 36 82 17 83 18 84 19 85
REMARK SMILES IDX 20 86 21 87 34 88 22 89 23 90 33 91 31 92 32 93 35 94 24 96
REMARK SMILES IDX 25 97 30 98 26 99 28 100 27 101 29 102
REMARK H PARENT 93 22 61 33 35 95
REMARK Flexibility Score: inf
ROOT
ATOM      1  C   UNL A   1      44.219  20.338  25.340  1.00  0.00     0.275 C 
ENDROOT
BRANCH   1   2
ATOM      2  O   UNL A   1      44.145  21.745  25.637  1.00  0.00    -0.458 OA
BRANCH   2   3
ATOM      3  C   UNL A   1      45.126  22.680  25.670  1.00  0.00     0.338 C 
ATOM      4  O   UNL A   1      46.294  22.294  25.615  1.00  0.00    -0.246 OA
BRANCH   3   5
ATOM      5  C   UNL A   1      44.889  24.137  25.937  1.00  0.00     0.060 A 
ATOM      6  C   UNL A   1      44.329  25.054  25.052  1.00  0.00     0.016 A 
ATOM      7  C   UNL A   1      45.261  24.610  27.212  1.00  0.00     0.016 A 
ATOM      8  C   UNL A   1      44.063  26.366  25.446  1.00  0.00     0.010 A 
ATOM      9  C   UNL A   1      44.998  25.926  27.611  1.00  0.00     0.010 A 
ATOM     10  C   UNL A   1      44.372  26.805  26.730  1.00  0.00    -0.014 A 
BRANCH  10  11
ATOM     11  C   UNL A   1      44.240  28.238  27.081  1.00  0.00     0.031 A 
ATOM     12  C   UNL A   1      42.805  28.344  28.200  1.00  0.00     0.074 A 
ATOM     13  C   UNL A   1      45.280  29.202  26.657  1.00  0.00     0.049 A 
ATOM     14  N   UNL A   1      42.668  29.027  29.350  1.00  0.00    -0.248 NA
ATOM     15  C   UNL A   1      41.515  27.719  27.887  1.00  0.00     0.031 C 
ATOM     16  C   UNL A   1      46.679  28.815  26.621  1.00  0.00     0.029 A 
ATOM     17  N   UNL A   1      45.545  30.659  26.617  1.00  0.00    -0.354 N 
ATOM     18  C   UNL A   1      41.357  29.420  29.541  1.00  0.00     0.074 A 
ATOM     19  C   UNL A   1      40.683  28.359  28.738  1.00  0.00     0.031 C 
ATOM     20  C   UNL A   1      47.543  29.856  26.809  1.00  0.00     0.029 A 
ATOM     21  C   UNL A   1      46.829  31.147  26.966  1.00  0.00     0.049 A 
ATOM     22  H   UNL A   1      44.833  31.285  26.350  1.00  0.00     0.167 HD
ATOM     23  C   UNL A   1      40.778  30.594  30.078  1.00  0.00     0.034 A 
ATOM     24  C   UNL A   1      47.404  32.346  27.467  1.00  0.00     0.034 A 
ATOM     25  C   UNL A   1      41.312  32.065  30.433  1.00  0.00     0.049 A 
ATOM     26  C   UNL A   1      46.760  33.734  28.207  1.00  0.00     0.074 A 
ATOM     27  C   UNL A   1      40.586  33.273  30.400  1.00  0.00     0.029 A 
ATOM     28  N   UNL A   1      42.568  32.607  30.925  1.00  0.00    -0.354 N 
ATOM     29  N   UNL A   1      45.520  34.154  28.264  1.00  0.00    -0.248 NA
ATOM     30  C   UNL A   1      47.543  34.666  29.072  1.00  0.00     0.031 C 
ATOM     31  C   UNL A   1      41.435  34.444  30.457  1.00  0.00     0.029 A 
ATOM     32  C   UNL A   1      42.770  34.068  30.576  1.00  0.00     0.049 A 
ATOM     33  H   UNL A   1      43.223  32.077  31.435  1.00  0.00     0.167 HD
ATOM     34  C   UNL A   1      45.264  34.920  29.469  1.00  0.00     0.074 A 
ATOM     35  C   UNL A   1      46.621  35.375  29.763  1.00  0.00     0.031 C 
ATOM     36  C   UNL A   1      44.142  34.980  30.392  1.00  0.00     0.034 A 
BRANCH  23  37
ATOM     37  C   UNL A   1      39.256  30.419  30.081  1.00  0.00     0.023 A 
ATOM     38  C   UNL A   1      38.455  31.258  29.276  1.00  0.00     0.031 A 
ATOM     39  C   UNL A   1      38.595  29.580  30.996  1.00  0.00     0.131 A 
ATOM     40  C   UNL A   1      37.062  31.293  29.457  1.00  0.00     0.055 A 
ATOM     41  C   UNL A   1      37.199  29.536  31.087  1.00  0.00     0.041 A 
ATOM     42  F   UNL A   1      39.288  28.829  31.866  1.00  0.00    -0.206 F 
ATOM     43  C   UNL A   1      36.424  30.408  30.328  1.00  0.00     0.022 A 
BRANCH  40  44
ATOM     44  S   UNL A   1      36.118  32.646  28.698  1.00  0.00     0.124 S 
ATOM     45  O   UNL A   1      35.162  32.963  29.756  1.00  0.00    -0.237 OA
ATOM     46  O   UNL A   1      37.144  33.649  28.442  1.00  0.00    -0.237 OA
ATOM     47  O   UNL A   1      35.536  32.032  27.506  1.00  0.00    -0.744 OA
ENDBRANCH  40  44
ENDBRANCH  23  37
BRANCH  24  48
ATOM     48  C   UNL A   1      48.925  32.406  27.403  1.00  0.00     0.023 A 
ATOM     49  C   UNL A   1      49.641  32.958  26.324  1.00  0.00     0.031 A 
ATOM     50  C   UNL A   1      49.682  31.775  28.412  1.00  0.00     0.131 A 
ATOM     51  C   UNL A   1      51.037  32.772  26.226  1.00  0.00     0.055 A 
ATOM     52  C   UNL A   1      51.076  31.666  28.350  1.00  0.00     0.041 A 
ATOM     53  F   UNL A   1      49.073  31.240  29.480  1.00  0.00    -0.206 F 
ATOM     54  C   UNL A   1      51.759  32.140  27.238  1.00  0.00     0.022 A 
BRANCH  51  55
ATOM     55  S   UNL A   1      51.881  33.232  24.681  1.00  0.00     0.124 S 
ATOM     56  O   UNL A   1      53.233  33.509  25.154  1.00  0.00    -0.237 OA
ATOM     57  O   UNL A   1      51.715  32.022  23.883  1.00  0.00    -0.237 OA
ATOM     58  O   UNL A   1      51.131  34.397  24.215  1.00  0.00    -0.744 OA
ENDBRANCH  51  55
ENDBRANCH  24  48
BRANCH  36  59
ATOM     59  C   UNL A   1      44.049  36.358  31.005  1.00  0.00     0.023 A 
ATOM     60  C   UNL A   1      43.898  37.489  30.170  1.00  0.00     0.031 A 
ATOM     61  C   UNL A   1      43.959  36.548  32.385  1.00  0.00     0.131 A 
ATOM     62  C   UNL A   1      43.736  38.764  30.718  1.00  0.00     0.055 A 
ATOM     63  C   UNL A   1      43.759  37.820  32.930  1.00  0.00     0.041 A 
ATOM     64  F   UNL A   1      44.052  35.509  33.229  1.00  0.00    -0.206 F 
ATOM     65  C   UNL A   1      43.658  38.937  32.098  1.00  0.00     0.022 A 
BRANCH  62  66
ATOM     66  S   UNL A   1      43.668  40.187  29.595  1.00  0.00     0.124 S 
ATOM     67  O   UNL A   1      42.251  40.538  29.620  1.00  0.00    -0.237 OA
ATOM     68  O   UNL A   1      44.570  41.137  30.240  1.00  0.00    -0.237 OA
ATOM     69  O   UNL A   1      44.146  39.643  28.326  1.00  0.00    -0.744 OA
ENDBRANCH  62  66
ENDBRANCH  36  59
ENDBRANCH  10  11
ENDBRANCH   3   5
ENDBRANCH   2   3
ENDBRANCH   1   2
BRANCH   1  70
ATOM     70  C   UNL A   1      42.989  19.553  25.795  1.00  0.00     0.275 C 
BRANCH  70  71
ATOM     71  O   UNL A   1      41.768  20.275  25.591  1.00  0.00    -0.458 OA
BRANCH  71  72
ATOM     72  C   UNL A   1      41.091  20.591  26.716  1.00  0.00     0.338 C 
ATOM     73  O   UNL A   1      40.965  19.891  27.710  1.00  0.00    -0.246 OA
BRANCH  72  74
ATOM     74  C   UNL A   1      40.586  21.974  26.673  1.00  0.00     0.071 A 
ATOM     75  C   UNL A   1      41.525  22.965  27.030  1.00  0.00     0.016 A 
ATOM     76  C   UNL A   1      39.260  22.317  26.368  1.00  0.00     0.032 A 
ATOM     77  C   UNL A   1      41.158  24.307  27.083  1.00  0.00     0.001 A 
ATOM     78  C   UNL A   1      38.883  23.653  26.607  1.00  0.00     0.013 A 
ATOM     79  C   UNL A   1      39.826  24.648  26.904  1.00  0.00     0.001 A 
BRANCH  76  80
ATOM     80  C   UNL A   1      38.292  21.410  25.732  1.00  0.00     0.135 A 
ATOM     81  C   UNL A   1      38.334  20.124  25.256  1.00  0.00     0.051 A 
ATOM     82  O   UNL A   1      37.029  21.919  25.511  1.00  0.00    -0.457 OA
ATOM     83  C   UNL A   1      37.040  19.856  24.735  1.00  0.00     0.051 A 
ATOM     84  C   UNL A   1      36.226  20.984  24.902  1.00  0.00     0.128 A 
BRANCH  84  85
ATOM     85  C   UNL A   1      34.819  21.064  24.605  1.00  0.00     0.066 C 
ATOM     86  C   UNL A   1      34.016  22.026  24.083  1.00  0.00     0.106 C 
ATOM     87  C   UNL A   1      34.295  23.382  23.506  1.00  0.00     0.272 C 
ATOM     88  C   UNL A   1      32.597  21.689  23.946  1.00  0.00     0.228 C 
ATOM     89  O   UNL A   1      35.370  23.507  22.927  1.00  0.00    -0.268 OA
ATOM     90  N   UNL A   1      33.216  24.307  23.521  1.00  0.00    -0.226 N 
ATOM     91  N   UNL A   1      31.643  22.479  23.671  1.00  0.00    -0.156 NA
ATOM     92  C   UNL A   1      31.889  23.826  23.504  1.00  0.00     0.358 C 
ATOM     93  O   UNL A   1      30.927  24.533  23.248  1.00  0.00    -0.245 OA
BRANCH  88  94
ATOM     94  O   UNL A   1      32.279  20.388  24.048  1.00  0.00    -0.493 OA
ATOM     95  H   UNL A   1      32.584  19.887  24.778  1.00  0.00     0.295 HD
ENDBRANCH  88  94
BRANCH  90  96
ATOM     96  C   UNL A   1      33.416  25.767  23.377  1.00  0.00     0.055 A 
ATOM     97  C   UNL A   1      33.579  26.509  22.299  1.00  0.00     0.027 A 
ATOM     98  C   UNL A   1      33.318  26.748  24.293  1.00  0.00     0.042 A 
ATOM     99  C   UNL A   1      33.598  28.081  22.237  1.00  0.00     0.003 A 
ATOM    100  C   UNL A   1      33.388  28.344  24.309  1.00  0.00     0.020 A 
ATOM    101  C   UNL A   1      33.562  29.005  23.190  1.00  0.00     0.016 A 
ATOM    102  Br  UNL A   1      32.876  29.704  25.624  1.00  0.00    -0.051 Br
ENDBRANCH  90  96
ENDBRANCH  84  85
ENDBRANCH  76  80
ENDBRANCH  72  74
ENDBRANCH  71  72
ENDBRANCH  70  71
ENDBRANCH   1  70
TORSDOF 18
ENDMDL
MODEL 2
REMARK VINA RESULT:     -12.1      2.475      8.157
REMARK SMILES O=C(OCCOC(=O)c1ccccc1-c1ccc(/C=C2\C(=O)N(c3cccc(Br)c3)C(=O)N=C2O)o1)c1ccc(-c2c3nc(c(-c4cc(S(=O)(=O)[O-])ccc4F)c4ccc([nH]4)c(-c4cc(S(=O)(=O)[O-])ccc4F)c4nc(c(-c5cc(S(=O)(=O)[O-])ccc5F)c5ccc2[nH]5)C=C4)C=C3)cc1
REMARK SMILES IDX 4 1 3 2 2 3 1 4 37 5 38 6 99 7 39 8 98 9 40 10 41 11 42 12
REMARK SMILES IDX 92 13 43 14 97 15 91 16 93 17 44 18 96 19 90 20 89 21 45 23
REMARK SMILES IDX 77 24 57 25 76 26 58 27 61 28 75 29 94 30 59 31 60 32 74 34
REMARK SMILES IDX 95 35 62 36 46 37 47 38 55 39 48 40 54 41 56 42 53 43 49 44
REMARK SMILES IDX 50 45 51 46 52 47 78 48 79 49 87 50 80 51 86 52 88 53 85 54
REMARK SMILES IDX 81 55 82 56 83 57 84 58 63 59 64 60 72 61 65 62 71 63 73 64
REMARK SMILES IDX 70 65 66 66 67 67 68 68 69 69 5 70 6 71 7 72 8 73 9 74 10 75
REMARK SMILES IDX 14 76 11 77 13 78 12 79 15 80 16 81 36 82 17 83 18 84 19 85
REMARK SMILES IDX 20 86 21 87 34 88 22 89 23 90 33 91 31 92 32 93 35 94 24 96
REMARK SMILES IDX 25 97 30 98 26 99 28 100 27 101 29 102
REMARK H PARENT 93 22 61 33 35 95
REMARK Flexibility Score: inf
ROOT
ATOM      1  C   UNL A   1      39.285  19.563  25.743  1.00  0.00     0.275 C 
ENDROOT
BRANCH   1   2
ATOM      2  O   UNL A   1      39.739  20.871  26.139  1.00  0.00    -0.458 OA
BRANCH   2   3
ATOM      3  C   UNL A   1      39.027  21.992  26.413  1.00  0.00     0.338 C 
ATOM      4  O   UNL A   1      37.854  22.036  26.042  1.00  0.00    -0.246 OA
BRANCH   3   5
ATOM      5  C   UNL A   1      39.621  23.244  26.986  1.00  0.00     0.060 A 
ATOM      6  C   UNL A   1      40.597  23.311  27.978  1.00  0.00     0.016 A 
ATOM      7  C   UNL A   1      39.149  24.463  26.456  1.00  0.00     0.016 A 
ATOM      8  C   UNL A   1      41.148  24.533  28.364  1.00  0.00     0.010 A 
ATOM      9  C   UNL A   1      39.698  25.691  26.843  1.00  0.00     0.010 A 
ATOM     10  C   UNL A   1      40.723  25.727  27.785  1.00  0.00    -0.014 A 
BRANCH  10  11
ATOM     11  C   UNL A   1      41.194  27.025  28.321  1.00  0.00     0.031 A 
ATOM     12  C   UNL A   1      42.744  27.393  27.433  1.00  0.00     0.074 A 
ATOM     13  C   UNL A   1      40.338  27.798  29.246  1.00  0.00     0.049 A 
ATOM     14  N   UNL A   1      43.158  28.547  26.882  1.00  0.00    -0.248 NA
ATOM     15  C   UNL A   1      43.826  26.411  27.299  1.00  0.00     0.031 C 
ATOM     16  C   UNL A   1      38.894  27.809  29.086  1.00  0.00     0.029 A 
ATOM     17  N   UNL A   1      40.382  28.991  30.123  1.00  0.00    -0.354 N 
ATOM     18  C   UNL A   1      44.536  28.650  26.922  1.00  0.00     0.074 A 
ATOM     19  C   UNL A   1      44.870  27.196  26.951  1.00  0.00     0.031 C 
ATOM     20  C   UNL A   1      38.297  28.947  29.551  1.00  0.00     0.029 A 
ATOM     21  C   UNL A   1      39.281  29.883  30.148  1.00  0.00     0.049 A 
ATOM     22  H   UNL A   1      41.172  29.164  30.685  1.00  0.00     0.167 HD
ATOM     23  C   UNL A   1      45.409  29.740  27.145  1.00  0.00     0.034 A 
ATOM     24  C   UNL A   1      39.035  31.251  30.443  1.00  0.00     0.034 A 
ATOM     25  C   UNL A   1      45.243  31.231  27.714  1.00  0.00     0.049 A 
ATOM     26  C   UNL A   1      40.041  32.610  30.621  1.00  0.00     0.074 A 
ATOM     27  C   UNL A   1      46.198  31.992  28.418  1.00  0.00     0.029 A 
ATOM     28  N   UNL A   1      44.198  32.240  27.653  1.00  0.00    -0.354 N 
ATOM     29  N   UNL A   1      41.339  32.675  30.788  1.00  0.00    -0.248 NA
ATOM     30  C   UNL A   1      39.582  34.022  30.469  1.00  0.00     0.031 C 
ATOM     31  C   UNL A   1      45.627  33.155  29.065  1.00  0.00     0.029 A 
ATOM     32  C   UNL A   1      44.267  33.247  28.783  1.00  0.00     0.049 A 
ATOM     33  H   UNL A   1      43.512  32.266  26.946  1.00  0.00     0.167 HD
ATOM     34  C   UNL A   1      41.894  33.898  30.238  1.00  0.00     0.074 A 
ATOM     35  C   UNL A   1      40.708  34.750  30.291  1.00  0.00     0.031 C 
ATOM     36  C   UNL A   1      43.106  34.195  29.491  1.00  0.00     0.034 A 
BRANCH  23  37
ATOM     37  C   UNL A   1      46.850  29.237  27.006  1.00  0.00     0.023 A 
ATOM     38  C   UNL A   1      47.333  28.842  25.740  1.00  0.00     0.031 A 
ATOM     39  C   UNL A   1      47.666  28.970  28.120  1.00  0.00     0.131 A 
ATOM     40  C   UNL A   1      48.545  28.140  25.633  1.00  0.00     0.055 A 
ATOM     41  C   UNL A   1      48.926  28.375  27.991  1.00  0.00     0.041 A 
ATOM     42  F   UNL A   1      47.234  29.221  29.366  1.00  0.00    -0.206 F 
ATOM     43  C   UNL A   1      49.365  27.940  26.744  1.00  0.00     0.022 A 
BRANCH  40  44
ATOM     44  S   UNL A   1      48.937  27.312  24.064  1.00  0.00     0.124 S 
ATOM     45  O   UNL A   1      47.705  27.523  23.308  1.00  0.00    -0.237 OA
ATOM     46  O   UNL A   1      50.107  28.047  23.597  1.00  0.00    -0.237 OA
ATOM     47  O   UNL A   1      49.189  25.928  24.460  1.00  0.00    -0.744 OA
ENDBRANCH  40  44
ENDBRANCH  23  37
BRANCH  24  48
ATOM     48  C   UNL A   1      37.564  31.630  30.566  1.00  0.00     0.023 A 
ATOM     49  C   UNL A   1      36.804  32.169  29.511  1.00  0.00     0.031 A 
ATOM     50  C   UNL A   1      36.938  31.556  31.828  1.00  0.00     0.131 A 
ATOM     51  C   UNL A   1      35.524  32.707  29.759  1.00  0.00     0.055 A 
ATOM     52  C   UNL A   1      35.636  32.018  32.050  1.00  0.00     0.041 A 
ATOM     53  F   UNL A   1      37.592  31.040  32.879  1.00  0.00    -0.206 F 
ATOM     54  C   UNL A   1      34.932  32.625  31.018  1.00  0.00     0.022 A 
BRANCH  51  55
ATOM     55  S   UNL A   1      34.699  33.661  28.446  1.00  0.00     0.124 S 
ATOM     56  O   UNL A   1      34.430  34.924  29.122  1.00  0.00    -0.237 OA
ATOM     57  O   UNL A   1      35.729  33.691  27.413  1.00  0.00    -0.237 OA
ATOM     58  O   UNL A   1      33.520  32.858  28.130  1.00  0.00    -0.744 OA
ENDBRANCH  51  55
ENDBRANCH  24  48
BRANCH  36  59
ATOM     59  C   UNL A   1      43.559  35.606  29.781  1.00  0.00     0.023 A 
ATOM     60  C   UNL A   1      43.266  36.641  28.862  1.00  0.00     0.031 A 
ATOM     61  C   UNL A   1      44.135  35.962  31.002  1.00  0.00     0.131 A 
ATOM     62  C   UNL A   1      43.609  37.965  29.144  1.00  0.00     0.055 A 
ATOM     63  C   UNL A   1      44.443  37.294  31.298  1.00  0.00     0.041 A 
ATOM     64  F   UNL A   1      44.399  35.032  31.934  1.00  0.00    -0.206 F 
ATOM     65  C   UNL A   1      44.192  38.300  30.364  1.00  0.00     0.022 A 
BRANCH  62  66
ATOM     66  S   UNL A   1      43.314  39.226  27.874  1.00  0.00     0.124 S 
ATOM     67  O   UNL A   1      44.238  38.825  26.816  1.00  0.00    -0.237 OA
ATOM     68  O   UNL A   1      41.896  39.049  27.581  1.00  0.00    -0.237 OA
ATOM     69  O   UNL A   1      43.656  40.476  28.549  1.00  0.00    -0.744 OA
ENDBRANCH  62  66
ENDBRANCH  36  59
ENDBRANCH  10  11
ENDBRANCH   3   5
ENDBRANCH   2   3
ENDBRANCH   1   2
BRANCH   1  70
ATOM     70  C   UNL A   1      38.195  19.593  24.672  1.00  0.00     0.275 C 
BRANCH  70  71
ATOM     71  O   UNL A   1      37.109  18.704  24.965  1.00  0.00    -0.458 OA
BRANCH  71  72
ATOM     72  C   UNL A   1      35.880  19.262  24.924  1.00  0.00     0.338 C 
ATOM     73  O   UNL A   1      35.622  20.456  24.955  1.00  0.00    -0.246 OA
BRANCH  72  74
ATOM     74  C   UNL A   1      34.832  18.248  24.716  1.00  0.00     0.071 A 
ATOM     75  C   UNL A   1      35.231  16.917  24.960  1.00  0.00     0.016 A 
ATOM     76  C   UNL A   1      33.541  18.537  24.249  1.00  0.00     0.032 A 
ATOM     77  C   UNL A   1      34.352  15.859  24.747  1.00  0.00     0.001 A 
ATOM     78  C   UNL A   1      32.745  17.437  23.874  1.00  0.00     0.013 A 
ATOM     79  C   UNL A   1      33.117  16.118  24.171  1.00  0.00     0.001 A 
BRANCH  76  80
ATOM     80  C   UNL A   1      32.948  19.883  24.223  1.00  0.00     0.135 A 
ATOM     81  C   UNL A   1      32.158  20.612  25.075  1.00  0.00     0.051 A 
ATOM     82  O   UNL A   1      33.183  20.635  23.090  1.00  0.00    -0.457 OA
ATOM     83  C   UNL A   1      31.918  21.851  24.423  1.00  0.00     0.051 A 
ATOM     84  C   UNL A   1      32.567  21.860  23.182  1.00  0.00     0.128 A 
BRANCH  84  85
ATOM     85  C   UNL A   1      32.654  22.980  22.281  1.00  0.00     0.066 C 
ATOM     86  C   UNL A   1      32.867  24.311  22.444  1.00  0.00     0.106 C 
ATOM     87  C   UNL A   1      33.201  25.150  23.642  1.00  0.00     0.272 C 
ATOM     88  C   UNL A   1      32.878  25.126  21.226  1.00  0.00     0.228 C 
ATOM     89  O   UNL A   1      33.882  24.603  24.505  1.00  0.00    -0.268 OA
ATOM     90  N   UNL A   1      32.864  26.527  23.560  1.00  0.00    -0.226 N 
ATOM     91  N   UNL A   1      32.866  26.391  21.148  1.00  0.00    -0.156 NA
ATOM     92  C   UNL A   1      32.798  27.152  22.296  1.00  0.00     0.358 C 
ATOM     93  O   UNL A   1      32.783  28.365  22.153  1.00  0.00    -0.245 OA
BRANCH  88  94
ATOM     94  O   UNL A   1      32.990  24.460  20.064  1.00  0.00    -0.493 OA
ATOM     95  H   UNL A   1      32.919  23.527  20.050  1.00  0.00     0.295 HD
ENDBRANCH  88  94
BRANCH  90  96
ATOM     96  C   UNL A   1      32.746  27.391  24.757  1.00  0.00     0.055 A 
ATOM     97  C   UNL A   1      31.740  27.571  25.591  1.00  0.00     0.027 A 
ATOM     98  C   UNL A   1      33.688  28.095  25.412  1.00  0.00     0.042 A 
ATOM     99  C   UNL A   1      31.776  28.371  26.945  1.00  0.00     0.003 A 
ATOM    100  C   UNL A   1      33.777  28.973  26.744  1.00  0.00     0.020 A 
ATOM    101  C   UNL A   1      32.723  29.107  27.514  1.00  0.00     0.016 A 
ATOM    102  Br  UNL A   1      35.270  29.661  27.810  1.00  0.00    -0.051 Br
ENDBRANCH  90  96
ENDBRANCH  84  85
ENDBRANCH  76  80
ENDBRANCH  72  74
ENDBRANCH  71  72
ENDBRANCH  70  71
ENDBRANCH   1  70
TORSDOF 18
ENDMDL
MODEL 3
REMARK VINA RESULT:     -11.7      5.413      9.610
REMARK SMILES O=C(OCCOC(=O)c1ccccc1-c1ccc(/C=C2\C(=O)N(c3cccc(Br)c3)C(=O)N=C2O)o1)c1ccc(-c2c3nc(c(-c4cc(S(=O)(=O)[O-])ccc4F)c4ccc([nH]4)c(-c4cc(S(=O)(=O)[O-])ccc4F)c4nc(c(-c5cc(S(=O)(=O)[O-])ccc5F)c5ccc2[nH]5)C=C4)C=C3)cc1
REMARK SMILES IDX 4 1 3 2 2 3 1 4 37 5 38 6 99 7 39 8 98 9 40 10 41 11 42 12
REMARK SMILES IDX 92 13 43 14 97 15 91 16 93 17 44 18 96 19 90 20 89 21 45 23
REMARK SMILES IDX 77 24 57 25 76 26 58 27 61 28 75 29 94 30 59 31 60 32 74 34
REMARK SMILES IDX 95 35 62 36 46 37 47 38 55 39 48 40 54 41 56 42 53 43 49 44
REMARK SMILES IDX 50 45 51 46 52 47 78 48 79 49 87 50 80 51 86 52 88 53 85 54
REMARK SMILES IDX 81 55 82 56 83 57 84 58 63 59 64 60 72 61 65 62 71 63 73 64
REMARK SMILES IDX 70 65 66 66 67 67 68 68 69 69 5 70 6 71 7 72 8 73 9 74 10 75
REMARK SMILES IDX 14 76 11 77 13 78 12 79 15 80 16 81 36 82 17 83 18 84 19 85
REMARK SMILES IDX 20 86 21 87 34 88 22 89 23 90 33 91 31 92 32 93 35 94 24 96
REMARK SMILES IDX 25 97 30 98 26 99 28 100 27 101 29 102
REMARK H PARENT 93 22 61 33 35 95
REMARK Flexibility Score: inf
ROOT
ATOM      1  C   UNL A   1      32.162  30.044  25.980  1.00  0.00     0.275 C 
ENDROOT
BRANCH   1   2
ATOM      2  O   UNL A   1      32.579  30.641  27.223  1.00  0.00    -0.458 OA
BRANCH   2   3
ATOM      3  C   UNL A   1      33.546  31.559  27.465  1.00  0.00     0.338 C 
ATOM      4  O   UNL A   1      33.452  32.657  26.916  1.00  0.00    -0.246 OA
BRANCH   3   5
ATOM      5  C   UNL A   1      34.809  31.269  28.221  1.00  0.00     0.060 A 
ATOM      6  C   UNL A   1      35.215  30.024  28.696  1.00  0.00     0.016 A 
ATOM      7  C   UNL A   1      35.665  32.365  28.458  1.00  0.00     0.016 A 
ATOM      8  C   UNL A   1      36.461  29.855  29.300  1.00  0.00     0.010 A 
ATOM      9  C   UNL A   1      36.915  32.200  29.067  1.00  0.00     0.010 A 
ATOM     10  C   UNL A   1      37.328  30.932  29.469  1.00  0.00    -0.014 A 
BRANCH  10  11
ATOM     11  C   UNL A   1      38.571  30.772  30.259  1.00  0.00     0.031 A 
ATOM     12  C   UNL A   1      38.085  31.014  32.000  1.00  0.00     0.074 A 
ATOM     13  C   UNL A   1      39.814  30.320  29.598  1.00  0.00     0.049 A 
ATOM     14  N   UNL A   1      38.428  30.303  33.088  1.00  0.00    -0.248 NA
ATOM     15  C   UNL A   1      37.280  32.159  32.440  1.00  0.00     0.031 C 
ATOM     16  C   UNL A   1      39.770  29.348  28.520  1.00  0.00     0.029 A 
ATOM     17  N   UNL A   1      41.261  30.149  29.869  1.00  0.00    -0.354 N 
ATOM     18  C   UNL A   1      38.462  31.104  34.213  1.00  0.00     0.074 A 
ATOM     19  C   UNL A   1      37.497  32.154  33.774  1.00  0.00     0.031 C 
ATOM     20  C   UNL A   1      40.903  28.592  28.413  1.00  0.00     0.029 A 
ATOM     21  C   UNL A   1      41.927  28.984  29.412  1.00  0.00     0.049 A 
ATOM     22  H   UNL A   1      41.757  30.841  30.365  1.00  0.00     0.167 HD
ATOM     23  C   UNL A   1      39.316  31.135  35.342  1.00  0.00     0.034 A 
ATOM     24  C   UNL A   1      43.070  28.216  29.759  1.00  0.00     0.034 A 
ATOM     25  C   UNL A   1      40.742  30.497  35.706  1.00  0.00     0.049 A 
ATOM     26  C   UNL A   1      44.063  28.150  31.136  1.00  0.00     0.074 A 
ATOM     27  C   UNL A   1      41.729  31.031  36.558  1.00  0.00     0.029 A 
ATOM     28  N   UNL A   1      41.419  29.251  35.381  1.00  0.00    -0.354 N 
ATOM     29  N   UNL A   1      44.171  28.994  32.133  1.00  0.00    -0.248 NA
ATOM     30  C   UNL A   1      44.915  26.980  31.504  1.00  0.00     0.031 C 
ATOM     31  C   UNL A   1      43.013  30.377  36.415  1.00  0.00     0.029 A 
ATOM     32  C   UNL A   1      42.928  29.342  35.488  1.00  0.00     0.049 A 
ATOM     33  H   UNL A   1      40.943  28.430  35.118  1.00  0.00     0.167 HD
ATOM     34  C   UNL A   1      44.553  28.329  33.365  1.00  0.00     0.074 A 
ATOM     35  C   UNL A   1      45.217  27.152  32.811  1.00  0.00     0.031 C 
ATOM     36  C   UNL A   1      44.141  28.485  34.751  1.00  0.00     0.034 A 
BRANCH  23  37
ATOM     37  C   UNL A   1      38.810  32.222  36.296  1.00  0.00     0.023 A 
ATOM     38  C   UNL A   1      39.301  33.540  36.177  1.00  0.00     0.031 A 
ATOM     39  C   UNL A   1      38.011  31.929  37.416  1.00  0.00     0.131 A 
ATOM     40  C   UNL A   1      39.055  34.481  37.191  1.00  0.00     0.055 A 
ATOM     41  C   UNL A   1      37.673  32.905  38.361  1.00  0.00     0.041 A 
ATOM     42  F   UNL A   1      37.591  30.677  37.655  1.00  0.00    -0.206 F 
ATOM     43  C   UNL A   1      38.210  34.185  38.262  1.00  0.00     0.022 A 
BRANCH  40  44
ATOM     44  S   UNL A   1      40.015  36.022  37.201  1.00  0.00     0.124 S 
ATOM     45  O   UNL A   1      39.329  36.786  38.241  1.00  0.00    -0.237 OA
ATOM     46  O   UNL A   1      41.359  35.561  37.531  1.00  0.00    -0.237 OA
ATOM     47  O   UNL A   1      39.850  36.540  35.845  1.00  0.00    -0.744 OA
ENDBRANCH  40  44
ENDBRANCH  23  37
BRANCH  24  48
ATOM     48  C   UNL A   1      43.483  27.174  28.726  1.00  0.00     0.023 A 
ATOM     49  C   UNL A   1      44.507  27.371  27.781  1.00  0.00     0.031 A 
ATOM     50  C   UNL A   1      42.733  25.984  28.613  1.00  0.00     0.131 A 
ATOM     51  C   UNL A   1      44.677  26.462  26.716  1.00  0.00     0.055 A 
ATOM     52  C   UNL A   1      42.961  25.045  27.601  1.00  0.00     0.041 A 
ATOM     53  F   UNL A   1      41.751  25.717  29.486  1.00  0.00    -0.206 F 
ATOM     54  C   UNL A   1      43.919  25.296  26.627  1.00  0.00     0.022 A 
BRANCH  51  55
ATOM     55  S   UNL A   1      45.803  26.901  25.355  1.00  0.00     0.124 S 
ATOM     56  O   UNL A   1      45.020  27.897  24.633  1.00  0.00    -0.237 OA
ATOM     57  O   UNL A   1      46.965  27.400  26.082  1.00  0.00    -0.237 OA
ATOM     58  O   UNL A   1      46.001  25.634  24.652  1.00  0.00    -0.744 OA
ENDBRANCH  51  55
ENDBRANCH  24  48
BRANCH  36  59
ATOM     59  C   UNL A   1      45.278  28.114  35.673  1.00  0.00     0.023 A 
ATOM     60  C   UNL A   1      45.298  26.839  36.285  1.00  0.00     0.031 A 
ATOM     61  C   UNL A   1      46.397  28.933  35.834  1.00  0.00     0.131 A 
ATOM     62  C   UNL A   1      46.376  26.447  37.082  1.00  0.00     0.055 A 
ATOM     63  C   UNL A   1      47.492  28.523  36.601  1.00  0.00     0.041 A 
ATOM     64  F   UNL A   1      46.457  30.137  35.244  1.00  0.00    -0.206 F 
ATOM     65  C   UNL A   1      47.480  27.282  37.239  1.00  0.00     0.022 A 
BRANCH  62  66
ATOM     66  S   UNL A   1      46.287  24.849  37.935  1.00  0.00     0.124 S 
ATOM     67  O   UNL A   1      46.941  23.951  36.987  1.00  0.00    -0.237 OA
ATOM     68  O   UNL A   1      47.018  25.113  39.170  1.00  0.00    -0.237 OA
ATOM     69  O   UNL A   1      44.851  24.631  38.101  1.00  0.00    -0.744 OA
ENDBRANCH  62  66
ENDBRANCH  36  59
ENDBRANCH  10  11
ENDBRANCH   3   5
ENDBRANCH   2   3
ENDBRANCH   1   2
BRANCH   1  70
ATOM     70  C   UNL A   1      33.266  29.243  25.288  1.00  0.00     0.275 C 
BRANCH  70  71
ATOM     71  O   UNL A   1      33.218  29.358  23.860  1.00  0.00    -0.458 OA
BRANCH  71  72
ATOM     72  C   UNL A   1      32.740  28.274  23.211  1.00  0.00     0.338 C 
ATOM     73  O   UNL A   1      33.382  27.292  22.867  1.00  0.00    -0.246 OA
BRANCH  72  74
ATOM     74  C   UNL A   1      31.278  28.342  23.045  1.00  0.00     0.071 A 
ATOM     75  C   UNL A   1      30.831  29.236  22.048  1.00  0.00     0.016 A 
ATOM     76  C   UNL A   1      30.364  27.637  23.841  1.00  0.00     0.032 A 
ATOM     77  C   UNL A   1      29.471  29.435  21.830  1.00  0.00     0.001 A 
ATOM     78  C   UNL A   1      29.009  27.998  23.715  1.00  0.00     0.013 A 
ATOM     79  C   UNL A   1      28.558  28.840  22.688  1.00  0.00     0.001 A 
BRANCH  76  80
ATOM     80  C   UNL A   1      30.718  26.500  24.705  1.00  0.00     0.135 A 
ATOM     81  C   UNL A   1      30.670  26.254  26.054  1.00  0.00     0.051 A 
ATOM     82  O   UNL A   1      31.251  25.395  24.076  1.00  0.00    -0.457 OA
ATOM     83  C   UNL A   1      31.193  24.946  26.233  1.00  0.00     0.051 A 
ATOM     84  C   UNL A   1      31.551  24.411  24.989  1.00  0.00     0.128 A 
BRANCH  84  85
ATOM     85  C   UNL A   1      32.011  23.068  24.745  1.00  0.00     0.066 C 
ATOM     86  C   UNL A   1      33.164  22.400  25.008  1.00  0.00     0.106 C 
ATOM     87  C   UNL A   1      34.407  22.773  25.760  1.00  0.00     0.272 C 
ATOM     88  C   UNL A   1      33.222  21.002  24.577  1.00  0.00     0.228 C 
ATOM     89  O   UNL A   1      34.251  23.539  26.707  1.00  0.00    -0.268 OA
ATOM     90  N   UNL A   1      35.586  22.056  25.422  1.00  0.00    -0.226 N 
ATOM     91  N   UNL A   1      34.243  20.251  24.542  1.00  0.00    -0.156 NA
ATOM     92  C   UNL A   1      35.478  20.748  24.901  1.00  0.00     0.358 C 
ATOM     93  O   UNL A   1      36.422  19.976  24.839  1.00  0.00    -0.245 OA
BRANCH  88  94
ATOM     94  O   UNL A   1      32.051  20.427  24.254  1.00  0.00    -0.493 OA
ATOM     95  H   UNL A   1      31.296  20.568  24.790  1.00  0.00     0.295 HD
ENDBRANCH  88  94
BRANCH  90  96
ATOM     96  C   UNL A   1      36.942  22.551  25.753  1.00  0.00     0.055 A 
ATOM     97  C   UNL A   1      37.365  23.765  26.046  1.00  0.00     0.027 A 
ATOM     98  C   UNL A   1      38.074  21.869  26.007  1.00  0.00     0.042 A 
ATOM     99  C   UNL A   1      38.796  24.159  26.568  1.00  0.00     0.003 A 
ATOM    100  C   UNL A   1      39.563  22.207  26.476  1.00  0.00     0.020 A 
ATOM    101  C   UNL A   1      39.903  23.446  26.739  1.00  0.00     0.016 A 
ATOM    102  Br  UNL A   1      41.040  21.121  27.168  1.00  0.00    -0.051 Br
ENDBRANCH  90  96
ENDBRANCH  84  85
ENDBRANCH  76  80
ENDBRANCH  72  74
ENDBRANCH  71  72
ENDBRANCH  70  71
ENDBRANCH   1  70
TORSDOF 18
ENDMDL
