MODEL 1
REMARK VINA RESULT:     -10.4      0.000      0.000
REMARK SMILES CCOC(=O)CS(=O)(=O)N1CCC(CC(=O)OCCOC(=O)c2ccc(-c3c4nc(c(-c5cc(S(=O)(=O)[O-])ccc5F)c5ccc([nH]5)c(-c5cc(S(=O)(=O)[O-])ccc5F)c5nc(c(-c6cc(S(=O)(=O)[O-])ccc6F)c6ccc3[nH]6)C=C5)C=C4)cc2)CC1
REMARK SMILES IDX 17 1 15 2 16 3 14 4 13 5 10 6 11 7 87 8 12 9 86 10 7 11 8 12
REMARK SMILES IDX 9 13 6 14 4 15 5 16 3 17 2 18 1 19 18 20 19 21 20 22 21 23
REMARK SMILES IDX 22 24 23 25 24 26 85 27 25 28 84 29 26 30 27 31 28 32 78 33
REMARK SMILES IDX 29 34 83 35 77 36 79 37 30 38 82 39 76 40 75 41 31 43 63 44
REMARK SMILES IDX 43 45 62 46 44 47 47 48 61 49 80 50 45 51 46 52 60 54 81 55
REMARK SMILES IDX 48 56 32 57 33 58 41 59 34 60 40 61 42 62 39 63 35 64 36 65
REMARK SMILES IDX 37 66 38 67 64 68 65 69 73 70 66 71 72 72 74 73 71 74 67 75
REMARK SMILES IDX 68 76 69 77 70 78 49 79 50 80 58 81 51 82 57 83 59 84 56 85
REMARK SMILES IDX 52 86 53 87 54 88 55 89
REMARK H PARENT 79 42 47 53
REMARK Flexibility Score: inf
ROOT
ATOM      1  O   UNL A   1      30.246  29.336  23.916  1.00  0.00    -0.462 OA
ENDROOT
BRANCH   1   2
ATOM      2  C   UNL A   1      29.967  28.400  22.977  1.00  0.00     0.306 C 
ATOM      3  O   UNL A   1      30.444  28.386  21.850  1.00  0.00    -0.252 OA
BRANCH   2   4
ATOM      4  C   UNL A   1      28.924  27.393  23.441  1.00  0.00     0.126 C 
BRANCH   4   5
ATOM      5  C   UNL A   1      29.451  26.058  24.000  1.00  0.00     0.003 C 
ATOM      6  N   UNL A   1      31.712  24.495  25.102  1.00  0.00    -0.201 NA
ATOM      7  C   UNL A   1      31.167  24.248  23.752  1.00  0.00     0.102 C 
ATOM      8  C   UNL A   1      30.599  24.945  26.010  1.00  0.00     0.102 C 
ATOM      9  C   UNL A   1      30.617  25.528  23.167  1.00  0.00     0.021 C 
ATOM     10  C   UNL A   1      29.929  26.213  25.459  1.00  0.00     0.021 C 
BRANCH   6  11
ATOM     11  S   UNL A   1      32.612  23.198  25.770  1.00  0.00     0.224 S 
ATOM     12  O   UNL A   1      32.655  22.128  24.800  1.00  0.00    -0.212 OA
ATOM     13  O   UNL A   1      32.042  22.948  27.081  1.00  0.00    -0.212 OA
BRANCH  11  14
ATOM     14  C   UNL A   1      34.243  23.836  26.067  1.00  0.00     0.276 C 
BRANCH  14  15
ATOM     15  C   UNL A   1      35.319  22.840  26.327  1.00  0.00     0.322 C 
ATOM     16  O   UNL A   1      35.060  21.680  26.645  1.00  0.00    -0.251 OA
BRANCH  15  17
ATOM     17  O   UNL A   1      36.579  23.296  26.136  1.00  0.00    -0.465 OA
BRANCH  17  18
ATOM     18  C   UNL A   1      36.983  23.598  24.788  1.00  0.00     0.229 C 
ATOM     19  C   UNL A   1      36.768  22.407  23.867  1.00  0.00     0.049 C 
ENDBRANCH  17  18
ENDBRANCH  15  17
ENDBRANCH  14  15
ENDBRANCH  11  14
ENDBRANCH   6  11
ENDBRANCH   4   5
ENDBRANCH   2   4
ENDBRANCH   1   2
BRANCH   1  20
ATOM     20  C   UNL A   1      31.591  29.408  24.424  1.00  0.00     0.274 C 
BRANCH  20  21
ATOM     21  C   UNL A   1      31.648  30.284  25.677  1.00  0.00     0.275 C 
BRANCH  21  22
ATOM     22  O   UNL A   1      32.977  30.296  26.223  1.00  0.00    -0.458 OA
BRANCH  22  23
ATOM     23  C   UNL A   1      33.285  31.372  26.987  1.00  0.00     0.338 C 
ATOM     24  O   UNL A   1      32.613  32.372  27.162  1.00  0.00    -0.246 OA
BRANCH  23  25
ATOM     25  C   UNL A   1      34.534  31.075  27.705  1.00  0.00     0.060 A 
ATOM     26  C   UNL A   1      35.449  32.110  27.911  1.00  0.00     0.016 A 
ATOM     27  C   UNL A   1      34.794  29.787  28.172  1.00  0.00     0.016 A 
ATOM     28  C   UNL A   1      36.627  31.866  28.613  1.00  0.00     0.010 A 
ATOM     29  C   UNL A   1      35.973  29.546  28.881  1.00  0.00     0.010 A 
ATOM     30  C   UNL A   1      36.892  30.585  29.113  1.00  0.00    -0.014 A 
BRANCH  30  31
ATOM     31  C   UNL A   1      38.134  30.319  29.877  1.00  0.00     0.031 A 
ATOM     32  C   UNL A   1      39.157  29.370  29.329  1.00  0.00     0.074 A 
ATOM     33  C   UNL A   1      38.324  30.915  31.069  1.00  0.00     0.049 A 
ATOM     34  N   UNL A   1      40.228  28.885  29.900  1.00  0.00    -0.248 NA
ATOM     35  C   UNL A   1      38.936  28.902  27.953  1.00  0.00     0.031 C 
ATOM     36  C   UNL A   1      37.425  31.901  31.671  1.00  0.00     0.029 A 
ATOM     37  N   UNL A   1      39.328  30.769  31.992  1.00  0.00    -0.354 N 
ATOM     38  C   UNL A   1      40.809  28.043  28.959  1.00  0.00     0.074 A 
ATOM     39  C   UNL A   1      39.950  28.063  27.792  1.00  0.00     0.031 C 
ATOM     40  C   UNL A   1      37.916  32.267  32.867  1.00  0.00     0.029 A 
ATOM     41  C   UNL A   1      39.125  31.495  33.143  1.00  0.00     0.049 A 
ATOM     42  H   UNL A   1      40.118  30.201  31.846  1.00  0.00     0.167 HD
ATOM     43  C   UNL A   1      41.956  27.325  29.063  1.00  0.00     0.034 A 
ATOM     44  C   UNL A   1      39.809  31.501  34.304  1.00  0.00     0.034 A 
ATOM     45  C   UNL A   1      42.786  27.312  30.244  1.00  0.00     0.049 A 
ATOM     46  C   UNL A   1      41.007  30.598  34.445  1.00  0.00     0.074 A 
ATOM     47  C   UNL A   1      43.971  26.629  30.460  1.00  0.00     0.029 A 
ATOM     48  N   UNL A   1      42.512  28.005  31.417  1.00  0.00    -0.354 N 
ATOM     49  N   UNL A   1      41.537  29.785  33.559  1.00  0.00    -0.248 NA
ATOM     50  C   UNL A   1      41.692  30.602  35.744  1.00  0.00     0.031 C 
ATOM     51  C   UNL A   1      44.371  26.851  31.782  1.00  0.00     0.029 A 
ATOM     52  C   UNL A   1      43.480  27.734  32.372  1.00  0.00     0.049 A 
ATOM     53  H   UNL A   1      41.742  28.603  31.550  1.00  0.00     0.167 HD
ATOM     54  C   UNL A   1      42.631  29.199  34.189  1.00  0.00     0.074 A 
ATOM     55  C   UNL A   1      42.691  29.761  35.524  1.00  0.00     0.031 C 
ATOM     56  C   UNL A   1      43.512  28.286  33.706  1.00  0.00     0.034 A 
BRANCH  43  57
ATOM     57  C   UNL A   1      42.333  26.454  27.890  1.00  0.00     0.023 A 
ATOM     58  C   UNL A   1      41.869  25.132  27.771  1.00  0.00     0.031 A 
ATOM     59  C   UNL A   1      43.207  26.936  26.900  1.00  0.00     0.131 A 
ATOM     60  C   UNL A   1      42.342  24.315  26.731  1.00  0.00     0.055 A 
ATOM     61  C   UNL A   1      43.609  26.143  25.823  1.00  0.00     0.041 A 
ATOM     62  F   UNL A   1      43.701  28.182  26.971  1.00  0.00    -0.206 F 
ATOM     63  C   UNL A   1      43.191  24.819  25.743  1.00  0.00     0.022 A 
BRANCH  60  64
ATOM     64  S   UNL A   1      41.956  22.543  26.780  1.00  0.00     0.124 S 
ATOM     65  O   UNL A   1      40.548  22.558  27.171  1.00  0.00    -0.237 OA
ATOM     66  O   UNL A   1      42.236  22.121  25.413  1.00  0.00    -0.237 OA
ATOM     67  O   UNL A   1      42.871  22.022  27.795  1.00  0.00    -0.744 OA
ENDBRANCH  60  64
ENDBRANCH  43  57
BRANCH  44  68
ATOM     68  C   UNL A   1      39.344  32.338  35.448  1.00  0.00     0.023 A 
ATOM     69  C   UNL A   1      39.793  33.658  35.607  1.00  0.00     0.031 A 
ATOM     70  C   UNL A   1      38.472  31.816  36.420  1.00  0.00     0.131 A 
ATOM     71  C   UNL A   1      39.395  34.400  36.730  1.00  0.00     0.055 A 
ATOM     72  C   UNL A   1      38.037  32.576  37.506  1.00  0.00     0.041 A 
ATOM     73  F   UNL A   1      38.016  30.557  36.319  1.00  0.00    -0.206 F 
ATOM     74  C   UNL A   1      38.508  33.874  37.672  1.00  0.00     0.022 A 
BRANCH  71  75
ATOM     75  S   UNL A   1      40.112  36.048  36.981  1.00  0.00     0.124 S 
ATOM     76  O   UNL A   1      39.826  36.693  35.705  1.00  0.00    -0.237 OA
ATOM     77  O   UNL A   1      39.358  36.535  38.131  1.00  0.00    -0.237 OA
ATOM     78  O   UNL A   1      41.524  35.768  37.237  1.00  0.00    -0.744 OA
ENDBRANCH  71  75
ENDBRANCH  44  68
BRANCH  56  79
ATOM     79  C   UNL A   1      44.634  27.867  34.623  1.00  0.00     0.023 A 
ATOM     80  C   UNL A   1      44.528  26.734  35.449  1.00  0.00     0.031 A 
ATOM     81  C   UNL A   1      45.823  28.616  34.672  1.00  0.00     0.131 A 
ATOM     82  C   UNL A   1      45.579  26.407  36.322  1.00  0.00     0.055 A 
ATOM     83  C   UNL A   1      46.885  28.254  35.501  1.00  0.00     0.041 A 
ATOM     84  F   UNL A   1      45.973  29.709  33.907  1.00  0.00    -0.206 F 
ATOM     85  C   UNL A   1      46.762  27.150  36.339  1.00  0.00     0.022 A 
BRANCH  82  86
ATOM     86  S   UNL A   1      45.353  25.033  37.484  1.00  0.00     0.124 S 
ATOM     87  O   UNL A   1      46.681  24.916  38.076  1.00  0.00    -0.237 OA
ATOM     88  O   UNL A   1      44.303  25.535  38.365  1.00  0.00    -0.237 OA
ATOM     89  O   UNL A   1      44.957  23.919  36.624  1.00  0.00    -0.744 OA
ENDBRANCH  82  86
ENDBRANCH  56  79
ENDBRANCH  30  31
ENDBRANCH  23  25
ENDBRANCH  22  23
ENDBRANCH  21  22
ENDBRANCH  20  21
ENDBRANCH   1  20
TORSDOF 20
ENDMDL
MODEL 2
REMARK VINA RESULT:     -10.4      1.763      2.149
REMARK SMILES CCOC(=O)CS(=O)(=O)N1CCC(CC(=O)OCCOC(=O)c2ccc(-c3c4nc(c(-c5cc(S(=O)(=O)[O-])ccc5F)c5ccc([nH]5)c(-c5cc(S(=O)(=O)[O-])ccc5F)c5nc(c(-c6cc(S(=O)(=O)[O-])ccc6F)c6ccc3[nH]6)C=C5)C=C4)cc2)CC1
REMARK SMILES IDX 17 1 15 2 16 3 14 4 13 5 10 6 11 7 87 8 12 9 86 10 7 11 8 12
REMARK SMILES IDX 9 13 6 14 4 15 5 16 3 17 2 18 1 19 18 20 19 21 20 22 21 23
REMARK SMILES IDX 22 24 23 25 24 26 85 27 25 28 84 29 26 30 27 31 28 32 78 33
REMARK SMILES IDX 29 34 83 35 77 36 79 37 30 38 82 39 76 40 75 41 31 43 63 44
REMARK SMILES IDX 43 45 62 46 44 47 47 48 61 49 80 50 45 51 46 52 60 54 81 55
REMARK SMILES IDX 48 56 32 57 33 58 41 59 34 60 40 61 42 62 39 63 35 64 36 65
REMARK SMILES IDX 37 66 38 67 64 68 65 69 73 70 66 71 72 72 74 73 71 74 67 75
REMARK SMILES IDX 68 76 69 77 70 78 49 79 50 80 58 81 51 82 57 83 59 84 56 85
REMARK SMILES IDX 52 86 53 87 54 88 55 89
REMARK H PARENT 79 42 47 53
REMARK Flexibility Score: inf
ROOT
ATOM      1  O   UNL A   1      30.449  29.358  24.227  1.00  0.00    -0.462 OA
ENDROOT
BRANCH   1   2
ATOM      2  C   UNL A   1      30.137  28.581  23.161  1.00  0.00     0.306 C 
ATOM      3  O   UNL A   1      30.478  28.816  22.010  1.00  0.00    -0.252 OA
BRANCH   2   4
ATOM      4  C   UNL A   1      29.241  27.408  23.531  1.00  0.00     0.126 C 
BRANCH   4   5
ATOM      5  C   UNL A   1      29.942  26.135  24.043  1.00  0.00     0.003 C 
ATOM      6  N   UNL A   1      32.328  24.883  25.273  1.00  0.00    -0.201 NA
ATOM      7  C   UNL A   1      31.971  24.676  23.855  1.00  0.00     0.102 C 
ATOM      8  C   UNL A   1      31.068  25.048  26.080  1.00  0.00     0.102 C 
ATOM      9  C   UNL A   1      31.260  25.893  23.310  1.00  0.00     0.021 C 
ATOM     10  C   UNL A   1      30.239  26.231  25.554  1.00  0.00     0.021 C 
BRANCH   6  11
ATOM     11  S   UNL A   1      33.376  23.701  25.938  1.00  0.00     0.224 S 
ATOM     12  O   UNL A   1      32.773  23.189  27.147  1.00  0.00    -0.212 OA
ATOM     13  O   UNL A   1      34.687  24.320  26.003  1.00  0.00    -0.212 OA
BRANCH  11  14
ATOM     14  C   UNL A   1      33.506  22.420  24.716  1.00  0.00     0.276 C 
BRANCH  14  15
ATOM     15  C   UNL A   1      34.228  21.179  25.114  1.00  0.00     0.322 C 
ATOM     16  O   UNL A   1      34.994  21.161  26.076  1.00  0.00    -0.251 OA
BRANCH  15  17
ATOM     17  O   UNL A   1      33.936  20.085  24.374  1.00  0.00    -0.465 OA
BRANCH  17  18
ATOM     18  C   UNL A   1      32.571  19.625  24.372  1.00  0.00     0.229 C 
ATOM     19  C   UNL A   1      32.404  18.397  23.490  1.00  0.00     0.049 C 
ENDBRANCH  17  18
ENDBRANCH  15  17
ENDBRANCH  14  15
ENDBRANCH  11  14
ENDBRANCH   6  11
ENDBRANCH   4   5
ENDBRANCH   2   4
ENDBRANCH   1   2
BRANCH   1  20
ATOM     20  C   UNL A   1      31.809  29.350  24.699  1.00  0.00     0.274 C 
BRANCH  20  21
ATOM     21  C   UNL A   1      31.985  30.341  25.851  1.00  0.00     0.275 C 
BRANCH  21  22
ATOM     22  O   UNL A   1      33.310  30.245  26.400  1.00  0.00    -0.458 OA
BRANCH  22  23
ATOM     23  C   UNL A   1      33.687  31.273  27.198  1.00  0.00     0.338 C 
ATOM     24  O   UNL A   1      33.050  32.275  27.465  1.00  0.00    -0.246 OA
BRANCH  23  25
ATOM     25  C   UNL A   1      34.969  30.914  27.822  1.00  0.00     0.060 A 
ATOM     26  C   UNL A   1      35.956  31.897  27.938  1.00  0.00     0.016 A 
ATOM     27  C   UNL A   1      35.192  29.620  28.292  1.00  0.00     0.016 A 
ATOM     28  C   UNL A   1      37.169  31.595  28.551  1.00  0.00     0.010 A 
ATOM     29  C   UNL A   1      36.407  29.320  28.912  1.00  0.00     0.010 A 
ATOM     30  C   UNL A   1      37.399  30.308  29.053  1.00  0.00    -0.014 A 
BRANCH  30  31
ATOM     31  C   UNL A   1      38.680  29.980  29.723  1.00  0.00     0.031 A 
ATOM     32  C   UNL A   1      39.617  28.991  29.097  1.00  0.00     0.074 A 
ATOM     33  C   UNL A   1      38.983  30.558  30.900  1.00  0.00     0.049 A 
ATOM     34  N   UNL A   1      40.703  28.454  29.586  1.00  0.00    -0.248 NA
ATOM     35  C   UNL A   1      39.276  28.544  27.739  1.00  0.00     0.031 C 
ATOM     36  C   UNL A   1      38.176  31.578  31.571  1.00  0.00     0.029 A 
ATOM     37  N   UNL A   1      40.044  30.361  31.747  1.00  0.00    -0.354 N 
ATOM     38  C   UNL A   1      41.176  27.594  28.601  1.00  0.00     0.074 A 
ATOM     39  C   UNL A   1      40.236  27.662  27.501  1.00  0.00     0.031 C 
ATOM     40  C   UNL A   1      38.768  31.913  32.729  1.00  0.00     0.029 A 
ATOM     41  C   UNL A   1      39.958  31.086  32.913  1.00  0.00     0.049 A 
ATOM     42  H   UNL A   1      40.795  29.758  31.541  1.00  0.00     0.167 HD
ATOM     43  C   UNL A   1      42.294  26.825  28.618  1.00  0.00     0.034 A 
ATOM     44  C   UNL A   1      40.724  31.052  34.021  1.00  0.00     0.034 A 
ATOM     45  C   UNL A   1      43.206  26.766  29.736  1.00  0.00     0.049 A 
ATOM     46  C   UNL A   1      41.887  30.095  34.070  1.00  0.00     0.074 A 
ATOM     47  C   UNL A   1      44.372  26.029  29.862  1.00  0.00     0.029 A 
ATOM     48  N   UNL A   1      43.050  27.462  30.928  1.00  0.00    -0.354 N 
ATOM     49  N   UNL A   1      42.314  29.267  33.144  1.00  0.00    -0.248 NA
ATOM     50  C   UNL A   1      42.664  30.059  35.316  1.00  0.00     0.031 C 
ATOM     51  C   UNL A   1      44.877  26.223  31.152  1.00  0.00     0.029 A 
ATOM     52  C   UNL A   1      44.072  27.140  31.809  1.00  0.00     0.049 A 
ATOM     53  H   UNL A   1      42.319  28.092  31.121  1.00  0.00     0.167 HD
ATOM     54  C   UNL A   1      43.424  28.627  33.690  1.00  0.00     0.074 A 
ATOM     55  C   UNL A   1      43.606  29.176  35.019  1.00  0.00     0.031 C 
ATOM     56  C   UNL A   1      44.225  27.680  33.140  1.00  0.00     0.034 A 
BRANCH  43  57
ATOM     57  C   UNL A   1      42.545  25.947  27.417  1.00  0.00     0.023 A 
ATOM     58  C   UNL A   1      42.076  24.623  27.358  1.00  0.00     0.031 A 
ATOM     59  C   UNL A   1      43.306  26.424  26.335  1.00  0.00     0.131 A 
ATOM     60  C   UNL A   1      42.436  23.800  26.278  1.00  0.00     0.055 A 
ATOM     61  C   UNL A   1      43.592  25.626  25.227  1.00  0.00     0.041 A 
ATOM     62  F   UNL A   1      43.800  27.673  26.345  1.00  0.00    -0.206 F 
ATOM     63  C   UNL A   1      43.172  24.300  25.201  1.00  0.00     0.022 A 
BRANCH  60  64
ATOM     64  S   UNL A   1      42.064  22.028  26.380  1.00  0.00     0.124 S 
ATOM     65  O   UNL A   1      42.884  21.491  25.295  1.00  0.00    -0.237 OA
ATOM     66  O   UNL A   1      42.494  21.692  27.732  1.00  0.00    -0.237 OA
ATOM     67  O   UNL A   1      40.622  21.967  26.150  1.00  0.00    -0.744 OA
ENDBRANCH  60  64
ENDBRANCH  43  57
BRANCH  44  68
ATOM     68  C   UNL A   1      40.382  31.900  35.199  1.00  0.00     0.023 A 
ATOM     69  C   UNL A   1      39.366  31.524  36.091  1.00  0.00     0.031 A 
ATOM     70  C   UNL A   1      41.044  33.120  35.430  1.00  0.00     0.131 A 
ATOM     71  C   UNL A   1      39.017  32.374  37.152  1.00  0.00     0.055 A 
ATOM     72  C   UNL A   1      40.729  33.936  36.517  1.00  0.00     0.041 A 
ATOM     73  F   UNL A   1      42.021  33.530  34.605  1.00  0.00    -0.206 F 
ATOM     74  C   UNL A   1      39.703  33.570  37.380  1.00  0.00     0.022 A 
BRANCH  71  75
ATOM     75  S   UNL A   1      37.601  31.928  38.194  1.00  0.00     0.124 S 
ATOM     76  O   UNL A   1      38.146  32.119  39.533  1.00  0.00    -0.237 OA
ATOM     77  O   UNL A   1      36.593  32.892  37.766  1.00  0.00    -0.237 OA
ATOM     78  O   UNL A   1      37.329  30.541  37.822  1.00  0.00    -0.744 OA
ENDBRANCH  71  75
ENDBRANCH  44  68
BRANCH  56  79
ATOM     79  C   UNL A   1      45.391  27.204  33.971  1.00  0.00     0.023 A 
ATOM     80  C   UNL A   1      45.292  26.076  34.804  1.00  0.00     0.031 A 
ATOM     81  C   UNL A   1      46.615  27.894  33.929  1.00  0.00     0.131 A 
ATOM     82  C   UNL A   1      46.388  25.696  35.596  1.00  0.00     0.055 A 
ATOM     83  C   UNL A   1      47.717  27.478  34.678  1.00  0.00     0.041 A 
ATOM     84  F   UNL A   1      46.761  28.980  33.154  1.00  0.00    -0.206 F 
ATOM     85  C   UNL A   1      47.604  26.379  35.524  1.00  0.00     0.022 A 
BRANCH  82  86
ATOM     86  S   UNL A   1      46.182  24.331  36.773  1.00  0.00     0.124 S 
ATOM     87  O   UNL A   1      44.856  24.601  37.320  1.00  0.00    -0.237 OA
ATOM     88  O   UNL A   1      46.290  23.155  35.914  1.00  0.00    -0.237 OA
ATOM     89  O   UNL A   1      47.289  24.516  37.709  1.00  0.00    -0.744 OA
ENDBRANCH  82  86
ENDBRANCH  56  79
ENDBRANCH  30  31
ENDBRANCH  23  25
ENDBRANCH  22  23
ENDBRANCH  21  22
ENDBRANCH  20  21
ENDBRANCH   1  20
TORSDOF 20
ENDMDL
MODEL 3
REMARK VINA RESULT:      -9.7      2.583      3.239
REMARK SMILES CCOC(=O)CS(=O)(=O)N1CCC(CC(=O)OCCOC(=O)c2ccc(-c3c4nc(c(-c5cc(S(=O)(=O)[O-])ccc5F)c5ccc([nH]5)c(-c5cc(S(=O)(=O)[O-])ccc5F)c5nc(c(-c6cc(S(=O)(=O)[O-])ccc6F)c6ccc3[nH]6)C=C5)C=C4)cc2)CC1
REMARK SMILES IDX 17 1 15 2 16 3 14 4 13 5 10 6 11 7 87 8 12 9 86 10 7 11 8 12
REMARK SMILES IDX 9 13 6 14 4 15 5 16 3 17 2 18 1 19 18 20 19 21 20 22 21 23
REMARK SMILES IDX 22 24 23 25 24 26 85 27 25 28 84 29 26 30 27 31 28 32 78 33
REMARK SMILES IDX 29 34 83 35 77 36 79 37 30 38 82 39 76 40 75 41 31 43 63 44
REMARK SMILES IDX 43 45 62 46 44 47 47 48 61 49 80 50 45 51 46 52 60 54 81 55
REMARK SMILES IDX 48 56 32 57 33 58 41 59 34 60 40 61 42 62 39 63 35 64 36 65
REMARK SMILES IDX 37 66 38 67 64 68 65 69 73 70 66 71 72 72 74 73 71 74 67 75
REMARK SMILES IDX 68 76 69 77 70 78 49 79 50 80 58 81 51 82 57 83 59 84 56 85
REMARK SMILES IDX 52 86 53 87 54 88 55 89
REMARK H PARENT 79 42 47 53
REMARK Flexibility Score: inf
ROOT
ATOM      1  O   UNL A   1      31.160  28.938  25.328  1.00  0.00    -0.462 OA
ENDROOT
BRANCH   1   2
ATOM      2  C   UNL A   1      31.210  27.918  24.438  1.00  0.00     0.306 C 
ATOM      3  O   UNL A   1      30.251  27.510  23.799  1.00  0.00    -0.252 OA
BRANCH   2   4
ATOM      4  C   UNL A   1      32.584  27.266  24.367  1.00  0.00     0.126 C 
BRANCH   4   5
ATOM      5  C   UNL A   1      32.644  25.750  24.631  1.00  0.00     0.003 C 
ATOM      6  N   UNL A   1      34.176  23.413  25.615  1.00  0.00    -0.201 NA
ATOM      7  C   UNL A   1      33.891  23.622  24.181  1.00  0.00     0.102 C 
ATOM      8  C   UNL A   1      33.034  23.958  26.430  1.00  0.00     0.102 C 
ATOM      9  C   UNL A   1      33.800  25.099  23.874  1.00  0.00     0.021 C 
ATOM     10  C   UNL A   1      32.821  25.451  26.135  1.00  0.00     0.021 C 
BRANCH   6  11
ATOM     11  S   UNL A   1      34.575  21.804  26.049  1.00  0.00     0.224 S 
ATOM     12  O   UNL A   1      33.967  21.514  27.327  1.00  0.00    -0.212 OA
ATOM     13  O   UNL A   1      36.015  21.695  25.904  1.00  0.00    -0.212 OA
BRANCH  11  14
ATOM     14  C   UNL A   1      33.883  20.770  24.782  1.00  0.00     0.276 C 
BRANCH  14  15
ATOM     15  C   UNL A   1      32.517  20.229  25.024  1.00  0.00     0.322 C 
ATOM     16  O   UNL A   1      31.565  20.969  25.266  1.00  0.00    -0.251 OA
BRANCH  15  17
ATOM     17  O   UNL A   1      32.404  18.886  24.906  1.00  0.00    -0.465 OA
BRANCH  17  18
ATOM     18  C   UNL A   1      33.596  18.140  24.593  1.00  0.00     0.229 C 
ATOM     19  C   UNL A   1      33.432  17.354  23.302  1.00  0.00     0.049 C 
ENDBRANCH  17  18
ENDBRANCH  15  17
ENDBRANCH  14  15
ENDBRANCH  11  14
ENDBRANCH   6  11
ENDBRANCH   4   5
ENDBRANCH   2   4
ENDBRANCH   1   2
BRANCH   1  20
ATOM     20  C   UNL A   1      32.314  29.790  25.451  1.00  0.00     0.274 C 
BRANCH  20  21
ATOM     21  C   UNL A   1      32.378  30.416  26.845  1.00  0.00     0.275 C 
BRANCH  21  22
ATOM     22  O   UNL A   1      33.668  30.196  27.439  1.00  0.00    -0.458 OA
BRANCH  22  23
ATOM     23  C   UNL A   1      34.313  31.309  27.864  1.00  0.00     0.338 C 
ATOM     24  O   UNL A   1      33.877  32.445  27.909  1.00  0.00    -0.246 OA
BRANCH  23  25
ATOM     25  C   UNL A   1      35.615  30.897  28.408  1.00  0.00     0.060 A 
ATOM     26  C   UNL A   1      35.706  29.668  29.068  1.00  0.00     0.016 A 
ATOM     27  C   UNL A   1      36.735  31.716  28.264  1.00  0.00     0.016 A 
ATOM     28  C   UNL A   1      36.933  29.238  29.568  1.00  0.00     0.010 A 
ATOM     29  C   UNL A   1      37.965  31.279  28.761  1.00  0.00     0.010 A 
ATOM     30  C   UNL A   1      38.073  30.034  29.408  1.00  0.00    -0.014 A 
BRANCH  30  31
ATOM     31  C   UNL A   1      39.387  29.578  29.920  1.00  0.00     0.031 A 
ATOM     32  C   UNL A   1      40.087  28.429  29.257  1.00  0.00     0.074 A 
ATOM     33  C   UNL A   1      39.932  30.184  30.991  1.00  0.00     0.049 A 
ATOM     34  N   UNL A   1      41.157  27.781  29.635  1.00  0.00    -0.248 NA
ATOM     35  C   UNL A   1      39.495  27.946  28.002  1.00  0.00     0.031 C 
ATOM     36  C   UNL A   1      39.370  31.348  31.678  1.00  0.00     0.029 A 
ATOM     37  N   UNL A   1      41.073  29.897  31.697  1.00  0.00    -0.354 N 
ATOM     38  C   UNL A   1      41.365  26.801  28.671  1.00  0.00     0.074 A 
ATOM     39  C   UNL A   1      40.289  26.926  27.709  1.00  0.00     0.031 C 
ATOM     40  C   UNL A   1      40.165  31.673  32.710  1.00  0.00     0.029 A 
ATOM     41  C   UNL A   1      41.254  30.703  32.798  1.00  0.00     0.049 A 
ATOM     42  H   UNL A   1      41.702  29.185  31.441  1.00  0.00     0.167 HD
ATOM     43  C   UNL A   1      42.366  25.888  28.598  1.00  0.00     0.034 A 
ATOM     44  C   UNL A   1      42.164  30.636  33.788  1.00  0.00     0.034 A 
ATOM     45  C   UNL A   1      43.419  25.776  29.580  1.00  0.00     0.049 A 
ATOM     46  C   UNL A   1      43.191  29.532  33.757  1.00  0.00     0.074 A 
ATOM     47  C   UNL A   1      44.487  24.895  29.606  1.00  0.00     0.029 A 
ATOM     48  N   UNL A   1      43.530  26.563  30.720  1.00  0.00    -0.354 N 
ATOM     49  N   UNL A   1      43.367  28.594  32.855  1.00  0.00    -0.248 NA
ATOM     50  C   UNL A   1      44.132  29.471  34.882  1.00  0.00     0.031 C 
ATOM     51  C   UNL A   1      45.198  25.101  30.793  1.00  0.00     0.029 A 
ATOM     52  C   UNL A   1      44.622  26.162  31.475  1.00  0.00     0.049 A 
ATOM     53  H   UNL A   1      42.922  27.300  30.957  1.00  0.00     0.167 HD
ATOM     54  C   UNL A   1      44.455  27.845  33.295  1.00  0.00     0.074 A 
ATOM     55  C   UNL A   1      44.900  28.448  34.534  1.00  0.00     0.031 C 
ATOM     56  C   UNL A   1      45.038  26.761  32.722  1.00  0.00     0.034 A 
BRANCH  43  57
ATOM     57  C   UNL A   1      42.322  24.907  27.453  1.00  0.00     0.023 A 
ATOM     58  C   UNL A   1      41.498  23.767  27.485  1.00  0.00     0.031 A 
ATOM     59  C   UNL A   1      43.152  25.086  26.332  1.00  0.00     0.131 A 
ATOM     60  C   UNL A   1      41.579  22.816  26.456  1.00  0.00     0.055 A 
ATOM     61  C   UNL A   1      43.168  24.177  25.273  1.00  0.00     0.041 A 
ATOM     62  F   UNL A   1      43.977  26.143  26.255  1.00  0.00    -0.206 F 
ATOM     63  C   UNL A   1      42.391  23.024  25.339  1.00  0.00     0.022 A 
BRANCH  60  64
ATOM     64  S   UNL A   1      40.727  21.229  26.676  1.00  0.00     0.124 S 
ATOM     65  O   UNL A   1      40.726  21.094  28.131  1.00  0.00    -0.237 OA
ATOM     66  O   UNL A   1      39.431  21.478  26.056  1.00  0.00    -0.237 OA
ATOM     67  O   UNL A   1      41.586  20.279  25.971  1.00  0.00    -0.744 OA
ENDBRANCH  60  64
ENDBRANCH  43  57
BRANCH  44  68
ATOM     68  C   UNL A   1      42.112  31.598  34.926  1.00  0.00     0.023 A 
ATOM     69  C   UNL A   1      42.844  32.795  34.896  1.00  0.00     0.031 A 
ATOM     70  C   UNL A   1      41.355  31.317  36.078  1.00  0.00     0.131 A 
ATOM     71  C   UNL A   1      42.832  33.650  36.009  1.00  0.00     0.055 A 
ATOM     72  C   UNL A   1      41.304  32.195  37.161  1.00  0.00     0.041 A 
ATOM     73  F   UNL A   1      40.640  30.183  36.162  1.00  0.00    -0.206 F 
ATOM     74  C   UNL A   1      42.054  33.366  37.134  1.00  0.00     0.022 A 
BRANCH  71  75
ATOM     75  S   UNL A   1      43.907  35.111  35.994  1.00  0.00     0.124 S 
ATOM     76  O   UNL A   1      44.203  35.247  34.573  1.00  0.00    -0.237 OA
ATOM     77  O   UNL A   1      43.038  36.133  36.570  1.00  0.00    -0.237 OA
ATOM     78  O   UNL A   1      45.035  34.711  36.832  1.00  0.00    -0.744 OA
ENDBRANCH  71  75
ENDBRANCH  44  68
BRANCH  56  79
ATOM     79  C   UNL A   1      46.244  26.184  33.421  1.00  0.00     0.023 A 
ATOM     80  C   UNL A   1      47.549  26.606  33.112  1.00  0.00     0.031 A 
ATOM     81  C   UNL A   1      46.081  25.197  34.409  1.00  0.00     0.131 A 
ATOM     82  C   UNL A   1      48.645  26.009  33.755  1.00  0.00     0.055 A 
ATOM     83  C   UNL A   1      47.172  24.646  35.082  1.00  0.00     0.041 A 
ATOM     84  F   UNL A   1      44.857  24.756  34.738  1.00  0.00    -0.206 F 
ATOM     85  C   UNL A   1      48.463  25.046  34.749  1.00  0.00     0.022 A 
BRANCH  82  86
ATOM     86  S   UNL A   1      50.320  26.463  33.226  1.00  0.00     0.124 S 
ATOM     87  O   UNL A   1      50.143  26.653  31.790  1.00  0.00    -0.237 OA
ATOM     88  O   UNL A   1      50.578  27.673  34.002  1.00  0.00    -0.237 OA
ATOM     89  O   UNL A   1      51.125  25.303  33.604  1.00  0.00    -0.744 OA
ENDBRANCH  82  86
ENDBRANCH  56  79
ENDBRANCH  30  31
ENDBRANCH  23  25
ENDBRANCH  22  23
ENDBRANCH  21  22
ENDBRANCH  20  21
ENDBRANCH   1  20
TORSDOF 20
ENDMDL
