MODEL 1
REMARK VINA RESULT:     -12.5      0.000      0.000
REMARK SMILES Cc1nc2ccc(Cl)cc2cc1C(=O)N1CCC(C(=O)OCCOC(=O)c2ccc(-c3c4nc(c(-c5cc(S(=O)(=O)[O-])ccc5F)c5ccc([nH]5)c(-c5cc(S(=O)(=O)[O-])ccc5F)c5nc(c(-c6cc(S(=O)(=O)[O-])ccc6F)c6ccc3[nH]6)C=C5)C=C4)cc2)CC1
REMARK SMILES IDX 23 1 22 2 21 3 19 4 20 5 18 6 13 7 14 8 15 9 16 10 91 11
REMARK SMILES IDX 17 12 90 13 12 14 1 15 2 16 3 17 4 18 11 19 5 20 10 21 6 22
REMARK SMILES IDX 9 23 7 24 8 25 24 26 25 27 26 28 27 29 28 30 89 31 29 32
REMARK SMILES IDX 88 33 30 34 31 35 32 36 82 37 33 38 87 39 81 40 83 41 34 42
REMARK SMILES IDX 86 43 80 44 79 45 35 47 67 48 47 49 66 50 48 51 51 52 65 53
REMARK SMILES IDX 84 54 49 55 50 56 64 58 85 59 52 60 36 61 37 62 45 63 38 64
REMARK SMILES IDX 44 65 46 66 43 67 39 68 40 69 41 70 42 71 68 72 69 73 77 74
REMARK SMILES IDX 70 75 76 76 78 77 75 78 71 79 72 80 73 81 74 82 53 83 54 84
REMARK SMILES IDX 62 85 55 86 61 87 63 88 60 89 56 90 57 91 58 92 59 93
REMARK H PARENT 83 46 51 57
REMARK Flexibility Score: inf
ROOT
ATOM      1  C   UNL A   1      32.318  33.249  26.938  1.00  0.00     0.275 C 
ENDROOT
BRANCH   1   2
ATOM      2  C   UNL A   1      31.428  32.003  26.902  1.00  0.00     0.274 C 
BRANCH   2   3
ATOM      3  O   UNL A   1      31.961  31.023  25.993  1.00  0.00    -0.462 OA
BRANCH   3   4
ATOM      4  C   UNL A   1      32.642  29.987  26.544  1.00  0.00     0.309 C 
ATOM      5  O   UNL A   1      33.243  30.034  27.611  1.00  0.00    -0.252 OA
BRANCH   4   6
ATOM      6  C   UNL A   1      32.567  28.722  25.712  1.00  0.00     0.103 C 
ATOM      7  C   UNL A   1      33.591  25.715  22.859  1.00  0.00     0.255 C 
ATOM      8  O   UNL A   1      33.652  26.018  21.670  1.00  0.00    -0.269 OA
ATOM      9  N   UNL A   1      33.223  26.622  23.854  1.00  0.00    -0.339 N 
ATOM     10  C   UNL A   1      32.212  27.615  23.497  1.00  0.00     0.120 C 
ATOM     11  C   UNL A   1      33.558  26.472  25.274  1.00  0.00     0.120 C 
ATOM     12  C   UNL A   1      32.400  28.944  24.208  1.00  0.00     0.037 C 
ATOM     13  C   UNL A   1      33.776  27.821  25.958  1.00  0.00     0.037 C 
BRANCH   7  14
ATOM     14  C   UNL A   1      33.781  24.293  23.227  1.00  0.00     0.061 A 
ATOM     15  C   UNL A   1      31.283  23.863  23.350  1.00  0.00     0.067 C 
ATOM     16  C   UNL A   1      32.715  23.441  23.507  1.00  0.00     0.051 A 
ATOM     17  N   UNL A   1      32.901  22.181  23.997  1.00  0.00    -0.252 NA
ATOM     18  C   UNL A   1      34.153  21.749  24.238  1.00  0.00     0.071 A 
ATOM     19  C   UNL A   1      35.078  23.832  23.476  1.00  0.00     0.026 A 
ATOM     20  C   UNL A   1      34.357  20.490  24.786  1.00  0.00     0.030 A 
ATOM     21  C   UNL A   1      35.286  22.544  23.973  1.00  0.00     0.002 A 
ATOM     22  C   UNL A   1      35.641  20.003  25.057  1.00  0.00     0.023 A 
ATOM     23  C   UNL A   1      36.580  22.060  24.229  1.00  0.00     0.030 A 
ATOM     24  C   UNL A   1      36.750  20.789  24.767  1.00  0.00     0.041 A 
ATOM     25  Cl  UNL A   1      38.330  20.191  25.080  1.00  0.00    -0.084 Cl
ENDBRANCH   7  14
ENDBRANCH   4   6
ENDBRANCH   3   4
ENDBRANCH   2   3
ENDBRANCH   1   2
BRANCH   1  26
ATOM     26  O   UNL A   1      32.330  33.853  28.246  1.00  0.00    -0.458 OA
BRANCH  26  27
ATOM     27  C   UNL A   1      33.399  34.643  28.504  1.00  0.00     0.338 C 
ATOM     28  O   UNL A   1      33.440  35.859  28.477  1.00  0.00    -0.246 OA
BRANCH  27  29
ATOM     29  C   UNL A   1      34.530  33.816  28.952  1.00  0.00     0.060 A 
ATOM     30  C   UNL A   1      34.252  32.681  29.716  1.00  0.00     0.016 A 
ATOM     31  C   UNL A   1      35.849  34.203  28.711  1.00  0.00     0.016 A 
ATOM     32  C   UNL A   1      35.292  31.925  30.251  1.00  0.00     0.010 A 
ATOM     33  C   UNL A   1      36.893  33.440  29.244  1.00  0.00     0.010 A 
ATOM     34  C   UNL A   1      36.622  32.303  30.027  1.00  0.00    -0.014 A 
BRANCH  34  35
ATOM     35  C   UNL A   1      37.722  31.536  30.661  1.00  0.00     0.031 A 
ATOM     36  C   UNL A   1      38.133  31.850  32.073  1.00  0.00     0.074 A 
ATOM     37  C   UNL A   1      38.335  30.550  29.980  1.00  0.00     0.049 A 
ATOM     38  N   UNL A   1      39.127  31.369  32.773  1.00  0.00    -0.248 NA
ATOM     39  C   UNL A   1      37.313  32.841  32.785  1.00  0.00     0.031 C 
ATOM     40  C   UNL A   1      37.985  30.120  28.625  1.00  0.00     0.029 A 
ATOM     41  N   UNL A   1      39.379  29.733  30.331  1.00  0.00    -0.354 N 
ATOM     42  C   UNL A   1      39.068  32.012  34.005  1.00  0.00     0.074 A 
ATOM     43  C   UNL A   1      37.950  32.932  33.943  1.00  0.00     0.031 C 
ATOM     44  C   UNL A   1      38.805  29.122  28.258  1.00  0.00     0.029 A 
ATOM     45  C   UNL A   1      39.770  28.879  29.327  1.00  0.00     0.049 A 
ATOM     46  H   UNL A   1      39.809  29.758  31.216  1.00  0.00     0.167 HD
ATOM     47  C   UNL A   1      39.871  31.845  35.086  1.00  0.00     0.034 A 
ATOM     48  C   UNL A   1      40.810  28.024  29.263  1.00  0.00     0.034 A 
ATOM     49  C   UNL A   1      40.981  30.923  35.129  1.00  0.00     0.049 A 
ATOM     50  C   UNL A   1      41.736  27.911  30.447  1.00  0.00     0.074 A 
ATOM     51  C   UNL A   1      41.856  30.671  36.171  1.00  0.00     0.029 A 
ATOM     52  N   UNL A   1      41.373  30.102  34.078  1.00  0.00    -0.354 N 
ATOM     53  N   UNL A   1      41.686  28.544  31.597  1.00  0.00    -0.248 NA
ATOM     54  C   UNL A   1      42.856  26.971  30.324  1.00  0.00     0.031 C 
ATOM     55  C   UNL A   1      42.811  29.745  35.731  1.00  0.00     0.029 A 
ATOM     56  C   UNL A   1      42.493  29.367  34.437  1.00  0.00     0.049 A 
ATOM     57  H   UNL A   1      40.921  30.050  33.204  1.00  0.00     0.167 HD
ATOM     58  C   UNL A   1      42.759  28.062  32.340  1.00  0.00     0.074 A 
ATOM     59  C   UNL A   1      43.427  27.076  31.515  1.00  0.00     0.031 C 
ATOM     60  C   UNL A   1      43.156  28.400  33.594  1.00  0.00     0.034 A 
BRANCH  47  61
ATOM     61  C   UNL A   1      39.610  32.727  36.282  1.00  0.00     0.023 A 
ATOM     62  C   UNL A   1      38.832  32.292  37.369  1.00  0.00     0.031 A 
ATOM     63  C   UNL A   1      40.116  34.039  36.317  1.00  0.00     0.131 A 
ATOM     64  C   UNL A   1      38.525  33.183  38.410  1.00  0.00     0.055 A 
ATOM     65  C   UNL A   1      39.869  34.895  37.391  1.00  0.00     0.041 A 
ATOM     66  F   UNL A   1      40.846  34.516  35.297  1.00  0.00    -0.206 F 
ATOM     67  C   UNL A   1      39.057  34.475  38.440  1.00  0.00     0.022 A 
BRANCH  64  68
ATOM     68  S   UNL A   1      37.305  32.677  39.655  1.00  0.00     0.124 S 
ATOM     69  O   UNL A   1      36.080  32.622  38.861  1.00  0.00    -0.237 OA
ATOM     70  O   UNL A   1      37.832  31.394  40.107  1.00  0.00    -0.237 OA
ATOM     71  O   UNL A   1      37.354  33.755  40.640  1.00  0.00    -0.744 OA
ENDBRANCH  64  68
ENDBRANCH  47  61
BRANCH  48  72
ATOM     72  C   UNL A   1      41.072  27.251  28.015  1.00  0.00     0.023 A 
ATOM     73  C   UNL A   1      40.820  25.873  27.946  1.00  0.00     0.031 A 
ATOM     74  C   UNL A   1      41.619  27.881  26.883  1.00  0.00     0.131 A 
ATOM     75  C   UNL A   1      41.148  25.161  26.782  1.00  0.00     0.055 A 
ATOM     76  C   UNL A   1      41.899  27.177  25.711  1.00  0.00     0.041 A 
ATOM     77  F   UNL A   1      41.880  29.198  26.897  1.00  0.00    -0.206 F 
ATOM     78  C   UNL A   1      41.674  25.806  25.661  1.00  0.00     0.022 A 
BRANCH  75  79
ATOM     79  S   UNL A   1      40.944  23.358  26.780  1.00  0.00     0.124 S 
ATOM     80  O   UNL A   1      41.279  23.019  28.158  1.00  0.00    -0.237 OA
ATOM     81  O   UNL A   1      39.542  23.213  26.404  1.00  0.00    -0.237 OA
ATOM     82  O   UNL A   1      41.905  22.909  25.775  1.00  0.00    -0.744 OA
ENDBRANCH  75  79
ENDBRANCH  48  72
BRANCH  60  83
ATOM     83  C   UNL A   1      44.346  27.661  34.152  1.00  0.00     0.023 A 
ATOM     84  C   UNL A   1      44.206  26.435  34.825  1.00  0.00     0.031 A 
ATOM     85  C   UNL A   1      45.636  28.204  34.024  1.00  0.00     0.131 A 
ATOM     86  C   UNL A   1      45.332  25.817  35.390  1.00  0.00     0.055 A 
ATOM     87  C   UNL A   1      46.760  27.558  34.543  1.00  0.00     0.041 A 
ATOM     88  F   UNL A   1      45.825  29.374  33.392  1.00  0.00    -0.206 F 
ATOM     89  C   UNL A   1      46.610  26.364  35.241  1.00  0.00     0.022 A 
BRANCH  86  90
ATOM     90  S   UNL A   1      45.096  24.326  36.397  1.00  0.00     0.124 S 
ATOM     91  O   UNL A   1      44.827  24.890  37.716  1.00  0.00    -0.237 OA
ATOM     92  O   UNL A   1      43.965  23.681  35.738  1.00  0.00    -0.237 OA
ATOM     93  O   UNL A   1      46.370  23.621  36.272  1.00  0.00    -0.744 OA
ENDBRANCH  86  90
ENDBRANCH  60  83
ENDBRANCH  34  35
ENDBRANCH  27  29
ENDBRANCH  26  27
ENDBRANCH   1  26
TORSDOF 15
ENDMDL
MODEL 2
REMARK VINA RESULT:     -12.5      0.547      7.439
REMARK SMILES Cc1nc2ccc(Cl)cc2cc1C(=O)N1CCC(C(=O)OCCOC(=O)c2ccc(-c3c4nc(c(-c5cc(S(=O)(=O)[O-])ccc5F)c5ccc([nH]5)c(-c5cc(S(=O)(=O)[O-])ccc5F)c5nc(c(-c6cc(S(=O)(=O)[O-])ccc6F)c6ccc3[nH]6)C=C5)C=C4)cc2)CC1
REMARK SMILES IDX 23 1 22 2 21 3 19 4 20 5 18 6 13 7 14 8 15 9 16 10 91 11
REMARK SMILES IDX 17 12 90 13 12 14 1 15 2 16 3 17 4 18 11 19 5 20 10 21 6 22
REMARK SMILES IDX 9 23 7 24 8 25 24 26 25 27 26 28 27 29 28 30 89 31 29 32
REMARK SMILES IDX 88 33 30 34 31 35 32 36 82 37 33 38 87 39 81 40 83 41 34 42
REMARK SMILES IDX 86 43 80 44 79 45 35 47 67 48 47 49 66 50 48 51 51 52 65 53
REMARK SMILES IDX 84 54 49 55 50 56 64 58 85 59 52 60 36 61 37 62 45 63 38 64
REMARK SMILES IDX 44 65 46 66 43 67 39 68 40 69 41 70 42 71 68 72 69 73 77 74
REMARK SMILES IDX 70 75 76 76 78 77 75 78 71 79 72 80 73 81 74 82 53 83 54 84
REMARK SMILES IDX 62 85 55 86 61 87 63 88 60 89 56 90 57 91 58 92 59 93
REMARK H PARENT 83 46 51 57
REMARK Flexibility Score: inf
ROOT
ATOM      1  C   UNL A   1      31.921  33.100  26.756  1.00  0.00     0.275 C 
ENDROOT
BRANCH   1   2
ATOM      2  C   UNL A   1      31.397  31.685  26.494  1.00  0.00     0.274 C 
BRANCH   2   3
ATOM      3  O   UNL A   1      32.134  30.719  27.265  1.00  0.00    -0.462 OA
BRANCH   3   4
ATOM      4  C   UNL A   1      33.262  30.220  26.700  1.00  0.00     0.309 C 
ATOM      5  O   UNL A   1      34.388  30.669  26.873  1.00  0.00    -0.252 OA
BRANCH   4   6
ATOM      6  C   UNL A   1      32.999  29.006  25.831  1.00  0.00     0.103 C 
ATOM      7  C   UNL A   1      33.557  25.976  22.874  1.00  0.00     0.255 C 
ATOM      8  O   UNL A   1      33.650  26.304  21.695  1.00  0.00    -0.269 OA
ATOM      9  N   UNL A   1      33.332  26.894  23.901  1.00  0.00    -0.339 N 
ATOM     10  C   UNL A   1      32.470  28.032  23.588  1.00  0.00     0.120 C 
ATOM     11  C   UNL A   1      33.653  26.652  25.312  1.00  0.00     0.120 C 
ATOM     12  C   UNL A   1      32.853  29.297  24.337  1.00  0.00     0.037 C 
ATOM     13  C   UNL A   1      34.068  27.934  26.034  1.00  0.00     0.037 C 
BRANCH   7  14
ATOM     14  C   UNL A   1      33.544  24.530  23.197  1.00  0.00     0.061 A 
ATOM     15  C   UNL A   1      31.009  24.434  23.232  1.00  0.00     0.067 C 
ATOM     16  C   UNL A   1      32.366  23.820  23.415  1.00  0.00     0.051 A 
ATOM     17  N   UNL A   1      32.366  22.531  23.865  1.00  0.00    -0.252 NA
ATOM     18  C   UNL A   1      33.541  21.929  24.126  1.00  0.00     0.071 A 
ATOM     19  C   UNL A   1      34.759  23.892  23.467  1.00  0.00     0.026 A 
ATOM     20  C   UNL A   1      33.557  20.637  24.634  1.00  0.00     0.030 A 
ATOM     21  C   UNL A   1      34.778  22.573  23.923  1.00  0.00     0.002 A 
ATOM     22  C   UNL A   1      34.756  19.974  24.925  1.00  0.00     0.023 A 
ATOM     23  C   UNL A   1      35.987  21.913  24.199  1.00  0.00     0.030 A 
ATOM     24  C   UNL A   1      35.969  20.614  24.696  1.00  0.00     0.041 A 
ATOM     25  Cl  UNL A   1      37.444  19.800  25.033  1.00  0.00    -0.084 Cl
ENDBRANCH   7  14
ENDBRANCH   4   6
ENDBRANCH   3   4
ENDBRANCH   2   3
ENDBRANCH   1   2
BRANCH   1  26
ATOM     26  O   UNL A   1      32.221  33.303  28.150  1.00  0.00    -0.458 OA
BRANCH  26  27
ATOM     27  C   UNL A   1      33.169  34.236  28.403  1.00  0.00     0.338 C 
ATOM     28  O   UNL A   1      33.046  35.446  28.345  1.00  0.00    -0.246 OA
BRANCH  27  29
ATOM     29  C   UNL A   1      34.392  33.581  28.890  1.00  0.00     0.060 A 
ATOM     30  C   UNL A   1      34.255  32.429  29.668  1.00  0.00     0.016 A 
ATOM     31  C   UNL A   1      35.650  34.144  28.673  1.00  0.00     0.016 A 
ATOM     32  C   UNL A   1      35.376  31.832  30.239  1.00  0.00     0.010 A 
ATOM     33  C   UNL A   1      36.777  33.540  29.242  1.00  0.00     0.010 A 
ATOM     34  C   UNL A   1      36.646  32.387  30.038  1.00  0.00    -0.014 A 
BRANCH  34  35
ATOM     35  C   UNL A   1      37.826  31.789  30.710  1.00  0.00     0.031 A 
ATOM     36  C   UNL A   1      38.643  30.748  29.998  1.00  0.00     0.074 A 
ATOM     37  C   UNL A   1      38.173  32.196  31.946  1.00  0.00     0.049 A 
ATOM     38  N   UNL A   1      39.645  30.035  30.441  1.00  0.00    -0.248 NA
ATOM     39  C   UNL A   1      38.275  30.474  28.601  1.00  0.00     0.031 C 
ATOM     40  C   UNL A   1      37.487  33.237  32.713  1.00  0.00     0.029 A 
ATOM     41  N   UNL A   1      39.184  31.781  32.774  1.00  0.00    -0.354 N 
ATOM     42  C   UNL A   1      40.020  29.211  29.385  1.00  0.00     0.074 A 
ATOM     43  C   UNL A   1      39.119  29.502  28.288  1.00  0.00     0.031 C 
ATOM     44  C   UNL A   1      38.096  33.376  33.902  1.00  0.00     0.029 A 
ATOM     45  C   UNL A   1      39.177  32.398  34.002  1.00  0.00     0.049 A 
ATOM     46  H   UNL A   1      39.850  31.104  32.515  1.00  0.00     0.167 HD
ATOM     47  C   UNL A   1      41.024  28.300  29.338  1.00  0.00     0.034 A 
ATOM     48  C   UNL A   1      39.932  32.176  35.097  1.00  0.00     0.034 A 
ATOM     49  C   UNL A   1      41.913  28.025  30.441  1.00  0.00     0.049 A 
ATOM     50  C   UNL A   1      40.991  31.106  35.047  1.00  0.00     0.074 A 
ATOM     51  C   UNL A   1      42.965  27.127  30.501  1.00  0.00     0.029 A 
ATOM     52  N   UNL A   1      41.850  28.641  31.685  1.00  0.00    -0.354 N 
ATOM     53  N   UNL A   1      41.318  30.314  34.052  1.00  0.00    -0.248 NA
ATOM     54  C   UNL A   1      41.781  30.899  36.267  1.00  0.00     0.031 C 
ATOM     55  C   UNL A   1      43.497  27.157  31.796  1.00  0.00     0.029 A 
ATOM     56  C   UNL A   1      42.823  28.123  32.526  1.00  0.00     0.049 A 
ATOM     57  H   UNL A   1      41.206  29.345  31.934  1.00  0.00     0.167 HD
ATOM     58  C   UNL A   1      42.366  29.528  34.522  1.00  0.00     0.074 A 
ATOM     59  C   UNL A   1      42.625  29.953  35.883  1.00  0.00     0.031 C 
ATOM     60  C   UNL A   1      43.056  28.547  33.886  1.00  0.00     0.034 A 
BRANCH  47  61
ATOM     61  C   UNL A   1      41.168  27.497  28.068  1.00  0.00     0.023 A 
ATOM     62  C   UNL A   1      40.797  26.143  28.001  1.00  0.00     0.031 A 
ATOM     63  C   UNL A   1      41.719  28.087  26.917  1.00  0.00     0.131 A 
ATOM     64  C   UNL A   1      41.048  25.407  26.832  1.00  0.00     0.055 A 
ATOM     65  C   UNL A   1      41.898  27.368  25.734  1.00  0.00     0.041 A 
ATOM     66  F   UNL A   1      42.112  29.370  26.929  1.00  0.00    -0.206 F 
ATOM     67  C   UNL A   1      41.574  26.015  25.690  1.00  0.00     0.022 A 
BRANCH  64  68
ATOM     68  S   UNL A   1      40.808  23.608  26.870  1.00  0.00     0.124 S 
ATOM     69  O   UNL A   1      41.105  23.300  28.267  1.00  0.00    -0.237 OA
ATOM     70  O   UNL A   1      39.412  23.469  26.468  1.00  0.00    -0.237 OA
ATOM     71  O   UNL A   1      41.788  23.111  25.907  1.00  0.00    -0.744 OA
ENDBRANCH  64  68
ENDBRANCH  47  61
BRANCH  48  72
ATOM     72  C   UNL A   1      39.676  32.937  36.353  1.00  0.00     0.023 A 
ATOM     73  C   UNL A   1      38.810  32.443  37.340  1.00  0.00     0.031 A 
ATOM     74  C   UNL A   1      40.268  34.196  36.562  1.00  0.00     0.131 A 
ATOM     75  C   UNL A   1      38.532  33.219  38.476  1.00  0.00     0.055 A 
ATOM     76  C   UNL A   1      40.025  34.942  37.716  1.00  0.00     0.041 A 
ATOM     77  F   UNL A   1      41.104  34.715  35.648  1.00  0.00    -0.206 F 
ATOM     78  C   UNL A   1      39.143  34.459  38.676  1.00  0.00     0.022 A 
BRANCH  75  79
ATOM     79  S   UNL A   1      37.298  32.614  39.660  1.00  0.00     0.124 S 
ATOM     80  O   UNL A   1      37.773  31.261  39.921  1.00  0.00    -0.237 OA
ATOM     81  O   UNL A   1      37.438  33.567  40.755  1.00  0.00    -0.237 OA
ATOM     82  O   UNL A   1      36.042  32.702  38.917  1.00  0.00    -0.744 OA
ENDBRANCH  75  79
ENDBRANCH  48  72
BRANCH  60  83
ATOM     83  C   UNL A   1      44.181  27.900  34.655  1.00  0.00     0.023 A 
ATOM     84  C   UNL A   1      43.974  26.759  35.450  1.00  0.00     0.031 A 
ATOM     85  C   UNL A   1      45.475  28.448  34.606  1.00  0.00     0.131 A 
ATOM     86  C   UNL A   1      45.033  26.233  36.204  1.00  0.00     0.055 A 
ATOM     87  C   UNL A   1      46.536  27.889  35.318  1.00  0.00     0.041 A 
ATOM     88  F   UNL A   1      45.727  29.539  33.864  1.00  0.00    -0.206 F 
ATOM     89  C   UNL A   1      46.316  26.782  36.133  1.00  0.00     0.022 A 
BRANCH  86  90
ATOM     90  S   UNL A   1      44.693  24.867  37.350  1.00  0.00     0.124 S 
ATOM     91  O   UNL A   1      43.355  25.197  37.829  1.00  0.00    -0.237 OA
ATOM     92  O   UNL A   1      44.789  23.700  36.479  1.00  0.00    -0.237 OA
ATOM     93  O   UNL A   1      45.755  24.984  38.348  1.00  0.00    -0.744 OA
ENDBRANCH  86  90
ENDBRANCH  60  83
ENDBRANCH  34  35
ENDBRANCH  27  29
ENDBRANCH  26  27
ENDBRANCH   1  26
TORSDOF 15
ENDMDL
MODEL 3
REMARK VINA RESULT:     -12.3      1.491      7.663
REMARK SMILES Cc1nc2ccc(Cl)cc2cc1C(=O)N1CCC(C(=O)OCCOC(=O)c2ccc(-c3c4nc(c(-c5cc(S(=O)(=O)[O-])ccc5F)c5ccc([nH]5)c(-c5cc(S(=O)(=O)[O-])ccc5F)c5nc(c(-c6cc(S(=O)(=O)[O-])ccc6F)c6ccc3[nH]6)C=C5)C=C4)cc2)CC1
REMARK SMILES IDX 23 1 22 2 21 3 19 4 20 5 18 6 13 7 14 8 15 9 16 10 91 11
REMARK SMILES IDX 17 12 90 13 12 14 1 15 2 16 3 17 4 18 11 19 5 20 10 21 6 22
REMARK SMILES IDX 9 23 7 24 8 25 24 26 25 27 26 28 27 29 28 30 89 31 29 32
REMARK SMILES IDX 88 33 30 34 31 35 32 36 82 37 33 38 87 39 81 40 83 41 34 42
REMARK SMILES IDX 86 43 80 44 79 45 35 47 67 48 47 49 66 50 48 51 51 52 65 53
REMARK SMILES IDX 84 54 49 55 50 56 64 58 85 59 52 60 36 61 37 62 45 63 38 64
REMARK SMILES IDX 44 65 46 66 43 67 39 68 40 69 41 70 42 71 68 72 69 73 77 74
REMARK SMILES IDX 70 75 76 76 78 77 75 78 71 79 72 80 73 81 74 82 53 83 54 84
REMARK SMILES IDX 62 85 55 86 61 87 63 88 60 89 56 90 57 91 58 92 59 93
REMARK H PARENT 83 46 51 57
REMARK Flexibility Score: inf
ROOT
ATOM      1  C   UNL A   1      31.736  33.162  26.910  1.00  0.00     0.275 C 
ENDROOT
BRANCH   1   2
ATOM      2  C   UNL A   1      31.411  31.696  26.614  1.00  0.00     0.274 C 
BRANCH   2   3
ATOM      3  O   UNL A   1      32.513  31.055  25.945  1.00  0.00    -0.462 OA
BRANCH   3   4
ATOM      4  C   UNL A   1      33.034  29.956  26.546  1.00  0.00     0.309 C 
ATOM      5  O   UNL A   1      33.570  29.948  27.647  1.00  0.00    -0.252 OA
BRANCH   4   6
ATOM      6  C   UNL A   1      32.864  28.696  25.719  1.00  0.00     0.103 C 
ATOM      7  C   UNL A   1      33.626  25.643  22.833  1.00  0.00     0.255 C 
ATOM      8  O   UNL A   1      33.655  25.942  21.642  1.00  0.00    -0.269 OA
ATOM      9  N   UNL A   1      33.343  26.567  23.840  1.00  0.00    -0.339 N 
ATOM     10  C   UNL A   1      32.368  27.608  23.522  1.00  0.00     0.120 C 
ATOM     11  C   UNL A   1      33.725  26.399  25.247  1.00  0.00     0.120 C 
ATOM     12  C   UNL A   1      32.649  28.926  24.223  1.00  0.00     0.037 C 
ATOM     13  C   UNL A   1      34.036  27.737  25.919  1.00  0.00     0.037 C 
BRANCH   7  14
ATOM     14  C   UNL A   1      33.760  24.213  23.196  1.00  0.00     0.061 A 
ATOM     15  C   UNL A   1      31.248  23.881  23.323  1.00  0.00     0.067 C 
ATOM     16  C   UNL A   1      32.662  23.402  23.475  1.00  0.00     0.051 A 
ATOM     17  N   UNL A   1      32.798  22.134  23.961  1.00  0.00    -0.252 NA
ATOM     18  C   UNL A   1      34.033  21.653  24.198  1.00  0.00     0.071 A 
ATOM     19  C   UNL A   1      35.038  23.700  23.442  1.00  0.00     0.026 A 
ATOM     20  C   UNL A   1      34.187  20.384  24.741  1.00  0.00     0.030 A 
ATOM     21  C   UNL A   1      35.196  22.403  23.933  1.00  0.00     0.002 A 
ATOM     22  C   UNL A   1      35.452  19.846  25.008  1.00  0.00     0.023 A 
ATOM     23  C   UNL A   1      36.471  21.868  24.186  1.00  0.00     0.030 A 
ATOM     24  C   UNL A   1      36.591  20.589  24.719  1.00  0.00     0.041 A 
ATOM     25  Cl  UNL A   1      38.146  19.928  25.028  1.00  0.00    -0.084 Cl
ENDBRANCH   7  14
ENDBRANCH   4   6
ENDBRANCH   3   4
ENDBRANCH   2   3
ENDBRANCH   1   2
BRANCH   1  26
ATOM     26  O   UNL A   1      33.102  33.326  27.339  1.00  0.00    -0.458 OA
BRANCH  26  27
ATOM     27  C   UNL A   1      33.279  34.174  28.380  1.00  0.00     0.338 C 
ATOM     28  O   UNL A   1      32.585  35.129  28.678  1.00  0.00    -0.246 OA
BRANCH  27  29
ATOM     29  C   UNL A   1      34.401  33.713  29.210  1.00  0.00     0.060 A 
ATOM     30  C   UNL A   1      35.678  34.195  28.916  1.00  0.00     0.016 A 
ATOM     31  C   UNL A   1      34.220  32.745  30.199  1.00  0.00     0.016 A 
ATOM     32  C   UNL A   1      36.787  33.710  29.605  1.00  0.00     0.010 A 
ATOM     33  C   UNL A   1      35.334  32.263  30.895  1.00  0.00     0.010 A 
ATOM     34  C   UNL A   1      36.625  32.733  30.594  1.00  0.00    -0.014 A 
BRANCH  34  35
ATOM     35  C   UNL A   1      37.818  32.167  31.272  1.00  0.00     0.031 A 
ATOM     36  C   UNL A   1      38.578  31.043  30.627  1.00  0.00     0.074 A 
ATOM     37  C   UNL A   1      38.226  32.674  32.450  1.00  0.00     0.049 A 
ATOM     38  N   UNL A   1      39.581  30.345  31.093  1.00  0.00    -0.248 NA
ATOM     39  C   UNL A   1      38.145  30.653  29.277  1.00  0.00     0.031 C 
ATOM     40  C   UNL A   1      37.599  33.801  33.144  1.00  0.00     0.029 A 
ATOM     41  N   UNL A   1      39.261  32.309  33.272  1.00  0.00    -0.354 N 
ATOM     42  C   UNL A   1      39.891  29.418  30.105  1.00  0.00     0.074 A 
ATOM     43  C   UNL A   1      38.952  29.633  29.022  1.00  0.00     0.031 C 
ATOM     44  C   UNL A   1      38.260  34.030  34.290  1.00  0.00     0.029 A 
ATOM     45  C   UNL A   1      39.320  33.036  34.438  1.00  0.00     0.049 A 
ATOM     46  H   UNL A   1      39.899  31.593  33.050  1.00  0.00     0.167 HD
ATOM     47  C   UNL A   1      40.870  28.479  30.102  1.00  0.00     0.034 A 
ATOM     48  C   UNL A   1      40.115  32.894  35.517  1.00  0.00     0.034 A 
ATOM     49  C   UNL A   1      41.797  28.281  31.190  1.00  0.00     0.049 A 
ATOM     50  C   UNL A   1      41.145  31.794  35.525  1.00  0.00     0.074 A 
ATOM     51  C   UNL A   1      42.829  27.363  31.291  1.00  0.00     0.029 A 
ATOM     52  N   UNL A   1      41.802  29.010  32.373  1.00  0.00    -0.354 N 
ATOM     53  N   UNL A   1      41.411  30.906  34.594  1.00  0.00    -0.248 NA
ATOM     54  C   UNL A   1      41.980  31.678  36.726  1.00  0.00     0.031 C 
ATOM     55  C   UNL A   1      43.416  27.497  32.555  1.00  0.00     0.029 A 
ATOM     56  C   UNL A   1      42.797  28.543  33.219  1.00  0.00     0.049 A 
ATOM     57  H   UNL A   1      41.186  29.751  32.581  1.00  0.00     0.167 HD
ATOM     58  C   UNL A   1      42.458  30.137  35.093  1.00  0.00     0.074 A 
ATOM     59  C   UNL A   1      42.784  30.677  36.398  1.00  0.00     0.031 C 
ATOM     60  C   UNL A   1      43.097  29.083  34.524  1.00  0.00     0.034 A 
BRANCH  47  61
ATOM     61  C   UNL A   1      40.940  27.559  28.907  1.00  0.00     0.023 A 
ATOM     62  C   UNL A   1      41.911  27.720  27.903  1.00  0.00     0.031 A 
ATOM     63  C   UNL A   1      39.997  26.529  28.752  1.00  0.00     0.131 A 
ATOM     64  C   UNL A   1      41.872  26.910  26.757  1.00  0.00     0.055 A 
ATOM     65  C   UNL A   1      40.009  25.679  27.646  1.00  0.00     0.041 A 
ATOM     66  F   UNL A   1      39.033  26.343  29.668  1.00  0.00    -0.206 F 
ATOM     67  C   UNL A   1      40.941  25.875  26.632  1.00  0.00     0.022 A 
BRANCH  64  68
ATOM     68  S   UNL A   1      42.964  27.318  25.367  1.00  0.00     0.124 S 
ATOM     69  O   UNL A   1      44.192  27.703  26.059  1.00  0.00    -0.237 OA
ATOM     70  O   UNL A   1      43.015  26.061  24.628  1.00  0.00    -0.237 OA
ATOM     71  O   UNL A   1      42.268  28.411  24.693  1.00  0.00    -0.744 OA
ENDBRANCH  64  68
ENDBRANCH  47  61
BRANCH  48  72
ATOM     72  C   UNL A   1      39.931  33.773  36.707  1.00  0.00     0.023 A 
ATOM     73  C   UNL A   1      39.316  33.298  37.874  1.00  0.00     0.031 A 
ATOM     74  C   UNL A   1      40.334  35.120  36.672  1.00  0.00     0.131 A 
ATOM     75  C   UNL A   1      39.089  34.173  38.949  1.00  0.00     0.055 A 
ATOM     76  C   UNL A   1      40.149  35.973  37.761  1.00  0.00     0.041 A 
ATOM     77  F   UNL A   1      40.927  35.625  35.578  1.00  0.00    -0.206 F 
ATOM     78  C   UNL A   1      39.512  35.503  38.904  1.00  0.00     0.022 A 
BRANCH  75  79
ATOM     79  S   UNL A   1      38.163  33.563  40.385  1.00  0.00     0.124 S 
ATOM     80  O   UNL A   1      36.917  33.121  39.769  1.00  0.00    -0.237 OA
ATOM     81  O   UNL A   1      39.040  32.511  40.886  1.00  0.00    -0.237 OA
ATOM     82  O   UNL A   1      38.052  34.741  41.243  1.00  0.00    -0.744 OA
ENDBRANCH  75  79
ENDBRANCH  48  72
BRANCH  60  83
ATOM     83  C   UNL A   1      44.237  28.478  35.305  1.00  0.00     0.023 A 
ATOM     84  C   UNL A   1      44.018  27.532  36.320  1.00  0.00     0.031 A 
ATOM     85  C   UNL A   1      45.560  28.871  35.038  1.00  0.00     0.131 A 
ATOM     86  C   UNL A   1      45.102  27.049  37.069  1.00  0.00     0.055 A 
ATOM     87  C   UNL A   1      46.639  28.348  35.752  1.00  0.00     0.041 A 
ATOM     88  F   UNL A   1      45.825  29.774  34.079  1.00  0.00    -0.206 F 
ATOM     89  C   UNL A   1      46.412  27.440  36.782  1.00  0.00     0.022 A 
BRANCH  86  90
ATOM     90  S   UNL A   1      44.769  25.961  38.483  1.00  0.00     0.124 S 
ATOM     91  O   UNL A   1      44.921  24.637  37.890  1.00  0.00    -0.237 OA
ATOM     92  O   UNL A   1      45.806  26.357  39.431  1.00  0.00    -0.237 OA
ATOM     93  O   UNL A   1      43.406  26.313  38.874  1.00  0.00    -0.744 OA
ENDBRANCH  86  90
ENDBRANCH  60  83
ENDBRANCH  34  35
ENDBRANCH  27  29
ENDBRANCH  26  27
ENDBRANCH   1  26
TORSDOF 15
ENDMDL
