MODEL 1
REMARK VINA RESULT:     -12.5      0.000      0.000
REMARK SMILES Cc1ccc(OCC(=O)NNC(=O)[C@H]2CCCC[C@@H]2C(=O)OCCOC(=O)c2ccc(-c3c4nc(c(-c5cc(S(=O)(=O)[O-])ccc5F)c5ccc([nH]5)c(-c5cc(S(=O)(=O)[O-])ccc5F)c5nc(c(-c6cc(S(=O)(=O)[O-])ccc6F)c6ccc3[nH]6)C=C5)C=C4)cc2)cc1
REMARK SMILES IDX 23 1 22 2 20 3 21 4 19 5 14 6 15 7 16 8 18 9 17 10 12 11
REMARK SMILES IDX 11 12 13 14 10 15 8 16 9 17 7 19 6 20 5 21 1 22 2 23 3 24
REMARK SMILES IDX 92 25 4 26 91 27 24 28 25 29 26 30 27 31 28 32 29 33 90 34
REMARK SMILES IDX 30 35 89 36 31 37 32 38 33 39 83 40 34 41 88 42 82 43 84 44
REMARK SMILES IDX 35 45 87 46 81 47 80 48 36 50 68 51 48 52 67 53 49 54 52 55
REMARK SMILES IDX 66 56 85 57 50 58 51 59 65 61 86 62 53 63 37 64 38 65 46 66
REMARK SMILES IDX 39 67 45 68 47 69 44 70 40 71 41 72 42 73 43 74 69 75 70 76
REMARK SMILES IDX 78 77 71 78 77 79 79 80 76 81 72 82 73 83 74 84 75 85 54 86
REMARK SMILES IDX 55 87 63 88 56 89 62 90 64 91 61 92 57 93 58 94 59 95 60 96
REMARK H PARENT 11 13 10 18 84 49 52 60
REMARK Flexibility Score: inf
ROOT
ATOM      1  C   UNL A   1      32.382  31.102  26.738  1.00  0.00     0.274 C 
ENDROOT
BRANCH   1   2
ATOM      2  O   UNL A   1      32.160  29.697  26.511  1.00  0.00    -0.462 OA
BRANCH   2   3
ATOM      3  C   UNL A   1      32.429  29.311  25.229  1.00  0.00     0.309 C 
ATOM      4  O   UNL A   1      33.413  29.689  24.604  1.00  0.00    -0.252 OA
BRANCH   3   5
ATOM      5  C   UNL A   1      31.314  28.467  24.619  1.00  0.00     0.111 C 
ATOM      6  C   UNL A   1      31.288  27.022  25.158  1.00  0.00     0.094 C 
ATOM      7  C   UNL A   1      32.504  26.192  24.696  1.00  0.00     0.014 C 
ATOM      8  C   UNL A   1      32.802  26.284  23.198  1.00  0.00     0.001 C 
ATOM      9  C   UNL A   1      31.506  28.489  23.095  1.00  0.00     0.016 C 
ATOM     10  C   UNL A   1      32.730  27.696  22.629  1.00  0.00     0.001 C 
BRANCH   6  11
ATOM     11  C   UNL A   1      30.003  26.302  24.736  1.00  0.00     0.242 C 
ATOM     12  N   UNL A   1      29.568  25.194  25.401  1.00  0.00    -0.267 N 
ATOM     13  H   UNL A   1      28.817  24.705  24.991  1.00  0.00     0.191 HD
ATOM     14  O   UNL A   1      29.301  26.690  23.797  1.00  0.00    -0.273 OA
BRANCH  12  15
ATOM     15  N   UNL A   1      30.064  24.679  26.587  1.00  0.00    -0.265 N 
ATOM     16  C   UNL A   1      30.734  23.475  26.638  1.00  0.00     0.276 C 
ATOM     17  O   UNL A   1      31.289  23.102  27.672  1.00  0.00    -0.269 OA
ATOM     18  H   UNL A   1      29.934  25.188  27.419  1.00  0.00     0.191 HD
BRANCH  16  19
ATOM     19  C   UNL A   1      30.848  22.645  25.350  1.00  0.00     0.331 C 
BRANCH  19  20
ATOM     20  O   UNL A   1      31.905  22.968  24.461  1.00  0.00    -0.484 OA
BRANCH  20  21
ATOM     21  C   UNL A   1      33.073  22.268  24.581  1.00  0.00     0.120 A 
ATOM     22  C   UNL A   1      36.979  20.464  24.926  1.00  0.00     0.044 C 
ATOM     23  C   UNL A   1      35.620  21.086  24.795  1.00  0.00    -0.051 A 
ATOM     24  C   UNL A   1      35.494  22.442  24.482  1.00  0.00     0.007 A 
ATOM     25  C   UNL A   1      34.462  20.327  24.993  1.00  0.00     0.007 A 
ATOM     26  C   UNL A   1      34.229  23.025  24.374  1.00  0.00     0.047 A 
ATOM     27  C   UNL A   1      33.197  20.914  24.886  1.00  0.00     0.047 A 
ENDBRANCH  20  21
ENDBRANCH  19  20
ENDBRANCH  16  19
ENDBRANCH  12  15
ENDBRANCH   6  11
ENDBRANCH   3   5
ENDBRANCH   2   3
ENDBRANCH   1   2
BRANCH   1  28
ATOM     28  C   UNL A   1      33.569  31.391  27.672  1.00  0.00     0.275 C 
BRANCH  28  29
ATOM     29  O   UNL A   1      34.609  30.404  27.884  1.00  0.00    -0.458 OA
BRANCH  29  30
ATOM     30  C   UNL A   1      35.621  30.637  28.758  1.00  0.00     0.338 C 
ATOM     31  O   UNL A   1      35.515  31.387  29.714  1.00  0.00    -0.246 OA
BRANCH  30  32
ATOM     32  C   UNL A   1      36.781  29.746  28.517  1.00  0.00     0.060 A 
ATOM     33  C   UNL A   1      37.595  30.033  27.417  1.00  0.00     0.016 A 
ATOM     34  C   UNL A   1      37.196  28.831  29.490  1.00  0.00     0.016 A 
ATOM     35  C   UNL A   1      38.902  29.557  27.385  1.00  0.00     0.010 A 
ATOM     36  C   UNL A   1      38.504  28.381  29.472  1.00  0.00     0.010 A 
ATOM     37  C   UNL A   1      39.375  28.788  28.453  1.00  0.00    -0.014 A 
BRANCH  37  38
ATOM     38  C   UNL A   1      40.700  28.178  28.428  1.00  0.00     0.031 A 
ATOM     39  C   UNL A   1      40.945  26.782  28.001  1.00  0.00     0.074 A 
ATOM     40  C   UNL A   1      41.668  28.897  29.033  1.00  0.00     0.049 A 
ATOM     41  N   UNL A   1      41.750  25.978  28.616  1.00  0.00    -0.248 NA
ATOM     42  C   UNL A   1      40.268  26.155  26.866  1.00  0.00     0.031 C 
ATOM     43  C   UNL A   1      43.079  28.591  29.188  1.00  0.00     0.029 A 
ATOM     44  N   UNL A   1      41.449  29.957  29.916  1.00  0.00    -0.354 N 
ATOM     45  C   UNL A   1      41.898  24.860  27.825  1.00  0.00     0.074 A 
ATOM     46  C   UNL A   1      40.871  24.958  26.814  1.00  0.00     0.031 C 
ATOM     47  C   UNL A   1      43.504  29.193  30.315  1.00  0.00     0.029 A 
ATOM     48  C   UNL A   1      42.324  29.750  30.976  1.00  0.00     0.049 A 
ATOM     49  H   UNL A   1      40.806  30.696  29.811  1.00  0.00     0.167 HD
ATOM     50  C   UNL A   1      42.985  24.051  27.967  1.00  0.00     0.034 A 
ATOM     51  C   UNL A   1      41.917  29.496  32.255  1.00  0.00     0.034 A 
ATOM     52  C   UNL A   1      43.918  24.575  28.949  1.00  0.00     0.049 A 
ATOM     53  C   UNL A   1      42.628  28.299  32.841  1.00  0.00     0.074 A 
ATOM     54  C   UNL A   1      45.037  25.380  28.816  1.00  0.00     0.029 A 
ATOM     55  N   UNL A   1      43.604  24.548  30.294  1.00  0.00    -0.354 N 
ATOM     56  N   UNL A   1      43.060  27.294  32.131  1.00  0.00    -0.248 NA
ATOM     57  C   UNL A   1      42.850  28.118  34.271  1.00  0.00     0.031 C 
ATOM     58  C   UNL A   1      45.404  25.838  30.104  1.00  0.00     0.029 A 
ATOM     59  C   UNL A   1      44.516  25.295  31.013  1.00  0.00     0.049 A 
ATOM     60  H   UNL A   1      42.841  24.065  30.685  1.00  0.00     0.167 HD
ATOM     61  C   UNL A   1      43.711  26.412  32.955  1.00  0.00     0.074 A 
ATOM     62  C   UNL A   1      43.469  26.925  34.292  1.00  0.00     0.031 C 
ATOM     63  C   UNL A   1      44.422  25.356  32.459  1.00  0.00     0.034 A 
BRANCH  50  64
ATOM     64  C   UNL A   1      43.370  22.993  26.967  1.00  0.00     0.023 A 
ATOM     65  C   UNL A   1      42.722  21.742  27.008  1.00  0.00     0.031 A 
ATOM     66  C   UNL A   1      44.357  23.148  25.977  1.00  0.00     0.131 A 
ATOM     67  C   UNL A   1      43.105  20.686  26.166  1.00  0.00     0.055 A 
ATOM     68  C   UNL A   1      44.750  22.090  25.141  1.00  0.00     0.041 A 
ATOM     69  F   UNL A   1      44.968  24.329  25.790  1.00  0.00    -0.206 F 
ATOM     70  C   UNL A   1      44.134  20.845  25.244  1.00  0.00     0.022 A 
BRANCH  67  71
ATOM     71  S   UNL A   1      42.260  19.089  26.342  1.00  0.00     0.124 S 
ATOM     72  O   UNL A   1      43.075  18.213  25.506  1.00  0.00    -0.237 OA
ATOM     73  O   UNL A   1      42.331  18.856  27.779  1.00  0.00    -0.237 OA
ATOM     74  O   UNL A   1      40.918  19.357  25.825  1.00  0.00    -0.744 OA
ENDBRANCH  67  71
ENDBRANCH  50  64
BRANCH  51  75
ATOM     75  C   UNL A   1      40.518  29.880  32.638  1.00  0.00     0.023 A 
ATOM     76  C   UNL A   1      40.157  31.245  32.703  1.00  0.00     0.031 A 
ATOM     77  C   UNL A   1      39.477  28.941  32.719  1.00  0.00     0.131 A 
ATOM     78  C   UNL A   1      38.806  31.630  32.722  1.00  0.00     0.055 A 
ATOM     79  C   UNL A   1      38.131  29.328  32.800  1.00  0.00     0.041 A 
ATOM     80  F   UNL A   1      39.727  27.627  32.644  1.00  0.00    -0.206 F 
ATOM     81  C   UNL A   1      37.788  30.677  32.771  1.00  0.00     0.022 A 
BRANCH  78  82
ATOM     82  S   UNL A   1      38.379  33.376  32.445  1.00  0.00     0.124 S 
ATOM     83  O   UNL A   1      39.694  33.992  32.318  1.00  0.00    -0.237 OA
ATOM     84  O   UNL A   1      37.575  33.320  31.227  1.00  0.00    -0.237 OA
ATOM     85  O   UNL A   1      37.627  33.725  33.647  1.00  0.00    -0.744 OA
ENDBRANCH  78  82
ENDBRANCH  51  75
BRANCH  63  86
ATOM     86  C   UNL A   1      45.159  24.312  33.259  1.00  0.00     0.023 A 
ATOM     87  C   UNL A   1      46.494  24.443  33.656  1.00  0.00     0.031 A 
ATOM     88  C   UNL A   1      44.527  23.092  33.609  1.00  0.00     0.131 A 
ATOM     89  C   UNL A   1      47.111  23.459  34.447  1.00  0.00     0.055 A 
ATOM     90  C   UNL A   1      45.165  22.081  34.330  1.00  0.00     0.041 A 
ATOM     91  F   UNL A   1      43.251  22.836  33.287  1.00  0.00    -0.206 F 
ATOM     92  C   UNL A   1      46.461  22.271  34.778  1.00  0.00     0.022 A 
BRANCH  89  93
ATOM     93  S   UNL A   1      48.766  23.800  35.096  1.00  0.00     0.124 S 
ATOM     94  O   UNL A   1      49.045  25.127  34.559  1.00  0.00    -0.237 OA
ATOM     95  O   UNL A   1      48.540  23.737  36.538  1.00  0.00    -0.237 OA
ATOM     96  O   UNL A   1      49.582  22.720  34.549  1.00  0.00    -0.744 OA
ENDBRANCH  89  93
ENDBRANCH  63  86
ENDBRANCH  37  38
ENDBRANCH  30  32
ENDBRANCH  29  30
ENDBRANCH  28  29
ENDBRANCH   1  28
TORSDOF 19
ENDMDL
MODEL 2
REMARK VINA RESULT:     -12.2      4.156     10.265
REMARK SMILES Cc1ccc(OCC(=O)NNC(=O)[C@H]2CCCC[C@@H]2C(=O)OCCOC(=O)c2ccc(-c3c4nc(c(-c5cc(S(=O)(=O)[O-])ccc5F)c5ccc([nH]5)c(-c5cc(S(=O)(=O)[O-])ccc5F)c5nc(c(-c6cc(S(=O)(=O)[O-])ccc6F)c6ccc3[nH]6)C=C5)C=C4)cc2)cc1
REMARK SMILES IDX 23 1 22 2 20 3 21 4 19 5 14 6 15 7 16 8 18 9 17 10 12 11
REMARK SMILES IDX 11 12 13 14 10 15 8 16 9 17 7 19 6 20 5 21 1 22 2 23 3 24
REMARK SMILES IDX 92 25 4 26 91 27 24 28 25 29 26 30 27 31 28 32 29 33 90 34
REMARK SMILES IDX 30 35 89 36 31 37 32 38 33 39 83 40 34 41 88 42 82 43 84 44
REMARK SMILES IDX 35 45 87 46 81 47 80 48 36 50 68 51 48 52 67 53 49 54 52 55
REMARK SMILES IDX 66 56 85 57 50 58 51 59 65 61 86 62 53 63 37 64 38 65 46 66
REMARK SMILES IDX 39 67 45 68 47 69 44 70 40 71 41 72 42 73 43 74 69 75 70 76
REMARK SMILES IDX 78 77 71 78 77 79 79 80 76 81 72 82 73 83 74 84 75 85 54 86
REMARK SMILES IDX 55 87 63 88 56 89 62 90 64 91 61 92 57 93 58 94 59 95 60 96
REMARK H PARENT 11 13 10 18 84 49 52 60
REMARK Flexibility Score: inf
ROOT
ATOM      1  C   UNL A   1      38.641  20.972  25.379  1.00  0.00     0.274 C 
ENDROOT
BRANCH   1   2
ATOM      2  O   UNL A   1      37.203  20.991  25.453  1.00  0.00    -0.462 OA
BRANCH   2   3
ATOM      3  C   UNL A   1      36.617  21.593  24.377  1.00  0.00     0.309 C 
ATOM      4  O   UNL A   1      37.247  22.196  23.516  1.00  0.00    -0.252 OA
BRANCH   3   5
ATOM      5  C   UNL A   1      35.093  21.547  24.430  1.00  0.00     0.111 C 
ATOM      6  C   UNL A   1      34.429  22.765  23.756  1.00  0.00     0.094 C 
ATOM      7  C   UNL A   1      34.662  24.077  24.534  1.00  0.00     0.014 C 
ATOM      8  C   UNL A   1      34.387  23.981  26.036  1.00  0.00     0.001 C 
ATOM      9  C   UNL A   1      34.690  21.442  25.909  1.00  0.00     0.016 C 
ATOM     10  C   UNL A   1      34.950  22.729  26.698  1.00  0.00     0.001 C 
BRANCH   6  11
ATOM     11  C   UNL A   1      32.922  22.544  23.588  1.00  0.00     0.242 C 
ATOM     12  N   UNL A   1      32.217  23.213  22.631  1.00  0.00    -0.267 N 
ATOM     13  H   UNL A   1      31.236  23.128  22.671  1.00  0.00     0.191 HD
ATOM     14  O   UNL A   1      32.283  21.755  24.289  1.00  0.00    -0.273 OA
BRANCH  12  15
ATOM     15  N   UNL A   1      32.725  23.996  21.608  1.00  0.00    -0.265 N 
ATOM     16  C   UNL A   1      32.517  25.358  21.558  1.00  0.00     0.276 C 
ATOM     17  O   UNL A   1      33.092  26.056  20.723  1.00  0.00    -0.269 OA
ATOM     18  H   UNL A   1      33.252  23.568  20.896  1.00  0.00     0.191 HD
BRANCH  16  19
ATOM     19  C   UNL A   1      31.615  26.001  22.622  1.00  0.00     0.331 C 
BRANCH  19  20
ATOM     20  O   UNL A   1      31.897  25.701  23.980  1.00  0.00    -0.484 OA
BRANCH  20  21
ATOM     21  C   UNL A   1      32.161  26.746  24.820  1.00  0.00     0.120 A 
ATOM     22  C   UNL A   1      33.343  30.153  27.191  1.00  0.00     0.044 C 
ATOM     23  C   UNL A   1      32.936  28.962  26.376  1.00  0.00    -0.051 A 
ATOM     24  C   UNL A   1      33.725  28.540  25.303  1.00  0.00     0.007 A 
ATOM     25  C   UNL A   1      31.761  28.261  26.667  1.00  0.00     0.007 A 
ATOM     26  C   UNL A   1      33.340  27.439  24.534  1.00  0.00     0.047 A 
ATOM     27  C   UNL A   1      31.376  27.160  25.895  1.00  0.00     0.047 A 
ENDBRANCH  20  21
ENDBRANCH  19  20
ENDBRANCH  16  19
ENDBRANCH  12  15
ENDBRANCH   6  11
ENDBRANCH   3   5
ENDBRANCH   2   3
ENDBRANCH   1   2
BRANCH   1  28
ATOM     28  C   UNL A   1      39.325  21.658  26.573  1.00  0.00     0.275 C 
BRANCH  28  29
ATOM     29  O   UNL A   1      39.843  23.008  26.463  1.00  0.00    -0.458 OA
BRANCH  29  30
ATOM     30  C   UNL A   1      39.004  24.075  26.448  1.00  0.00     0.338 C 
ATOM     31  O   UNL A   1      37.947  24.081  25.842  1.00  0.00    -0.246 OA
BRANCH  30  32
ATOM     32  C   UNL A   1      39.437  25.134  27.391  1.00  0.00     0.060 A 
ATOM     33  C   UNL A   1      40.019  26.282  26.844  1.00  0.00     0.016 A 
ATOM     34  C   UNL A   1      39.040  25.108  28.730  1.00  0.00     0.016 A 
ATOM     35  C   UNL A   1      40.029  27.465  27.576  1.00  0.00     0.010 A 
ATOM     36  C   UNL A   1      39.024  26.291  29.449  1.00  0.00     0.010 A 
ATOM     37  C   UNL A   1      39.463  27.480  28.855  1.00  0.00    -0.014 A 
BRANCH  37  38
ATOM     38  C   UNL A   1      39.535  28.662  29.708  1.00  0.00     0.031 A 
ATOM     39  C   UNL A   1      38.525  29.744  29.685  1.00  0.00     0.074 A 
ATOM     40  C   UNL A   1      40.703  28.818  30.366  1.00  0.00     0.049 A 
ATOM     41  N   UNL A   1      38.825  31.001  29.727  1.00  0.00    -0.248 NA
ATOM     42  C   UNL A   1      37.087  29.504  29.570  1.00  0.00     0.031 C 
ATOM     43  C   UNL A   1      41.106  29.867  31.285  1.00  0.00     0.029 A 
ATOM     44  N   UNL A   1      41.894  28.158  30.055  1.00  0.00    -0.354 N 
ATOM     45  C   UNL A   1      37.651  31.698  29.913  1.00  0.00     0.074 A 
ATOM     46  C   UNL A   1      36.591  30.744  29.689  1.00  0.00     0.031 C 
ATOM     47  C   UNL A   1      42.445  29.989  31.200  1.00  0.00     0.029 A 
ATOM     48  C   UNL A   1      42.885  29.131  30.101  1.00  0.00     0.049 A 
ATOM     49  H   UNL A   1      42.008  27.202  29.846  1.00  0.00     0.167 HD
ATOM     50  C   UNL A   1      37.670  32.960  30.427  1.00  0.00     0.034 A 
ATOM     51  C   UNL A   1      43.614  29.519  29.013  1.00  0.00     0.034 A 
ATOM     52  C   UNL A   1      39.014  33.370  30.792  1.00  0.00     0.049 A 
ATOM     53  C   UNL A   1      43.650  31.023  28.872  1.00  0.00     0.074 A 
ATOM     54  C   UNL A   1      39.702  33.303  31.993  1.00  0.00     0.029 A 
ATOM     55  N   UNL A   1      39.948  33.653  29.814  1.00  0.00    -0.354 N 
ATOM     56  N   UNL A   1      42.691  31.811  29.272  1.00  0.00    -0.248 NA
ATOM     57  C   UNL A   1      44.736  31.742  28.216  1.00  0.00     0.031 C 
ATOM     58  C   UNL A   1      41.070  33.558  31.730  1.00  0.00     0.029 A 
ATOM     59  C   UNL A   1      41.202  33.794  30.375  1.00  0.00     0.049 A 
ATOM     60  H   UNL A   1      39.748  33.743  28.854  1.00  0.00     0.167 HD
ATOM     61  C   UNL A   1      43.063  33.113  29.055  1.00  0.00     0.074 A 
ATOM     62  C   UNL A   1      44.304  33.012  28.308  1.00  0.00     0.031 C 
ATOM     63  C   UNL A   1      42.331  34.159  29.541  1.00  0.00     0.034 A 
BRANCH  50  64
ATOM     64  C   UNL A   1      36.442  33.670  30.931  1.00  0.00     0.023 A 
ATOM     65  C   UNL A   1      35.500  34.155  30.000  1.00  0.00     0.031 A 
ATOM     66  C   UNL A   1      36.153  33.908  32.286  1.00  0.00     0.131 A 
ATOM     67  C   UNL A   1      34.387  34.908  30.403  1.00  0.00     0.055 A 
ATOM     68  C   UNL A   1      35.046  34.671  32.692  1.00  0.00     0.041 A 
ATOM     69  F   UNL A   1      36.934  33.407  33.257  1.00  0.00    -0.206 F 
ATOM     70  C   UNL A   1      34.164  35.190  31.747  1.00  0.00     0.022 A 
BRANCH  67  71
ATOM     71  S   UNL A   1      33.268  35.552  29.126  1.00  0.00     0.124 S 
ATOM     72  O   UNL A   1      32.890  34.340  28.406  1.00  0.00    -0.237 OA
ATOM     73  O   UNL A   1      32.220  36.182  29.919  1.00  0.00    -0.237 OA
ATOM     74  O   UNL A   1      34.113  36.476  28.371  1.00  0.00    -0.744 OA
ENDBRANCH  67  71
ENDBRANCH  50  64
BRANCH  51  75
ATOM     75  C   UNL A   1      43.676  28.589  27.838  1.00  0.00     0.023 A 
ATOM     76  C   UNL A   1      44.103  27.254  28.019  1.00  0.00     0.031 A 
ATOM     77  C   UNL A   1      43.115  28.914  26.592  1.00  0.00     0.131 A 
ATOM     78  C   UNL A   1      43.854  26.281  27.038  1.00  0.00     0.055 A 
ATOM     79  C   UNL A   1      42.923  27.953  25.589  1.00  0.00     0.041 A 
ATOM     80  F   UNL A   1      42.664  30.152  26.342  1.00  0.00    -0.206 F 
ATOM     81  C   UNL A   1      43.266  26.624  25.819  1.00  0.00     0.022 A 
BRANCH  78  82
ATOM     82  S   UNL A   1      44.090  24.525  27.450  1.00  0.00     0.124 S 
ATOM     83  O   UNL A   1      42.889  24.234  28.225  1.00  0.00    -0.237 OA
ATOM     84  O   UNL A   1      44.173  23.897  26.135  1.00  0.00    -0.237 OA
ATOM     85  O   UNL A   1      45.344  24.528  28.198  1.00  0.00    -0.744 OA
ENDBRANCH  78  82
ENDBRANCH  51  75
BRANCH  63  86
ATOM     86  C   UNL A   1      42.623  35.626  29.353  1.00  0.00     0.023 A 
ATOM     87  C   UNL A   1      43.470  36.359  30.192  1.00  0.00     0.031 A 
ATOM     88  C   UNL A   1      41.992  36.361  28.317  1.00  0.00     0.131 A 
ATOM     89  C   UNL A   1      43.747  37.713  29.933  1.00  0.00     0.055 A 
ATOM     90  C   UNL A   1      42.209  37.724  28.108  1.00  0.00     0.041 A 
ATOM     91  F   UNL A   1      41.154  35.782  27.445  1.00  0.00    -0.206 F 
ATOM     92  C   UNL A   1      43.113  38.406  28.904  1.00  0.00     0.022 A 
BRANCH  89  93
ATOM     93  S   UNL A   1      45.013  38.531  30.934  1.00  0.00     0.124 S 
ATOM     94  O   UNL A   1      46.077  38.764  29.964  1.00  0.00    -0.237 OA
ATOM     95  O   UNL A   1      44.306  39.723  31.395  1.00  0.00    -0.237 OA
ATOM     96  O   UNL A   1      45.319  37.551  31.974  1.00  0.00    -0.744 OA
ENDBRANCH  89  93
ENDBRANCH  63  86
ENDBRANCH  37  38
ENDBRANCH  30  32
ENDBRANCH  29  30
ENDBRANCH  28  29
ENDBRANCH   1  28
TORSDOF 19
ENDMDL
MODEL 3
REMARK VINA RESULT:     -12.1      1.987      3.127
REMARK SMILES Cc1ccc(OCC(=O)NNC(=O)[C@H]2CCCC[C@@H]2C(=O)OCCOC(=O)c2ccc(-c3c4nc(c(-c5cc(S(=O)(=O)[O-])ccc5F)c5ccc([nH]5)c(-c5cc(S(=O)(=O)[O-])ccc5F)c5nc(c(-c6cc(S(=O)(=O)[O-])ccc6F)c6ccc3[nH]6)C=C5)C=C4)cc2)cc1
REMARK SMILES IDX 23 1 22 2 20 3 21 4 19 5 14 6 15 7 16 8 18 9 17 10 12 11
REMARK SMILES IDX 11 12 13 14 10 15 8 16 9 17 7 19 6 20 5 21 1 22 2 23 3 24
REMARK SMILES IDX 92 25 4 26 91 27 24 28 25 29 26 30 27 31 28 32 29 33 90 34
REMARK SMILES IDX 30 35 89 36 31 37 32 38 33 39 83 40 34 41 88 42 82 43 84 44
REMARK SMILES IDX 35 45 87 46 81 47 80 48 36 50 68 51 48 52 67 53 49 54 52 55
REMARK SMILES IDX 66 56 85 57 50 58 51 59 65 61 86 62 53 63 37 64 38 65 46 66
REMARK SMILES IDX 39 67 45 68 47 69 44 70 40 71 41 72 42 73 43 74 69 75 70 76
REMARK SMILES IDX 78 77 71 78 77 79 79 80 76 81 72 82 73 83 74 84 75 85 54 86
REMARK SMILES IDX 55 87 63 88 56 89 62 90 64 91 61 92 57 93 58 94 59 95 60 96
REMARK H PARENT 11 13 10 18 84 49 52 60
REMARK Flexibility Score: inf
ROOT
ATOM      1  C   UNL A   1      33.699  28.920  26.743  1.00  0.00     0.274 C 
ENDROOT
BRANCH   1   2
ATOM      2  O   UNL A   1      32.593  29.074  25.834  1.00  0.00    -0.462 OA
BRANCH   2   3
ATOM      3  C   UNL A   1      32.491  28.054  24.932  1.00  0.00     0.309 C 
ATOM      4  O   UNL A   1      32.280  28.229  23.737  1.00  0.00    -0.252 OA
BRANCH   3   5
ATOM      5  C   UNL A   1      32.537  26.678  25.588  1.00  0.00     0.111 C 
ATOM      6  C   UNL A   1      32.967  25.561  24.616  1.00  0.00     0.094 C 
ATOM      7  C   UNL A   1      31.910  25.278  23.528  1.00  0.00     0.014 C 
ATOM      8  C   UNL A   1      30.484  25.116  24.056  1.00  0.00     0.001 C 
ATOM      9  C   UNL A   1      31.143  26.401  26.170  1.00  0.00     0.016 C 
ATOM     10  C   UNL A   1      30.079  26.154  25.096  1.00  0.00     0.001 C 
BRANCH   6  11
ATOM     11  C   UNL A   1      33.266  24.261  25.371  1.00  0.00     0.242 C 
ATOM     12  N   UNL A   1      34.002  23.268  24.795  1.00  0.00    -0.267 N 
ATOM     13  H   UNL A   1      34.036  22.411  25.281  1.00  0.00     0.191 HD
ATOM     14  O   UNL A   1      32.874  24.057  26.523  1.00  0.00    -0.273 OA
BRANCH  12  15
ATOM     15  N   UNL A   1      34.707  23.328  23.605  1.00  0.00    -0.265 N 
ATOM     16  C   UNL A   1      36.042  22.995  23.527  1.00  0.00     0.276 C 
ATOM     17  O   UNL A   1      36.614  22.919  22.440  1.00  0.00    -0.269 OA
ATOM     18  H   UNL A   1      34.240  23.618  22.788  1.00  0.00     0.191 HD
BRANCH  16  19
ATOM     19  C   UNL A   1      36.784  22.635  24.824  1.00  0.00     0.331 C 
BRANCH  19  20
ATOM     20  O   UNL A   1      37.362  23.702  25.559  1.00  0.00    -0.484 OA
BRANCH  20  21
ATOM     21  C   UNL A   1      38.495  23.439  26.276  1.00  0.00     0.120 A 
ATOM     22  C   UNL A   1      42.004  23.011  28.752  1.00  0.00     0.044 C 
ATOM     23  C   UNL A   1      40.792  23.161  27.882  1.00  0.00    -0.051 A 
ATOM     24  C   UNL A   1      40.068  24.357  27.883  1.00  0.00     0.007 A 
ATOM     25  C   UNL A   1      40.361  22.111  27.065  1.00  0.00     0.007 A 
ATOM     26  C   UNL A   1      38.930  24.493  27.083  1.00  0.00     0.047 A 
ATOM     27  C   UNL A   1      39.220  22.249  26.267  1.00  0.00     0.047 A 
ENDBRANCH  20  21
ENDBRANCH  19  20
ENDBRANCH  16  19
ENDBRANCH  12  15
ENDBRANCH   6  11
ENDBRANCH   3   5
ENDBRANCH   2   3
ENDBRANCH   1   2
BRANCH   1  28
ATOM     28  C   UNL A   1      34.199  30.250  27.330  1.00  0.00     0.275 C 
BRANCH  28  29
ATOM     29  O   UNL A   1      35.614  30.567  27.360  1.00  0.00    -0.458 OA
BRANCH  29  30
ATOM     30  C   UNL A   1      36.150  31.257  28.398  1.00  0.00     0.338 C 
ATOM     31  O   UNL A   1      35.576  32.180  28.951  1.00  0.00    -0.246 OA
BRANCH  30  32
ATOM     32  C   UNL A   1      37.408  30.642  28.885  1.00  0.00     0.060 A 
ATOM     33  C   UNL A   1      37.678  29.330  28.484  1.00  0.00     0.016 A 
ATOM     34  C   UNL A   1      38.399  31.420  29.489  1.00  0.00     0.016 A 
ATOM     35  C   UNL A   1      38.988  28.859  28.506  1.00  0.00     0.010 A 
ATOM     36  C   UNL A   1      39.706  30.962  29.486  1.00  0.00     0.010 A 
ATOM     37  C   UNL A   1      40.010  29.707  28.944  1.00  0.00    -0.014 A 
BRANCH  37  38
ATOM     38  C   UNL A   1      41.384  29.238  29.086  1.00  0.00     0.031 A 
ATOM     39  C   UNL A   1      41.931  28.083  28.337  1.00  0.00     0.074 A 
ATOM     40  C   UNL A   1      42.067  29.784  30.113  1.00  0.00     0.049 A 
ATOM     41  N   UNL A   1      42.690  27.182  28.870  1.00  0.00    -0.248 NA
ATOM     42  C   UNL A   1      41.634  27.821  26.929  1.00  0.00     0.031 C 
ATOM     43  C   UNL A   1      43.436  29.547  30.535  1.00  0.00     0.029 A 
ATOM     44  N   UNL A   1      41.493  30.472  31.185  1.00  0.00    -0.354 N 
ATOM     45  C   UNL A   1      43.184  26.404  27.846  1.00  0.00     0.074 A 
ATOM     46  C   UNL A   1      42.411  26.757  26.679  1.00  0.00     0.031 C 
ATOM     47  C   UNL A   1      43.497  29.769  31.862  1.00  0.00     0.029 A 
ATOM     48  C   UNL A   1      42.127  29.989  32.324  1.00  0.00     0.049 A 
ATOM     49  H   UNL A   1      40.785  31.155  31.143  1.00  0.00     0.167 HD
ATOM     50  C   UNL A   1      44.322  25.674  28.019  1.00  0.00     0.034 A 
ATOM     51  C   UNL A   1      41.485  29.296  33.310  1.00  0.00     0.034 A 
ATOM     52  C   UNL A   1      44.916  25.909  29.323  1.00  0.00     0.049 A 
ATOM     53  C   UNL A   1      42.220  28.027  33.673  1.00  0.00     0.074 A 
ATOM     54  C   UNL A   1      45.898  26.792  29.741  1.00  0.00     0.029 A 
ATOM     55  N   UNL A   1      44.314  25.415  30.464  1.00  0.00    -0.354 N 
ATOM     56  N   UNL A   1      42.951  27.349  32.833  1.00  0.00    -0.248 NA
ATOM     57  C   UNL A   1      42.137  27.399  34.987  1.00  0.00     0.031 C 
ATOM     58  C   UNL A   1      45.889  26.822  31.156  1.00  0.00     0.029 A 
ATOM     59  C   UNL A   1      44.913  25.945  31.589  1.00  0.00     0.049 A 
ATOM     60  H   UNL A   1      43.565  24.775  30.474  1.00  0.00     0.167 HD
ATOM     61  C   UNL A   1      43.526  26.293  33.494  1.00  0.00     0.074 A 
ATOM     62  C   UNL A   1      42.911  26.315  34.809  1.00  0.00     0.031 C 
ATOM     63  C   UNL A   1      44.485  25.516  32.907  1.00  0.00     0.034 A 
BRANCH  50  64
ATOM     64  C   UNL A   1      45.082  25.039  26.885  1.00  0.00     0.023 A 
ATOM     65  C   UNL A   1      44.733  23.738  26.469  1.00  0.00     0.031 A 
ATOM     66  C   UNL A   1      46.146  25.646  26.195  1.00  0.00     0.131 A 
ATOM     67  C   UNL A   1      45.466  23.057  25.485  1.00  0.00     0.055 A 
ATOM     68  C   UNL A   1      46.889  24.963  25.218  1.00  0.00     0.041 A 
ATOM     69  F   UNL A   1      46.497  26.917  26.447  1.00  0.00    -0.206 F 
ATOM     70  C   UNL A   1      46.560  23.655  24.869  1.00  0.00     0.022 A 
BRANCH  67  71
ATOM     71  S   UNL A   1      44.985  21.357  25.068  1.00  0.00     0.124 S 
ATOM     72  O   UNL A   1      43.851  21.128  25.958  1.00  0.00    -0.237 OA
ATOM     73  O   UNL A   1      44.677  21.461  23.647  1.00  0.00    -0.237 OA
ATOM     74  O   UNL A   1      46.182  20.579  25.386  1.00  0.00    -0.744 OA
ENDBRANCH  67  71
ENDBRANCH  50  64
BRANCH  51  75
ATOM     75  C   UNL A   1      39.993  29.429  33.408  1.00  0.00     0.023 A 
ATOM     76  C   UNL A   1      39.429  30.451  34.205  1.00  0.00     0.031 A 
ATOM     77  C   UNL A   1      39.119  28.724  32.565  1.00  0.00     0.131 A 
ATOM     78  C   UNL A   1      38.081  30.817  34.055  1.00  0.00     0.055 A 
ATOM     79  C   UNL A   1      37.760  29.050  32.463  1.00  0.00     0.041 A 
ATOM     80  F   UNL A   1      39.573  27.753  31.760  1.00  0.00    -0.206 F 
ATOM     81  C   UNL A   1      37.240  30.120  33.187  1.00  0.00     0.022 A 
BRANCH  78  82
ATOM     82  S   UNL A   1      37.489  32.354  34.827  1.00  0.00     0.124 S 
ATOM     83  O   UNL A   1      36.202  32.544  34.170  1.00  0.00    -0.237 OA
ATOM     84  O   UNL A   1      37.442  32.003  36.243  1.00  0.00    -0.237 OA
ATOM     85  O   UNL A   1      38.529  33.318  34.479  1.00  0.00    -0.744 OA
ENDBRANCH  78  82
ENDBRANCH  51  75
BRANCH  63  86
ATOM     86  C   UNL A   1      45.173  24.323  33.519  1.00  0.00     0.023 A 
ATOM     87  C   UNL A   1      46.519  24.318  33.900  1.00  0.00     0.031 A 
ATOM     88  C   UNL A   1      44.478  23.098  33.691  1.00  0.00     0.131 A 
ATOM     89  C   UNL A   1      47.091  23.191  34.515  1.00  0.00     0.055 A 
ATOM     90  C   UNL A   1      45.069  21.955  34.232  1.00  0.00     0.041 A 
ATOM     91  F   UNL A   1      43.185  22.964  33.362  1.00  0.00    -0.206 F 
ATOM     92  C   UNL A   1      46.380  22.003  34.674  1.00  0.00     0.022 A 
BRANCH  89  93
ATOM     93  S   UNL A   1      48.772  23.338  35.171  1.00  0.00     0.124 S 
ATOM     94  O   UNL A   1      48.741  24.643  35.822  1.00  0.00    -0.237 OA
ATOM     95  O   UNL A   1      48.845  22.186  36.066  1.00  0.00    -0.237 OA
ATOM     96  O   UNL A   1      49.616  23.253  33.981  1.00  0.00    -0.744 OA
ENDBRANCH  89  93
ENDBRANCH  63  86
ENDBRANCH  37  38
ENDBRANCH  30  32
ENDBRANCH  29  30
ENDBRANCH  28  29
ENDBRANCH   1  28
TORSDOF 19
ENDMDL
