MODEL 1
REMARK VINA RESULT:     -11.4      0.000      0.000
REMARK SMILES Cc1ccc(C)c(-c2csc(C(=O)OCCOC(=O)c3ccc(-c4c5nc(c(-c6cc(S(=O)(=O)[O-])ccc6F)c6ccc([nH]6)c(-c6cc(S(=O)(=O)[O-])ccc6F)c6nc(c(-c7cc(S(=O)(=O)[O-])ccc7F)c7ccc4[nH]7)C=C6)C=C5)cc3)n2)c1
REMARK SMILES IDX 16 1 15 2 14 3 12 4 13 5 11 6 8 7 9 8 83 9 10 10 7 11 1 12
REMARK SMILES IDX 2 13 3 14 84 15 4 16 5 17 6 18 17 19 18 20 19 21 20 22 21 23
REMARK SMILES IDX 82 24 22 25 81 26 23 27 24 28 25 29 75 30 26 31 80 32 74 33
REMARK SMILES IDX 76 34 27 35 79 36 73 37 72 38 28 40 60 41 40 42 59 43 41 44
REMARK SMILES IDX 44 45 58 46 77 47 42 48 43 49 57 51 78 52 45 53 29 54 30 55
REMARK SMILES IDX 38 56 31 57 37 58 39 59 36 60 32 61 33 62 34 63 35 64 61 65
REMARK SMILES IDX 62 66 70 67 63 68 69 69 71 70 68 71 64 72 65 73 66 74 67 75
REMARK SMILES IDX 46 76 47 77 55 78 48 79 54 80 56 81 53 82 49 83 50 84 51 85
REMARK SMILES IDX 52 86
REMARK H PARENT 76 39 44 50
REMARK Flexibility Score: inf
ROOT
ATOM      1  C   UNL A   1      34.731  34.530  28.045  1.00  0.00     0.275 C 
ENDROOT
BRANCH   1   2
ATOM      2  C   UNL A   1      33.247  34.641  28.417  1.00  0.00     0.275 C 
BRANCH   2   3
ATOM      3  O   UNL A   1      33.007  34.566  29.821  1.00  0.00    -0.457 OA
BRANCH   3   4
ATOM      4  C   UNL A   1      33.282  35.692  30.523  1.00  0.00     0.367 C 
ATOM      5  O   UNL A   1      32.810  36.808  30.271  1.00  0.00    -0.243 OA
BRANCH   4   6
ATOM      6  C   UNL A   1      34.127  35.357  31.633  1.00  0.00     0.202 A 
ATOM      7  C   UNL A   1      35.827  34.500  32.717  1.00  0.00     0.082 A 
ATOM      8  C   UNL A   1      35.152  35.040  33.793  1.00  0.00     0.096 A 
ATOM      9  N   UNL A   1      35.246  34.684  31.483  1.00  0.00    -0.230 NA
ATOM     10  S   UNL A   1      33.718  35.806  33.235  1.00  0.00    -0.115 S 
BRANCH   7  11
ATOM     11  C   UNL A   1      37.025  33.699  32.822  1.00  0.00     0.004 A 
ATOM     12  C   UNL A   1      40.779  34.342  33.003  1.00  0.00     0.044 C 
ATOM     13  C   UNL A   1      39.457  33.638  32.931  1.00  0.00    -0.050 A 
ATOM     14  C   UNL A   1      39.408  32.247  32.787  1.00  0.00     0.004 A 
ATOM     15  C   UNL A   1      38.258  34.358  32.949  1.00  0.00     0.014 A 
ATOM     16  C   UNL A   1      38.183  31.587  32.661  1.00  0.00     0.004 A 
ATOM     17  C   UNL A   1      36.977  32.303  32.665  1.00  0.00    -0.042 A 
ATOM     18  C   UNL A   1      35.696  31.539  32.463  1.00  0.00     0.045 C 
ENDBRANCH   7  11
ENDBRANCH   4   6
ENDBRANCH   3   4
ENDBRANCH   2   3
ENDBRANCH   1   2
BRANCH   1  19
ATOM     19  O   UNL A   1      35.206  33.255  27.529  1.00  0.00    -0.458 OA
BRANCH  19  20
ATOM     20  C   UNL A   1      35.036  31.996  28.004  1.00  0.00     0.338 C 
ATOM     21  O   UNL A   1      33.973  31.403  27.858  1.00  0.00    -0.246 OA
BRANCH  20  22
ATOM     22  C   UNL A   1      36.186  31.311  28.620  1.00  0.00     0.060 A 
ATOM     23  C   UNL A   1      36.120  29.926  28.815  1.00  0.00     0.016 A 
ATOM     24  C   UNL A   1      37.345  32.010  28.938  1.00  0.00     0.016 A 
ATOM     25  C   UNL A   1      37.259  29.230  29.212  1.00  0.00     0.010 A 
ATOM     26  C   UNL A   1      38.498  31.303  29.244  1.00  0.00     0.010 A 
ATOM     27  C   UNL A   1      38.473  29.910  29.389  1.00  0.00    -0.014 A 
BRANCH  27  28
ATOM     28  C   UNL A   1      39.703  29.141  29.633  1.00  0.00     0.031 A 
ATOM     29  C   UNL A   1      40.069  28.822  31.048  1.00  0.00     0.074 A 
ATOM     30  C   UNL A   1      40.433  28.525  28.678  1.00  0.00     0.049 A 
ATOM     31  N   UNL A   1      41.135  29.183  31.684  1.00  0.00    -0.248 NA
ATOM     32  C   UNL A   1      39.146  28.020  31.860  1.00  0.00     0.031 C 
ATOM     33  C   UNL A   1      40.158  28.434  27.244  1.00  0.00     0.029 A 
ATOM     34  N   UNL A   1      41.533  27.726  28.833  1.00  0.00    -0.354 N 
ATOM     35  C   UNL A   1      41.139  28.495  32.897  1.00  0.00     0.074 A 
ATOM     36  C   UNL A   1      39.832  27.891  32.999  1.00  0.00     0.031 C 
ATOM     37  C   UNL A   1      40.885  27.430  26.713  1.00  0.00     0.029 A 
ATOM     38  C   UNL A   1      41.805  26.940  27.725  1.00  0.00     0.049 A 
ATOM     39  H   UNL A   1      42.078  27.712  29.652  1.00  0.00     0.167 HD
ATOM     40  C   UNL A   1      42.281  28.343  33.632  1.00  0.00     0.034 A 
ATOM     41  C   UNL A   1      42.716  25.945  27.613  1.00  0.00     0.034 A 
ATOM     42  C   UNL A   1      43.316  29.255  33.191  1.00  0.00     0.049 A 
ATOM     43  C   UNL A   1      43.796  26.219  28.586  1.00  0.00     0.074 A 
ATOM     44  C   UNL A   1      43.395  30.623  32.998  1.00  0.00     0.029 A 
ATOM     45  N   UNL A   1      44.427  28.748  32.554  1.00  0.00    -0.354 N 
ATOM     46  N   UNL A   1      44.585  27.255  28.501  1.00  0.00    -0.248 NA
ATOM     47  C   UNL A   1      43.779  25.564  29.883  1.00  0.00     0.031 C 
ATOM     48  C   UNL A   1      44.197  30.780  31.828  1.00  0.00     0.029 A 
ATOM     49  C   UNL A   1      44.601  29.507  31.425  1.00  0.00     0.049 A 
ATOM     50  H   UNL A   1      44.985  27.992  32.850  1.00  0.00     0.167 HD
ATOM     51  C   UNL A   1      44.799  27.646  29.811  1.00  0.00     0.074 A 
ATOM     52  C   UNL A   1      44.416  26.486  30.610  1.00  0.00     0.031 C 
ATOM     53  C   UNL A   1      44.981  28.962  30.137  1.00  0.00     0.034 A 
BRANCH  40  54
ATOM     54  C   UNL A   1      42.614  27.181  34.553  1.00  0.00     0.023 A 
ATOM     55  C   UNL A   1      43.538  26.224  34.077  1.00  0.00     0.031 A 
ATOM     56  C   UNL A   1      41.881  26.797  35.695  1.00  0.00     0.131 A 
ATOM     57  C   UNL A   1      43.600  24.931  34.623  1.00  0.00     0.055 A 
ATOM     58  C   UNL A   1      42.014  25.538  36.294  1.00  0.00     0.041 A 
ATOM     59  F   UNL A   1      40.937  27.575  36.237  1.00  0.00    -0.206 F 
ATOM     60  C   UNL A   1      42.845  24.580  35.735  1.00  0.00     0.022 A 
BRANCH  57  61
ATOM     61  S   UNL A   1      44.498  23.656  33.696  1.00  0.00     0.124 S 
ATOM     62  O   UNL A   1      43.403  22.954  33.033  1.00  0.00    -0.237 OA
ATOM     63  O   UNL A   1      45.361  24.461  32.838  1.00  0.00    -0.237 OA
ATOM     64  O   UNL A   1      45.185  22.898  34.739  1.00  0.00    -0.744 OA
ENDBRANCH  57  61
ENDBRANCH  40  54
BRANCH  41  65
ATOM     65  C   UNL A   1      42.601  24.727  26.782  1.00  0.00     0.023 A 
ATOM     66  C   UNL A   1      43.584  24.351  25.853  1.00  0.00     0.031 A 
ATOM     67  C   UNL A   1      41.576  23.787  27.048  1.00  0.00     0.131 A 
ATOM     68  C   UNL A   1      43.510  23.092  25.217  1.00  0.00     0.055 A 
ATOM     69  C   UNL A   1      41.496  22.553  26.402  1.00  0.00     0.041 A 
ATOM     70  F   UNL A   1      40.661  24.009  28.005  1.00  0.00    -0.206 F 
ATOM     71  C   UNL A   1      42.469  22.198  25.484  1.00  0.00     0.022 A 
BRANCH  68  72
ATOM     72  S   UNL A   1      44.852  22.546  24.118  1.00  0.00     0.124 S 
ATOM     73  O   UNL A   1      45.693  23.735  24.044  1.00  0.00    -0.237 OA
ATOM     74  O   UNL A   1      45.405  21.404  24.837  1.00  0.00    -0.237 OA
ATOM     75  O   UNL A   1      44.153  22.204  22.879  1.00  0.00    -0.744 OA
ENDBRANCH  68  72
ENDBRANCH  41  65
BRANCH  53  76
ATOM     76  C   UNL A   1      45.303  29.956  29.039  1.00  0.00     0.023 A 
ATOM     77  C   UNL A   1      46.611  30.320  28.650  1.00  0.00     0.031 A 
ATOM     78  C   UNL A   1      44.236  30.460  28.272  1.00  0.00     0.131 A 
ATOM     79  C   UNL A   1      46.812  31.173  27.550  1.00  0.00     0.055 A 
ATOM     80  C   UNL A   1      44.439  31.288  27.168  1.00  0.00     0.041 A 
ATOM     81  F   UNL A   1      42.967  30.125  28.564  1.00  0.00    -0.206 F 
ATOM     82  C   UNL A   1      45.730  31.656  26.808  1.00  0.00     0.022 A 
BRANCH  79  83
ATOM     83  S   UNL A   1      48.492  31.692  27.080  1.00  0.00     0.124 S 
ATOM     84  O   UNL A   1      48.272  32.772  26.126  1.00  0.00    -0.237 OA
ATOM     85  O   UNL A   1      49.070  32.084  28.363  1.00  0.00    -0.237 OA
ATOM     86  O   UNL A   1      49.068  30.476  26.501  1.00  0.00    -0.744 OA
ENDBRANCH  79  83
ENDBRANCH  53  76
ENDBRANCH  27  28
ENDBRANCH  20  22
ENDBRANCH  19  20
ENDBRANCH   1  19
TORSDOF 15
ENDMDL
MODEL 2
REMARK VINA RESULT:     -11.0      3.290     11.716
REMARK SMILES Cc1ccc(C)c(-c2csc(C(=O)OCCOC(=O)c3ccc(-c4c5nc(c(-c6cc(S(=O)(=O)[O-])ccc6F)c6ccc([nH]6)c(-c6cc(S(=O)(=O)[O-])ccc6F)c6nc(c(-c7cc(S(=O)(=O)[O-])ccc7F)c7ccc4[nH]7)C=C6)C=C5)cc3)n2)c1
REMARK SMILES IDX 16 1 15 2 14 3 12 4 13 5 11 6 8 7 9 8 83 9 10 10 7 11 1 12
REMARK SMILES IDX 2 13 3 14 84 15 4 16 5 17 6 18 17 19 18 20 19 21 20 22 21 23
REMARK SMILES IDX 82 24 22 25 81 26 23 27 24 28 25 29 75 30 26 31 80 32 74 33
REMARK SMILES IDX 76 34 27 35 79 36 73 37 72 38 28 40 60 41 40 42 59 43 41 44
REMARK SMILES IDX 44 45 58 46 77 47 42 48 43 49 57 51 78 52 45 53 29 54 30 55
REMARK SMILES IDX 38 56 31 57 37 58 39 59 36 60 32 61 33 62 34 63 35 64 61 65
REMARK SMILES IDX 62 66 70 67 63 68 69 69 71 70 68 71 64 72 65 73 66 74 67 75
REMARK SMILES IDX 46 76 47 77 55 78 48 79 54 80 56 81 53 82 49 83 50 84 51 85
REMARK SMILES IDX 52 86
REMARK H PARENT 76 39 44 50
REMARK Flexibility Score: inf
ROOT
ATOM      1  C   UNL A   1      41.682  20.510  27.636  1.00  0.00     0.275 C 
ENDROOT
BRANCH   1   2
ATOM      2  C   UNL A   1      41.449  19.424  26.579  1.00  0.00     0.275 C 
BRANCH   2   3
ATOM      3  O   UNL A   1      42.155  19.656  25.362  1.00  0.00    -0.457 OA
BRANCH   3   4
ATOM      4  C   UNL A   1      43.451  19.260  25.351  1.00  0.00     0.367 C 
ATOM      5  O   UNL A   1      43.824  18.082  25.417  1.00  0.00    -0.243 OA
BRANCH   4   6
ATOM      6  C   UNL A   1      44.290  20.409  25.170  1.00  0.00     0.202 A 
ATOM      7  C   UNL A   1      44.885  22.517  25.150  1.00  0.00     0.082 A 
ATOM      8  C   UNL A   1      46.061  21.970  24.676  1.00  0.00     0.096 A 
ATOM      9  N   UNL A   1      43.875  21.628  25.436  1.00  0.00    -0.230 NA
ATOM     10  S   UNL A   1      45.890  20.263  24.578  1.00  0.00    -0.115 S 
BRANCH   7  11
ATOM     11  C   UNL A   1      44.634  23.935  25.270  1.00  0.00     0.004 A 
ATOM     12  C   UNL A   1      41.587  26.227  25.159  1.00  0.00     0.044 C 
ATOM     13  C   UNL A   1      43.006  25.746  25.242  1.00  0.00    -0.050 A 
ATOM     14  C   UNL A   1      44.060  26.666  25.253  1.00  0.00     0.004 A 
ATOM     15  C   UNL A   1      43.302  24.379  25.252  1.00  0.00     0.014 A 
ATOM     16  C   UNL A   1      45.387  26.229  25.272  1.00  0.00     0.004 A 
ATOM     17  C   UNL A   1      45.693  24.860  25.270  1.00  0.00    -0.042 A 
ATOM     18  C   UNL A   1      47.141  24.455  25.228  1.00  0.00     0.045 C 
ENDBRANCH   7  11
ENDBRANCH   4   6
ENDBRANCH   3   4
ENDBRANCH   2   3
ENDBRANCH   1   2
BRANCH   1  19
ATOM     19  O   UNL A   1      40.670  21.546  27.774  1.00  0.00    -0.458 OA
BRANCH  19  20
ATOM     20  C   UNL A   1      40.467  22.680  27.057  1.00  0.00     0.338 C 
ATOM     21  O   UNL A   1      40.230  22.633  25.856  1.00  0.00    -0.246 OA
BRANCH  20  22
ATOM     22  C   UNL A   1      40.443  23.971  27.767  1.00  0.00     0.060 A 
ATOM     23  C   UNL A   1      41.611  24.412  28.402  1.00  0.00     0.016 A 
ATOM     24  C   UNL A   1      39.308  24.773  27.749  1.00  0.00     0.016 A 
ATOM     25  C   UNL A   1      41.672  25.708  28.909  1.00  0.00     0.010 A 
ATOM     26  C   UNL A   1      39.403  26.090  28.173  1.00  0.00     0.010 A 
ATOM     27  C   UNL A   1      40.580  26.574  28.760  1.00  0.00    -0.014 A 
BRANCH  27  28
ATOM     28  C   UNL A   1      40.722  27.989  29.139  1.00  0.00     0.031 A 
ATOM     29  C   UNL A   1      41.780  28.800  28.462  1.00  0.00     0.074 A 
ATOM     30  C   UNL A   1      39.849  28.675  29.909  1.00  0.00     0.049 A 
ATOM     31  N   UNL A   1      42.790  29.392  29.013  1.00  0.00    -0.248 NA
ATOM     32  C   UNL A   1      41.725  28.971  27.005  1.00  0.00     0.031 C 
ATOM     33  C   UNL A   1      38.583  28.212  30.478  1.00  0.00     0.029 A 
ATOM     34  N   UNL A   1      39.867  30.004  30.235  1.00  0.00    -0.354 N 
ATOM     35  C   UNL A   1      43.384  30.182  28.031  1.00  0.00     0.074 A 
ATOM     36  C   UNL A   1      42.761  29.788  26.791  1.00  0.00     0.031 C 
ATOM     37  C   UNL A   1      37.839  29.279  30.834  1.00  0.00     0.029 A 
ATOM     38  C   UNL A   1      38.648  30.476  30.693  1.00  0.00     0.049 A 
ATOM     39  H   UNL A   1      40.669  30.569  30.151  1.00  0.00     0.167 HD
ATOM     40  C   UNL A   1      44.220  31.215  28.350  1.00  0.00     0.034 A 
ATOM     41  C   UNL A   1      38.294  31.757  30.948  1.00  0.00     0.034 A 
ATOM     42  C   UNL A   1      44.662  31.129  29.727  1.00  0.00     0.049 A 
ATOM     43  C   UNL A   1      39.527  32.503  31.282  1.00  0.00     0.074 A 
ATOM     44  C   UNL A   1      45.262  30.153  30.501  1.00  0.00     0.029 A 
ATOM     45  N   UNL A   1      44.211  32.064  30.634  1.00  0.00    -0.354 N 
ATOM     46  N   UNL A   1      40.245  32.253  32.343  1.00  0.00    -0.248 NA
ATOM     47  C   UNL A   1      40.201  33.277  30.252  1.00  0.00     0.031 C 
ATOM     48  C   UNL A   1      44.654  30.278  31.785  1.00  0.00     0.029 A 
ATOM     49  C   UNL A   1      43.772  31.358  31.725  1.00  0.00     0.049 A 
ATOM     50  H   UNL A   1      44.204  33.042  30.521  1.00  0.00     0.167 HD
ATOM     51  C   UNL A   1      41.555  32.431  31.934  1.00  0.00     0.074 A 
ATOM     52  C   UNL A   1      41.457  33.207  30.703  1.00  0.00     0.031 C 
ATOM     53  C   UNL A   1      42.571  31.684  32.467  1.00  0.00     0.034 A 
BRANCH  40  54
ATOM     54  C   UNL A   1      44.426  32.491  27.549  1.00  0.00     0.023 A 
ATOM     55  C   UNL A   1      43.816  33.667  28.040  1.00  0.00     0.031 A 
ATOM     56  C   UNL A   1      44.905  32.565  26.225  1.00  0.00     0.131 A 
ATOM     57  C   UNL A   1      43.574  34.770  27.203  1.00  0.00     0.055 A 
ATOM     58  C   UNL A   1      44.745  33.702  25.423  1.00  0.00     0.041 A 
ATOM     59  F   UNL A   1      45.467  31.521  25.605  1.00  0.00    -0.206 F 
ATOM     60  C   UNL A   1      44.040  34.798  25.895  1.00  0.00     0.022 A 
BRANCH  57  61
ATOM     61  S   UNL A   1      42.429  36.049  27.789  1.00  0.00     0.124 S 
ATOM     62  O   UNL A   1      42.780  37.170  26.922  1.00  0.00    -0.237 OA
ATOM     63  O   UNL A   1      41.132  35.427  27.545  1.00  0.00    -0.237 OA
ATOM     64  O   UNL A   1      42.791  36.210  29.195  1.00  0.00    -0.744 OA
ENDBRANCH  57  61
ENDBRANCH  40  54
BRANCH  41  65
ATOM     65  C   UNL A   1      36.950  32.355  30.789  1.00  0.00     0.023 A 
ATOM     66  C   UNL A   1      36.161  32.743  31.883  1.00  0.00     0.031 A 
ATOM     67  C   UNL A   1      36.499  32.741  29.504  1.00  0.00     0.131 A 
ATOM     68  C   UNL A   1      34.968  33.467  31.672  1.00  0.00     0.055 A 
ATOM     69  C   UNL A   1      35.309  33.439  29.298  1.00  0.00     0.041 A 
ATOM     70  F   UNL A   1      37.245  32.518  28.409  1.00  0.00    -0.206 F 
ATOM     71  C   UNL A   1      34.538  33.810  30.387  1.00  0.00     0.022 A 
BRANCH  68  72
ATOM     72  S   UNL A   1      34.016  34.089  33.091  1.00  0.00     0.124 S 
ATOM     73  O   UNL A   1      33.047  33.022  33.305  1.00  0.00    -0.237 OA
ATOM     74  O   UNL A   1      35.042  34.250  34.116  1.00  0.00    -0.237 OA
ATOM     75  O   UNL A   1      33.454  35.345  32.593  1.00  0.00    -0.744 OA
ENDBRANCH  68  72
ENDBRANCH  41  65
BRANCH  53  76
ATOM     76  C   UNL A   1      42.326  30.914  33.749  1.00  0.00     0.023 A 
ATOM     77  C   UNL A   1      42.108  29.520  33.813  1.00  0.00     0.031 A 
ATOM     78  C   UNL A   1      42.443  31.607  34.968  1.00  0.00     0.131 A 
ATOM     79  C   UNL A   1      41.993  28.876  35.059  1.00  0.00     0.055 A 
ATOM     80  C   UNL A   1      42.351  30.963  36.203  1.00  0.00     0.041 A 
ATOM     81  F   UNL A   1      42.687  32.929  34.981  1.00  0.00    -0.206 F 
ATOM     82  C   UNL A   1      42.115  29.594  36.252  1.00  0.00     0.022 A 
BRANCH  79  83
ATOM     83  S   UNL A   1      41.655  27.090  35.147  1.00  0.00     0.124 S 
ATOM     84  O   UNL A   1      42.915  26.474  34.752  1.00  0.00    -0.237 OA
ATOM     85  O   UNL A   1      41.270  26.913  36.545  1.00  0.00    -0.237 OA
ATOM     86  O   UNL A   1      40.561  26.909  34.189  1.00  0.00    -0.744 OA
ENDBRANCH  79  83
ENDBRANCH  53  76
ENDBRANCH  27  28
ENDBRANCH  20  22
ENDBRANCH  19  20
ENDBRANCH   1  19
TORSDOF 15
ENDMDL
MODEL 3
REMARK VINA RESULT:     -11.0      3.171     11.376
REMARK SMILES Cc1ccc(C)c(-c2csc(C(=O)OCCOC(=O)c3ccc(-c4c5nc(c(-c6cc(S(=O)(=O)[O-])ccc6F)c6ccc([nH]6)c(-c6cc(S(=O)(=O)[O-])ccc6F)c6nc(c(-c7cc(S(=O)(=O)[O-])ccc7F)c7ccc4[nH]7)C=C6)C=C5)cc3)n2)c1
REMARK SMILES IDX 16 1 15 2 14 3 12 4 13 5 11 6 8 7 9 8 83 9 10 10 7 11 1 12
REMARK SMILES IDX 2 13 3 14 84 15 4 16 5 17 6 18 17 19 18 20 19 21 20 22 21 23
REMARK SMILES IDX 82 24 22 25 81 26 23 27 24 28 25 29 75 30 26 31 80 32 74 33
REMARK SMILES IDX 76 34 27 35 79 36 73 37 72 38 28 40 60 41 40 42 59 43 41 44
REMARK SMILES IDX 44 45 58 46 77 47 42 48 43 49 57 51 78 52 45 53 29 54 30 55
REMARK SMILES IDX 38 56 31 57 37 58 39 59 36 60 32 61 33 62 34 63 35 64 61 65
REMARK SMILES IDX 62 66 70 67 63 68 69 69 71 70 68 71 64 72 65 73 66 74 67 75
REMARK SMILES IDX 46 76 47 77 55 78 48 79 54 80 56 81 53 82 49 83 50 84 51 85
REMARK SMILES IDX 52 86
REMARK H PARENT 76 39 44 50
REMARK Flexibility Score: inf
ROOT
ATOM      1  C   UNL A   1      41.154  20.298  27.484  1.00  0.00     0.275 C 
ENDROOT
BRANCH   1   2
ATOM      2  C   UNL A   1      41.646  19.417  26.329  1.00  0.00     0.275 C 
BRANCH   2   3
ATOM      3  O   UNL A   1      42.479  20.110  25.402  1.00  0.00    -0.457 OA
BRANCH   3   4
ATOM      4  C   UNL A   1      43.779  19.725  25.382  1.00  0.00     0.367 C 
ATOM      5  O   UNL A   1      44.161  18.550  25.338  1.00  0.00    -0.243 OA
BRANCH   4   6
ATOM      6  C   UNL A   1      44.611  20.893  25.334  1.00  0.00     0.202 A 
ATOM      7  C   UNL A   1      45.340  22.900  25.825  1.00  0.00     0.082 A 
ATOM      8  C   UNL A   1      46.264  22.582  24.850  1.00  0.00     0.096 A 
ATOM      9  N   UNL A   1      44.399  21.936  26.106  1.00  0.00    -0.230 NA
ATOM     10  S   UNL A   1      45.933  21.005  24.252  1.00  0.00    -0.115 S 
BRANCH   7  11
ATOM     11  C   UNL A   1      45.254  24.185  26.482  1.00  0.00     0.004 A 
ATOM     12  C   UNL A   1      46.826  25.847  29.532  1.00  0.00     0.044 C 
ATOM     13  C   UNL A   1      45.971  25.607  28.324  1.00  0.00    -0.050 A 
ATOM     14  C   UNL A   1      44.991  26.536  27.960  1.00  0.00     0.004 A 
ATOM     15  C   UNL A   1      46.097  24.431  27.577  1.00  0.00     0.014 A 
ATOM     16  C   UNL A   1      44.151  26.296  26.870  1.00  0.00     0.004 A 
ATOM     17  C   UNL A   1      44.262  25.114  26.124  1.00  0.00    -0.042 A 
ATOM     18  C   UNL A   1      43.286  24.887  25.001  1.00  0.00     0.045 C 
ENDBRANCH   7  11
ENDBRANCH   4   6
ENDBRANCH   3   4
ENDBRANCH   2   3
ENDBRANCH   1   2
BRANCH   1  19
ATOM     19  O   UNL A   1      41.312  21.738  27.350  1.00  0.00    -0.458 OA
BRANCH  19  20
ATOM     20  C   UNL A   1      40.422  22.690  26.972  1.00  0.00     0.338 C 
ATOM     21  O   UNL A   1      39.595  22.468  26.095  1.00  0.00    -0.246 OA
BRANCH  20  22
ATOM     22  C   UNL A   1      40.402  23.971  27.700  1.00  0.00     0.060 A 
ATOM     23  C   UNL A   1      41.541  24.353  28.420  1.00  0.00     0.016 A 
ATOM     24  C   UNL A   1      39.304  24.819  27.620  1.00  0.00     0.016 A 
ATOM     25  C   UNL A   1      41.621  25.638  28.952  1.00  0.00     0.010 A 
ATOM     26  C   UNL A   1      39.425  26.125  28.071  1.00  0.00     0.010 A 
ATOM     27  C   UNL A   1      40.577  26.551  28.745  1.00  0.00    -0.014 A 
BRANCH  27  28
ATOM     28  C   UNL A   1      40.751  27.952  29.157  1.00  0.00     0.031 A 
ATOM     29  C   UNL A   1      41.756  28.785  28.429  1.00  0.00     0.074 A 
ATOM     30  C   UNL A   1      39.940  28.614  30.012  1.00  0.00     0.049 A 
ATOM     31  N   UNL A   1      42.807  29.359  28.920  1.00  0.00    -0.248 NA
ATOM     32  C   UNL A   1      41.592  29.002  26.986  1.00  0.00     0.031 C 
ATOM     33  C   UNL A   1      38.720  28.133  30.660  1.00  0.00     0.029 A 
ATOM     34  N   UNL A   1      39.985  29.931  30.378  1.00  0.00    -0.354 N 
ATOM     35  C   UNL A   1      43.327  30.181  27.922  1.00  0.00     0.074 A 
ATOM     36  C   UNL A   1      42.610  29.827  26.721  1.00  0.00     0.031 C 
ATOM     37  C   UNL A   1      38.006  29.187  31.106  1.00  0.00     0.029 A 
ATOM     38  C   UNL A   1      38.805  30.388  30.942  1.00  0.00     0.049 A 
ATOM     39  H   UNL A   1      40.780  30.499  30.252  1.00  0.00     0.167 HD
ATOM     40  C   UNL A   1      44.187  31.203  28.210  1.00  0.00     0.034 A 
ATOM     41  C   UNL A   1      38.474  31.661  31.263  1.00  0.00     0.034 A 
ATOM     42  C   UNL A   1      44.731  31.073  29.546  1.00  0.00     0.049 A 
ATOM     43  C   UNL A   1      39.731  32.395  31.527  1.00  0.00     0.074 A 
ATOM     44  C   UNL A   1      45.386  30.073  30.240  1.00  0.00     0.029 A 
ATOM     45  N   UNL A   1      44.351  31.978  30.513  1.00  0.00    -0.354 N 
ATOM     46  N   UNL A   1      40.526  32.112  32.522  1.00  0.00    -0.248 NA
ATOM     47  C   UNL A   1      40.327  33.202  30.474  1.00  0.00     0.031 C 
ATOM     48  C   UNL A   1      44.876  30.157  31.571  1.00  0.00     0.029 A 
ATOM     49  C   UNL A   1      43.994  31.238  31.611  1.00  0.00     0.049 A 
ATOM     50  H   UNL A   1      44.338  32.959  30.432  1.00  0.00     0.167 HD
ATOM     51  C   UNL A   1      41.802  32.303  32.022  1.00  0.00     0.074 A 
ATOM     52  C   UNL A   1      41.613  33.119  30.826  1.00  0.00     0.031 C 
ATOM     53  C   UNL A   1      42.853  31.540  32.452  1.00  0.00     0.034 A 
BRANCH  40  54
ATOM     54  C   UNL A   1      44.334  32.504  27.437  1.00  0.00     0.023 A 
ATOM     55  C   UNL A   1      43.755  33.661  28.003  1.00  0.00     0.031 A 
ATOM     56  C   UNL A   1      44.723  32.621  26.086  1.00  0.00     0.131 A 
ATOM     57  C   UNL A   1      43.454  34.788  27.218  1.00  0.00     0.055 A 
ATOM     58  C   UNL A   1      44.506  33.781  25.332  1.00  0.00     0.041 A 
ATOM     59  F   UNL A   1      45.245  31.599  25.398  1.00  0.00    -0.206 F 
ATOM     60  C   UNL A   1      43.830  34.859  25.884  1.00  0.00     0.022 A 
BRANCH  57  61
ATOM     61  S   UNL A   1      42.346  36.043  27.919  1.00  0.00     0.124 S 
ATOM     62  O   UNL A   1      41.065  35.345  27.891  1.00  0.00    -0.237 OA
ATOM     63  O   UNL A   1      42.934  36.261  29.236  1.00  0.00    -0.237 OA
ATOM     64  O   UNL A   1      42.469  37.161  26.987  1.00  0.00    -0.744 OA
ENDBRANCH  57  61
ENDBRANCH  40  54
BRANCH  41  65
ATOM     65  C   UNL A   1      37.124  32.263  31.225  1.00  0.00     0.023 A 
ATOM     66  C   UNL A   1      36.466  32.568  30.022  1.00  0.00     0.031 A 
ATOM     67  C   UNL A   1      36.364  32.364  32.415  1.00  0.00     0.131 A 
ATOM     68  C   UNL A   1      35.114  32.974  30.040  1.00  0.00     0.055 A 
ATOM     69  C   UNL A   1      35.034  32.785  32.429  1.00  0.00     0.041 A 
ATOM     70  F   UNL A   1      36.871  31.980  33.598  1.00  0.00    -0.206 F 
ATOM     71  C   UNL A   1      34.401  33.088  31.237  1.00  0.00     0.022 A 
BRANCH  68  72
ATOM     72  S   UNL A   1      34.222  33.237  28.478  1.00  0.00     0.124 S 
ATOM     73  O   UNL A   1      33.870  31.877  28.090  1.00  0.00    -0.237 OA
ATOM     74  O   UNL A   1      33.120  34.103  28.884  1.00  0.00    -0.237 OA
ATOM     75  O   UNL A   1      35.220  33.884  27.626  1.00  0.00    -0.744 OA
ENDBRANCH  68  72
ENDBRANCH  41  65
BRANCH  53  76
ATOM     76  C   UNL A   1      42.704  30.729  33.724  1.00  0.00     0.023 A 
ATOM     77  C   UNL A   1      42.229  29.400  33.771  1.00  0.00     0.031 A 
ATOM     78  C   UNL A   1      43.183  31.288  34.923  1.00  0.00     0.131 A 
ATOM     79  C   UNL A   1      42.223  28.692  34.987  1.00  0.00     0.055 A 
ATOM     80  C   UNL A   1      43.198  30.576  36.123  1.00  0.00     0.041 A 
ATOM     81  F   UNL A   1      43.684  32.536  34.942  1.00  0.00    -0.206 F 
ATOM     82  C   UNL A   1      42.707  29.276  36.161  1.00  0.00     0.022 A 
BRANCH  79  83
ATOM     83  S   UNL A   1      41.558  27.000  35.066  1.00  0.00     0.124 S 
ATOM     84  O   UNL A   1      42.706  26.156  34.757  1.00  0.00    -0.237 OA
ATOM     85  O   UNL A   1      41.061  26.922  36.438  1.00  0.00    -0.237 OA
ATOM     86  O   UNL A   1      40.511  27.004  34.041  1.00  0.00    -0.744 OA
ENDBRANCH  79  83
ENDBRANCH  53  76
ENDBRANCH  27  28
ENDBRANCH  20  22
ENDBRANCH  19  20
ENDBRANCH   1  19
TORSDOF 15
ENDMDL
