MODEL 1
REMARK VINA RESULT:     -12.3      0.000      0.000
REMARK SMILES Cc1cc(Cl)cc2c1O[C@H](C(F)(F)F)C(C(=O)OCCOC(=O)c1ccc(-c3c4nc(c(-c5cc(S(=O)(=O)[O-])ccc5F)c5ccc([nH]5)c(-c5cc(S(=O)(=O)[O-])ccc5F)c5nc(c(-c6cc(S(=O)(=O)[O-])ccc6F)c6ccc3[nH]6)C=C5)C=C4)cc1)=C2
REMARK SMILES IDX 20 1 19 2 18 3 16 4 17 5 15 6 1 7 2 8 3 9 8 10 4 11 7 12
REMARK SMILES IDX 9 13 5 14 6 15 87 16 10 17 11 18 12 19 13 20 14 21 21 22
REMARK SMILES IDX 22 23 23 24 24 25 25 26 86 27 26 28 85 29 27 30 28 31 29 32
REMARK SMILES IDX 79 33 30 34 84 35 78 36 80 37 31 38 83 39 77 40 76 41 32 43
REMARK SMILES IDX 64 44 44 45 63 46 45 47 48 48 62 49 81 50 46 51 47 52 61 54
REMARK SMILES IDX 82 55 49 56 33 57 34 58 42 59 35 60 41 61 43 62 40 63 36 64
REMARK SMILES IDX 37 65 38 66 39 67 65 68 66 69 74 70 67 71 73 72 75 73 72 74
REMARK SMILES IDX 68 75 69 76 70 77 71 78 50 79 51 80 59 81 52 82 58 83 60 84
REMARK SMILES IDX 57 85 53 86 54 87 55 88 56 89
REMARK H PARENT 80 42 48 53
REMARK Flexibility Score: inf
ROOT
ATOM      1  C   UNL A   1      36.184  20.675  25.342  1.00  0.00     0.275 C 
ENDROOT
BRANCH   1   2
ATOM      2  C   UNL A   1      34.885  21.385  24.960  1.00  0.00     0.275 C 
BRANCH   2   3
ATOM      3  O   UNL A   1      35.044  22.821  24.978  1.00  0.00    -0.459 OA
BRANCH   3   4
ATOM      4  C   UNL A   1      34.936  23.432  23.774  1.00  0.00     0.338 C 
ATOM      5  O   UNL A   1      35.509  23.110  22.745  1.00  0.00    -0.246 OA
BRANCH   4   6
ATOM      6  C   UNL A   1      34.005  24.572  23.851  1.00  0.00     0.087 C 
ATOM      7  C   UNL A   1      29.875  27.619  23.585  1.00  0.00     0.048 C 
ATOM      8  C   UNL A   1      31.136  27.573  24.396  1.00  0.00    -0.007 A 
ATOM      9  C   UNL A   1      31.356  28.544  25.388  1.00  0.00     0.027 A 
ATOM     10  C   UNL A   1      32.118  26.598  24.163  1.00  0.00     0.131 A 
ATOM     11  C   UNL A   1      32.528  28.534  26.139  1.00  0.00     0.042 A 
ATOM     12  C   UNL A   1      33.282  26.586  24.934  1.00  0.00     0.019 A 
ATOM     13  O   UNL A   1      31.888  25.698  23.156  1.00  0.00    -0.475 OA
ATOM     14  Cl  UNL A   1      32.774  29.719  27.359  1.00  0.00    -0.084 Cl
ATOM     15  C   UNL A   1      33.494  27.560  25.917  1.00  0.00     0.032 A 
ATOM     16  C   UNL A   1      34.260  25.535  24.742  1.00  0.00     0.027 C 
ATOM     17  C   UNL A   1      32.748  24.531  23.035  1.00  0.00     0.316 C 
BRANCH  17  18
ATOM     18  C   UNL A   1      31.922  23.274  23.348  1.00  0.00     0.430 C 
ATOM     19  F   UNL A   1      30.625  23.433  22.983  1.00  0.00    -0.167 F 
ATOM     20  F   UNL A   1      32.378  22.194  22.664  1.00  0.00    -0.167 F 
ATOM     21  F   UNL A   1      31.936  22.957  24.662  1.00  0.00    -0.167 F 
ENDBRANCH  17  18
ENDBRANCH   4   6
ENDBRANCH   3   4
ENDBRANCH   2   3
ENDBRANCH   1   2
BRANCH   1  22
ATOM     22  O   UNL A   1      37.320  21.512  25.060  1.00  0.00    -0.458 OA
BRANCH  22  23
ATOM     23  C   UNL A   1      38.465  21.160  25.690  1.00  0.00     0.338 C 
ATOM     24  O   UNL A   1      38.975  20.054  25.734  1.00  0.00    -0.246 OA
BRANCH  23  25
ATOM     25  C   UNL A   1      39.093  22.353  26.275  1.00  0.00     0.060 A 
ATOM     26  C   UNL A   1      38.584  23.597  25.927  1.00  0.00     0.016 A 
ATOM     27  C   UNL A   1      40.264  22.265  27.023  1.00  0.00     0.016 A 
ATOM     28  C   UNL A   1      39.315  24.749  26.184  1.00  0.00     0.010 A 
ATOM     29  C   UNL A   1      40.913  23.442  27.425  1.00  0.00     0.010 A 
ATOM     30  C   UNL A   1      40.470  24.700  26.976  1.00  0.00    -0.014 A 
BRANCH  30  31
ATOM     31  C   UNL A   1      41.183  25.969  27.317  1.00  0.00     0.031 A 
ATOM     32  C   UNL A   1      40.561  26.979  28.249  1.00  0.00     0.074 A 
ATOM     33  C   UNL A   1      42.424  26.191  26.827  1.00  0.00     0.049 A 
ATOM     34  N   UNL A   1      40.989  28.173  28.574  1.00  0.00    -0.248 NA
ATOM     35  C   UNL A   1      39.288  26.610  28.890  1.00  0.00     0.031 C 
ATOM     36  C   UNL A   1      43.160  25.277  25.946  1.00  0.00     0.029 A 
ATOM     37  N   UNL A   1      43.306  27.225  27.023  1.00  0.00    -0.354 N 
ATOM     38  C   UNL A   1      40.024  28.711  29.420  1.00  0.00     0.074 A 
ATOM     39  C   UNL A   1      38.973  27.723  29.539  1.00  0.00     0.031 C 
ATOM     40  C   UNL A   1      44.404  25.740  25.763  1.00  0.00     0.029 A 
ATOM     41  C   UNL A   1      44.523  27.043  26.404  1.00  0.00     0.049 A 
ATOM     42  H   UNL A   1      43.088  28.024  27.557  1.00  0.00     0.167 HD
ATOM     43  C   UNL A   1      40.022  29.912  30.047  1.00  0.00     0.034 A 
ATOM     44  C   UNL A   1      45.607  27.841  26.322  1.00  0.00     0.034 A 
ATOM     45  C   UNL A   1      41.099  30.866  29.959  1.00  0.00     0.049 A 
ATOM     46  C   UNL A   1      45.551  29.197  26.970  1.00  0.00     0.074 A 
ATOM     47  C   UNL A   1      41.191  32.114  30.550  1.00  0.00     0.029 A 
ATOM     48  N   UNL A   1      42.275  30.674  29.249  1.00  0.00    -0.354 N 
ATOM     49  N   UNL A   1      44.587  29.722  27.689  1.00  0.00    -0.248 NA
ATOM     50  C   UNL A   1      46.709  30.078  26.774  1.00  0.00     0.031 C 
ATOM     51  C   UNL A   1      42.397  32.699  30.154  1.00  0.00     0.029 A 
ATOM     52  C   UNL A   1      43.089  31.788  29.370  1.00  0.00     0.049 A 
ATOM     53  H   UNL A   1      42.499  29.864  28.734  1.00  0.00     0.167 HD
ATOM     54  C   UNL A   1      45.030  30.990  28.045  1.00  0.00     0.074 A 
ATOM     55  C   UNL A   1      46.348  31.152  27.466  1.00  0.00     0.031 C 
ATOM     56  C   UNL A   1      44.399  31.933  28.786  1.00  0.00     0.034 A 
BRANCH  43  57
ATOM     57  C   UNL A   1      38.807  30.285  30.859  1.00  0.00     0.023 A 
ATOM     58  C   UNL A   1      37.739  31.011  30.307  1.00  0.00     0.031 A 
ATOM     59  C   UNL A   1      38.704  29.877  32.202  1.00  0.00     0.131 A 
ATOM     60  C   UNL A   1      36.633  31.343  31.105  1.00  0.00     0.055 A 
ATOM     61  C   UNL A   1      37.573  30.153  32.972  1.00  0.00     0.041 A 
ATOM     62  F   UNL A   1      39.703  29.196  32.786  1.00  0.00    -0.206 F 
ATOM     63  C   UNL A   1      36.531  30.897  32.426  1.00  0.00     0.022 A 
BRANCH  60  64
ATOM     64  S   UNL A   1      35.361  32.437  30.419  1.00  0.00     0.124 S 
ATOM     65  O   UNL A   1      36.129  33.652  30.157  1.00  0.00    -0.237 OA
ATOM     66  O   UNL A   1      34.908  31.702  29.245  1.00  0.00    -0.237 OA
ATOM     67  O   UNL A   1      34.383  32.547  31.500  1.00  0.00    -0.744 OA
ENDBRANCH  60  64
ENDBRANCH  43  57
BRANCH  44  68
ATOM     68  C   UNL A   1      46.807  27.397  25.559  1.00  0.00     0.023 A 
ATOM     69  C   UNL A   1      46.987  27.765  24.216  1.00  0.00     0.031 A 
ATOM     70  C   UNL A   1      47.805  26.612  26.166  1.00  0.00     0.131 A 
ATOM     71  C   UNL A   1      48.132  27.339  23.522  1.00  0.00     0.055 A 
ATOM     72  C   UNL A   1      48.964  26.233  25.487  1.00  0.00     0.041 A 
ATOM     73  F   UNL A   1      47.683  26.232  27.448  1.00  0.00    -0.206 F 
ATOM     74  C   UNL A   1      49.130  26.592  24.154  1.00  0.00     0.022 A 
BRANCH  71  75
ATOM     75  S   UNL A   1      48.287  27.745  21.762  1.00  0.00     0.124 S 
ATOM     76  O   UNL A   1      48.528  26.431  21.176  1.00  0.00    -0.237 OA
ATOM     77  O   UNL A   1      46.992  28.350  21.471  1.00  0.00    -0.237 OA
ATOM     78  O   UNL A   1      49.423  28.664  21.722  1.00  0.00    -0.744 OA
ENDBRANCH  71  75
ENDBRANCH  44  68
BRANCH  56  79
ATOM     79  C   UNL A   1      45.132  33.216  29.054  1.00  0.00     0.023 A 
ATOM     80  C   UNL A   1      45.041  34.307  28.175  1.00  0.00     0.031 A 
ATOM     81  C   UNL A   1      45.854  33.376  30.249  1.00  0.00     0.131 A 
ATOM     82  C   UNL A   1      45.672  35.515  28.503  1.00  0.00     0.055 A 
ATOM     83  C   UNL A   1      46.446  34.591  30.588  1.00  0.00     0.041 A 
ATOM     84  F   UNL A   1      45.962  32.360  31.121  1.00  0.00    -0.206 F 
ATOM     85  C   UNL A   1      46.356  35.670  29.713  1.00  0.00     0.022 A 
BRANCH  82  86
ATOM     86  S   UNL A   1      45.586  36.894  27.328  1.00  0.00     0.124 S 
ATOM     87  O   UNL A   1      44.152  36.979  27.069  1.00  0.00    -0.237 OA
ATOM     88  O   UNL A   1      46.162  37.998  28.089  1.00  0.00    -0.237 OA
ATOM     89  O   UNL A   1      46.394  36.434  26.201  1.00  0.00    -0.744 OA
ENDBRANCH  82  86
ENDBRANCH  56  79
ENDBRANCH  30  31
ENDBRANCH  23  25
ENDBRANCH  22  23
ENDBRANCH   1  22
TORSDOF 15
ENDMDL
MODEL 2
REMARK VINA RESULT:     -12.2      5.124     10.222
REMARK SMILES Cc1cc(Cl)cc2c1O[C@H](C(F)(F)F)C(C(=O)OCCOC(=O)c1ccc(-c3c4nc(c(-c5cc(S(=O)(=O)[O-])ccc5F)c5ccc([nH]5)c(-c5cc(S(=O)(=O)[O-])ccc5F)c5nc(c(-c6cc(S(=O)(=O)[O-])ccc6F)c6ccc3[nH]6)C=C5)C=C4)cc1)=C2
REMARK SMILES IDX 20 1 19 2 18 3 16 4 17 5 15 6 1 7 2 8 3 9 8 10 4 11 7 12
REMARK SMILES IDX 9 13 5 14 6 15 87 16 10 17 11 18 12 19 13 20 14 21 21 22
REMARK SMILES IDX 22 23 23 24 24 25 25 26 86 27 26 28 85 29 27 30 28 31 29 32
REMARK SMILES IDX 79 33 30 34 84 35 78 36 80 37 31 38 83 39 77 40 76 41 32 43
REMARK SMILES IDX 64 44 44 45 63 46 45 47 48 48 62 49 81 50 46 51 47 52 61 54
REMARK SMILES IDX 82 55 49 56 33 57 34 58 42 59 35 60 41 61 43 62 40 63 36 64
REMARK SMILES IDX 37 65 38 66 39 67 65 68 66 69 74 70 67 71 73 72 75 73 72 74
REMARK SMILES IDX 68 75 69 76 70 77 71 78 50 79 51 80 59 81 52 82 58 83 60 84
REMARK SMILES IDX 57 85 53 86 54 87 55 88 56 89
REMARK H PARENT 80 42 48 53
REMARK Flexibility Score: inf
ROOT
ATOM      1  C   UNL A   1      31.462  30.070  25.306  1.00  0.00     0.275 C 
ENDROOT
BRANCH   1   2
ATOM      2  C   UNL A   1      31.250  28.713  24.636  1.00  0.00     0.275 C 
BRANCH   2   3
ATOM      3  O   UNL A   1      32.204  27.736  25.110  1.00  0.00    -0.459 OA
BRANCH   3   4
ATOM      4  C   UNL A   1      31.729  26.857  26.024  1.00  0.00     0.338 C 
ATOM      5  O   UNL A   1      30.982  27.114  26.956  1.00  0.00    -0.246 OA
BRANCH   4   6
ATOM      6  C   UNL A   1      32.232  25.499  25.751  1.00  0.00     0.087 C 
ATOM      7  C   UNL A   1      32.821  20.685  24.048  1.00  0.00     0.048 C 
ATOM      8  C   UNL A   1      33.724  21.779  24.536  1.00  0.00    -0.007 A 
ATOM      9  C   UNL A   1      35.114  21.569  24.563  1.00  0.00     0.027 A 
ATOM     10  C   UNL A   1      33.208  23.000  24.997  1.00  0.00     0.131 A 
ATOM     11  C   UNL A   1      35.970  22.562  25.031  1.00  0.00     0.042 A 
ATOM     12  C   UNL A   1      34.077  23.996  25.448  1.00  0.00     0.019 A 
ATOM     13  O   UNL A   1      31.846  23.149  25.000  1.00  0.00    -0.475 OA
ATOM     14  Cl  UNL A   1      37.667  22.294  25.041  1.00  0.00    -0.084 Cl
ATOM     15  C   UNL A   1      35.459  23.776  25.475  1.00  0.00     0.032 A 
ATOM     16  C   UNL A   1      33.547  25.282  25.854  1.00  0.00     0.027 C 
ATOM     17  C   UNL A   1      31.276  24.467  25.234  1.00  0.00     0.316 C 
BRANCH  17  18
ATOM     18  C   UNL A   1      30.586  24.943  23.945  1.00  0.00     0.430 C 
ATOM     19  F   UNL A   1      29.550  25.774  24.218  1.00  0.00    -0.167 F 
ATOM     20  F   UNL A   1      31.437  25.644  23.154  1.00  0.00    -0.167 F 
ATOM     21  F   UNL A   1      30.100  23.919  23.209  1.00  0.00    -0.167 F 
ENDBRANCH  17  18
ENDBRANCH   4   6
ENDBRANCH   3   4
ENDBRANCH   2   3
ENDBRANCH   1   2
BRANCH   1  22
ATOM     22  O   UNL A   1      32.826  30.214  25.740  1.00  0.00    -0.458 OA
BRANCH  22  23
ATOM     23  C   UNL A   1      33.020  31.098  26.746  1.00  0.00     0.338 C 
ATOM     24  O   UNL A   1      32.230  31.926  27.165  1.00  0.00    -0.246 OA
BRANCH  23  25
ATOM     25  C   UNL A   1      34.338  30.871  27.356  1.00  0.00     0.060 A 
ATOM     26  C   UNL A   1      34.761  29.559  27.526  1.00  0.00     0.016 A 
ATOM     27  C   UNL A   1      35.076  31.917  27.902  1.00  0.00     0.016 A 
ATOM     28  C   UNL A   1      35.828  29.273  28.368  1.00  0.00     0.010 A 
ATOM     29  C   UNL A   1      36.251  31.631  28.613  1.00  0.00     0.010 A 
ATOM     30  C   UNL A   1      36.621  30.302  28.892  1.00  0.00    -0.014 A 
BRANCH  30  31
ATOM     31  C   UNL A   1      37.820  29.961  29.716  1.00  0.00     0.031 A 
ATOM     32  C   UNL A   1      38.961  29.167  29.128  1.00  0.00     0.074 A 
ATOM     33  C   UNL A   1      37.910  30.413  30.987  1.00  0.00     0.049 A 
ATOM     34  N   UNL A   1      40.029  28.696  29.723  1.00  0.00    -0.248 NA
ATOM     35  C   UNL A   1      38.892  28.849  27.693  1.00  0.00     0.031 C 
ATOM     36  C   UNL A   1      36.895  31.227  31.667  1.00  0.00     0.029 A 
ATOM     37  N   UNL A   1      38.906  30.295  31.925  1.00  0.00    -0.354 N 
ATOM     38  C   UNL A   1      40.734  27.995  28.749  1.00  0.00     0.074 A 
ATOM     39  C   UNL A   1      39.960  28.080  27.529  1.00  0.00     0.031 C 
ATOM     40  C   UNL A   1      37.361  31.613  32.862  1.00  0.00     0.029 A 
ATOM     41  C   UNL A   1      38.651  30.976  33.095  1.00  0.00     0.049 A 
ATOM     42  H   UNL A   1      39.726  29.771  31.775  1.00  0.00     0.167 HD
ATOM     43  C   UNL A   1      41.920  27.350  28.861  1.00  0.00     0.034 A 
ATOM     44  C   UNL A   1      39.350  31.059  34.246  1.00  0.00     0.034 A 
ATOM     45  C   UNL A   1      42.704  27.316  30.070  1.00  0.00     0.049 A 
ATOM     46  C   UNL A   1      40.629  30.279  34.366  1.00  0.00     0.074 A 
ATOM     47  C   UNL A   1      43.917  26.686  30.290  1.00  0.00     0.029 A 
ATOM     48  N   UNL A   1      42.364  27.949  31.257  1.00  0.00    -0.354 N 
ATOM     49  N   UNL A   1      41.230  29.546  33.459  1.00  0.00    -0.248 NA
ATOM     50  C   UNL A   1      41.310  30.311  35.667  1.00  0.00     0.031 C 
ATOM     51  C   UNL A   1      44.282  26.891  31.623  1.00  0.00     0.029 A 
ATOM     52  C   UNL A   1      43.332  27.707  32.217  1.00  0.00     0.049 A 
ATOM     53  H   UNL A   1      41.553  28.491  31.396  1.00  0.00     0.167 HD
ATOM     54  C   UNL A   1      42.369  29.041  34.076  1.00  0.00     0.074 A 
ATOM     55  C   UNL A   1      42.375  29.555  35.430  1.00  0.00     0.031 C 
ATOM     56  C   UNL A   1      43.322  28.226  33.562  1.00  0.00     0.034 A 
BRANCH  43  57
ATOM     57  C   UNL A   1      42.435  26.599  27.659  1.00  0.00     0.023 A 
ATOM     58  C   UNL A   1      42.122  25.248  27.437  1.00  0.00     0.031 A 
ATOM     59  C   UNL A   1      43.228  27.259  26.701  1.00  0.00     0.131 A 
ATOM     60  C   UNL A   1      42.632  24.589  26.308  1.00  0.00     0.055 A 
ATOM     61  C   UNL A   1      43.678  26.616  25.547  1.00  0.00     0.041 A 
ATOM     62  F   UNL A   1      43.572  28.546  26.871  1.00  0.00    -0.206 F 
ATOM     63  C   UNL A   1      43.386  25.270  25.349  1.00  0.00     0.022 A 
BRANCH  60  64
ATOM     64  S   UNL A   1      42.366  22.803  26.148  1.00  0.00     0.124 S 
ATOM     65  O   UNL A   1      43.188  22.285  27.239  1.00  0.00    -0.237 OA
ATOM     66  O   UNL A   1      40.924  22.679  26.322  1.00  0.00    -0.237 OA
ATOM     67  O   UNL A   1      42.860  22.500  24.806  1.00  0.00    -0.744 OA
ENDBRANCH  60  64
ENDBRANCH  43  57
BRANCH  44  68
ATOM     68  C   UNL A   1      38.826  31.868  35.383  1.00  0.00     0.023 A 
ATOM     69  C   UNL A   1      38.229  31.251  36.494  1.00  0.00     0.031 A 
ATOM     70  C   UNL A   1      38.932  33.271  35.385  1.00  0.00     0.131 A 
ATOM     71  C   UNL A   1      37.751  32.037  37.555  1.00  0.00     0.055 A 
ATOM     72  C   UNL A   1      38.500  34.043  36.464  1.00  0.00     0.041 A 
ATOM     73  F   UNL A   1      39.494  33.911  34.348  1.00  0.00    -0.206 F 
ATOM     74  C   UNL A   1      37.900  33.427  37.556  1.00  0.00     0.022 A 
BRANCH  71  75
ATOM     75  S   UNL A   1      36.894  31.220  38.929  1.00  0.00     0.124 S 
ATOM     76  O   UNL A   1      35.689  32.034  39.051  1.00  0.00    -0.237 OA
ATOM     77  O   UNL A   1      36.707  29.868  38.414  1.00  0.00    -0.237 OA
ATOM     78  O   UNL A   1      37.839  31.336  40.038  1.00  0.00    -0.744 OA
ENDBRANCH  71  75
ENDBRANCH  44  68
BRANCH  56  79
ATOM     79  C   UNL A   1      44.480  27.863  34.447  1.00  0.00     0.023 A 
ATOM     80  C   UNL A   1      44.471  26.689  35.218  1.00  0.00     0.031 A 
ATOM     81  C   UNL A   1      45.641  28.654  34.445  1.00  0.00     0.131 A 
ATOM     82  C   UNL A   1      45.605  26.343  35.965  1.00  0.00     0.055 A 
ATOM     83  C   UNL A   1      46.780  28.284  35.159  1.00  0.00     0.041 A 
ATOM     84  F   UNL A   1      45.695  29.783  33.718  1.00  0.00    -0.206 F 
ATOM     85  C   UNL A   1      46.765  27.122  35.924  1.00  0.00     0.022 A 
BRANCH  82  86
ATOM     86  S   UNL A   1      45.551  24.851  36.995  1.00  0.00     0.124 S 
ATOM     87  O   UNL A   1      46.969  24.591  37.224  1.00  0.00    -0.237 OA
ATOM     88  O   UNL A   1      44.788  25.293  38.158  1.00  0.00    -0.237 OA
ATOM     89  O   UNL A   1      44.870  23.874  36.147  1.00  0.00    -0.744 OA
ENDBRANCH  82  86
ENDBRANCH  56  79
ENDBRANCH  30  31
ENDBRANCH  23  25
ENDBRANCH  22  23
ENDBRANCH   1  22
TORSDOF 15
ENDMDL
MODEL 3
REMARK VINA RESULT:     -12.2      6.065      9.850
REMARK SMILES Cc1cc(Cl)cc2c1O[C@H](C(F)(F)F)C(C(=O)OCCOC(=O)c1ccc(-c3c4nc(c(-c5cc(S(=O)(=O)[O-])ccc5F)c5ccc([nH]5)c(-c5cc(S(=O)(=O)[O-])ccc5F)c5nc(c(-c6cc(S(=O)(=O)[O-])ccc6F)c6ccc3[nH]6)C=C5)C=C4)cc1)=C2
REMARK SMILES IDX 20 1 19 2 18 3 16 4 17 5 15 6 1 7 2 8 3 9 8 10 4 11 7 12
REMARK SMILES IDX 9 13 5 14 6 15 87 16 10 17 11 18 12 19 13 20 14 21 21 22
REMARK SMILES IDX 22 23 23 24 24 25 25 26 86 27 26 28 85 29 27 30 28 31 29 32
REMARK SMILES IDX 79 33 30 34 84 35 78 36 80 37 31 38 83 39 77 40 76 41 32 43
REMARK SMILES IDX 64 44 44 45 63 46 45 47 48 48 62 49 81 50 46 51 47 52 61 54
REMARK SMILES IDX 82 55 49 56 33 57 34 58 42 59 35 60 41 61 43 62 40 63 36 64
REMARK SMILES IDX 37 65 38 66 39 67 65 68 66 69 74 70 67 71 73 72 75 73 72 74
REMARK SMILES IDX 68 75 69 76 70 77 71 78 50 79 51 80 59 81 52 82 58 83 60 84
REMARK SMILES IDX 57 85 53 86 54 87 55 88 56 89
REMARK H PARENT 80 42 48 53
REMARK Flexibility Score: inf
ROOT
ATOM      1  C   UNL A   1      33.408  33.839  28.295  1.00  0.00     0.275 C 
ENDROOT
BRANCH   1   2
ATOM      2  C   UNL A   1      34.153  34.985  28.981  1.00  0.00     0.275 C 
BRANCH   2   3
ATOM      3  O   UNL A   1      34.068  34.883  30.420  1.00  0.00    -0.459 OA
BRANCH   3   4
ATOM      4  C   UNL A   1      34.682  33.806  30.963  1.00  0.00     0.338 C 
ATOM      5  O   UNL A   1      34.290  32.650  30.919  1.00  0.00    -0.246 OA
BRANCH   4   6
ATOM      6  C   UNL A   1      35.932  34.203  31.635  1.00  0.00     0.087 C 
ATOM      7  C   UNL A   1      39.539  35.326  35.120  1.00  0.00     0.048 C 
ATOM      8  C   UNL A   1      39.519  34.889  33.685  1.00  0.00    -0.007 A 
ATOM      9  C   UNL A   1      40.733  34.675  33.010  1.00  0.00     0.027 A 
ATOM     10  C   UNL A   1      38.311  34.721  32.991  1.00  0.00     0.131 A 
ATOM     11  C   UNL A   1      40.739  34.289  31.672  1.00  0.00     0.042 A 
ATOM     12  C   UNL A   1      38.328  34.316  31.654  1.00  0.00     0.019 A 
ATOM     13  O   UNL A   1      37.151  34.985  33.670  1.00  0.00    -0.475 OA
ATOM     14  Cl  UNL A   1      42.232  34.016  30.866  1.00  0.00    -0.084 Cl
ATOM     15  C   UNL A   1      39.542  34.110  30.989  1.00  0.00     0.032 A 
ATOM     16  C   UNL A   1      37.079  34.072  30.962  1.00  0.00     0.027 C 
ATOM     17  C   UNL A   1      35.878  34.596  33.081  1.00  0.00     0.316 C 
BRANCH  17  18
ATOM     18  C   UNL A   1      35.258  33.481  33.939  1.00  0.00     0.430 C 
ATOM     19  F   UNL A   1      33.912  33.430  33.782  1.00  0.00    -0.167 F 
ATOM     20  F   UNL A   1      35.727  32.259  33.582  1.00  0.00    -0.167 F 
ATOM     21  F   UNL A   1      35.507  33.641  35.257  1.00  0.00    -0.167 F 
ENDBRANCH  17  18
ENDBRANCH   4   6
ENDBRANCH   3   4
ENDBRANCH   2   3
ENDBRANCH   1   2
BRANCH   1  22
ATOM     22  O   UNL A   1      34.309  33.062  27.486  1.00  0.00    -0.458 OA
BRANCH  22  23
ATOM     23  C   UNL A   1      34.196  31.721  27.625  1.00  0.00     0.338 C 
ATOM     24  O   UNL A   1      33.213  31.034  27.405  1.00  0.00    -0.246 OA
BRANCH  23  25
ATOM     25  C   UNL A   1      35.496  31.154  28.015  1.00  0.00     0.060 A 
ATOM     26  C   UNL A   1      35.529  29.833  28.442  1.00  0.00     0.016 A 
ATOM     27  C   UNL A   1      36.633  31.949  28.116  1.00  0.00     0.016 A 
ATOM     28  C   UNL A   1      36.643  29.344  29.113  1.00  0.00     0.010 A 
ATOM     29  C   UNL A   1      37.811  31.397  28.644  1.00  0.00     0.010 A 
ATOM     30  C   UNL A   1      37.820  30.099  29.188  1.00  0.00    -0.014 A 
BRANCH  30  31
ATOM     31  C   UNL A   1      39.033  29.509  29.832  1.00  0.00     0.031 A 
ATOM     32  C   UNL A   1      39.476  29.959  31.202  1.00  0.00     0.074 A 
ATOM     33  C   UNL A   1      39.712  28.523  29.203  1.00  0.00     0.049 A 
ATOM     34  N   UNL A   1      40.556  29.630  31.868  1.00  0.00    -0.248 NA
ATOM     35  C   UNL A   1      38.605  30.907  31.915  1.00  0.00     0.031 C 
ATOM     36  C   UNL A   1      39.367  27.965  27.891  1.00  0.00     0.029 A 
ATOM     37  N   UNL A   1      40.804  27.784  29.588  1.00  0.00    -0.354 N 
ATOM     38  C   UNL A   1      40.514  30.360  33.052  1.00  0.00     0.074 A 
ATOM     39  C   UNL A   1      39.315  31.169  33.004  1.00  0.00     0.031 C 
ATOM     40  C   UNL A   1      40.160  26.917  27.630  1.00  0.00     0.029 A 
ATOM     41  C   UNL A   1      41.154  26.800  28.689  1.00  0.00     0.049 A 
ATOM     42  H   UNL A   1      41.291  27.942  30.428  1.00  0.00     0.167 HD
ATOM     43  C   UNL A   1      41.389  30.346  34.087  1.00  0.00     0.034 A 
ATOM     44  C   UNL A   1      42.176  25.921  28.687  1.00  0.00     0.034 A 
ATOM     45  C   UNL A   1      42.554  29.498  34.142  1.00  0.00     0.049 A 
ATOM     46  C   UNL A   1      43.171  25.973  29.813  1.00  0.00     0.074 A 
ATOM     47  C   UNL A   1      43.507  29.413  35.142  1.00  0.00     0.029 A 
ATOM     48  N   UNL A   1      42.915  28.579  33.168  1.00  0.00    -0.354 N 
ATOM     49  N   UNL A   1      43.161  26.738  30.879  1.00  0.00    -0.248 NA
ATOM     50  C   UNL A   1      44.326  25.071  29.727  1.00  0.00     0.031 C 
ATOM     51  C   UNL A   1      44.473  28.484  34.748  1.00  0.00     0.029 A 
ATOM     52  C   UNL A   1      44.087  27.938  33.533  1.00  0.00     0.049 A 
ATOM     53  H   UNL A   1      42.412  28.407  32.338  1.00  0.00     0.167 HD
ATOM     54  C   UNL A   1      44.300  26.398  31.598  1.00  0.00     0.074 A 
ATOM     55  C   UNL A   1      44.974  25.357  30.849  1.00  0.00     0.031 C 
ATOM     56  C   UNL A   1      44.745  26.904  32.774  1.00  0.00     0.034 A 
BRANCH  43  57
ATOM     57  C   UNL A   1      41.147  31.297  35.232  1.00  0.00     0.023 A 
ATOM     58  C   UNL A   1      39.986  31.232  36.019  1.00  0.00     0.031 A 
ATOM     59  C   UNL A   1      42.114  32.266  35.560  1.00  0.00     0.131 A 
ATOM     60  C   UNL A   1      39.801  32.145  37.069  1.00  0.00     0.055 A 
ATOM     61  C   UNL A   1      41.955  33.128  36.647  1.00  0.00     0.041 A 
ATOM     62  F   UNL A   1      43.236  32.384  34.832  1.00  0.00    -0.206 F 
ATOM     63  C   UNL A   1      40.789  33.075  37.404  1.00  0.00     0.022 A 
BRANCH  60  64
ATOM     64  S   UNL A   1      38.214  32.156  37.944  1.00  0.00     0.124 S 
ATOM     65  O   UNL A   1      37.597  30.928  37.449  1.00  0.00    -0.237 OA
ATOM     66  O   UNL A   1      38.622  32.146  39.344  1.00  0.00    -0.237 OA
ATOM     67  O   UNL A   1      37.579  33.392  37.489  1.00  0.00    -0.744 OA
ENDBRANCH  60  64
ENDBRANCH  43  57
BRANCH  44  68
ATOM     68  C   UNL A   1      42.333  24.958  27.560  1.00  0.00     0.023 A 
ATOM     69  C   UNL A   1      41.615  23.752  27.535  1.00  0.00     0.031 A 
ATOM     70  C   UNL A   1      43.189  25.239  26.478  1.00  0.00     0.131 A 
ATOM     71  C   UNL A   1      41.775  22.866  26.456  1.00  0.00     0.055 A 
ATOM     72  C   UNL A   1      43.306  24.379  25.386  1.00  0.00     0.041 A 
ATOM     73  F   UNL A   1      43.898  26.378  26.452  1.00  0.00    -0.206 F 
ATOM     74  C   UNL A   1      42.601  23.180  25.373  1.00  0.00     0.022 A 
BRANCH  71  75
ATOM     75  S   UNL A   1      40.913  21.271  26.501  1.00  0.00     0.124 S 
ATOM     76  O   UNL A   1      41.844  20.412  25.778  1.00  0.00    -0.237 OA
ATOM     77  O   UNL A   1      40.795  21.027  27.934  1.00  0.00    -0.237 OA
ATOM     78  O   UNL A   1      39.654  21.545  25.812  1.00  0.00    -0.744 OA
ENDBRANCH  71  75
ENDBRANCH  44  68
BRANCH  56  79
ATOM     79  C   UNL A   1      46.001  26.319  33.355  1.00  0.00     0.023 A 
ATOM     80  C   UNL A   1      45.959  25.234  34.245  1.00  0.00     0.031 A 
ATOM     81  C   UNL A   1      47.255  26.797  32.938  1.00  0.00     0.131 A 
ATOM     82  C   UNL A   1      47.157  24.664  34.698  1.00  0.00     0.055 A 
ATOM     83  C   UNL A   1      48.442  26.200  33.361  1.00  0.00     0.041 A 
ATOM     84  F   UNL A   1      47.342  27.829  32.083  1.00  0.00    -0.206 F 
ATOM     85  C   UNL A   1      48.396  25.126  34.246  1.00  0.00     0.022 A 
BRANCH  82  86
ATOM     86  S   UNL A   1      47.079  23.297  35.888  1.00  0.00     0.124 S 
ATOM     87  O   UNL A   1      47.827  23.839  37.018  1.00  0.00    -0.237 OA
ATOM     88  O   UNL A   1      45.642  23.136  36.094  1.00  0.00    -0.237 OA
ATOM     89  O   UNL A   1      47.728  22.193  35.185  1.00  0.00    -0.744 OA
ENDBRANCH  82  86
ENDBRANCH  56  79
ENDBRANCH  30  31
ENDBRANCH  23  25
ENDBRANCH  22  23
ENDBRANCH   1  22
TORSDOF 15
ENDMDL
