MODEL 1
REMARK VINA RESULT:     -11.6      0.000      0.000
REMARK SMILES C[C@@H](CC(=O)OCCOC(=O)c1ccc(-c2c3nc(c(-c4cc(S(=O)(=O)[O-])ccc4F)c4ccc([nH]4)c(-c4cc(S(=O)(=O)[O-])ccc4F)c4nc(c(-c5cc(S(=O)(=O)[O-])ccc5F)c5ccc2[nH]5)C=C4)C=C3)cc1)Cc1nnc(C2C(C)(C)C2(C)C)o1
REMARK SMILES IDX 7 1 6 2 4 3 5 4 3 5 2 6 1 7 75 8 76 9 77 10 87 11 78 12
REMARK SMILES IDX 79 13 80 14 81 15 84 16 82 17 83 18 85 19 86 20 8 21 9 22
REMARK SMILES IDX 10 23 11 24 12 25 13 26 74 27 14 28 73 29 15 30 16 31 17 32
REMARK SMILES IDX 67 33 18 34 72 35 66 36 68 37 19 38 71 39 65 40 64 41 20 43
REMARK SMILES IDX 52 44 32 45 51 46 33 47 36 48 50 49 69 50 34 51 35 52 49 54
REMARK SMILES IDX 70 55 37 56 21 57 22 58 30 59 23 60 29 61 31 62 28 63 24 64
REMARK SMILES IDX 25 65 26 66 27 67 53 68 54 69 62 70 55 71 61 72 63 73 60 74
REMARK SMILES IDX 56 75 57 76 58 77 59 78 38 79 39 80 47 81 40 82 46 83 48 84
REMARK SMILES IDX 45 85 41 86 42 87 43 88 44 89
REMARK H PARENT 68 42 36 53
REMARK Flexibility Score: inf
ROOT
ATOM      1  C   UNL A   1      35.748  20.320  24.957  1.00  0.00     0.274 C 
ENDROOT
BRANCH   1   2
ATOM      2  O   UNL A   1      35.003  19.120  24.668  1.00  0.00    -0.462 OA
BRANCH   2   3
ATOM      3  C   UNL A   1      33.668  19.177  24.894  1.00  0.00     0.306 C 
ATOM      4  O   UNL A   1      33.094  18.604  25.813  1.00  0.00    -0.252 OA
BRANCH   3   5
ATOM      5  C   UNL A   1      32.901  19.949  23.837  1.00  0.00     0.126 C 
BRANCH   5   6
ATOM      6  C   UNL A   1      32.646  21.458  24.012  1.00  0.00     0.006 C 
ATOM      7  C   UNL A   1      31.736  21.762  25.208  1.00  0.00     0.009 C 
BRANCH   6   8
ATOM      8  C   UNL A   1      32.182  22.115  22.698  1.00  0.00     0.103 C 
BRANCH   8   9
ATOM      9  C   UNL A   1      32.787  23.449  22.482  1.00  0.00     0.216 A 
ATOM     10  N   UNL A   1      33.339  23.980  21.414  1.00  0.00    -0.113 NA
ATOM     11  O   UNL A   1      32.832  24.272  23.566  1.00  0.00    -0.425 OA
ATOM     12  N   UNL A   1      33.743  25.248  21.787  1.00  0.00    -0.113 NA
ATOM     13  C   UNL A   1      33.433  25.389  23.061  1.00  0.00     0.220 A 
BRANCH  13  14
ATOM     14  C   UNL A   1      33.740  26.653  23.851  1.00  0.00     0.090 C 
ATOM     15  C   UNL A   1      32.798  27.865  23.847  1.00  0.00    -0.017 C 
ATOM     16  C   UNL A   1      32.950  27.020  25.114  1.00  0.00    -0.017 C 
ATOM     17  C   UNL A   1      33.461  29.226  23.761  1.00  0.00     0.012 C 
ATOM     18  C   UNL A   1      31.485  27.863  23.088  1.00  0.00     0.012 C 
ATOM     19  C   UNL A   1      31.828  26.127  25.600  1.00  0.00     0.012 C 
ATOM     20  C   UNL A   1      33.744  27.578  26.278  1.00  0.00     0.012 C 
ENDBRANCH  13  14
ENDBRANCH   8   9
ENDBRANCH   6   8
ENDBRANCH   5   6
ENDBRANCH   3   5
ENDBRANCH   2   3
ENDBRANCH   1   2
BRANCH   1  21
ATOM     21  C   UNL A   1      37.248  20.047  25.024  1.00  0.00     0.275 C 
BRANCH  21  22
ATOM     22  O   UNL A   1      37.956  21.259  25.322  1.00  0.00    -0.458 OA
BRANCH  22  23
ATOM     23  C   UNL A   1      39.120  21.100  25.990  1.00  0.00     0.338 C 
ATOM     24  O   UNL A   1      39.760  20.074  26.132  1.00  0.00    -0.246 OA
BRANCH  23  25
ATOM     25  C   UNL A   1      39.551  22.397  26.527  1.00  0.00     0.060 A 
ATOM     26  C   UNL A   1      38.894  23.562  26.123  1.00  0.00     0.016 A 
ATOM     27  C   UNL A   1      40.688  22.461  27.332  1.00  0.00     0.016 A 
ATOM     28  C   UNL A   1      39.408  24.805  26.484  1.00  0.00     0.010 A 
ATOM     29  C   UNL A   1      41.178  23.708  27.726  1.00  0.00     0.010 A 
ATOM     30  C   UNL A   1      40.563  24.889  27.275  1.00  0.00    -0.014 A 
BRANCH  30  31
ATOM     31  C   UNL A   1      41.178  26.210  27.560  1.00  0.00     0.031 A 
ATOM     32  C   UNL A   1      42.547  26.525  27.015  1.00  0.00     0.074 A 
ATOM     33  C   UNL A   1      40.516  27.121  28.296  1.00  0.00     0.049 A 
ATOM     34  N   UNL A   1      43.302  27.572  27.221  1.00  0.00    -0.248 NA
ATOM     35  C   UNL A   1      43.146  25.514  26.130  1.00  0.00     0.031 C 
ATOM     36  C   UNL A   1      39.176  26.939  28.858  1.00  0.00     0.029 A 
ATOM     37  N   UNL A   1      40.881  28.380  28.702  1.00  0.00    -0.354 N 
ATOM     38  C   UNL A   1      44.478  27.339  26.516  1.00  0.00     0.074 A 
ATOM     39  C   UNL A   1      44.342  26.037  25.894  1.00  0.00     0.031 C 
ATOM     40  C   UNL A   1      38.833  28.047  29.537  1.00  0.00     0.029 A 
ATOM     41  C   UNL A   1      39.941  28.997  29.493  1.00  0.00     0.049 A 
ATOM     42  H   UNL A   1      41.734  28.800  28.451  1.00  0.00     0.167 HD
ATOM     43  C   UNL A   1      45.570  28.134  26.400  1.00  0.00     0.034 A 
ATOM     44  C   UNL A   1      39.979  30.183  30.132  1.00  0.00     0.034 A 
ATOM     45  C   UNL A   1      45.687  29.435  27.014  1.00  0.00     0.049 A 
ATOM     46  C   UNL A   1      41.204  31.050  29.987  1.00  0.00     0.074 A 
ATOM     47  C   UNL A   1      46.745  30.326  26.959  1.00  0.00     0.029 A 
ATOM     48  N   UNL A   1      44.705  30.036  27.793  1.00  0.00    -0.354 N 
ATOM     49  N   UNL A   1      42.317  30.806  29.334  1.00  0.00    -0.248 NA
ATOM     50  C   UNL A   1      41.170  32.357  30.655  1.00  0.00     0.031 C 
ATOM     51  C   UNL A   1      46.423  31.443  27.742  1.00  0.00     0.029 A 
ATOM     52  C   UNL A   1      45.139  31.277  28.235  1.00  0.00     0.049 A 
ATOM     53  H   UNL A   1      43.830  29.638  28.002  1.00  0.00     0.167 HD
ATOM     54  C   UNL A   1      43.107  31.941  29.497  1.00  0.00     0.074 A 
ATOM     55  C   UNL A   1      42.334  32.874  30.291  1.00  0.00     0.031 C 
ATOM     56  C   UNL A   1      44.358  32.191  29.035  1.00  0.00     0.034 A 
BRANCH  43  57
ATOM     57  C   UNL A   1      46.745  27.588  25.626  1.00  0.00     0.023 A 
ATOM     58  C   UNL A   1      47.018  27.986  24.305  1.00  0.00     0.031 A 
ATOM     59  C   UNL A   1      47.588  26.627  26.212  1.00  0.00     0.131 A 
ATOM     60  C   UNL A   1      48.066  27.380  23.595  1.00  0.00     0.055 A 
ATOM     61  C   UNL A   1      48.672  26.078  25.523  1.00  0.00     0.041 A 
ATOM     62  F   UNL A   1      47.362  26.191  27.462  1.00  0.00    -0.206 F 
ATOM     63  C   UNL A   1      48.908  26.445  24.203  1.00  0.00     0.022 A 
BRANCH  60  64
ATOM     64  S   UNL A   1      48.241  27.738  21.825  1.00  0.00     0.124 S 
ATOM     65  O   UNL A   1      49.371  28.662  21.823  1.00  0.00    -0.237 OA
ATOM     66  O   UNL A   1      48.491  26.417  21.260  1.00  0.00    -0.237 OA
ATOM     67  O   UNL A   1      46.954  28.335  21.467  1.00  0.00    -0.744 OA
ENDBRANCH  60  64
ENDBRANCH  43  57
BRANCH  44  68
ATOM     68  C   UNL A   1      38.845  30.610  30.996  1.00  0.00     0.023 A 
ATOM     69  C   UNL A   1      37.707  31.226  30.451  1.00  0.00     0.031 A 
ATOM     70  C   UNL A   1      38.904  30.444  32.390  1.00  0.00     0.131 A 
ATOM     71  C   UNL A   1      36.693  31.695  31.301  1.00  0.00     0.055 A 
ATOM     72  C   UNL A   1      37.872  30.870  33.228  1.00  0.00     0.041 A 
ATOM     73  F   UNL A   1      39.968  29.856  32.960  1.00  0.00    -0.206 F 
ATOM     74  C   UNL A   1      36.763  31.512  32.684  1.00  0.00     0.022 A 
BRANCH  71  75
ATOM     75  S   UNL A   1      35.313  32.622  30.577  1.00  0.00     0.124 S 
ATOM     76  O   UNL A   1      34.999  31.821  29.399  1.00  0.00    -0.237 OA
ATOM     77  O   UNL A   1      34.331  32.591  31.655  1.00  0.00    -0.237 OA
ATOM     78  O   UNL A   1      35.892  33.936  30.303  1.00  0.00    -0.744 OA
ENDBRANCH  71  75
ENDBRANCH  44  68
BRANCH  56  79
ATOM     79  C   UNL A   1      44.935  33.549  29.343  1.00  0.00     0.023 A 
ATOM     80  C   UNL A   1      44.816  34.624  28.443  1.00  0.00     0.031 A 
ATOM     81  C   UNL A   1      45.650  33.758  30.535  1.00  0.00     0.131 A 
ATOM     82  C   UNL A   1      45.456  35.840  28.721  1.00  0.00     0.055 A 
ATOM     83  C   UNL A   1      46.240  34.988  30.831  1.00  0.00     0.041 A 
ATOM     84  F   UNL A   1      45.794  32.766  31.427  1.00  0.00    -0.206 F 
ATOM     85  C   UNL A   1      46.158  36.032  29.913  1.00  0.00     0.022 A 
BRANCH  82  86
ATOM     86  S   UNL A   1      45.453  37.137  27.451  1.00  0.00     0.124 S 
ATOM     87  O   UNL A   1      46.025  38.271  28.170  1.00  0.00    -0.237 OA
ATOM     88  O   UNL A   1      46.293  36.553  26.410  1.00  0.00    -0.237 OA
ATOM     89  O   UNL A   1      44.039  37.273  27.104  1.00  0.00    -0.744 OA
ENDBRANCH  82  86
ENDBRANCH  56  79
ENDBRANCH  30  31
ENDBRANCH  23  25
ENDBRANCH  22  23
ENDBRANCH  21  22
ENDBRANCH   1  21
TORSDOF 18
ENDMDL
MODEL 2
REMARK VINA RESULT:     -11.5      1.793      7.818
REMARK SMILES C[C@@H](CC(=O)OCCOC(=O)c1ccc(-c2c3nc(c(-c4cc(S(=O)(=O)[O-])ccc4F)c4ccc([nH]4)c(-c4cc(S(=O)(=O)[O-])ccc4F)c4nc(c(-c5cc(S(=O)(=O)[O-])ccc5F)c5ccc2[nH]5)C=C4)C=C3)cc1)Cc1nnc(C2C(C)(C)C2(C)C)o1
REMARK SMILES IDX 7 1 6 2 4 3 5 4 3 5 2 6 1 7 75 8 76 9 77 10 87 11 78 12
REMARK SMILES IDX 79 13 80 14 81 15 84 16 82 17 83 18 85 19 86 20 8 21 9 22
REMARK SMILES IDX 10 23 11 24 12 25 13 26 74 27 14 28 73 29 15 30 16 31 17 32
REMARK SMILES IDX 67 33 18 34 72 35 66 36 68 37 19 38 71 39 65 40 64 41 20 43
REMARK SMILES IDX 52 44 32 45 51 46 33 47 36 48 50 49 69 50 34 51 35 52 49 54
REMARK SMILES IDX 70 55 37 56 21 57 22 58 30 59 23 60 29 61 31 62 28 63 24 64
REMARK SMILES IDX 25 65 26 66 27 67 53 68 54 69 62 70 55 71 61 72 63 73 60 74
REMARK SMILES IDX 56 75 57 76 58 77 59 78 38 79 39 80 47 81 40 82 46 83 48 84
REMARK SMILES IDX 45 85 41 86 42 87 43 88 44 89
REMARK H PARENT 68 42 36 53
REMARK Flexibility Score: inf
ROOT
ATOM      1  C   UNL A   1      35.513  20.557  25.487  1.00  0.00     0.274 C 
ENDROOT
BRANCH   1   2
ATOM      2  O   UNL A   1      34.605  20.102  24.463  1.00  0.00    -0.462 OA
BRANCH   2   3
ATOM      3  C   UNL A   1      33.400  20.718  24.416  1.00  0.00     0.306 C 
ATOM      4  O   UNL A   1      32.322  20.136  24.402  1.00  0.00    -0.252 OA
BRANCH   3   5
ATOM      5  C   UNL A   1      33.489  22.227  24.281  1.00  0.00     0.126 C 
BRANCH   5   6
ATOM      6  C   UNL A   1      34.154  22.856  23.043  1.00  0.00     0.006 C 
ATOM      7  C   UNL A   1      35.452  23.596  23.389  1.00  0.00     0.009 C 
BRANCH   6   8
ATOM      8  C   UNL A   1      33.159  23.702  22.227  1.00  0.00     0.103 C 
BRANCH   8   9
ATOM      9  C   UNL A   1      33.235  25.145  22.549  1.00  0.00     0.216 A 
ATOM     10  N   UNL A   1      33.710  26.156  21.858  1.00  0.00    -0.113 NA
ATOM     11  O   UNL A   1      32.785  25.510  23.782  1.00  0.00    -0.425 OA
ATOM     12  N   UNL A   1      33.533  27.275  22.652  1.00  0.00    -0.113 NA
ATOM     13  C   UNL A   1      32.988  26.861  23.779  1.00  0.00     0.220 A 
BRANCH  13  14
ATOM     14  C   UNL A   1      32.656  27.800  24.931  1.00  0.00     0.090 C 
ATOM     15  C   UNL A   1      31.433  28.727  24.898  1.00  0.00    -0.017 C 
ATOM     16  C   UNL A   1      31.464  27.537  25.860  1.00  0.00    -0.017 C 
ATOM     17  C   UNL A   1      31.647  30.132  25.426  1.00  0.00     0.012 C 
ATOM     18  C   UNL A   1      30.459  28.736  23.735  1.00  0.00     0.012 C 
ATOM     19  C   UNL A   1      30.577  26.330  25.643  1.00  0.00     0.012 C 
ATOM     20  C   UNL A   1      31.682  27.793  27.338  1.00  0.00     0.012 C 
ENDBRANCH  13  14
ENDBRANCH   8   9
ENDBRANCH   6   8
ENDBRANCH   5   6
ENDBRANCH   3   5
ENDBRANCH   2   3
ENDBRANCH   1   2
BRANCH   1  21
ATOM     21  C   UNL A   1      36.958  20.549  24.999  1.00  0.00     0.275 C 
BRANCH  21  22
ATOM     22  O   UNL A   1      37.648  21.710  25.485  1.00  0.00    -0.458 OA
BRANCH  22  23
ATOM     23  C   UNL A   1      38.881  21.482  25.990  1.00  0.00     0.338 C 
ATOM     24  O   UNL A   1      39.527  20.451  25.934  1.00  0.00    -0.246 OA
BRANCH  23  25
ATOM     25  C   UNL A   1      39.379  22.709  26.623  1.00  0.00     0.060 A 
ATOM     26  C   UNL A   1      38.868  23.946  26.224  1.00  0.00     0.016 A 
ATOM     27  C   UNL A   1      40.444  22.632  27.521  1.00  0.00     0.016 A 
ATOM     28  C   UNL A   1      39.460  25.119  26.686  1.00  0.00     0.010 A 
ATOM     29  C   UNL A   1      41.009  23.810  28.015  1.00  0.00     0.010 A 
ATOM     30  C   UNL A   1      40.545  25.061  27.573  1.00  0.00    -0.014 A 
BRANCH  30  31
ATOM     31  C   UNL A   1      41.250  26.305  27.971  1.00  0.00     0.031 A 
ATOM     32  C   UNL A   1      40.504  27.374  28.726  1.00  0.00     0.074 A 
ATOM     33  C   UNL A   1      42.550  26.475  27.664  1.00  0.00     0.049 A 
ATOM     34  N   UNL A   1      40.898  28.567  29.083  1.00  0.00    -0.248 NA
ATOM     35  C   UNL A   1      39.122  27.054  29.115  1.00  0.00     0.031 C 
ATOM     36  C   UNL A   1      43.384  25.501  26.956  1.00  0.00     0.029 A 
ATOM     37  N   UNL A   1      43.395  27.529  27.902  1.00  0.00    -0.354 N 
ATOM     38  C   UNL A   1      39.808  29.156  29.716  1.00  0.00     0.074 A 
ATOM     39  C   UNL A   1      38.728  28.191  29.672  1.00  0.00     0.031 C 
ATOM     40  C   UNL A   1      44.621  26.005  26.818  1.00  0.00     0.029 A 
ATOM     41  C   UNL A   1      44.657  27.350  27.387  1.00  0.00     0.049 A 
ATOM     42  H   UNL A   1      43.123  28.337  28.394  1.00  0.00     0.167 HD
ATOM     43  C   UNL A   1      39.716  30.386  30.279  1.00  0.00     0.034 A 
ATOM     44  C   UNL A   1      45.715  28.184  27.356  1.00  0.00     0.034 A 
ATOM     45  C   UNL A   1      40.805  31.332  30.328  1.00  0.00     0.049 A 
ATOM     46  C   UNL A   1      45.588  29.546  27.989  1.00  0.00     0.074 A 
ATOM     47  C   UNL A   1      40.823  32.604  30.876  1.00  0.00     0.029 A 
ATOM     48  N   UNL A   1      42.076  31.107  29.813  1.00  0.00    -0.354 N 
ATOM     49  N   UNL A   1      44.544  30.097  28.564  1.00  0.00    -0.248 NA
ATOM     50  C   UNL A   1      46.787  30.392  27.979  1.00  0.00     0.031 C 
ATOM     51  C   UNL A   1      42.087  33.164  30.651  1.00  0.00     0.029 A 
ATOM     52  C   UNL A   1      42.878  32.220  30.018  1.00  0.00     0.049 A 
ATOM     53  H   UNL A   1      42.364  30.279  29.367  1.00  0.00     0.167 HD
ATOM     54  C   UNL A   1      44.969  31.347  29.003  1.00  0.00     0.074 A 
ATOM     55  C   UNL A   1      46.368  31.459  28.644  1.00  0.00     0.031 C 
ATOM     56  C   UNL A   1      44.269  32.317  29.644  1.00  0.00     0.034 A 
BRANCH  43  57
ATOM     57  C   UNL A   1      38.372  30.795  30.832  1.00  0.00     0.023 A 
ATOM     58  C   UNL A   1      37.396  31.416  30.033  1.00  0.00     0.031 A 
ATOM     59  C   UNL A   1      38.077  30.586  32.191  1.00  0.00     0.131 A 
ATOM     60  C   UNL A   1      36.199  31.862  30.614  1.00  0.00     0.055 A 
ATOM     61  C   UNL A   1      36.855  30.970  32.747  1.00  0.00     0.041 A 
ATOM     62  F   UNL A   1      38.981  30.019  33.006  1.00  0.00    -0.206 F 
ATOM     63  C   UNL A   1      35.912  31.623  31.961  1.00  0.00     0.022 A 
BRANCH  60  64
ATOM     64  S   UNL A   1      35.068  32.870  29.615  1.00  0.00     0.124 S 
ATOM     65  O   UNL A   1      34.441  31.857  28.770  1.00  0.00    -0.237 OA
ATOM     66  O   UNL A   1      34.212  33.480  30.626  1.00  0.00    -0.237 OA
ATOM     67  O   UNL A   1      35.959  33.793  28.914  1.00  0.00    -0.744 OA
ENDBRANCH  60  64
ENDBRANCH  43  57
BRANCH  44  68
ATOM     68  C   UNL A   1      46.974  27.778  26.672  1.00  0.00     0.023 A 
ATOM     69  C   UNL A   1      47.131  27.935  25.286  1.00  0.00     0.031 A 
ATOM     70  C   UNL A   1      48.023  27.186  27.395  1.00  0.00     0.131 A 
ATOM     71  C   UNL A   1      48.295  27.463  24.659  1.00  0.00     0.055 A 
ATOM     72  C   UNL A   1      49.198  26.761  26.774  1.00  0.00     0.041 A 
ATOM     73  F   UNL A   1      47.923  27.019  28.724  1.00  0.00    -0.206 F 
ATOM     74  C   UNL A   1      49.333  26.887  25.395  1.00  0.00     0.022 A 
BRANCH  71  75
ATOM     75  S   UNL A   1      48.399  27.542  22.850  1.00  0.00     0.124 S 
ATOM     76  O   UNL A   1      47.190  28.284  22.512  1.00  0.00    -0.237 OA
ATOM     77  O   UNL A   1      49.661  28.246  22.652  1.00  0.00    -0.237 OA
ATOM     78  O   UNL A   1      48.403  26.136  22.448  1.00  0.00    -0.744 OA
ENDBRANCH  71  75
ENDBRANCH  44  68
BRANCH  56  79
ATOM     79  C   UNL A   1      45.033  33.558  30.035  1.00  0.00     0.023 A 
ATOM     80  C   UNL A   1      45.668  33.671  31.284  1.00  0.00     0.031 A 
ATOM     81  C   UNL A   1      45.089  34.656  29.159  1.00  0.00     0.131 A 
ATOM     82  C   UNL A   1      46.279  34.880  31.649  1.00  0.00     0.055 A 
ATOM     83  C   UNL A   1      45.744  35.838  29.507  1.00  0.00     0.041 A 
ATOM     84  F   UNL A   1      44.498  34.600  27.955  1.00  0.00    -0.206 F 
ATOM     85  C   UNL A   1      46.329  35.960  30.765  1.00  0.00     0.022 A 
BRANCH  82  86
ATOM     86  S   UNL A   1      46.912  35.062  33.340  1.00  0.00     0.124 S 
ATOM     87  O   UNL A   1      47.894  36.131  33.186  1.00  0.00    -0.237 OA
ATOM     88  O   UNL A   1      45.706  35.407  34.086  1.00  0.00    -0.237 OA
ATOM     89  O   UNL A   1      47.471  33.745  33.640  1.00  0.00    -0.744 OA
ENDBRANCH  82  86
ENDBRANCH  56  79
ENDBRANCH  30  31
ENDBRANCH  23  25
ENDBRANCH  22  23
ENDBRANCH  21  22
ENDBRANCH   1  21
TORSDOF 18
ENDMDL
MODEL 3
REMARK VINA RESULT:     -11.4      2.045      7.865
REMARK SMILES C[C@@H](CC(=O)OCCOC(=O)c1ccc(-c2c3nc(c(-c4cc(S(=O)(=O)[O-])ccc4F)c4ccc([nH]4)c(-c4cc(S(=O)(=O)[O-])ccc4F)c4nc(c(-c5cc(S(=O)(=O)[O-])ccc5F)c5ccc2[nH]5)C=C4)C=C3)cc1)Cc1nnc(C2C(C)(C)C2(C)C)o1
REMARK SMILES IDX 7 1 6 2 4 3 5 4 3 5 2 6 1 7 75 8 76 9 77 10 87 11 78 12
REMARK SMILES IDX 79 13 80 14 81 15 84 16 82 17 83 18 85 19 86 20 8 21 9 22
REMARK SMILES IDX 10 23 11 24 12 25 13 26 74 27 14 28 73 29 15 30 16 31 17 32
REMARK SMILES IDX 67 33 18 34 72 35 66 36 68 37 19 38 71 39 65 40 64 41 20 43
REMARK SMILES IDX 52 44 32 45 51 46 33 47 36 48 50 49 69 50 34 51 35 52 49 54
REMARK SMILES IDX 70 55 37 56 21 57 22 58 30 59 23 60 29 61 31 62 28 63 24 64
REMARK SMILES IDX 25 65 26 66 27 67 53 68 54 69 62 70 55 71 61 72 63 73 60 74
REMARK SMILES IDX 56 75 57 76 58 77 59 78 38 79 39 80 47 81 40 82 46 83 48 84
REMARK SMILES IDX 45 85 41 86 42 87 43 88 44 89
REMARK H PARENT 68 42 36 53
REMARK Flexibility Score: inf
ROOT
ATOM      1  C   UNL A   1      35.442  20.858  24.448  1.00  0.00     0.274 C 
ENDROOT
BRANCH   1   2
ATOM      2  O   UNL A   1      34.368  19.959  24.793  1.00  0.00    -0.462 OA
BRANCH   2   3
ATOM      3  C   UNL A   1      33.185  20.535  25.111  1.00  0.00     0.306 C 
ATOM      4  O   UNL A   1      32.119  19.935  25.192  1.00  0.00    -0.252 OA
BRANCH   3   5
ATOM      5  C   UNL A   1      33.261  22.042  25.270  1.00  0.00     0.126 C 
BRANCH   5   6
ATOM      6  C   UNL A   1      33.306  22.673  26.674  1.00  0.00     0.006 C 
ATOM      7  C   UNL A   1      34.252  21.924  27.620  1.00  0.00     0.009 C 
BRANCH   6   8
ATOM      8  C   UNL A   1      31.893  22.886  27.250  1.00  0.00     0.103 C 
BRANCH   8   9
ATOM      9  C   UNL A   1      31.255  24.126  26.754  1.00  0.00     0.216 A 
ATOM     10  N   UNL A   1      29.998  24.509  26.762  1.00  0.00    -0.113 NA
ATOM     11  O   UNL A   1      32.078  25.024  26.143  1.00  0.00    -0.425 OA
ATOM     12  N   UNL A   1      29.976  25.753  26.158  1.00  0.00    -0.113 NA
ATOM     13  C   UNL A   1      31.216  26.027  25.804  1.00  0.00     0.220 A 
BRANCH  13  14
ATOM     14  C   UNL A   1      31.605  27.310  25.082  1.00  0.00     0.090 C 
ATOM     15  C   UNL A   1      31.826  28.630  25.833  1.00  0.00    -0.017 C 
ATOM     16  C   UNL A   1      33.015  27.901  25.204  1.00  0.00    -0.017 C 
ATOM     17  C   UNL A   1      31.266  29.875  25.171  1.00  0.00     0.012 C 
ATOM     18  C   UNL A   1      31.709  28.729  27.341  1.00  0.00     0.012 C 
ATOM     19  C   UNL A   1      34.059  27.218  26.062  1.00  0.00     0.012 C 
ATOM     20  C   UNL A   1      33.633  28.459  23.937  1.00  0.00     0.012 C 
ENDBRANCH  13  14
ENDBRANCH   8   9
ENDBRANCH   6   8
ENDBRANCH   5   6
ENDBRANCH   3   5
ENDBRANCH   2   3
ENDBRANCH   1   2
BRANCH   1  21
ATOM     21  C   UNL A   1      36.784  20.356  24.970  1.00  0.00     0.275 C 
BRANCH  21  22
ATOM     22  O   UNL A   1      37.416  21.375  25.759  1.00  0.00    -0.458 OA
BRANCH  22  23
ATOM     23  C   UNL A   1      38.731  21.182  26.009  1.00  0.00     0.338 C 
ATOM     24  O   UNL A   1      39.386  20.178  25.797  1.00  0.00    -0.246 OA
BRANCH  23  25
ATOM     25  C   UNL A   1      39.302  22.411  26.573  1.00  0.00     0.060 A 
ATOM     26  C   UNL A   1      38.835  23.652  26.134  1.00  0.00     0.016 A 
ATOM     27  C   UNL A   1      40.389  22.324  27.443  1.00  0.00     0.016 A 
ATOM     28  C   UNL A   1      39.492  24.815  26.526  1.00  0.00     0.010 A 
ATOM     29  C   UNL A   1      41.021  23.495  27.867  1.00  0.00     0.010 A 
ATOM     30  C   UNL A   1      40.600  24.746  27.383  1.00  0.00    -0.014 A 
BRANCH  30  31
ATOM     31  C   UNL A   1      41.372  25.972  27.706  1.00  0.00     0.031 A 
ATOM     32  C   UNL A   1      40.699  27.102  28.441  1.00  0.00     0.074 A 
ATOM     33  C   UNL A   1      42.665  26.073  27.347  1.00  0.00     0.049 A 
ATOM     34  N   UNL A   1      41.157  28.290  28.735  1.00  0.00    -0.248 NA
ATOM     35  C   UNL A   1      39.320  26.859  28.891  1.00  0.00     0.031 C 
ATOM     36  C   UNL A   1      43.430  25.036  26.651  1.00  0.00     0.029 A 
ATOM     37  N   UNL A   1      43.563  27.097  27.512  1.00  0.00    -0.354 N 
ATOM     38  C   UNL A   1      40.117  28.951  29.380  1.00  0.00     0.074 A 
ATOM     39  C   UNL A   1      38.996  28.034  29.414  1.00  0.00     0.031 C 
ATOM     40  C   UNL A   1      44.682  25.479  26.450  1.00  0.00     0.029 A 
ATOM     41  C   UNL A   1      44.796  26.842  26.962  1.00  0.00     0.049 A 
ATOM     42  H   UNL A   1      43.343  27.935  27.979  1.00  0.00     0.167 HD
ATOM     43  C   UNL A   1      40.098  30.205  29.896  1.00  0.00     0.034 A 
ATOM     44  C   UNL A   1      45.887  27.627  26.859  1.00  0.00     0.034 A 
ATOM     45  C   UNL A   1      41.227  31.104  29.868  1.00  0.00     0.049 A 
ATOM     46  C   UNL A   1      45.842  29.017  27.440  1.00  0.00     0.074 A 
ATOM     47  C   UNL A   1      41.319  32.394  30.363  1.00  0.00     0.029 A 
ATOM     48  N   UNL A   1      42.467  30.802  29.319  1.00  0.00    -0.354 N 
ATOM     49  N   UNL A   1      44.843  29.636  28.028  1.00  0.00    -0.248 NA
ATOM     50  C   UNL A   1      47.074  29.809  27.354  1.00  0.00     0.031 C 
ATOM     51  C   UNL A   1      42.597  32.888  30.071  1.00  0.00     0.029 A 
ATOM     52  C   UNL A   1      43.324  31.886  29.450  1.00  0.00     0.049 A 
ATOM     53  H   UNL A   1      42.704  29.946  28.897  1.00  0.00     0.167 HD
ATOM     54  C   UNL A   1      45.337  30.882  28.401  1.00  0.00     0.074 A 
ATOM     55  C   UNL A   1      46.726  30.918  27.988  1.00  0.00     0.031 C 
ATOM     56  C   UNL A   1      44.703  31.907  29.025  1.00  0.00     0.034 A 
BRANCH  43  57
ATOM     57  C   UNL A   1      38.794  30.694  30.478  1.00  0.00     0.023 A 
ATOM     58  C   UNL A   1      37.810  31.314  29.685  1.00  0.00     0.031 A 
ATOM     59  C   UNL A   1      38.545  30.565  31.855  1.00  0.00     0.131 A 
ATOM     60  C   UNL A   1      36.655  31.836  30.288  1.00  0.00     0.055 A 
ATOM     61  C   UNL A   1      37.362  31.024  32.438  1.00  0.00     0.041 A 
ATOM     62  F   UNL A   1      39.458  30.003  32.664  1.00  0.00    -0.206 F 
ATOM     63  C   UNL A   1      36.414  31.676  31.655  1.00  0.00     0.022 A 
BRANCH  60  64
ATOM     64  S   UNL A   1      35.525  32.838  29.283  1.00  0.00     0.124 S 
ATOM     65  O   UNL A   1      36.321  33.058  28.078  1.00  0.00    -0.237 OA
ATOM     66  O   UNL A   1      34.370  31.960  29.136  1.00  0.00    -0.237 OA
ATOM     67  O   UNL A   1      35.302  34.029  30.102  1.00  0.00    -0.744 OA
ENDBRANCH  60  64
ENDBRANCH  43  57
BRANCH  44  68
ATOM     68  C   UNL A   1      47.102  27.139  26.150  1.00  0.00     0.023 A 
ATOM     69  C   UNL A   1      48.120  26.459  26.836  1.00  0.00     0.031 A 
ATOM     70  C   UNL A   1      47.278  27.387  24.778  1.00  0.00     0.131 A 
ATOM     71  C   UNL A   1      49.292  26.090  26.157  1.00  0.00     0.055 A 
ATOM     72  C   UNL A   1      48.425  26.976  24.097  1.00  0.00     0.041 A 
ATOM     73  F   UNL A   1      46.331  28.030  24.076  1.00  0.00    -0.206 F 
ATOM     74  C   UNL A   1      49.446  26.334  24.790  1.00  0.00     0.022 A 
BRANCH  71  75
ATOM     75  S   UNL A   1      50.650  25.352  27.106  1.00  0.00     0.124 S 
ATOM     76  O   UNL A   1      51.517  24.850  26.047  1.00  0.00    -0.237 OA
ATOM     77  O   UNL A   1      51.151  26.499  27.856  1.00  0.00    -0.237 OA
ATOM     78  O   UNL A   1      49.986  24.327  27.909  1.00  0.00    -0.744 OA
ENDBRANCH  71  75
ENDBRANCH  44  68
BRANCH  56  79
ATOM     79  C   UNL A   1      45.533  33.127  29.338  1.00  0.00     0.023 A 
ATOM     80  C   UNL A   1      45.668  34.183  28.419  1.00  0.00     0.031 A 
ATOM     81  C   UNL A   1      46.230  33.213  30.555  1.00  0.00     0.131 A 
ATOM     82  C   UNL A   1      46.531  35.250  28.706  1.00  0.00     0.055 A 
ATOM     83  C   UNL A   1      47.046  34.304  30.858  1.00  0.00     0.041 A 
ATOM     84  F   UNL A   1      46.136  32.232  31.466  1.00  0.00    -0.206 F 
ATOM     85  C   UNL A   1      47.213  35.322  29.923  1.00  0.00     0.022 A 
BRANCH  82  86
ATOM     86  S   UNL A   1      46.839  36.493  27.419  1.00  0.00     0.124 S 
ATOM     87  O   UNL A   1      45.488  36.942  27.097  1.00  0.00    -0.237 OA
ATOM     88  O   UNL A   1      47.683  37.458  28.117  1.00  0.00    -0.237 OA
ATOM     89  O   UNL A   1      47.508  35.735  26.364  1.00  0.00    -0.744 OA
ENDBRANCH  82  86
ENDBRANCH  56  79
ENDBRANCH  30  31
ENDBRANCH  23  25
ENDBRANCH  22  23
ENDBRANCH  21  22
ENDBRANCH   1  21
TORSDOF 18
ENDMDL
