MODEL 1
REMARK VINA RESULT:     -13.1      0.000      0.000
REMARK SMILES CC1=C(CC(=O)OCCOC(=O)c2ccc(-c3c4nc(c(-c5cc(S(=O)(=O)[O-])ccc5F)c5ccc([nH]5)c(-c5cc(S(=O)(=O)[O-])ccc5F)c5nc(c(-c6cc(S(=O)(=O)[O-])ccc6F)c6ccc3[nH]6)C=C5)C=C4)cc2)c2cc(F)ccc2/C1=C\c1cccc(OCc2ccccc2)c1
REMARK SMILES IDX 8 1 7 2 5 3 6 4 4 5 3 6 1 7 2 8 83 9 76 10 82 11 84 12 77 13
REMARK SMILES IDX 81 14 78 15 80 16 79 17 85 18 86 19 98 20 87 21 89 22 88 23
REMARK SMILES IDX 90 24 91 25 92 26 93 27 97 28 94 29 96 30 95 31 9 32 10 33
REMARK SMILES IDX 11 34 12 35 13 36 14 37 75 38 15 39 74 40 16 41 17 42 18 43
REMARK SMILES IDX 68 44 19 45 73 46 67 47 69 48 20 49 72 50 66 51 65 52 21 54
REMARK SMILES IDX 53 55 33 56 52 57 34 58 37 59 51 60 70 61 35 62 36 63 50 65
REMARK SMILES IDX 71 66 38 67 22 68 23 69 31 70 24 71 30 72 32 73 29 74 25 75
REMARK SMILES IDX 26 76 27 77 28 78 54 79 55 80 63 81 56 82 62 83 64 84 61 85
REMARK SMILES IDX 57 86 58 87 59 88 60 89 39 90 40 91 48 92 41 93 47 94 49 95
REMARK SMILES IDX 46 96 42 97 43 98 44 99 45 100
REMARK H PARENT 69 53 37 64
REMARK Flexibility Score: inf
ROOT
ATOM      1  C   UNL A   1      36.400  20.069  25.023  1.00  0.00     0.274 C 
ENDROOT
BRANCH   1   2
ATOM      2  O   UNL A   1      35.250  20.707  24.431  1.00  0.00    -0.462 OA
BRANCH   2   3
ATOM      3  C   UNL A   1      34.092  20.618  25.138  1.00  0.00     0.310 C 
ATOM      4  O   UNL A   1      33.119  19.954  24.792  1.00  0.00    -0.252 OA
BRANCH   3   5
ATOM      5  C   UNL A   1      34.085  21.421  26.431  1.00  0.00     0.159 C 
BRANCH   5   6
ATOM      6  C   UNL A   1      33.649  22.845  26.331  1.00  0.00    -0.025 C 
ATOM      7  C   UNL A   1      35.843  23.964  25.680  1.00  0.00     0.045 C 
ATOM      8  C   UNL A   1      34.388  23.929  26.008  1.00  0.00    -0.039 C 
ATOM      9  C   UNL A   1      33.525  25.120  25.977  1.00  0.00    -0.014 C 
ATOM     10  C   UNL A   1      32.252  23.285  26.495  1.00  0.00    -0.011 A 
ATOM     11  C   UNL A   1      32.160  24.676  26.310  1.00  0.00    -0.010 A 
ATOM     12  C   UNL A   1      33.952  26.351  25.649  1.00  0.00     0.017 C 
ATOM     13  C   UNL A   1      31.114  22.542  26.763  1.00  0.00     0.048 A 
ATOM     14  C   UNL A   1      30.940  25.331  26.440  1.00  0.00     0.012 A 
ATOM     15  C   UNL A   1      29.897  23.203  26.900  1.00  0.00     0.123 A 
ATOM     16  C   UNL A   1      29.801  24.584  26.748  1.00  0.00     0.040 A 
ATOM     17  F   UNL A   1      28.794  22.495  27.174  1.00  0.00    -0.207 F 
BRANCH  12  18
ATOM     18  C   UNL A   1      33.103  27.528  25.485  1.00  0.00    -0.021 A 
ATOM     19  C   UNL A   1      32.981  28.481  26.497  1.00  0.00     0.008 A 
ATOM     20  C   UNL A   1      32.368  27.663  24.300  1.00  0.00     0.054 A 
ATOM     21  C   UNL A   1      32.111  29.557  26.326  1.00  0.00     0.004 A 
ATOM     22  C   UNL A   1      31.528  28.756  24.106  1.00  0.00     0.120 A 
ATOM     23  C   UNL A   1      31.391  29.692  25.135  1.00  0.00     0.046 A 
BRANCH  22  24
ATOM     24  O   UNL A   1      30.801  29.023  22.977  1.00  0.00    -0.489 OA
BRANCH  24  25
ATOM     25  C   UNL A   1      29.377  29.143  23.094  1.00  0.00     0.265 C 
BRANCH  25  26
ATOM     26  C   UNL A   1      28.848  30.433  22.506  1.00  0.00    -0.011 A 
ATOM     27  C   UNL A   1      28.821  31.606  23.275  1.00  0.00     0.007 A 
ATOM     28  C   UNL A   1      28.395  30.483  21.179  1.00  0.00     0.007 A 
ATOM     29  C   UNL A   1      28.382  32.808  22.719  1.00  0.00     0.000 A 
ATOM     30  C   UNL A   1      27.969  31.689  20.621  1.00  0.00     0.000 A 
ATOM     31  C   UNL A   1      27.965  32.851  21.390  1.00  0.00     0.000 A 
ENDBRANCH  25  26
ENDBRANCH  24  25
ENDBRANCH  22  24
ENDBRANCH  12  18
ENDBRANCH   5   6
ENDBRANCH   3   5
ENDBRANCH   2   3
ENDBRANCH   1   2
BRANCH   1  32
ATOM     32  C   UNL A   1      37.680  20.806  24.641  1.00  0.00     0.275 C 
BRANCH  32  33
ATOM     33  O   UNL A   1      38.046  21.706  25.698  1.00  0.00    -0.458 OA
BRANCH  33  34
ATOM     34  C   UNL A   1      39.284  21.526  26.213  1.00  0.00     0.338 C 
ATOM     35  O   UNL A   1      39.912  20.485  26.283  1.00  0.00    -0.246 OA
BRANCH  34  36
ATOM     36  C   UNL A   1      39.782  22.813  26.728  1.00  0.00     0.060 A 
ATOM     37  C   UNL A   1      40.736  22.804  27.743  1.00  0.00     0.016 A 
ATOM     38  C   UNL A   1      39.378  24.017  26.149  1.00  0.00     0.016 A 
ATOM     39  C   UNL A   1      41.251  24.015  28.206  1.00  0.00     0.010 A 
ATOM     40  C   UNL A   1      39.975  25.215  26.539  1.00  0.00     0.010 A 
ATOM     41  C   UNL A   1      40.886  25.232  27.601  1.00  0.00    -0.014 A 
BRANCH  41  42
ATOM     42  C   UNL A   1      41.450  26.513  28.102  1.00  0.00     0.031 A 
ATOM     43  C   UNL A   1      42.874  26.892  27.801  1.00  0.00     0.074 A 
ATOM     44  C   UNL A   1      40.668  27.345  28.818  1.00  0.00     0.049 A 
ATOM     45  N   UNL A   1      43.482  28.030  28.016  1.00  0.00    -0.248 NA
ATOM     46  C   UNL A   1      43.737  25.861  27.202  1.00  0.00     0.031 C 
ATOM     47  C   UNL A   1      39.304  27.046  29.253  1.00  0.00     0.029 A 
ATOM     48  N   UNL A   1      40.899  28.613  29.292  1.00  0.00    -0.354 N 
ATOM     49  C   UNL A   1      44.786  27.855  27.567  1.00  0.00     0.074 A 
ATOM     50  C   UNL A   1      44.907  26.479  27.146  1.00  0.00     0.031 C 
ATOM     51  C   UNL A   1      38.800  28.118  29.882  1.00  0.00     0.029 A 
ATOM     52  C   UNL A   1      39.809  29.174  29.918  1.00  0.00     0.049 A 
ATOM     53  H   UNL A   1      41.763  29.077  29.195  1.00  0.00     0.167 HD
ATOM     54  C   UNL A   1      45.779  28.770  27.470  1.00  0.00     0.034 A 
ATOM     55  C   UNL A   1      39.631  30.408  30.434  1.00  0.00     0.034 A 
ATOM     56  C   UNL A   1      45.639  30.142  27.880  1.00  0.00     0.049 A 
ATOM     57  C   UNL A   1      40.738  31.424  30.293  1.00  0.00     0.074 A 
ATOM     58  C   UNL A   1      46.558  31.168  27.759  1.00  0.00     0.029 A 
ATOM     59  N   UNL A   1      44.515  30.681  28.491  1.00  0.00    -0.354 N 
ATOM     60  N   UNL A   1      41.915  31.287  29.727  1.00  0.00    -0.248 NA
ATOM     61  C   UNL A   1      40.491  32.767  30.836  1.00  0.00     0.031 C 
ATOM     62  C   UNL A   1      46.015  32.311  28.347  1.00  0.00     0.029 A 
ATOM     63  C   UNL A   1      44.729  32.018  28.777  1.00  0.00     0.049 A 
ATOM     64  H   UNL A   1      43.688  30.184  28.690  1.00  0.00     0.167 HD
ATOM     65  C   UNL A   1      42.538  32.528  29.825  1.00  0.00     0.074 A 
ATOM     66  C   UNL A   1      41.597  33.412  30.480  1.00  0.00     0.031 C 
ATOM     67  C   UNL A   1      43.778  32.898  29.415  1.00  0.00     0.034 A 
BRANCH  54  68
ATOM     68  C   UNL A   1      47.091  28.345  26.858  1.00  0.00     0.023 A 
ATOM     69  C   UNL A   1      47.210  28.187  25.466  1.00  0.00     0.031 A 
ATOM     70  C   UNL A   1      48.189  27.990  27.665  1.00  0.00     0.131 A 
ATOM     71  C   UNL A   1      48.392  27.666  24.924  1.00  0.00     0.055 A 
ATOM     72  C   UNL A   1      49.379  27.509  27.117  1.00  0.00     0.041 A 
ATOM     73  F   UNL A   1      48.123  28.117  29.000  1.00  0.00    -0.206 F 
ATOM     74  C   UNL A   1      49.479  27.335  25.741  1.00  0.00     0.022 A 
BRANCH  71  75
ATOM     75  S   UNL A   1      48.551  27.342  23.147  1.00  0.00     0.124 S 
ATOM     76  O   UNL A   1      48.391  25.891  23.091  1.00  0.00    -0.237 OA
ATOM     77  O   UNL A   1      47.439  28.113  22.597  1.00  0.00    -0.237 OA
ATOM     78  O   UNL A   1      49.883  27.835  22.817  1.00  0.00    -0.744 OA
ENDBRANCH  71  75
ENDBRANCH  54  68
BRANCH  55  79
ATOM     79  C   UNL A   1      38.309  30.758  31.033  1.00  0.00     0.023 A 
ATOM     80  C   UNL A   1      37.315  31.399  30.272  1.00  0.00     0.031 A 
ATOM     81  C   UNL A   1      38.065  30.560  32.403  1.00  0.00     0.131 A 
ATOM     82  C   UNL A   1      36.152  31.871  30.897  1.00  0.00     0.055 A 
ATOM     83  C   UNL A   1      36.878  30.973  33.009  1.00  0.00     0.041 A 
ATOM     84  F   UNL A   1      38.989  29.968  33.176  1.00  0.00    -0.206 F 
ATOM     85  C   UNL A   1      35.921  31.648  32.258  1.00  0.00     0.022 A 
BRANCH  82  86
ATOM     86  S   UNL A   1      34.961  32.899  29.995  1.00  0.00     0.124 S 
ATOM     87  O   UNL A   1      34.355  31.935  29.082  1.00  0.00    -0.237 OA
ATOM     88  O   UNL A   1      34.097  33.374  31.074  1.00  0.00    -0.237 OA
ATOM     89  O   UNL A   1      35.791  33.923  29.370  1.00  0.00    -0.744 OA
ENDBRANCH  82  86
ENDBRANCH  55  79
BRANCH  67  90
ATOM     90  C   UNL A   1      44.228  34.320  29.650  1.00  0.00     0.023 A 
ATOM     91  C   UNL A   1      44.085  35.281  28.631  1.00  0.00     0.031 A 
ATOM     92  C   UNL A   1      44.948  34.674  30.803  1.00  0.00     0.131 A 
ATOM     93  C   UNL A   1      44.697  36.535  28.764  1.00  0.00     0.055 A 
ATOM     94  C   UNL A   1      45.515  35.941  30.952  1.00  0.00     0.041 A 
ATOM     95  F   UNL A   1      45.123  33.788  31.797  1.00  0.00    -0.206 F 
ATOM     96  C   UNL A   1      45.404  36.871  29.922  1.00  0.00     0.022 A 
BRANCH  93  97
ATOM     97  S   UNL A   1      44.682  37.734  27.403  1.00  0.00     0.124 S 
ATOM     98  O   UNL A   1      43.323  37.590  26.888  1.00  0.00    -0.237 OA
ATOM     99  O   UNL A   1      44.956  38.990  28.097  1.00  0.00    -0.237 OA
ATOM    100  O   UNL A   1      45.738  37.268  26.511  1.00  0.00    -0.744 OA
ENDBRANCH  93  97
ENDBRANCH  67  90
ENDBRANCH  41  42
ENDBRANCH  34  36
ENDBRANCH  33  34
ENDBRANCH  32  33
ENDBRANCH   1  32
TORSDOF 19
ENDMDL
MODEL 2
REMARK VINA RESULT:     -12.8      4.677     10.559
REMARK SMILES CC1=C(CC(=O)OCCOC(=O)c2ccc(-c3c4nc(c(-c5cc(S(=O)(=O)[O-])ccc5F)c5ccc([nH]5)c(-c5cc(S(=O)(=O)[O-])ccc5F)c5nc(c(-c6cc(S(=O)(=O)[O-])ccc6F)c6ccc3[nH]6)C=C5)C=C4)cc2)c2cc(F)ccc2/C1=C\c1cccc(OCc2ccccc2)c1
REMARK SMILES IDX 8 1 7 2 5 3 6 4 4 5 3 6 1 7 2 8 83 9 76 10 82 11 84 12 77 13
REMARK SMILES IDX 81 14 78 15 80 16 79 17 85 18 86 19 98 20 87 21 89 22 88 23
REMARK SMILES IDX 90 24 91 25 92 26 93 27 97 28 94 29 96 30 95 31 9 32 10 33
REMARK SMILES IDX 11 34 12 35 13 36 14 37 75 38 15 39 74 40 16 41 17 42 18 43
REMARK SMILES IDX 68 44 19 45 73 46 67 47 69 48 20 49 72 50 66 51 65 52 21 54
REMARK SMILES IDX 53 55 33 56 52 57 34 58 37 59 51 60 70 61 35 62 36 63 50 65
REMARK SMILES IDX 71 66 38 67 22 68 23 69 31 70 24 71 30 72 32 73 29 74 25 75
REMARK SMILES IDX 26 76 27 77 28 78 54 79 55 80 63 81 56 82 62 83 64 84 61 85
REMARK SMILES IDX 57 86 58 87 59 88 60 89 39 90 40 91 48 92 41 93 47 94 49 95
REMARK SMILES IDX 46 96 42 97 43 98 44 99 45 100
REMARK H PARENT 69 53 37 64
REMARK Flexibility Score: inf
ROOT
ATOM      1  C   UNL A   1      31.605  29.971  25.375  1.00  0.00     0.274 C 
ENDROOT
BRANCH   1   2
ATOM      2  O   UNL A   1      31.652  29.373  24.063  1.00  0.00    -0.462 OA
BRANCH   2   3
ATOM      3  C   UNL A   1      30.448  29.117  23.486  1.00  0.00     0.310 C 
ATOM      4  O   UNL A   1      29.491  29.886  23.507  1.00  0.00    -0.252 OA
BRANCH   3   5
ATOM      5  C   UNL A   1      30.364  27.767  22.786  1.00  0.00     0.159 C 
BRANCH   5   6
ATOM      6  C   UNL A   1      31.290  26.704  23.272  1.00  0.00    -0.025 C 
ATOM      7  C   UNL A   1      33.277  27.066  21.718  1.00  0.00     0.045 C 
ATOM      8  C   UNL A   1      32.530  26.403  22.827  1.00  0.00    -0.039 C 
ATOM      9  C   UNL A   1      33.094  25.316  23.641  1.00  0.00    -0.014 C 
ATOM     10  C   UNL A   1      31.005  25.836  24.428  1.00  0.00    -0.011 A 
ATOM     11  C   UNL A   1      32.082  24.962  24.654  1.00  0.00    -0.010 A 
ATOM     12  C   UNL A   1      34.330  24.814  23.477  1.00  0.00     0.017 C 
ATOM     13  C   UNL A   1      29.898  25.805  25.261  1.00  0.00     0.048 A 
ATOM     14  C   UNL A   1      32.036  24.025  25.680  1.00  0.00     0.012 A 
ATOM     15  C   UNL A   1      29.853  24.861  26.283  1.00  0.00     0.123 A 
ATOM     16  C   UNL A   1      30.903  23.972  26.495  1.00  0.00     0.040 A 
ATOM     17  F   UNL A   1      28.781  24.814  27.084  1.00  0.00    -0.207 F 
BRANCH  12  18
ATOM     18  C   UNL A   1      34.967  23.827  24.345  1.00  0.00    -0.021 A 
ATOM     19  C   UNL A   1      35.845  24.213  25.360  1.00  0.00     0.008 A 
ATOM     20  C   UNL A   1      34.717  22.469  24.110  1.00  0.00     0.054 A 
ATOM     21  C   UNL A   1      36.482  23.237  26.124  1.00  0.00     0.004 A 
ATOM     22  C   UNL A   1      35.320  21.491  24.897  1.00  0.00     0.120 A 
ATOM     23  C   UNL A   1      36.218  21.884  25.893  1.00  0.00     0.046 A 
BRANCH  22  24
ATOM     24  O   UNL A   1      35.116  20.141  24.798  1.00  0.00    -0.489 OA
BRANCH  24  25
ATOM     25  C   UNL A   1      33.809  19.672  24.440  1.00  0.00     0.265 C 
BRANCH  25  26
ATOM     26  C   UNL A   1      33.624  18.194  24.709  1.00  0.00    -0.011 A 
ATOM     27  C   UNL A   1      34.563  17.264  24.239  1.00  0.00     0.007 A 
ATOM     28  C   UNL A   1      32.524  17.732  25.446  1.00  0.00     0.007 A 
ATOM     29  C   UNL A   1      34.422  15.906  24.530  1.00  0.00     0.000 A 
ATOM     30  C   UNL A   1      32.391  16.376  25.747  1.00  0.00     0.000 A 
ATOM     31  C   UNL A   1      33.341  15.464  25.291  1.00  0.00     0.000 A 
ENDBRANCH  25  26
ENDBRANCH  24  25
ENDBRANCH  22  24
ENDBRANCH  12  18
ENDBRANCH   5   6
ENDBRANCH   3   5
ENDBRANCH   2   3
ENDBRANCH   1   2
BRANCH   1  32
ATOM     32  C   UNL A   1      33.006  30.063  25.973  1.00  0.00     0.275 C 
BRANCH  32  33
ATOM     33  O   UNL A   1      32.921  30.580  27.310  1.00  0.00    -0.458 OA
BRANCH  33  34
ATOM     34  C   UNL A   1      33.701  31.655  27.568  1.00  0.00     0.338 C 
ATOM     35  O   UNL A   1      33.435  32.826  27.371  1.00  0.00    -0.246 OA
BRANCH  34  36
ATOM     36  C   UNL A   1      34.987  31.194  28.118  1.00  0.00     0.060 A 
ATOM     37  C   UNL A   1      36.081  32.055  28.076  1.00  0.00     0.016 A 
ATOM     38  C   UNL A   1      35.088  29.955  28.754  1.00  0.00     0.016 A 
ATOM     39  C   UNL A   1      37.292  31.648  28.636  1.00  0.00     0.010 A 
ATOM     40  C   UNL A   1      36.266  29.599  29.408  1.00  0.00     0.010 A 
ATOM     41  C   UNL A   1      37.395  30.422  29.320  1.00  0.00    -0.014 A 
BRANCH  41  42
ATOM     42  C   UNL A   1      38.690  30.008  29.917  1.00  0.00     0.031 A 
ATOM     43  C   UNL A   1      39.119  30.537  31.259  1.00  0.00     0.074 A 
ATOM     44  C   UNL A   1      39.477  29.136  29.255  1.00  0.00     0.049 A 
ATOM     45  N   UNL A   1      40.130  30.166  32.001  1.00  0.00    -0.248 NA
ATOM     46  C   UNL A   1      38.329  31.637  31.836  1.00  0.00     0.031 C 
ATOM     47  C   UNL A   1      39.214  28.627  27.909  1.00  0.00     0.029 A 
ATOM     48  N   UNL A   1      40.644  28.514  29.625  1.00  0.00    -0.354 N 
ATOM     49  C   UNL A   1      40.087  30.973  33.133  1.00  0.00     0.074 A 
ATOM     50  C   UNL A   1      39.004  31.910  32.943  1.00  0.00     0.031 C 
ATOM     51  C   UNL A   1      40.159  27.732  27.586  1.00  0.00     0.029 A 
ATOM     52  C   UNL A   1      41.109  27.617  28.691  1.00  0.00     0.049 A 
ATOM     53  H   UNL A   1      41.104  28.693  30.477  1.00  0.00     0.167 HD
ATOM     54  C   UNL A   1      40.850  30.909  34.249  1.00  0.00     0.034 A 
ATOM     55  C   UNL A   1      42.163  26.775  28.730  1.00  0.00     0.034 A 
ATOM     56  C   UNL A   1      41.916  29.959  34.430  1.00  0.00     0.049 A 
ATOM     57  C   UNL A   1      42.987  26.697  29.992  1.00  0.00     0.074 A 
ATOM     58  C   UNL A   1      42.704  29.763  35.549  1.00  0.00     0.029 A 
ATOM     59  N   UNL A   1      42.347  29.053  33.472  1.00  0.00    -0.354 N 
ATOM     60  N   UNL A   1      42.839  27.362  31.114  1.00  0.00    -0.248 NA
ATOM     61  C   UNL A   1      44.104  25.742  30.008  1.00  0.00     0.031 C 
ATOM     62  C   UNL A   1      43.647  28.779  35.250  1.00  0.00     0.029 A 
ATOM     63  C   UNL A   1      43.408  28.313  33.966  1.00  0.00     0.049 A 
ATOM     64  H   UNL A   1      41.956  28.951  32.574  1.00  0.00     0.167 HD
ATOM     65  C   UNL A   1      43.827  26.890  31.976  1.00  0.00     0.074 A 
ATOM     66  C   UNL A   1      44.549  25.864  31.253  1.00  0.00     0.031 C 
ATOM     67  C   UNL A   1      44.111  27.278  33.245  1.00  0.00     0.034 A 
BRANCH  54  68
ATOM     68  C   UNL A   1      40.541  31.851  35.386  1.00  0.00     0.023 A 
ATOM     69  C   UNL A   1      39.404  31.651  36.188  1.00  0.00     0.031 A 
ATOM     70  C   UNL A   1      41.313  33.009  35.602  1.00  0.00     0.131 A 
ATOM     71  C   UNL A   1      39.058  32.606  37.154  1.00  0.00     0.055 A 
ATOM     72  C   UNL A   1      40.987  33.936  36.592  1.00  0.00     0.041 A 
ATOM     73  F   UNL A   1      42.406  33.247  34.858  1.00  0.00    -0.206 F 
ATOM     74  C   UNL A   1      39.848  33.741  37.365  1.00  0.00     0.022 A 
BRANCH  71  75
ATOM     75  S   UNL A   1      37.542  32.445  38.135  1.00  0.00     0.124 S 
ATOM     76  O   UNL A   1      36.560  33.111  37.282  1.00  0.00    -0.237 OA
ATOM     77  O   UNL A   1      37.397  30.996  38.237  1.00  0.00    -0.237 OA
ATOM     78  O   UNL A   1      37.854  33.137  39.380  1.00  0.00    -0.744 OA
ENDBRANCH  71  75
ENDBRANCH  54  68
BRANCH  55  79
ATOM     79  C   UNL A   1      42.416  25.877  27.565  1.00  0.00     0.023 A 
ATOM     80  C   UNL A   1      41.866  24.583  27.515  1.00  0.00     0.031 A 
ATOM     81  C   UNL A   1      43.302  26.257  26.542  1.00  0.00     0.131 A 
ATOM     82  C   UNL A   1      42.253  23.698  26.499  1.00  0.00     0.055 A 
ATOM     83  C   UNL A   1      43.635  25.394  25.497  1.00  0.00     0.041 A 
ATOM     84  F   UNL A   1      43.866  27.475  26.554  1.00  0.00    -0.206 F 
ATOM     85  C   UNL A   1      43.123  24.101  25.481  1.00  0.00     0.022 A 
BRANCH  82  86
ATOM     86  S   UNL A   1      41.744  21.957  26.535  1.00  0.00     0.124 S 
ATOM     87  O   UNL A   1      42.253  21.517  27.830  1.00  0.00    -0.237 OA
ATOM     88  O   UNL A   1      40.290  22.068  26.433  1.00  0.00    -0.237 OA
ATOM     89  O   UNL A   1      42.405  21.380  25.369  1.00  0.00    -0.744 OA
ENDBRANCH  82  86
ENDBRANCH  55  79
BRANCH  67  90
ATOM     90  C   UNL A   1      45.255  26.611  33.970  1.00  0.00     0.023 A 
ATOM     91  C   UNL A   1      45.003  25.530  34.838  1.00  0.00     0.031 A 
ATOM     92  C   UNL A   1      46.551  27.150  33.938  1.00  0.00     0.131 A 
ATOM     93  C   UNL A   1      46.022  25.054  35.674  1.00  0.00     0.055 A 
ATOM     94  C   UNL A   1      47.576  26.641  34.739  1.00  0.00     0.041 A 
ATOM     95  F   UNL A   1      46.839  28.189  33.138  1.00  0.00    -0.206 F 
ATOM     96  C   UNL A   1      47.308  25.600  35.623  1.00  0.00     0.022 A 
BRANCH  93  97
ATOM     97  S   UNL A   1      45.692  23.783  36.925  1.00  0.00     0.124 S 
ATOM     98  O   UNL A   1      44.745  24.463  37.804  1.00  0.00    -0.237 OA
ATOM     99  O   UNL A   1      45.129  22.700  36.121  1.00  0.00    -0.237 OA
ATOM    100  O   UNL A   1      47.001  23.514  37.509  1.00  0.00    -0.744 OA
ENDBRANCH  93  97
ENDBRANCH  67  90
ENDBRANCH  41  42
ENDBRANCH  34  36
ENDBRANCH  33  34
ENDBRANCH  32  33
ENDBRANCH   1  32
TORSDOF 19
ENDMDL
MODEL 3
REMARK VINA RESULT:     -12.7      4.537     10.296
REMARK SMILES CC1=C(CC(=O)OCCOC(=O)c2ccc(-c3c4nc(c(-c5cc(S(=O)(=O)[O-])ccc5F)c5ccc([nH]5)c(-c5cc(S(=O)(=O)[O-])ccc5F)c5nc(c(-c6cc(S(=O)(=O)[O-])ccc6F)c6ccc3[nH]6)C=C5)C=C4)cc2)c2cc(F)ccc2/C1=C\c1cccc(OCc2ccccc2)c1
REMARK SMILES IDX 8 1 7 2 5 3 6 4 4 5 3 6 1 7 2 8 83 9 76 10 82 11 84 12 77 13
REMARK SMILES IDX 81 14 78 15 80 16 79 17 85 18 86 19 98 20 87 21 89 22 88 23
REMARK SMILES IDX 90 24 91 25 92 26 93 27 97 28 94 29 96 30 95 31 9 32 10 33
REMARK SMILES IDX 11 34 12 35 13 36 14 37 75 38 15 39 74 40 16 41 17 42 18 43
REMARK SMILES IDX 68 44 19 45 73 46 67 47 69 48 20 49 72 50 66 51 65 52 21 54
REMARK SMILES IDX 53 55 33 56 52 57 34 58 37 59 51 60 70 61 35 62 36 63 50 65
REMARK SMILES IDX 71 66 38 67 22 68 23 69 31 70 24 71 30 72 32 73 29 74 25 75
REMARK SMILES IDX 26 76 27 77 28 78 54 79 55 80 63 81 56 82 62 83 64 84 61 85
REMARK SMILES IDX 57 86 58 87 59 88 60 89 39 90 40 91 48 92 41 93 47 94 49 95
REMARK SMILES IDX 46 96 42 97 43 98 44 99 45 100
REMARK H PARENT 69 53 37 64
REMARK Flexibility Score: inf
ROOT
ATOM      1  C   UNL A   1      31.799  29.281  24.921  1.00  0.00     0.274 C 
ENDROOT
BRANCH   1   2
ATOM      2  O   UNL A   1      30.528  29.318  24.240  1.00  0.00    -0.462 OA
BRANCH   2   3
ATOM      3  C   UNL A   1      30.541  28.926  22.938  1.00  0.00     0.310 C 
ATOM      4  O   UNL A   1      30.815  29.664  21.995  1.00  0.00    -0.252 OA
BRANCH   3   5
ATOM      5  C   UNL A   1      30.184  27.463  22.722  1.00  0.00     0.159 C 
BRANCH   5   6
ATOM      6  C   UNL A   1      31.165  26.454  23.217  1.00  0.00    -0.025 C 
ATOM      7  C   UNL A   1      33.081  26.818  21.576  1.00  0.00     0.045 C 
ATOM      8  C   UNL A   1      32.399  26.178  22.739  1.00  0.00    -0.039 C 
ATOM      9  C   UNL A   1      33.031  25.148  23.576  1.00  0.00    -0.014 C 
ATOM     10  C   UNL A   1      30.954  25.627  24.418  1.00  0.00    -0.011 A 
ATOM     11  C   UNL A   1      32.070  24.803  24.640  1.00  0.00    -0.010 A 
ATOM     12  C   UNL A   1      34.278  24.684  23.387  1.00  0.00     0.017 C 
ATOM     13  C   UNL A   1      29.879  25.594  25.292  1.00  0.00     0.048 A 
ATOM     14  C   UNL A   1      32.095  23.910  25.705  1.00  0.00     0.012 A 
ATOM     15  C   UNL A   1      29.906  24.694  26.354  1.00  0.00     0.123 A 
ATOM     16  C   UNL A   1      30.994  23.852  26.563  1.00  0.00     0.040 A 
ATOM     17  F   UNL A   1      28.865  24.643  27.196  1.00  0.00    -0.207 F 
BRANCH  12  18
ATOM     18  C   UNL A   1      34.982  23.758  24.271  1.00  0.00    -0.021 A 
ATOM     19  C   UNL A   1      35.903  24.216  25.215  1.00  0.00     0.008 A 
ATOM     20  C   UNL A   1      34.750  22.385  24.124  1.00  0.00     0.054 A 
ATOM     21  C   UNL A   1      36.601  23.296  25.996  1.00  0.00     0.004 A 
ATOM     22  C   UNL A   1      35.415  21.462  24.929  1.00  0.00     0.120 A 
ATOM     23  C   UNL A   1      36.355  21.927  25.852  1.00  0.00     0.046 A 
BRANCH  22  24
ATOM     24  O   UNL A   1      35.236  20.106  24.913  1.00  0.00    -0.489 OA
BRANCH  24  25
ATOM     25  C   UNL A   1      33.997  19.585  24.411  1.00  0.00     0.265 C 
BRANCH  25  26
ATOM     26  C   UNL A   1      33.790  18.127  24.760  1.00  0.00    -0.011 A 
ATOM     27  C   UNL A   1      32.568  17.692  25.295  1.00  0.00     0.007 A 
ATOM     28  C   UNL A   1      34.805  17.186  24.538  1.00  0.00     0.007 A 
ATOM     29  C   UNL A   1      32.356  16.340  25.569  1.00  0.00     0.000 A 
ATOM     30  C   UNL A   1      34.588  15.833  24.800  1.00  0.00     0.000 A 
ATOM     31  C   UNL A   1      33.363  15.410  25.313  1.00  0.00     0.000 A 
ENDBRANCH  25  26
ENDBRANCH  24  25
ENDBRANCH  22  24
ENDBRANCH  12  18
ENDBRANCH   5   6
ENDBRANCH   3   5
ENDBRANCH   2   3
ENDBRANCH   1   2
BRANCH   1  32
ATOM     32  C   UNL A   1      31.897  30.414  25.937  1.00  0.00     0.275 C 
BRANCH  32  33
ATOM     33  O   UNL A   1      33.069  30.230  26.746  1.00  0.00    -0.458 OA
BRANCH  33  34
ATOM     34  C   UNL A   1      33.563  31.351  27.318  1.00  0.00     0.338 C 
ATOM     35  O   UNL A   1      33.073  32.466  27.306  1.00  0.00    -0.246 OA
BRANCH  34  36
ATOM     36  C   UNL A   1      34.849  31.035  27.964  1.00  0.00     0.060 A 
ATOM     37  C   UNL A   1      35.075  29.735  28.407  1.00  0.00     0.016 A 
ATOM     38  C   UNL A   1      35.859  31.996  28.048  1.00  0.00     0.016 A 
ATOM     39  C   UNL A   1      36.307  29.412  28.977  1.00  0.00     0.010 A 
ATOM     40  C   UNL A   1      37.123  31.641  28.517  1.00  0.00     0.010 A 
ATOM     41  C   UNL A   1      37.348  30.357  29.027  1.00  0.00    -0.014 A 
BRANCH  41  42
ATOM     42  C   UNL A   1      38.657  29.994  29.631  1.00  0.00     0.031 A 
ATOM     43  C   UNL A   1      39.053  30.531  30.979  1.00  0.00     0.074 A 
ATOM     44  C   UNL A   1      39.484  29.162  28.967  1.00  0.00     0.049 A 
ATOM     45  N   UNL A   1      40.074  30.197  31.726  1.00  0.00    -0.248 NA
ATOM     46  C   UNL A   1      38.213  31.591  31.559  1.00  0.00     0.031 C 
ATOM     47  C   UNL A   1      39.252  28.653  27.615  1.00  0.00     0.029 A 
ATOM     48  N   UNL A   1      40.674  28.587  29.341  1.00  0.00    -0.354 N 
ATOM     49  C   UNL A   1      39.988  30.993  32.863  1.00  0.00     0.074 A 
ATOM     50  C   UNL A   1      38.869  31.884  32.672  1.00  0.00     0.031 C 
ATOM     51  C   UNL A   1      40.237  27.801  27.293  1.00  0.00     0.029 A 
ATOM     52  C   UNL A   1      41.184  27.718  28.404  1.00  0.00     0.049 A 
ATOM     53  H   UNL A   1      41.120  28.779  30.198  1.00  0.00     0.167 HD
ATOM     54  C   UNL A   1      40.747  30.953  33.984  1.00  0.00     0.034 A 
ATOM     55  C   UNL A   1      42.273  26.922  28.444  1.00  0.00     0.034 A 
ATOM     56  C   UNL A   1      41.851  30.049  34.166  1.00  0.00     0.049 A 
ATOM     57  C   UNL A   1      43.091  26.869  29.711  1.00  0.00     0.074 A 
ATOM     58  C   UNL A   1      42.638  29.877  35.289  1.00  0.00     0.029 A 
ATOM     59  N   UNL A   1      42.327  29.169  33.204  1.00  0.00    -0.354 N 
ATOM     60  N   UNL A   1      42.907  27.519  30.837  1.00  0.00    -0.248 NA
ATOM     61  C   UNL A   1      44.246  25.962  29.728  1.00  0.00     0.031 C 
ATOM     62  C   UNL A   1      43.625  28.937  34.989  1.00  0.00     0.029 A 
ATOM     63  C   UNL A   1      43.415  28.471  33.700  1.00  0.00     0.049 A 
ATOM     64  H   UNL A   1      41.946  29.058  32.302  1.00  0.00     0.167 HD
ATOM     65  C   UNL A   1      43.908  27.083  31.702  1.00  0.00     0.074 A 
ATOM     66  C   UNL A   1      44.678  26.094  30.978  1.00  0.00     0.031 C 
ATOM     67  C   UNL A   1      44.167  27.472  32.976  1.00  0.00     0.034 A 
BRANCH  54  68
ATOM     68  C   UNL A   1      40.390  31.873  35.125  1.00  0.00     0.023 A 
ATOM     69  C   UNL A   1      39.399  31.505  36.054  1.00  0.00     0.031 A 
ATOM     70  C   UNL A   1      40.954  33.159  35.227  1.00  0.00     0.131 A 
ATOM     71  C   UNL A   1      38.986  32.423  37.029  1.00  0.00     0.055 A 
ATOM     72  C   UNL A   1      40.568  34.054  36.225  1.00  0.00     0.041 A 
ATOM     73  F   UNL A   1      41.900  33.558  34.362  1.00  0.00    -0.206 F 
ATOM     74  C   UNL A   1      39.571  33.691  37.124  1.00  0.00     0.022 A 
BRANCH  71  75
ATOM     75  S   UNL A   1      37.637  32.034  38.176  1.00  0.00     0.124 S 
ATOM     76  O   UNL A   1      37.346  30.643  37.835  1.00  0.00    -0.237 OA
ATOM     77  O   UNL A   1      38.272  32.238  39.474  1.00  0.00    -0.237 OA
ATOM     78  O   UNL A   1      36.593  32.990  37.827  1.00  0.00    -0.744 OA
ENDBRANCH  71  75
ENDBRANCH  54  68
BRANCH  55  79
ATOM     79  C   UNL A   1      42.571  26.044  27.274  1.00  0.00     0.023 A 
ATOM     80  C   UNL A   1      42.093  24.722  27.219  1.00  0.00     0.031 A 
ATOM     81  C   UNL A   1      43.433  26.477  26.251  1.00  0.00     0.131 A 
ATOM     82  C   UNL A   1      42.526  23.865  26.198  1.00  0.00     0.055 A 
ATOM     83  C   UNL A   1      43.810  25.639  25.201  1.00  0.00     0.041 A 
ATOM     84  F   UNL A   1      43.929  27.724  26.268  1.00  0.00    -0.206 F 
ATOM     85  C   UNL A   1      43.369  24.320  25.180  1.00  0.00     0.022 A 
BRANCH  82  86
ATOM     86  S   UNL A   1      42.113  22.098  26.227  1.00  0.00     0.124 S 
ATOM     87  O   UNL A   1      43.010  21.559  25.211  1.00  0.00    -0.237 OA
ATOM     88  O   UNL A   1      42.434  21.737  27.606  1.00  0.00    -0.237 OA
ATOM     89  O   UNL A   1      40.693  22.070  25.893  1.00  0.00    -0.744 OA
ENDBRANCH  82  86
ENDBRANCH  55  79
BRANCH  67  90
ATOM     90  C   UNL A   1      45.333  26.849  33.705  1.00  0.00     0.023 A 
ATOM     91  C   UNL A   1      46.624  27.393  33.561  1.00  0.00     0.031 A 
ATOM     92  C   UNL A   1      45.196  25.630  34.390  1.00  0.00     0.131 A 
ATOM     93  C   UNL A   1      47.734  26.693  34.054  1.00  0.00     0.055 A 
ATOM     94  C   UNL A   1      46.300  24.961  34.921  1.00  0.00     0.041 A 
ATOM     95  F   UNL A   1      43.988  25.065  34.542  1.00  0.00    -0.206 F 
ATOM     96  C   UNL A   1      47.577  25.484  34.739  1.00  0.00     0.022 A 
BRANCH  93  97
ATOM     97  S   UNL A   1      49.423  27.273  33.737  1.00  0.00     0.124 S 
ATOM     98  O   UNL A   1      49.696  26.704  32.420  1.00  0.00    -0.237 OA
ATOM     99  O   UNL A   1      49.261  28.724  33.768  1.00  0.00    -0.237 OA
ATOM    100  O   UNL A   1      50.202  26.706  34.833  1.00  0.00    -0.744 OA
ENDBRANCH  93  97
ENDBRANCH  67  90
ENDBRANCH  41  42
ENDBRANCH  34  36
ENDBRANCH  33  34
ENDBRANCH  32  33
ENDBRANCH   1  32
TORSDOF 19
ENDMDL
