MODEL 1
REMARK VINA RESULT:     -10.3      0.000      0.000
REMARK SMILES CCC(CC)(NC(=O)N(CC(F)(F)F)C(C)C)C(=O)OCCOC(=O)c1ccc(-c2c3nc(c(-c4cc(S(=O)(=O)[O-])ccc4F)c4ccc([nH]4)c(-c4cc(S(=O)(=O)[O-])ccc4F)c4nc(c(-c5cc(S(=O)(=O)[O-])ccc5F)c5ccc2[nH]5)C=C4)C=C3)cc1
REMARK SMILES IDX 21 1 20 2 18 3 19 4 3 5 2 6 1 7 4 8 5 9 6 10 7 11 8 13 9 14
REMARK SMILES IDX 10 15 11 16 12 17 13 18 14 19 15 20 16 21 17 22 22 23 23 24
REMARK SMILES IDX 24 25 25 26 26 27 27 28 88 29 28 30 87 31 29 32 30 33 31 34
REMARK SMILES IDX 81 35 32 36 86 37 80 38 82 39 33 40 85 41 79 42 78 43 34 45
REMARK SMILES IDX 66 46 46 47 65 48 47 49 50 50 64 51 83 52 48 53 49 54 63 56
REMARK SMILES IDX 84 57 51 58 35 59 36 60 44 61 37 62 43 63 45 64 42 65 38 66
REMARK SMILES IDX 39 67 40 68 41 69 67 70 68 71 76 72 69 73 75 74 77 75 74 76
REMARK SMILES IDX 70 77 71 78 72 79 73 80 52 81 53 82 61 83 54 84 60 85 62 86
REMARK SMILES IDX 59 87 55 88 56 89 57 90 58 91
REMARK H PARENT 6 12 82 44 50 55
REMARK Flexibility Score: inf
ROOT
ATOM      1  C   UNL A   1      31.454  29.455  24.511  1.00  0.00     0.274 C 
ENDROOT
BRANCH   1   2
ATOM      2  O   UNL A   1      31.868  28.156  24.019  1.00  0.00    -0.460 OA
BRANCH   2   3
ATOM      3  C   UNL A   1      31.119  27.068  24.277  1.00  0.00     0.332 C 
ATOM      4  O   UNL A   1      29.893  27.109  24.277  1.00  0.00    -0.249 OA
BRANCH   3   5
ATOM      5  C   UNL A   1      31.964  25.805  24.709  1.00  0.00     0.139 C 
BRANCH   5   6
ATOM      6  C   UNL A   1      32.843  26.218  25.966  1.00  0.00     0.037 C 
ATOM      7  C   UNL A   1      34.341  26.448  25.786  1.00  0.00     0.007 C 
ENDBRANCH   5   6
BRANCH   5   8
ATOM      8  C   UNL A   1      32.892  25.488  23.502  1.00  0.00     0.037 C 
ATOM      9  C   UNL A   1      32.215  25.424  22.139  1.00  0.00     0.007 C 
ENDBRANCH   5   8
BRANCH   5  10
ATOM     10  N   UNL A   1      31.257  24.535  25.191  1.00  0.00    -0.322 N 
ATOM     11  C   UNL A   1      31.331  23.255  25.591  1.00  0.00     0.318 C 
ATOM     12  H   UNL A   1      30.300  24.764  25.220  1.00  0.00     0.166 HD
ATOM     13  O   UNL A   1      30.276  22.829  26.076  1.00  0.00    -0.249 OA
BRANCH  11  14
ATOM     14  N   UNL A   1      32.402  22.433  25.419  1.00  0.00    -0.313 N 
BRANCH  14  15
ATOM     15  C   UNL A   1      32.439  21.334  24.456  1.00  0.00     0.237 C 
BRANCH  15  16
ATOM     16  C   UNL A   1      32.222  21.579  22.969  1.00  0.00     0.406 C 
ATOM     17  F   UNL A   1      31.147  22.366  22.740  1.00  0.00    -0.169 F 
ATOM     18  F   UNL A   1      33.297  22.244  22.468  1.00  0.00    -0.169 F 
ATOM     19  F   UNL A   1      32.090  20.445  22.255  1.00  0.00    -0.169 F 
ENDBRANCH  15  16
ENDBRANCH  14  15
BRANCH  14  20
ATOM     20  C   UNL A   1      33.600  22.575  26.303  1.00  0.00     0.081 C 
ATOM     21  C   UNL A   1      33.391  22.030  27.716  1.00  0.00     0.031 C 
ATOM     22  C   UNL A   1      34.935  22.011  25.775  1.00  0.00     0.031 C 
ENDBRANCH  14  20
ENDBRANCH  11  14
ENDBRANCH   5  10
ENDBRANCH   3   5
ENDBRANCH   2   3
ENDBRANCH   1   2
BRANCH   1  23
ATOM     23  C   UNL A   1      31.773  29.528  26.009  1.00  0.00     0.275 C 
BRANCH  23  24
ATOM     24  O   UNL A   1      33.142  29.923  26.178  1.00  0.00    -0.458 OA
BRANCH  24  25
ATOM     25  C   UNL A   1      33.295  31.051  26.904  1.00  0.00     0.338 C 
ATOM     26  O   UNL A   1      32.457  31.905  27.143  1.00  0.00    -0.246 OA
BRANCH  25  27
ATOM     27  C   UNL A   1      34.554  30.958  27.619  1.00  0.00     0.060 A 
ATOM     28  C   UNL A   1      34.908  29.706  28.116  1.00  0.00     0.016 A 
ATOM     29  C   UNL A   1      35.368  32.066  27.789  1.00  0.00     0.016 A 
ATOM     30  C   UNL A   1      36.075  29.537  28.828  1.00  0.00     0.010 A 
ATOM     31  C   UNL A   1      36.582  31.886  28.437  1.00  0.00     0.010 A 
ATOM     32  C   UNL A   1      36.939  30.620  28.947  1.00  0.00    -0.014 A 
BRANCH  32  33
ATOM     33  C   UNL A   1      38.242  30.447  29.605  1.00  0.00     0.031 A 
ATOM     34  C   UNL A   1      39.232  29.535  28.969  1.00  0.00     0.074 A 
ATOM     35  C   UNL A   1      38.465  31.052  30.783  1.00  0.00     0.049 A 
ATOM     36  N   UNL A   1      40.263  28.942  29.495  1.00  0.00    -0.248 NA
ATOM     37  C   UNL A   1      38.997  29.227  27.551  1.00  0.00     0.031 C 
ATOM     38  C   UNL A   1      37.578  32.037  31.412  1.00  0.00     0.029 A 
ATOM     39  N   UNL A   1      39.486  30.903  31.681  1.00  0.00    -0.354 N 
ATOM     40  C   UNL A   1      40.771  28.130  28.489  1.00  0.00     0.074 A 
ATOM     41  C   UNL A   1      39.925  28.310  27.328  1.00  0.00     0.031 C 
ATOM     42  C   UNL A   1      38.081  32.382  32.605  1.00  0.00     0.029 A 
ATOM     43  C   UNL A   1      39.259  31.567  32.864  1.00  0.00     0.049 A 
ATOM     44  H   UNL A   1      40.297  30.375  31.499  1.00  0.00     0.167 HD
ATOM     45  C   UNL A   1      41.839  27.299  28.564  1.00  0.00     0.034 A 
ATOM     46  C   UNL A   1      39.882  31.452  34.051  1.00  0.00     0.034 A 
ATOM     47  C   UNL A   1      42.622  27.164  29.769  1.00  0.00     0.049 A 
ATOM     48  C   UNL A   1      41.014  30.467  34.146  1.00  0.00     0.074 A 
ATOM     49  C   UNL A   1      43.719  26.359  30.009  1.00  0.00     0.029 A 
ATOM     50  N   UNL A   1      42.373  27.861  30.952  1.00  0.00    -0.354 N 
ATOM     51  N   UNL A   1      41.468  29.645  33.223  1.00  0.00    -0.248 NA
ATOM     52  C   UNL A   1      41.714  30.385  35.429  1.00  0.00     0.031 C 
ATOM     53  C   UNL A   1      44.081  26.510  31.353  1.00  0.00     0.029 A 
ATOM     54  C   UNL A   1      43.275  27.482  31.931  1.00  0.00     0.049 A 
ATOM     55  H   UNL A   1      41.658  28.526  31.073  1.00  0.00     0.167 HD
ATOM     56  C   UNL A   1      42.533  28.969  33.806  1.00  0.00     0.074 A 
ATOM     57  C   UNL A   1      42.647  29.481  35.160  1.00  0.00     0.031 C 
ATOM     58  C   UNL A   1      43.349  28.022  33.273  1.00  0.00     0.034 A 
BRANCH  45  59
ATOM     59  C   UNL A   1      42.112  26.424  27.364  1.00  0.00     0.023 A 
ATOM     60  C   UNL A   1      41.608  25.114  27.264  1.00  0.00     0.031 A 
ATOM     61  C   UNL A   1      42.992  26.861  26.357  1.00  0.00     0.131 A 
ATOM     62  C   UNL A   1      42.083  24.253  26.261  1.00  0.00     0.055 A 
ATOM     63  C   UNL A   1      43.378  26.033  25.301  1.00  0.00     0.041 A 
ATOM     64  F   UNL A   1      43.533  28.088  26.406  1.00  0.00    -0.206 F 
ATOM     65  C   UNL A   1      42.944  24.711  25.262  1.00  0.00     0.022 A 
BRANCH  62  66
ATOM     66  S   UNL A   1      41.734  22.478  26.412  1.00  0.00     0.124 S 
ATOM     67  O   UNL A   1      42.236  22.194  27.755  1.00  0.00    -0.237 OA
ATOM     68  O   UNL A   1      40.287  22.426  26.246  1.00  0.00    -0.237 OA
ATOM     69  O   UNL A   1      42.511  21.882  25.327  1.00  0.00    -0.744 OA
ENDBRANCH  62  66
ENDBRANCH  45  59
BRANCH  46  70
ATOM     70  C   UNL A   1      39.390  32.224  35.226  1.00  0.00     0.023 A 
ATOM     71  C   UNL A   1      39.855  33.521  35.487  1.00  0.00     0.031 A 
ATOM     72  C   UNL A   1      38.413  31.689  36.088  1.00  0.00     0.131 A 
ATOM     73  C   UNL A   1      39.355  34.233  36.591  1.00  0.00     0.055 A 
ATOM     74  C   UNL A   1      37.884  32.419  37.154  1.00  0.00     0.041 A 
ATOM     75  F   UNL A   1      37.926  30.454  35.880  1.00  0.00    -0.206 F 
ATOM     76  C   UNL A   1      38.361  33.698  37.414  1.00  0.00     0.022 A 
BRANCH  73  77
ATOM     77  S   UNL A   1      40.060  35.863  36.964  1.00  0.00     0.124 S 
ATOM     78  O   UNL A   1      39.349  36.220  38.187  1.00  0.00    -0.237 OA
ATOM     79  O   UNL A   1      41.478  35.553  37.111  1.00  0.00    -0.237 OA
ATOM     80  O   UNL A   1      39.717  36.659  35.787  1.00  0.00    -0.744 OA
ENDBRANCH  73  77
ENDBRANCH  46  70
BRANCH  58  81
ATOM     81  C   UNL A   1      44.483  27.543  34.141  1.00  0.00     0.023 A 
ATOM     82  C   UNL A   1      44.376  26.396  34.944  1.00  0.00     0.031 A 
ATOM     83  C   UNL A   1      45.704  28.241  34.134  1.00  0.00     0.131 A 
ATOM     84  C   UNL A   1      45.461  26.005  35.742  1.00  0.00     0.055 A 
ATOM     85  C   UNL A   1      46.800  27.810  34.877  1.00  0.00     0.041 A 
ATOM     86  F   UNL A   1      45.853  29.347  33.387  1.00  0.00    -0.206 F 
ATOM     87  C   UNL A   1      46.679  26.691  35.695  1.00  0.00     0.022 A 
BRANCH  84  88
ATOM     88  S   UNL A   1      45.235  24.635  36.906  1.00  0.00     0.124 S 
ATOM     89  O   UNL A   1      44.706  23.587  36.039  1.00  0.00    -0.237 OA
ATOM     90  O   UNL A   1      46.589  24.424  37.409  1.00  0.00    -0.237 OA
ATOM     91  O   UNL A   1      44.287  25.169  37.883  1.00  0.00    -0.744 OA
ENDBRANCH  84  88
ENDBRANCH  58  81
ENDBRANCH  32  33
ENDBRANCH  25  27
ENDBRANCH  24  25
ENDBRANCH  23  24
ENDBRANCH   1  23
TORSDOF 21
ENDMDL
MODEL 2
REMARK VINA RESULT:     -10.3      1.827      2.330
REMARK SMILES CCC(CC)(NC(=O)N(CC(F)(F)F)C(C)C)C(=O)OCCOC(=O)c1ccc(-c2c3nc(c(-c4cc(S(=O)(=O)[O-])ccc4F)c4ccc([nH]4)c(-c4cc(S(=O)(=O)[O-])ccc4F)c4nc(c(-c5cc(S(=O)(=O)[O-])ccc5F)c5ccc2[nH]5)C=C4)C=C3)cc1
REMARK SMILES IDX 21 1 20 2 18 3 19 4 3 5 2 6 1 7 4 8 5 9 6 10 7 11 8 13 9 14
REMARK SMILES IDX 10 15 11 16 12 17 13 18 14 19 15 20 16 21 17 22 22 23 23 24
REMARK SMILES IDX 24 25 25 26 26 27 27 28 88 29 28 30 87 31 29 32 30 33 31 34
REMARK SMILES IDX 81 35 32 36 86 37 80 38 82 39 33 40 85 41 79 42 78 43 34 45
REMARK SMILES IDX 66 46 46 47 65 48 47 49 50 50 64 51 83 52 48 53 49 54 63 56
REMARK SMILES IDX 84 57 51 58 35 59 36 60 44 61 37 62 43 63 45 64 42 65 38 66
REMARK SMILES IDX 39 67 40 68 41 69 67 70 68 71 76 72 69 73 75 74 77 75 74 76
REMARK SMILES IDX 70 77 71 78 72 79 73 80 52 81 53 82 61 83 54 84 60 85 62 86
REMARK SMILES IDX 59 87 55 88 56 89 57 90 58 91
REMARK H PARENT 6 12 82 44 50 55
REMARK Flexibility Score: inf
ROOT
ATOM      1  C   UNL A   1      31.390  29.492  24.590  1.00  0.00     0.274 C 
ENDROOT
BRANCH   1   2
ATOM      2  O   UNL A   1      31.124  28.081  24.388  1.00  0.00    -0.460 OA
BRANCH   2   3
ATOM      3  C   UNL A   1      31.911  27.357  23.570  1.00  0.00     0.332 C 
ATOM      4  O   UNL A   1      32.259  27.772  22.470  1.00  0.00    -0.249 OA
BRANCH   3   5
ATOM      5  C   UNL A   1      32.207  25.900  24.103  1.00  0.00     0.139 C 
BRANCH   5   6
ATOM      6  C   UNL A   1      30.815  25.155  24.274  1.00  0.00     0.037 C 
ATOM      7  C   UNL A   1      30.087  25.228  25.613  1.00  0.00     0.007 C 
ENDBRANCH   5   6
BRANCH   5   8
ATOM      8  C   UNL A   1      32.873  26.089  25.496  1.00  0.00     0.037 C 
ATOM      9  C   UNL A   1      34.112  26.975  25.528  1.00  0.00     0.007 C 
ENDBRANCH   5   8
BRANCH   5  10
ATOM     10  N   UNL A   1      33.016  24.919  23.250  1.00  0.00    -0.322 N 
ATOM     11  C   UNL A   1      33.679  23.756  23.147  1.00  0.00     0.318 C 
ATOM     12  H   UNL A   1      33.083  25.338  22.362  1.00  0.00     0.166 HD
ATOM     13  O   UNL A   1      33.962  23.452  21.982  1.00  0.00    -0.249 OA
BRANCH  11  14
ATOM     14  N   UNL A   1      34.106  22.993  24.190  1.00  0.00    -0.313 N 
BRANCH  14  15
ATOM     15  C   UNL A   1      35.402  23.160  24.845  1.00  0.00     0.237 C 
BRANCH  15  16
ATOM     16  C   UNL A   1      36.686  22.663  24.194  1.00  0.00     0.406 C 
ATOM     17  F   UNL A   1      37.781  23.033  24.896  1.00  0.00    -0.169 F 
ATOM     18  F   UNL A   1      36.680  21.304  24.183  1.00  0.00    -0.169 F 
ATOM     19  F   UNL A   1      36.830  23.070  22.919  1.00  0.00    -0.169 F 
ENDBRANCH  15  16
ENDBRANCH  14  15
BRANCH  14  20
ATOM     20  C   UNL A   1      33.267  21.852  24.671  1.00  0.00     0.081 C 
ATOM     21  C   UNL A   1      32.585  22.113  26.014  1.00  0.00     0.031 C 
ATOM     22  C   UNL A   1      32.199  21.307  23.700  1.00  0.00     0.031 C 
ENDBRANCH  14  20
ENDBRANCH  11  14
ENDBRANCH   5  10
ENDBRANCH   3   5
ENDBRANCH   2   3
ENDBRANCH   1   2
BRANCH   1  23
ATOM     23  C   UNL A   1      31.733  29.711  26.069  1.00  0.00     0.275 C 
BRANCH  23  24
ATOM     24  O   UNL A   1      33.089  30.165  26.173  1.00  0.00    -0.458 OA
BRANCH  24  25
ATOM     25  C   UNL A   1      33.233  31.270  26.936  1.00  0.00     0.338 C 
ATOM     26  O   UNL A   1      32.393  32.117  27.190  1.00  0.00    -0.246 OA
BRANCH  25  27
ATOM     27  C   UNL A   1      34.484  31.155  27.662  1.00  0.00     0.060 A 
ATOM     28  C   UNL A   1      34.856  29.880  28.083  1.00  0.00     0.016 A 
ATOM     29  C   UNL A   1      35.274  32.264  27.915  1.00  0.00     0.016 A 
ATOM     30  C   UNL A   1      36.015  29.688  28.801  1.00  0.00     0.010 A 
ATOM     31  C   UNL A   1      36.482  32.066  28.569  1.00  0.00     0.010 A 
ATOM     32  C   UNL A   1      36.856  30.777  29.003  1.00  0.00    -0.014 A 
BRANCH  32  33
ATOM     33  C   UNL A   1      38.153  30.585  29.668  1.00  0.00     0.031 A 
ATOM     34  C   UNL A   1      39.140  29.673  29.029  1.00  0.00     0.074 A 
ATOM     35  C   UNL A   1      38.371  31.175  30.855  1.00  0.00     0.049 A 
ATOM     36  N   UNL A   1      40.163  29.066  29.556  1.00  0.00    -0.248 NA
ATOM     37  C   UNL A   1      38.914  29.383  27.606  1.00  0.00     0.031 C 
ATOM     38  C   UNL A   1      37.488  32.160  31.488  1.00  0.00     0.029 A 
ATOM     39  N   UNL A   1      39.384  31.007  31.759  1.00  0.00    -0.354 N 
ATOM     40  C   UNL A   1      40.672  28.261  28.544  1.00  0.00     0.074 A 
ATOM     41  C   UNL A   1      39.836  28.462  27.379  1.00  0.00     0.031 C 
ATOM     42  C   UNL A   1      37.984  32.487  32.689  1.00  0.00     0.029 A 
ATOM     43  C   UNL A   1      39.154  31.659  32.947  1.00  0.00     0.049 A 
ATOM     44  H   UNL A   1      40.193  30.476  31.576  1.00  0.00     0.167 HD
ATOM     45  C   UNL A   1      41.732  27.421  28.618  1.00  0.00     0.034 A 
ATOM     46  C   UNL A   1      39.767  31.526  34.138  1.00  0.00     0.034 A 
ATOM     47  C   UNL A   1      42.506  27.266  29.827  1.00  0.00     0.049 A 
ATOM     48  C   UNL A   1      40.891  30.531  34.229  1.00  0.00     0.074 A 
ATOM     49  C   UNL A   1      43.594  26.450  30.066  1.00  0.00     0.029 A 
ATOM     50  N   UNL A   1      42.253  27.951  31.016  1.00  0.00    -0.354 N 
ATOM     51  N   UNL A   1      41.345  29.716  33.301  1.00  0.00    -0.248 NA
ATOM     52  C   UNL A   1      41.580  30.429  35.517  1.00  0.00     0.031 C 
ATOM     53  C   UNL A   1      43.947  26.583  31.414  1.00  0.00     0.029 A 
ATOM     54  C   UNL A   1      43.145  27.554  31.997  1.00  0.00     0.049 A 
ATOM     55  H   UNL A   1      41.542  28.621  31.140  1.00  0.00     0.167 HD
ATOM     56  C   UNL A   1      42.400  29.026  33.883  1.00  0.00     0.074 A 
ATOM     57  C   UNL A   1      42.508  29.521  35.245  1.00  0.00     0.031 C 
ATOM     58  C   UNL A   1      43.213  28.078  33.346  1.00  0.00     0.034 A 
BRANCH  45  59
ATOM     59  C   UNL A   1      42.008  26.558  27.409  1.00  0.00     0.023 A 
ATOM     60  C   UNL A   1      41.578  25.220  27.334  1.00  0.00     0.031 A 
ATOM     61  C   UNL A   1      42.819  27.040  26.367  1.00  0.00     0.131 A 
ATOM     62  C   UNL A   1      42.062  24.384  26.314  1.00  0.00     0.055 A 
ATOM     63  C   UNL A   1      43.211  26.231  25.298  1.00  0.00     0.041 A 
ATOM     64  F   UNL A   1      43.289  28.298  26.391  1.00  0.00    -0.206 F 
ATOM     65  C   UNL A   1      42.853  24.886  25.280  1.00  0.00     0.022 A 
BRANCH  62  66
ATOM     66  S   UNL A   1      41.823  22.592  26.484  1.00  0.00     0.124 S 
ATOM     67  O   UNL A   1      40.373  22.503  26.645  1.00  0.00    -0.237 OA
ATOM     68  O   UNL A   1      42.361  22.081  25.229  1.00  0.00    -0.237 OA
ATOM     69  O   UNL A   1      42.596  22.256  27.679  1.00  0.00    -0.744 OA
ENDBRANCH  62  66
ENDBRANCH  45  59
BRANCH  46  70
ATOM     70  C   UNL A   1      39.272  32.289  35.318  1.00  0.00     0.023 A 
ATOM     71  C   UNL A   1      38.590  31.648  36.362  1.00  0.00     0.031 A 
ATOM     72  C   UNL A   1      39.512  33.672  35.438  1.00  0.00     0.131 A 
ATOM     73  C   UNL A   1      38.156  32.391  37.473  1.00  0.00     0.055 A 
ATOM     74  C   UNL A   1      39.121  34.396  36.566  1.00  0.00     0.041 A 
ATOM     75  F   UNL A   1      40.168  34.335  34.472  1.00  0.00    -0.206 F 
ATOM     76  C   UNL A   1      38.433  33.755  37.590  1.00  0.00     0.022 A 
BRANCH  73  77
ATOM     77  S   UNL A   1      37.179  31.552  38.750  1.00  0.00     0.124 S 
ATOM     78  O   UNL A   1      35.968  32.365  38.779  1.00  0.00    -0.237 OA
ATOM     79  O   UNL A   1      37.041  30.211  38.194  1.00  0.00    -0.237 OA
ATOM     80  O   UNL A   1      38.023  31.647  39.940  1.00  0.00    -0.744 OA
ENDBRANCH  73  77
ENDBRANCH  46  70
BRANCH  58  81
ATOM     81  C   UNL A   1      44.337  27.580  34.217  1.00  0.00     0.023 A 
ATOM     82  C   UNL A   1      44.217  26.420  34.999  1.00  0.00     0.031 A 
ATOM     83  C   UNL A   1      45.560  28.274  34.233  1.00  0.00     0.131 A 
ATOM     84  C   UNL A   1      45.293  26.012  35.801  1.00  0.00     0.055 A 
ATOM     85  C   UNL A   1      46.647  27.826  34.980  1.00  0.00     0.041 A 
ATOM     86  F   UNL A   1      45.720  29.392  33.507  1.00  0.00    -0.206 F 
ATOM     87  C   UNL A   1      46.514  26.693  35.777  1.00  0.00     0.022 A 
BRANCH  84  88
ATOM     88  S   UNL A   1      45.051  24.623  36.939  1.00  0.00     0.124 S 
ATOM     89  O   UNL A   1      44.490  23.605  36.057  1.00  0.00    -0.237 OA
ATOM     90  O   UNL A   1      46.405  24.373  37.422  1.00  0.00    -0.237 OA
ATOM     91  O   UNL A   1      44.126  25.156  37.938  1.00  0.00    -0.744 OA
ENDBRANCH  84  88
ENDBRANCH  58  81
ENDBRANCH  32  33
ENDBRANCH  25  27
ENDBRANCH  24  25
ENDBRANCH  23  24
ENDBRANCH   1  23
TORSDOF 21
ENDMDL
MODEL 3
REMARK VINA RESULT:     -10.1      1.782      2.302
REMARK SMILES CCC(CC)(NC(=O)N(CC(F)(F)F)C(C)C)C(=O)OCCOC(=O)c1ccc(-c2c3nc(c(-c4cc(S(=O)(=O)[O-])ccc4F)c4ccc([nH]4)c(-c4cc(S(=O)(=O)[O-])ccc4F)c4nc(c(-c5cc(S(=O)(=O)[O-])ccc5F)c5ccc2[nH]5)C=C4)C=C3)cc1
REMARK SMILES IDX 21 1 20 2 18 3 19 4 3 5 2 6 1 7 4 8 5 9 6 10 7 11 8 13 9 14
REMARK SMILES IDX 10 15 11 16 12 17 13 18 14 19 15 20 16 21 17 22 22 23 23 24
REMARK SMILES IDX 24 25 25 26 26 27 27 28 88 29 28 30 87 31 29 32 30 33 31 34
REMARK SMILES IDX 81 35 32 36 86 37 80 38 82 39 33 40 85 41 79 42 78 43 34 45
REMARK SMILES IDX 66 46 46 47 65 48 47 49 50 50 64 51 83 52 48 53 49 54 63 56
REMARK SMILES IDX 84 57 51 58 35 59 36 60 44 61 37 62 43 63 45 64 42 65 38 66
REMARK SMILES IDX 39 67 40 68 41 69 67 70 68 71 76 72 69 73 75 74 77 75 74 76
REMARK SMILES IDX 70 77 71 78 72 79 73 80 52 81 53 82 61 83 54 84 60 85 62 86
REMARK SMILES IDX 59 87 55 88 56 89 57 90 58 91
REMARK H PARENT 6 12 82 44 50 55
REMARK Flexibility Score: inf
ROOT
ATOM      1  C   UNL A   1      31.363  28.765  26.747  1.00  0.00     0.274 C 
ENDROOT
BRANCH   1   2
ATOM      2  O   UNL A   1      31.881  27.517  26.221  1.00  0.00    -0.460 OA
BRANCH   2   3
ATOM      3  C   UNL A   1      31.868  27.288  24.895  1.00  0.00     0.332 C 
ATOM      4  O   UNL A   1      30.845  27.392  24.228  1.00  0.00    -0.249 OA
BRANCH   3   5
ATOM      5  C   UNL A   1      33.241  26.745  24.333  1.00  0.00     0.139 C 
BRANCH   5   6
ATOM      6  C   UNL A   1      34.027  26.075  25.540  1.00  0.00     0.037 C 
ATOM      7  C   UNL A   1      35.040  24.971  25.251  1.00  0.00     0.007 C 
ENDBRANCH   5   6
BRANCH   5   8
ATOM      8  C   UNL A   1      34.017  27.999  23.837  1.00  0.00     0.037 C 
ATOM      9  C   UNL A   1      33.789  28.391  22.382  1.00  0.00     0.007 C 
ENDBRANCH   5   8
BRANCH   5  10
ATOM     10  N   UNL A   1      33.256  25.648  23.266  1.00  0.00    -0.322 N 
ATOM     11  C   UNL A   1      32.779  24.479  22.807  1.00  0.00     0.318 C 
ATOM     12  H   UNL A   1      33.932  25.931  22.609  1.00  0.00     0.166 HD
ATOM     13  O   UNL A   1      33.130  24.226  21.648  1.00  0.00    -0.249 OA
BRANCH  11  14
ATOM     14  N   UNL A   1      32.057  23.580  23.530  1.00  0.00    -0.313 N 
BRANCH  14  15
ATOM     15  C   UNL A   1      30.812  23.904  24.224  1.00  0.00     0.237 C 
BRANCH  15  16
ATOM     16  C   UNL A   1      30.714  23.838  25.743  1.00  0.00     0.406 C 
ATOM     17  F   UNL A   1      29.881  24.782  26.234  1.00  0.00    -0.169 F 
ATOM     18  F   UNL A   1      30.186  22.637  26.101  1.00  0.00    -0.169 F 
ATOM     19  F   UNL A   1      31.906  23.947  26.359  1.00  0.00    -0.169 F 
ENDBRANCH  15  16
ENDBRANCH  14  15
BRANCH  14  20
ATOM     20  C   UNL A   1      32.574  22.189  23.717  1.00  0.00     0.081 C 
ATOM     21  C   UNL A   1      32.089  21.203  22.655  1.00  0.00     0.031 C 
ATOM     22  C   UNL A   1      34.101  22.020  23.853  1.00  0.00     0.031 C 
ENDBRANCH  14  20
ENDBRANCH  11  14
ENDBRANCH   5  10
ENDBRANCH   3   5
ENDBRANCH   2   3
ENDBRANCH   1   2
BRANCH   1  23
ATOM     23  C   UNL A   1      31.883  29.910  25.869  1.00  0.00     0.275 C 
BRANCH  23  24
ATOM     24  O   UNL A   1      33.279  30.104  26.129  1.00  0.00    -0.458 OA
BRANCH  24  25
ATOM     25  C   UNL A   1      33.536  31.120  26.981  1.00  0.00     0.338 C 
ATOM     26  O   UNL A   1      32.758  31.966  27.391  1.00  0.00    -0.246 OA
BRANCH  25  27
ATOM     27  C   UNL A   1      34.837  30.886  27.580  1.00  0.00     0.060 A 
ATOM     28  C   UNL A   1      35.634  32.004  27.817  1.00  0.00     0.016 A 
ATOM     29  C   UNL A   1      35.260  29.608  27.906  1.00  0.00     0.016 A 
ATOM     30  C   UNL A   1      36.892  31.867  28.358  1.00  0.00     0.010 A 
ATOM     31  C   UNL A   1      36.495  29.471  28.524  1.00  0.00     0.010 A 
ATOM     32  C   UNL A   1      37.306  30.601  28.758  1.00  0.00    -0.014 A 
BRANCH  32  33
ATOM     33  C   UNL A   1      38.598  30.435  29.441  1.00  0.00     0.031 A 
ATOM     34  C   UNL A   1      39.589  29.497  28.846  1.00  0.00     0.074 A 
ATOM     35  C   UNL A   1      38.807  31.071  30.605  1.00  0.00     0.049 A 
ATOM     36  N   UNL A   1      40.607  28.911  29.404  1.00  0.00    -0.248 NA
ATOM     37  C   UNL A   1      39.373  29.152  27.434  1.00  0.00     0.031 C 
ATOM     38  C   UNL A   1      37.919  32.080  31.192  1.00  0.00     0.029 A 
ATOM     39  N   UNL A   1      39.813  30.938  31.523  1.00  0.00    -0.354 N 
ATOM     40  C   UNL A   1      41.123  28.067  28.429  1.00  0.00     0.074 A 
ATOM     41  C   UNL A   1      40.296  28.222  27.251  1.00  0.00     0.031 C 
ATOM     42  C   UNL A   1      38.407  32.454  32.383  1.00  0.00     0.029 A 
ATOM     43  C   UNL A   1      39.574  31.636  32.683  1.00  0.00     0.049 A 
ATOM     44  H   UNL A   1      40.622  30.399  31.368  1.00  0.00     0.167 HD
ATOM     45  C   UNL A   1      42.182  27.229  28.544  1.00  0.00     0.034 A 
ATOM     46  C   UNL A   1      40.177  31.549  33.882  1.00  0.00     0.034 A 
ATOM     47  C   UNL A   1      42.945  27.122  29.764  1.00  0.00     0.049 A 
ATOM     48  C   UNL A   1      41.299  30.558  34.022  1.00  0.00     0.074 A 
ATOM     49  C   UNL A   1      44.031  26.315  30.044  1.00  0.00     0.029 A 
ATOM     50  N   UNL A   1      42.684  27.853  30.923  1.00  0.00    -0.354 N 
ATOM     51  N   UNL A   1      41.760  29.707  33.130  1.00  0.00    -0.248 NA
ATOM     52  C   UNL A   1      41.978  30.506  35.318  1.00  0.00     0.031 C 
ATOM     53  C   UNL A   1      44.374  26.500  31.389  1.00  0.00     0.029 A 
ATOM     54  C   UNL A   1      43.568  27.494  31.927  1.00  0.00     0.049 A 
ATOM     55  H   UNL A   1      41.973  28.527  31.015  1.00  0.00     0.167 HD
ATOM     56  C   UNL A   1      42.810  29.039  33.748  1.00  0.00     0.074 A 
ATOM     57  C   UNL A   1      42.907  29.588  35.089  1.00  0.00     0.031 C 
ATOM     58  C   UNL A   1      43.626  28.071  33.254  1.00  0.00     0.034 A 
BRANCH  45  59
ATOM     59  C   UNL A   1      42.466  26.319  27.373  1.00  0.00     0.023 A 
ATOM     60  C   UNL A   1      41.891  25.039  27.265  1.00  0.00     0.031 A 
ATOM     61  C   UNL A   1      43.423  26.686  26.409  1.00  0.00     0.131 A 
ATOM     62  C   UNL A   1      42.367  24.135  26.301  1.00  0.00     0.055 A 
ATOM     63  C   UNL A   1      43.815  25.818  25.387  1.00  0.00     0.041 A 
ATOM     64  F   UNL A   1      44.033  27.880  26.470  1.00  0.00    -0.206 F 
ATOM     65  C   UNL A   1      43.305  24.524  25.344  1.00  0.00     0.022 A 
BRANCH  62  66
ATOM     66  S   UNL A   1      41.905  22.386  26.459  1.00  0.00     0.124 S 
ATOM     67  O   UNL A   1      40.459  22.446  26.255  1.00  0.00    -0.237 OA
ATOM     68  O   UNL A   1      42.676  21.759  25.393  1.00  0.00    -0.237 OA
ATOM     69  O   UNL A   1      42.320  22.044  27.818  1.00  0.00    -0.744 OA
ENDBRANCH  62  66
ENDBRANCH  45  59
BRANCH  46  70
ATOM     70  C   UNL A   1      39.674  32.358  35.028  1.00  0.00     0.023 A 
ATOM     71  C   UNL A   1      38.939  31.768  36.065  1.00  0.00     0.031 A 
ATOM     72  C   UNL A   1      39.958  33.735  35.122  1.00  0.00     0.131 A 
ATOM     73  C   UNL A   1      38.497  32.553  37.144  1.00  0.00     0.055 A 
ATOM     74  C   UNL A   1      39.559  34.500  36.219  1.00  0.00     0.041 A 
ATOM     75  F   UNL A   1      40.666  34.351  34.161  1.00  0.00    -0.206 F 
ATOM     76  C   UNL A   1      38.818  33.910  37.237  1.00  0.00     0.022 A 
BRANCH  73  77
ATOM     77  S   UNL A   1      37.454  31.781  38.410  1.00  0.00     0.124 S 
ATOM     78  O   UNL A   1      37.226  30.457  37.842  1.00  0.00    -0.237 OA
ATOM     79  O   UNL A   1      38.315  31.836  39.587  1.00  0.00    -0.237 OA
ATOM     80  O   UNL A   1      36.280  32.650  38.459  1.00  0.00    -0.744 OA
ENDBRANCH  73  77
ENDBRANCH  46  70
BRANCH  58  81
ATOM     81  C   UNL A   1      44.742  27.606  34.153  1.00  0.00     0.023 A 
ATOM     82  C   UNL A   1      44.627  26.460  34.955  1.00  0.00     0.031 A 
ATOM     83  C   UNL A   1      45.955  28.319  34.176  1.00  0.00     0.131 A 
ATOM     84  C   UNL A   1      45.695  26.083  35.782  1.00  0.00     0.055 A 
ATOM     85  C   UNL A   1      47.035  27.902  34.949  1.00  0.00     0.041 A 
ATOM     86  F   UNL A   1      46.110  29.425  33.431  1.00  0.00    -0.206 F 
ATOM     87  C   UNL A   1      46.906  26.783  35.766  1.00  0.00     0.022 A 
BRANCH  84  88
ATOM     88  S   UNL A   1      45.455  24.713  36.943  1.00  0.00     0.124 S 
ATOM     89  O   UNL A   1      46.612  23.870  36.657  1.00  0.00    -0.237 OA
ATOM     90  O   UNL A   1      45.464  25.391  38.235  1.00  0.00    -0.237 OA
ATOM     91  O   UNL A   1      44.165  24.150  36.547  1.00  0.00    -0.744 OA
ENDBRANCH  84  88
ENDBRANCH  58  81
ENDBRANCH  32  33
ENDBRANCH  25  27
ENDBRANCH  24  25
ENDBRANCH  23  24
ENDBRANCH   1  23
TORSDOF 21
ENDMDL
