MODEL 1
REMARK VINA RESULT:     -12.3      0.000      0.000
REMARK SMILES Cc1cc(C)cc(-c2ccc([C@@H](C)C(=O)OCCOC(=O)c3ccc(-c4c5nc(c(-c6cc(S(=O)(=O)[O-])ccc6F)c6ccc([nH]6)c(-c6cc(S(=O)(=O)[O-])ccc6F)c6nc(c(-c7cc(S(=O)(=O)[O-])ccc7F)c7ccc4[nH]7)C=C6)C=C5)cc3)cc2F)c1
REMARK SMILES IDX 18 1 17 2 16 3 14 4 15 5 12 6 13 7 11 8 8 9 9 10 86 11 10 12
REMARK SMILES IDX 85 13 87 14 7 15 1 16 2 17 3 18 88 19 4 20 5 21 6 22 19 23
REMARK SMILES IDX 20 24 21 25 22 26 23 27 84 28 24 29 83 30 25 31 26 32 27 33
REMARK SMILES IDX 77 34 28 35 82 36 76 37 78 38 29 39 81 40 75 41 74 42 30 44
REMARK SMILES IDX 62 45 42 46 61 47 43 48 46 49 60 50 79 51 44 52 45 53 59 55
REMARK SMILES IDX 80 56 47 57 31 58 32 59 40 60 33 61 39 62 41 63 38 64 34 65
REMARK SMILES IDX 35 66 36 67 37 68 63 69 64 70 72 71 65 72 71 73 73 74 70 75
REMARK SMILES IDX 66 76 67 77 68 78 69 79 48 80 49 81 57 82 50 83 56 84 58 85
REMARK SMILES IDX 55 86 51 87 52 88 53 89 54 90
REMARK H PARENT 78 43 46 54
REMARK Flexibility Score: inf
ROOT
ATOM      1  C   UNL A   1      37.215  20.083  25.030  1.00  0.00     0.275 C 
ENDROOT
BRANCH   1   2
ATOM      2  C   UNL A   1      35.694  20.251  25.010  1.00  0.00     0.274 C 
BRANCH   2   3
ATOM      3  O   UNL A   1      35.251  21.159  26.037  1.00  0.00    -0.462 OA
BRANCH   3   4
ATOM      4  C   UNL A   1      34.225  21.990  25.717  1.00  0.00     0.313 C 
ATOM      5  O   UNL A   1      33.634  21.967  24.641  1.00  0.00    -0.252 OA
BRANCH   4   6
ATOM      6  C   UNL A   1      33.904  23.020  26.795  1.00  0.00     0.126 C 
ATOM      7  C   UNL A   1      33.115  22.352  27.921  1.00  0.00     0.025 C 
BRANCH   6   8
ATOM      8  C   UNL A   1      33.251  24.309  26.318  1.00  0.00    -0.031 A 
ATOM      9  C   UNL A   1      32.092  26.768  25.466  1.00  0.00     0.017 A 
ATOM     10  C   UNL A   1      31.327  25.790  26.123  1.00  0.00     0.012 A 
ATOM     11  C   UNL A   1      33.439  26.476  25.225  1.00  0.00     0.131 A 
ATOM     12  C   UNL A   1      31.896  24.582  26.544  1.00  0.00     0.005 A 
ATOM     13  C   UNL A   1      34.015  25.277  25.647  1.00  0.00     0.044 A 
ATOM     14  F   UNL A   1      34.227  27.372  24.610  1.00  0.00    -0.206 F 
BRANCH   9  15
ATOM     15  C   UNL A   1      31.494  28.057  25.090  1.00  0.00    -0.015 A 
ATOM     16  C   UNL A   1      31.366  31.682  26.294  1.00  0.00     0.044 C 
ATOM     17  C   UNL A   1      31.138  30.445  25.475  1.00  0.00    -0.050 A 
ATOM     18  C   UNL A   1      30.340  30.507  24.326  1.00  0.00     0.006 A 
ATOM     19  C   UNL A   1      31.705  29.218  25.851  1.00  0.00     0.012 A 
ATOM     20  C   UNL A   1      30.101  29.363  23.558  1.00  0.00    -0.050 A 
ATOM     21  C   UNL A   1      29.230  29.440  22.340  1.00  0.00     0.044 C 
ATOM     22  C   UNL A   1      30.683  28.151  23.945  1.00  0.00     0.012 A 
ENDBRANCH   9  15
ENDBRANCH   6   8
ENDBRANCH   4   6
ENDBRANCH   3   4
ENDBRANCH   2   3
ENDBRANCH   1   2
BRANCH   1  23
ATOM     23  O   UNL A   1      37.867  21.262  25.534  1.00  0.00    -0.458 OA
BRANCH  23  24
ATOM     24  C   UNL A   1      39.077  21.042  26.101  1.00  0.00     0.338 C 
ATOM     25  O   UNL A   1      39.704  19.997  26.113  1.00  0.00    -0.246 OA
BRANCH  24  26
ATOM     26  C   UNL A   1      39.620  22.307  26.614  1.00  0.00     0.060 A 
ATOM     27  C   UNL A   1      39.045  23.495  26.159  1.00  0.00     0.016 A 
ATOM     28  C   UNL A   1      40.737  22.335  27.451  1.00  0.00     0.016 A 
ATOM     29  C   UNL A   1      39.595  24.721  26.516  1.00  0.00     0.010 A 
ATOM     30  C   UNL A   1      41.284  23.570  27.819  1.00  0.00     0.010 A 
ATOM     31  C   UNL A   1      40.727  24.769  27.339  1.00  0.00    -0.014 A 
BRANCH  31  32
ATOM     32  C   UNL A   1      41.347  26.083  27.637  1.00  0.00     0.031 A 
ATOM     33  C   UNL A   1      42.704  26.411  27.081  1.00  0.00     0.074 A 
ATOM     34  C   UNL A   1      40.664  27.000  28.347  1.00  0.00     0.049 A 
ATOM     35  N   UNL A   1      43.433  27.481  27.260  1.00  0.00    -0.248 NA
ATOM     36  C   UNL A   1      43.319  25.401  26.204  1.00  0.00     0.031 C 
ATOM     37  C   UNL A   1      39.312  26.818  28.878  1.00  0.00     0.029 A 
ATOM     38  N   UNL A   1      41.006  28.273  28.729  1.00  0.00    -0.354 N 
ATOM     39  C   UNL A   1      44.598  27.273  26.531  1.00  0.00     0.074 A 
ATOM     40  C   UNL A   1      44.486  25.965  25.921  1.00  0.00     0.031 C 
ATOM     41  C   UNL A   1      38.930  27.948  29.496  1.00  0.00     0.029 A 
ATOM     42  C   UNL A   1      40.025  28.913  29.451  1.00  0.00     0.049 A 
ATOM     43  H   UNL A   1      41.870  28.689  28.507  1.00  0.00     0.167 HD
ATOM     44  C   UNL A   1      45.660  28.101  26.383  1.00  0.00     0.034 A 
ATOM     45  C   UNL A   1      40.019  30.131  30.029  1.00  0.00     0.034 A 
ATOM     46  C   UNL A   1      45.754  29.406  26.985  1.00  0.00     0.049 A 
ATOM     47  C   UNL A   1      41.244  31.000  29.920  1.00  0.00     0.074 A 
ATOM     48  C   UNL A   1      46.790  30.321  26.902  1.00  0.00     0.029 A 
ATOM     49  N   UNL A   1      44.775  29.987  27.781  1.00  0.00    -0.354 N 
ATOM     50  N   UNL A   1      42.367  30.760  29.285  1.00  0.00    -0.248 NA
ATOM     51  C   UNL A   1      41.208  32.294  30.614  1.00  0.00     0.031 C 
ATOM     52  C   UNL A   1      46.460  31.431  27.687  1.00  0.00     0.029 A 
ATOM     53  C   UNL A   1      45.194  31.234  28.214  1.00  0.00     0.049 A 
ATOM     54  H   UNL A   1      43.911  29.571  28.004  1.00  0.00     0.167 HD
ATOM     55  C   UNL A   1      43.167  31.877  29.495  1.00  0.00     0.074 A 
ATOM     56  C   UNL A   1      42.399  32.794  30.312  1.00  0.00     0.031 C 
ATOM     57  C   UNL A   1      44.422  32.124  29.046  1.00  0.00     0.034 A 
BRANCH  44  58
ATOM     58  C   UNL A   1      46.829  27.597  25.580  1.00  0.00     0.023 A 
ATOM     59  C   UNL A   1      47.029  27.977  24.243  1.00  0.00     0.031 A 
ATOM     60  C   UNL A   1      47.762  26.725  26.171  1.00  0.00     0.131 A 
ATOM     61  C   UNL A   1      48.118  27.457  23.528  1.00  0.00     0.055 A 
ATOM     62  C   UNL A   1      48.873  26.256  25.472  1.00  0.00     0.041 A 
ATOM     63  F   UNL A   1      47.604  26.317  27.440  1.00  0.00    -0.206 F 
ATOM     64  C   UNL A   1      49.053  26.616  24.140  1.00  0.00     0.022 A 
BRANCH  61  65
ATOM     65  S   UNL A   1      48.265  27.834  21.760  1.00  0.00     0.124 S 
ATOM     66  O   UNL A   1      46.996  28.507  21.498  1.00  0.00    -0.237 OA
ATOM     67  O   UNL A   1      49.456  28.674  21.711  1.00  0.00    -0.237 OA
ATOM     68  O   UNL A   1      48.406  26.519  21.140  1.00  0.00    -0.744 OA
ENDBRANCH  61  65
ENDBRANCH  44  58
BRANCH  45  69
ATOM     69  C   UNL A   1      38.832  30.576  30.807  1.00  0.00     0.023 A 
ATOM     70  C   UNL A   1      37.758  31.227  30.183  1.00  0.00     0.031 A 
ATOM     71  C   UNL A   1      38.758  30.347  32.192  1.00  0.00     0.131 A 
ATOM     72  C   UNL A   1      36.656  31.641  30.950  1.00  0.00     0.055 A 
ATOM     73  C   UNL A   1      37.646  30.729  32.944  1.00  0.00     0.041 A 
ATOM     74  F   UNL A   1      39.761  29.723  32.831  1.00  0.00    -0.206 F 
ATOM     75  C   UNL A   1      36.588  31.384  32.322  1.00  0.00     0.022 A 
BRANCH  72  76
ATOM     76  S   UNL A   1      35.308  32.538  30.131  1.00  0.00     0.124 S 
ATOM     77  O   UNL A   1      34.363  32.719  31.227  1.00  0.00    -0.237 OA
ATOM     78  O   UNL A   1      35.983  33.743  29.660  1.00  0.00    -0.237 OA
ATOM     79  O   UNL A   1      34.878  31.619  29.080  1.00  0.00    -0.744 OA
ENDBRANCH  72  76
ENDBRANCH  45  69
BRANCH  57  80
ATOM     80  C   UNL A   1      45.037  33.448  29.406  1.00  0.00     0.023 A 
ATOM     81  C   UNL A   1      44.873  34.578  28.590  1.00  0.00     0.031 A 
ATOM     82  C   UNL A   1      45.751  33.588  30.609  1.00  0.00     0.131 A 
ATOM     83  C   UNL A   1      45.434  35.803  28.980  1.00  0.00     0.055 A 
ATOM     84  C   UNL A   1      46.276  34.815  31.010  1.00  0.00     0.041 A 
ATOM     85  F   UNL A   1      45.929  32.534  31.423  1.00  0.00    -0.206 F 
ATOM     86  C   UNL A   1      46.120  35.932  30.191  1.00  0.00     0.022 A 
BRANCH  83  87
ATOM     87  S   UNL A   1      45.261  37.237  27.881  1.00  0.00     0.124 S 
ATOM     88  O   UNL A   1      46.340  37.012  26.923  1.00  0.00    -0.237 OA
ATOM     89  O   UNL A   1      43.906  37.082  27.364  1.00  0.00    -0.237 OA
ATOM     90  O   UNL A   1      45.453  38.377  28.776  1.00  0.00    -0.744 OA
ENDBRANCH  83  87
ENDBRANCH  57  80
ENDBRANCH  31  32
ENDBRANCH  24  26
ENDBRANCH  23  24
ENDBRANCH   1  23
TORSDOF 16
ENDMDL
MODEL 2
REMARK VINA RESULT:     -12.3      0.579      7.608
REMARK SMILES Cc1cc(C)cc(-c2ccc([C@@H](C)C(=O)OCCOC(=O)c3ccc(-c4c5nc(c(-c6cc(S(=O)(=O)[O-])ccc6F)c6ccc([nH]6)c(-c6cc(S(=O)(=O)[O-])ccc6F)c6nc(c(-c7cc(S(=O)(=O)[O-])ccc7F)c7ccc4[nH]7)C=C6)C=C5)cc3)cc2F)c1
REMARK SMILES IDX 18 1 17 2 16 3 14 4 15 5 12 6 13 7 11 8 8 9 9 10 86 11 10 12
REMARK SMILES IDX 85 13 87 14 7 15 1 16 2 17 3 18 88 19 4 20 5 21 6 22 19 23
REMARK SMILES IDX 20 24 21 25 22 26 23 27 84 28 24 29 83 30 25 31 26 32 27 33
REMARK SMILES IDX 77 34 28 35 82 36 76 37 78 38 29 39 81 40 75 41 74 42 30 44
REMARK SMILES IDX 62 45 42 46 61 47 43 48 46 49 60 50 79 51 44 52 45 53 59 55
REMARK SMILES IDX 80 56 47 57 31 58 32 59 40 60 33 61 39 62 41 63 38 64 34 65
REMARK SMILES IDX 35 66 36 67 37 68 63 69 64 70 72 71 65 72 71 73 73 74 70 75
REMARK SMILES IDX 66 76 67 77 68 78 69 79 48 80 49 81 57 82 50 83 56 84 58 85
REMARK SMILES IDX 55 86 51 87 52 88 53 89 54 90
REMARK H PARENT 78 43 46 54
REMARK Flexibility Score: inf
ROOT
ATOM      1  C   UNL A   1      36.265  20.510  25.172  1.00  0.00     0.275 C 
ENDROOT
BRANCH   1   2
ATOM      2  C   UNL A   1      34.935  20.977  24.577  1.00  0.00     0.274 C 
BRANCH   2   3
ATOM      3  O   UNL A   1      33.814  20.388  25.263  1.00  0.00    -0.462 OA
BRANCH   3   4
ATOM      4  C   UNL A   1      32.855  21.240  25.711  1.00  0.00     0.313 C 
ATOM      5  O   UNL A   1      31.658  21.112  25.472  1.00  0.00    -0.252 OA
BRANCH   4   6
ATOM      6  C   UNL A   1      33.401  22.429  26.494  1.00  0.00     0.126 C 
ATOM      7  C   UNL A   1      33.243  22.172  27.992  1.00  0.00     0.025 C 
BRANCH   6   8
ATOM      8  C   UNL A   1      32.879  23.799  26.085  1.00  0.00    -0.031 A 
ATOM      9  C   UNL A   1      31.976  26.398  25.349  1.00  0.00     0.017 A 
ATOM     10  C   UNL A   1      31.179  25.543  26.127  1.00  0.00     0.012 A 
ATOM     11  C   UNL A   1      33.220  25.915  24.931  1.00  0.00     0.131 A 
ATOM     12  C   UNL A   1      31.622  24.266  26.491  1.00  0.00     0.005 A 
ATOM     13  C   UNL A   1      33.672  24.645  25.295  1.00  0.00     0.044 A 
ATOM     14  F   UNL A   1      34.034  26.686  24.193  1.00  0.00    -0.206 F 
BRANCH   9  15
ATOM     15  C   UNL A   1      31.522  27.760  25.033  1.00  0.00    -0.015 A 
ATOM     16  C   UNL A   1      29.543  29.634  22.352  1.00  0.00     0.044 C 
ATOM     17  C   UNL A   1      30.339  29.342  23.592  1.00  0.00    -0.050 A 
ATOM     18  C   UNL A   1      30.661  30.380  24.474  1.00  0.00     0.006 A 
ATOM     19  C   UNL A   1      30.775  28.039  23.876  1.00  0.00     0.012 A 
ATOM     20  C   UNL A   1      31.415  30.133  25.625  1.00  0.00    -0.050 A 
ATOM     21  C   UNL A   1      31.769  31.258  26.552  1.00  0.00     0.044 C 
ATOM     22  C   UNL A   1      31.834  28.826  25.896  1.00  0.00     0.012 A 
ENDBRANCH   9  15
ENDBRANCH   6   8
ENDBRANCH   4   6
ENDBRANCH   3   4
ENDBRANCH   2   3
ENDBRANCH   1   2
BRANCH   1  23
ATOM     23  O   UNL A   1      37.107  21.624  25.516  1.00  0.00    -0.458 OA
BRANCH  23  24
ATOM     24  C   UNL A   1      38.388  21.298  25.807  1.00  0.00     0.338 C 
ATOM     25  O   UNL A   1      38.945  20.236  25.586  1.00  0.00    -0.246 OA
BRANCH  24  26
ATOM     26  C   UNL A   1      39.093  22.477  26.330  1.00  0.00     0.060 A 
ATOM     27  C   UNL A   1      38.523  23.731  26.100  1.00  0.00     0.016 A 
ATOM     28  C   UNL A   1      40.338  22.367  26.950  1.00  0.00     0.016 A 
ATOM     29  C   UNL A   1      39.204  24.886  26.466  1.00  0.00     0.010 A 
ATOM     30  C   UNL A   1      41.018  23.531  27.328  1.00  0.00     0.010 A 
ATOM     31  C   UNL A   1      40.463  24.797  27.072  1.00  0.00    -0.014 A 
BRANCH  31  32
ATOM     32  C   UNL A   1      41.208  26.043  27.376  1.00  0.00     0.031 A 
ATOM     33  C   UNL A   1      40.593  27.080  28.273  1.00  0.00     0.074 A 
ATOM     34  C   UNL A   1      42.457  26.208  26.902  1.00  0.00     0.049 A 
ATOM     35  N   UNL A   1      41.061  28.249  28.624  1.00  0.00    -0.248 NA
ATOM     36  C   UNL A   1      39.281  26.756  28.854  1.00  0.00     0.031 C 
ATOM     37  C   UNL A   1      43.182  25.238  26.080  1.00  0.00     0.029 A 
ATOM     38  N   UNL A   1      43.345  27.243  27.059  1.00  0.00    -0.354 N 
ATOM     39  C   UNL A   1      40.098  28.808  29.456  1.00  0.00     0.074 A 
ATOM     40  C   UNL A   1      39.012  27.857  29.543  1.00  0.00     0.031 C 
ATOM     41  C   UNL A   1      44.412  25.713  25.825  1.00  0.00     0.029 A 
ATOM     42  C   UNL A   1      44.545  27.041  26.420  1.00  0.00     0.049 A 
ATOM     43  H   UNL A   1      43.142  28.053  27.580  1.00  0.00     0.167 HD
ATOM     44  C   UNL A   1      40.124  30.005  30.091  1.00  0.00     0.034 A 
ATOM     45  C   UNL A   1      45.623  27.843  26.307  1.00  0.00     0.034 A 
ATOM     46  C   UNL A   1      41.218  30.939  30.007  1.00  0.00     0.049 A 
ATOM     47  C   UNL A   1      45.594  29.202  26.953  1.00  0.00     0.074 A 
ATOM     48  C   UNL A   1      41.339  32.180  30.608  1.00  0.00     0.029 A 
ATOM     49  N   UNL A   1      42.383  30.734  29.280  1.00  0.00    -0.354 N 
ATOM     50  N   UNL A   1      44.646  29.747  27.680  1.00  0.00    -0.248 NA
ATOM     51  C   UNL A   1      46.770  30.061  26.754  1.00  0.00     0.031 C 
ATOM     52  C   UNL A   1      42.552  32.748  30.203  1.00  0.00     0.029 A 
ATOM     53  C   UNL A   1      43.214  31.836  29.396  1.00  0.00     0.049 A 
ATOM     54  H   UNL A   1      42.586  29.925  28.757  1.00  0.00     0.167 HD
ATOM     55  C   UNL A   1      45.116  31.006  28.033  1.00  0.00     0.074 A 
ATOM     56  C   UNL A   1      46.432  31.142  27.444  1.00  0.00     0.031 C 
ATOM     57  C   UNL A   1      44.513  31.962  28.784  1.00  0.00     0.034 A 
BRANCH  44  58
ATOM     58  C   UNL A   1      38.909  30.394  30.890  1.00  0.00     0.023 A 
ATOM     59  C   UNL A   1      37.846  31.113  30.320  1.00  0.00     0.031 A 
ATOM     60  C   UNL A   1      38.816  30.030  32.246  1.00  0.00     0.131 A 
ATOM     61  C   UNL A   1      36.748  31.477  31.115  1.00  0.00     0.055 A 
ATOM     62  C   UNL A   1      37.697  30.347  33.016  1.00  0.00     0.041 A 
ATOM     63  F   UNL A   1      39.815  29.360  32.842  1.00  0.00    -0.206 F 
ATOM     64  C   UNL A   1      36.657  31.081  32.453  1.00  0.00     0.022 A 
BRANCH  61  65
ATOM     65  S   UNL A   1      35.465  32.541  30.400  1.00  0.00     0.124 S 
ATOM     66  O   UNL A   1      35.248  31.905  29.103  1.00  0.00    -0.237 OA
ATOM     67  O   UNL A   1      34.376  32.418  31.363  1.00  0.00    -0.237 OA
ATOM     68  O   UNL A   1      36.101  33.855  30.345  1.00  0.00    -0.744 OA
ENDBRANCH  61  65
ENDBRANCH  44  58
BRANCH  45  69
ATOM     69  C   UNL A   1      46.796  27.400  25.507  1.00  0.00     0.023 A 
ATOM     70  C   UNL A   1      46.953  27.793  24.171  1.00  0.00     0.031 A 
ATOM     71  C   UNL A   1      47.783  26.578  26.080  1.00  0.00     0.131 A 
ATOM     72  C   UNL A   1      48.070  27.349  23.443  1.00  0.00     0.055 A 
ATOM     73  C   UNL A   1      48.908  26.170  25.364  1.00  0.00     0.041 A 
ATOM     74  F   UNL A   1      47.677  26.182  27.359  1.00  0.00    -0.206 F 
ATOM     75  C   UNL A   1      49.053  26.553  24.034  1.00  0.00     0.022 A 
BRANCH  72  76
ATOM     76  S   UNL A   1      48.216  27.817  21.696  1.00  0.00     0.124 S 
ATOM     77  O   UNL A   1      46.907  28.404  21.435  1.00  0.00    -0.237 OA
ATOM     78  O   UNL A   1      49.343  28.745  21.720  1.00  0.00    -0.237 OA
ATOM     79  O   UNL A   1      48.477  26.546  21.024  1.00  0.00    -0.744 OA
ENDBRANCH  72  76
ENDBRANCH  45  69
BRANCH  57  80
ATOM     80  C   UNL A   1      45.280  33.230  29.032  1.00  0.00     0.023 A 
ATOM     81  C   UNL A   1      45.110  34.361  28.216  1.00  0.00     0.031 A 
ATOM     82  C   UNL A   1      46.152  33.323  30.132  1.00  0.00     0.131 A 
ATOM     83  C   UNL A   1      45.819  35.536  28.503  1.00  0.00     0.055 A 
ATOM     84  C   UNL A   1      46.826  34.504  30.433  1.00  0.00     0.041 A 
ATOM     85  F   UNL A   1      46.341  32.268  30.941  1.00  0.00    -0.206 F 
ATOM     86  C   UNL A   1      46.663  35.620  29.614  1.00  0.00     0.022 A 
BRANCH  83  87
ATOM     87  S   UNL A   1      45.630  36.965  27.401  1.00  0.00     0.124 S 
ATOM     88  O   UNL A   1      46.019  38.070  28.273  1.00  0.00    -0.237 OA
ATOM     89  O   UNL A   1      46.553  36.655  26.315  1.00  0.00    -0.237 OA
ATOM     90  O   UNL A   1      44.215  36.931  27.036  1.00  0.00    -0.744 OA
ENDBRANCH  83  87
ENDBRANCH  57  80
ENDBRANCH  31  32
ENDBRANCH  24  26
ENDBRANCH  23  24
ENDBRANCH   1  23
TORSDOF 16
ENDMDL
MODEL 3
REMARK VINA RESULT:     -12.2      5.053     10.454
REMARK SMILES Cc1cc(C)cc(-c2ccc([C@@H](C)C(=O)OCCOC(=O)c3ccc(-c4c5nc(c(-c6cc(S(=O)(=O)[O-])ccc6F)c6ccc([nH]6)c(-c6cc(S(=O)(=O)[O-])ccc6F)c6nc(c(-c7cc(S(=O)(=O)[O-])ccc7F)c7ccc4[nH]7)C=C6)C=C5)cc3)cc2F)c1
REMARK SMILES IDX 18 1 17 2 16 3 14 4 15 5 12 6 13 7 11 8 8 9 9 10 86 11 10 12
REMARK SMILES IDX 85 13 87 14 7 15 1 16 2 17 3 18 88 19 4 20 5 21 6 22 19 23
REMARK SMILES IDX 20 24 21 25 22 26 23 27 84 28 24 29 83 30 25 31 26 32 27 33
REMARK SMILES IDX 77 34 28 35 82 36 76 37 78 38 29 39 81 40 75 41 74 42 30 44
REMARK SMILES IDX 62 45 42 46 61 47 43 48 46 49 60 50 79 51 44 52 45 53 59 55
REMARK SMILES IDX 80 56 47 57 31 58 32 59 40 60 33 61 39 62 41 63 38 64 34 65
REMARK SMILES IDX 35 66 36 67 37 68 63 69 64 70 72 71 65 72 71 73 73 74 70 75
REMARK SMILES IDX 66 76 67 77 68 78 69 79 48 80 49 81 57 82 50 83 56 84 58 85
REMARK SMILES IDX 55 86 51 87 52 88 53 89 54 90
REMARK H PARENT 78 43 46 54
REMARK Flexibility Score: inf
ROOT
ATOM      1  C   UNL A   1      31.807  30.263  26.533  1.00  0.00     0.275 C 
ENDROOT
BRANCH   1   2
ATOM      2  C   UNL A   1      31.838  28.747  26.734  1.00  0.00     0.274 C 
BRANCH   2   3
ATOM      3  O   UNL A   1      31.228  28.056  25.627  1.00  0.00    -0.462 OA
BRANCH   3   4
ATOM      4  C   UNL A   1      31.793  28.239  24.405  1.00  0.00     0.313 C 
ATOM      5  O   UNL A   1      31.168  28.578  23.404  1.00  0.00    -0.252 OA
BRANCH   4   6
ATOM      6  C   UNL A   1      33.283  27.919  24.360  1.00  0.00     0.126 C 
ATOM      7  C   UNL A   1      33.918  28.605  23.150  1.00  0.00     0.025 C 
BRANCH   6   8
ATOM      8  C   UNL A   1      33.656  26.446  24.449  1.00  0.00    -0.031 A 
ATOM      9  C   UNL A   1      34.279  23.669  24.571  1.00  0.00     0.017 A 
ATOM     10  C   UNL A   1      34.304  24.473  25.722  1.00  0.00     0.012 A 
ATOM     11  C   UNL A   1      33.959  24.290  23.359  1.00  0.00     0.131 A 
ATOM     12  C   UNL A   1      33.997  25.838  25.663  1.00  0.00     0.005 A 
ATOM     13  C   UNL A   1      33.645  25.648  23.293  1.00  0.00     0.044 A 
ATOM     14  F   UNL A   1      33.908  23.575  22.224  1.00  0.00    -0.206 F 
BRANCH   9  15
ATOM     15  C   UNL A   1      34.540  22.225  24.663  1.00  0.00    -0.015 A 
ATOM     16  C   UNL A   1      37.476  19.800  25.000  1.00  0.00     0.044 C 
ATOM     17  C   UNL A   1      36.079  20.337  24.878  1.00  0.00    -0.050 A 
ATOM     18  C   UNL A   1      34.993  19.454  24.849  1.00  0.00     0.006 A 
ATOM     19  C   UNL A   1      35.844  21.717  24.780  1.00  0.00     0.012 A 
ATOM     20  C   UNL A   1      33.685  19.932  24.718  1.00  0.00    -0.050 A 
ATOM     21  C   UNL A   1      32.533  18.974  24.671  1.00  0.00     0.044 C 
ATOM     22  C   UNL A   1      33.471  21.312  24.631  1.00  0.00     0.012 A 
ENDBRANCH   9  15
ENDBRANCH   6   8
ENDBRANCH   4   6
ENDBRANCH   3   4
ENDBRANCH   2   3
ENDBRANCH   1   2
BRANCH   1  23
ATOM     23  O   UNL A   1      33.127  30.789  26.305  1.00  0.00    -0.458 OA
BRANCH  23  24
ATOM     24  C   UNL A   1      33.553  31.673  27.238  1.00  0.00     0.338 C 
ATOM     25  O   UNL A   1      32.938  32.627  27.684  1.00  0.00    -0.246 OA
BRANCH  24  26
ATOM     26  C   UNL A   1      34.859  31.248  27.763  1.00  0.00     0.060 A 
ATOM     27  C   UNL A   1      35.016  29.904  28.105  1.00  0.00     0.016 A 
ATOM     28  C   UNL A   1      35.881  32.167  28.008  1.00  0.00     0.016 A 
ATOM     29  C   UNL A   1      36.187  29.471  28.717  1.00  0.00     0.010 A 
ATOM     30  C   UNL A   1      37.063  31.728  28.613  1.00  0.00     0.010 A 
ATOM     31  C   UNL A   1      37.216  30.381  28.988  1.00  0.00    -0.014 A 
BRANCH  31  32
ATOM     32  C   UNL A   1      38.420  29.914  29.718  1.00  0.00     0.031 A 
ATOM     33  C   UNL A   1      38.691  30.415  31.108  1.00  0.00     0.074 A 
ATOM     34  C   UNL A   1      39.226  28.993  29.158  1.00  0.00     0.049 A 
ATOM     35  N   UNL A   1      39.705  30.163  31.893  1.00  0.00    -0.248 NA
ATOM     36  C   UNL A   1      37.684  31.316  31.692  1.00  0.00     0.031 C 
ATOM     37  C   UNL A   1      39.024  28.383  27.843  1.00  0.00     0.029 A 
ATOM     38  N   UNL A   1      40.368  28.396  29.632  1.00  0.00    -0.354 N 
ATOM     39  C   UNL A   1      39.469  30.881  33.060  1.00  0.00     0.074 A 
ATOM     40  C   UNL A   1      38.224  31.594  32.872  1.00  0.00     0.031 C 
ATOM     41  C   UNL A   1      39.995  27.481  27.625  1.00  0.00     0.029 A 
ATOM     42  C   UNL A   1      40.916  27.485  28.759  1.00  0.00     0.049 A 
ATOM     43  H   UNL A   1      40.757  28.600  30.512  1.00  0.00     0.167 HD
ATOM     44  C   UNL A   1      40.223  30.936  34.184  1.00  0.00     0.034 A 
ATOM     45  C   UNL A   1      42.043  26.752  28.854  1.00  0.00     0.034 A 
ATOM     46  C   UNL A   1      41.455  30.212  34.364  1.00  0.00     0.049 A 
ATOM     47  C   UNL A   1      42.907  26.893  30.078  1.00  0.00     0.074 A 
ATOM     48  C   UNL A   1      42.297  30.203  35.463  1.00  0.00     0.029 A 
ATOM     49  N   UNL A   1      42.023  29.363  33.423  1.00  0.00    -0.354 N 
ATOM     50  N   UNL A   1      42.707  27.631  31.145  1.00  0.00    -0.248 NA
ATOM     51  C   UNL A   1      44.154  26.116  30.108  1.00  0.00     0.031 C 
ATOM     52  C   UNL A   1      43.398  29.391  35.167  1.00  0.00     0.029 A 
ATOM     53  C   UNL A   1      43.214  28.848  33.906  1.00  0.00     0.049 A 
ATOM     54  H   UNL A   1      41.635  29.160  32.541  1.00  0.00     0.167 HD
ATOM     55  C   UNL A   1      43.797  27.399  31.976  1.00  0.00     0.074 A 
ATOM     56  C   UNL A   1      44.651  26.450  31.291  1.00  0.00     0.031 C 
ATOM     57  C   UNL A   1      44.062  27.920  33.200  1.00  0.00     0.034 A 
BRANCH  44  58
ATOM     58  C   UNL A   1      39.763  31.851  35.287  1.00  0.00     0.023 A 
ATOM     59  C   UNL A   1      38.943  31.397  36.333  1.00  0.00     0.031 A 
ATOM     60  C   UNL A   1      40.161  33.200  35.291  1.00  0.00     0.131 A 
ATOM     61  C   UNL A   1      38.516  32.296  37.322  1.00  0.00     0.055 A 
ATOM     62  C   UNL A   1      39.780  34.075  36.308  1.00  0.00     0.041 A 
ATOM     63  F   UNL A   1      40.929  33.687  34.302  1.00  0.00    -0.206 F 
ATOM     64  C   UNL A   1      38.947  33.627  37.328  1.00  0.00     0.022 A 
BRANCH  61  65
ATOM     65  S   UNL A   1      37.330  31.726  38.570  1.00  0.00     0.124 S 
ATOM     66  O   UNL A   1      36.254  32.702  38.417  1.00  0.00    -0.237 OA
ATOM     67  O   UNL A   1      37.030  30.369  38.129  1.00  0.00    -0.237 OA
ATOM     68  O   UNL A   1      38.078  31.822  39.822  1.00  0.00    -0.744 OA
ENDBRANCH  61  65
ENDBRANCH  44  58
BRANCH  45  69
ATOM     69  C   UNL A   1      42.444  25.861  27.732  1.00  0.00     0.023 A 
ATOM     70  C   UNL A   1      41.985  24.539  27.655  1.00  0.00     0.031 A 
ATOM     71  C   UNL A   1      43.294  26.331  26.714  1.00  0.00     0.131 A 
ATOM     72  C   UNL A   1      42.391  23.723  26.586  1.00  0.00     0.055 A 
ATOM     73  C   UNL A   1      43.665  25.528  25.635  1.00  0.00     0.041 A 
ATOM     74  F   UNL A   1      43.754  27.593  26.743  1.00  0.00    -0.206 F 
ATOM     75  C   UNL A   1      43.215  24.213  25.571  1.00  0.00     0.022 A 
BRANCH  72  76
ATOM     76  S   UNL A   1      41.835  21.996  26.544  1.00  0.00     0.124 S 
ATOM     77  O   UNL A   1      40.391  22.153  26.407  1.00  0.00    -0.237 OA
ATOM     78  O   UNL A   1      42.538  21.476  25.376  1.00  0.00    -0.237 OA
ATOM     79  O   UNL A   1      42.287  21.463  27.827  1.00  0.00    -0.744 OA
ENDBRANCH  72  76
ENDBRANCH  45  69
BRANCH  57  80
ATOM     80  C   UNL A   1      45.315  27.458  33.890  1.00  0.00     0.023 A 
ATOM     81  C   UNL A   1      45.328  26.305  34.692  1.00  0.00     0.031 A 
ATOM     82  C   UNL A   1      46.522  28.153  33.697  1.00  0.00     0.131 A 
ATOM     83  C   UNL A   1      46.525  25.889  35.290  1.00  0.00     0.055 A 
ATOM     84  C   UNL A   1      47.717  27.715  34.265  1.00  0.00     0.041 A 
ATOM     85  F   UNL A   1      46.558  29.258  32.935  1.00  0.00    -0.206 F 
ATOM     86  C   UNL A   1      47.723  26.577  35.069  1.00  0.00     0.022 A 
BRANCH  83  87
ATOM     87  S   UNL A   1      46.507  24.432  36.371  1.00  0.00     0.124 S 
ATOM     88  O   UNL A   1      47.795  24.545  37.049  1.00  0.00    -0.237 OA
ATOM     89  O   UNL A   1      45.328  24.664  37.199  1.00  0.00    -0.237 OA
ATOM     90  O   UNL A   1      46.393  23.314  35.436  1.00  0.00    -0.744 OA
ENDBRANCH  83  87
ENDBRANCH  57  80
ENDBRANCH  31  32
ENDBRANCH  24  26
ENDBRANCH  23  24
ENDBRANCH   1  23
TORSDOF 16
ENDMDL
