MODEL 1
REMARK VINA RESULT:     -13.9      0.000      0.000
REMARK SMILES Cc1cccc(-c2ncc(C[NH+]3CCC4(CC3)NC(=O)C[C@H]4C(=O)OCCOC(=O)c3ccc(-c4c5nc(c(-c6cc(S(=O)(=O)[O-])ccc6F)c6ccc([nH]6)c(-c6cc(S(=O)(=O)[O-])ccc6F)c6nc(c(-c7cc(S(=O)(=O)[O-])ccc7F)c7ccc4[nH]7)C=C6)C=C5)cc3)cn2)c1
REMARK SMILES IDX 26 1 25 2 23 3 24 4 22 5 12 6 13 7 17 8 14 10 16 11 15 12
REMARK SMILES IDX 18 13 19 14 21 16 20 17 11 18 10 19 7 20 8 21 95 22 9 23
REMARK SMILES IDX 94 24 6 25 1 26 2 27 3 28 96 29 4 30 5 31 27 32 28 33 29 34
REMARK SMILES IDX 30 35 31 36 32 37 93 38 33 39 92 40 34 41 35 42 36 43 86 44
REMARK SMILES IDX 37 45 91 46 85 47 87 48 38 49 90 50 84 51 83 52 39 54 71 55
REMARK SMILES IDX 51 56 70 57 52 58 55 59 69 60 88 61 53 62 54 63 68 65 89 66
REMARK SMILES IDX 56 67 40 68 41 69 49 70 42 71 48 72 50 73 47 74 43 75 44 76
REMARK SMILES IDX 45 77 46 78 72 79 73 80 81 81 74 82 80 83 82 84 79 85 75 86
REMARK SMILES IDX 76 87 77 88 78 89 57 90 58 91 66 92 59 93 65 94 67 95 64 96
REMARK SMILES IDX 60 97 61 98 62 99 63 100
REMARK H PARENT 12 9 18 15 87 53 55 64
REMARK Flexibility Score: inf
ROOT
ATOM      1  C   UNL A   1      36.907  21.297  25.310  1.00  0.00     0.274 C 
ENDROOT
BRANCH   1   2
ATOM      2  O   UNL A   1      35.570  20.806  24.948  1.00  0.00    -0.462 OA
BRANCH   2   3
ATOM      3  C   UNL A   1      34.683  20.973  25.927  1.00  0.00     0.311 C 
ATOM      4  O   UNL A   1      35.122  21.483  26.946  1.00  0.00    -0.252 OA
BRANCH   3   5
ATOM      5  C   UNL A   1      33.203  20.510  25.826  1.00  0.00     0.134 C 
ATOM      6  N   UNL A   1      31.970  24.419  25.630  1.00  0.00    -0.331 N 
ATOM      7  C   UNL A   1      30.823  23.509  25.717  1.00  0.00     0.264 C 
ATOM      8  C   UNL A   1      33.161  23.632  25.744  1.00  0.00     0.264 C 
ATOM      9  H   UNL A   1      31.724  25.048  26.395  1.00  0.00     0.348 HD
ATOM     10  C   UNL A   1      30.965  21.968  25.323  1.00  0.00     0.091 C 
ATOM     11  C   UNL A   1      33.152  22.642  24.547  1.00  0.00     0.091 C 
ATOM     12  C   UNL A   1      32.371  21.425  24.893  1.00  0.00     0.064 C 
ATOM     13  N   UNL A   1      32.204  20.590  23.717  1.00  0.00    -0.349 N 
ATOM     14  C   UNL A   1      32.536  19.282  23.907  1.00  0.00     0.221 C 
ATOM     15  H   UNL A   1      31.878  20.938  22.856  1.00  0.00     0.164 HD
ATOM     16  C   UNL A   1      32.948  19.091  25.326  1.00  0.00     0.117 C 
ATOM     17  O   UNL A   1      32.447  18.410  23.041  1.00  0.00    -0.275 OA
BRANCH   6  18
ATOM     18  C   UNL A   1      32.142  25.529  24.662  1.00  0.00     0.302 C 
BRANCH  18  19
ATOM     19  C   UNL A   1      31.159  26.700  24.738  1.00  0.00     0.043 A 
ATOM     20  C   UNL A   1      29.778  28.879  23.813  1.00  0.00     0.159 A 
ATOM     21  N   UNL A   1      29.221  27.659  23.656  1.00  0.00    -0.236 NA
ATOM     22  N   UNL A   1      30.874  29.114  24.564  1.00  0.00    -0.236 NA
ATOM     23  C   UNL A   1      29.911  26.599  24.152  1.00  0.00     0.124 A 
ATOM     24  C   UNL A   1      31.544  28.014  25.011  1.00  0.00     0.124 A 
BRANCH  20  25
ATOM     25  C   UNL A   1      29.177  30.003  23.058  1.00  0.00     0.019 A 
ATOM     26  C   UNL A   1      28.861  33.861  23.125  1.00  0.00     0.044 C 
ATOM     27  C   UNL A   1      28.766  32.421  22.694  1.00  0.00    -0.050 A 
ATOM     28  C   UNL A   1      28.195  32.130  21.456  1.00  0.00     0.003 A 
ATOM     29  C   UNL A   1      29.240  31.352  23.487  1.00  0.00     0.015 A 
ATOM     30  C   UNL A   1      28.077  30.806  21.034  1.00  0.00     0.001 A 
ATOM     31  C   UNL A   1      28.554  29.759  21.829  1.00  0.00     0.012 A 
ENDBRANCH  20  25
ENDBRANCH  18  19
ENDBRANCH   6  18
ENDBRANCH   3   5
ENDBRANCH   2   3
ENDBRANCH   1   2
BRANCH   1  32
ATOM     32  C   UNL A   1      37.441  22.808  25.079  1.00  0.00     0.275 C 
BRANCH  32  33
ATOM     33  O   UNL A   1      38.203  23.714  25.997  1.00  0.00    -0.458 OA
BRANCH  33  34
ATOM     34  C   UNL A   1      39.359  23.644  26.725  1.00  0.00     0.338 C 
ATOM     35  O   UNL A   1      40.047  22.633  26.781  1.00  0.00    -0.246 OA
BRANCH  34  36
ATOM     36  C   UNL A   1      39.842  24.918  27.262  1.00  0.00     0.060 A 
ATOM     37  C   UNL A   1      40.421  25.912  26.450  1.00  0.00     0.016 A 
ATOM     38  C   UNL A   1      39.406  25.198  28.529  1.00  0.00     0.016 A 
ATOM     39  C   UNL A   1      40.368  27.248  26.859  1.00  0.00     0.010 A 
ATOM     40  C   UNL A   1      39.075  26.492  28.780  1.00  0.00     0.010 A 
ATOM     41  C   UNL A   1      39.614  27.526  27.996  1.00  0.00    -0.014 A 
BRANCH  41  42
ATOM     42  C   UNL A   1      39.659  28.731  28.810  1.00  0.00     0.031 A 
ATOM     43  C   UNL A   1      38.585  29.741  28.729  1.00  0.00     0.074 A 
ATOM     44  C   UNL A   1      40.574  28.504  29.786  1.00  0.00     0.049 A 
ATOM     45  N   UNL A   1      38.750  31.008  28.528  1.00  0.00    -0.248 NA
ATOM     46  C   UNL A   1      37.160  29.366  28.761  1.00  0.00     0.031 C 
ATOM     47  C   UNL A   1      40.806  29.036  31.105  1.00  0.00     0.029 A 
ATOM     48  N   UNL A   1      41.582  27.539  29.691  1.00  0.00    -0.354 N 
ATOM     49  C   UNL A   1      37.540  31.584  28.900  1.00  0.00     0.074 A 
ATOM     50  C   UNL A   1      36.546  30.556  28.710  1.00  0.00     0.031 C 
ATOM     51  C   UNL A   1      42.046  28.657  31.505  1.00  0.00     0.029 A 
ATOM     52  C   UNL A   1      42.679  27.884  30.432  1.00  0.00     0.049 A 
ATOM     53  H   UNL A   1      41.510  26.715  29.157  1.00  0.00     0.167 HD
ATOM     54  C   UNL A   1      37.507  32.542  29.880  1.00  0.00     0.034 A 
ATOM     55  C   UNL A   1      43.762  28.187  29.656  1.00  0.00     0.034 A 
ATOM     56  C   UNL A   1      38.790  32.568  30.569  1.00  0.00     0.049 A 
ATOM     57  C   UNL A   1      43.830  29.690  29.578  1.00  0.00     0.074 A 
ATOM     58  C   UNL A   1      39.181  32.063  31.797  1.00  0.00     0.029 A 
ATOM     59  N   UNL A   1      39.947  32.868  29.873  1.00  0.00    -0.354 N 
ATOM     60  N   UNL A   1      42.792  30.483  29.614  1.00  0.00    -0.248 NA
ATOM     61  C   UNL A   1      45.098  30.395  29.627  1.00  0.00     0.031 C 
ATOM     62  C   UNL A   1      40.598  32.057  31.827  1.00  0.00     0.029 A 
ATOM     63  C   UNL A   1      41.057  32.505  30.601  1.00  0.00     0.049 A 
ATOM     64  H   UNL A   1      39.972  33.284  28.982  1.00  0.00     0.167 HD
ATOM     65  C   UNL A   1      43.221  31.760  29.840  1.00  0.00     0.074 A 
ATOM     66  C   UNL A   1      44.674  31.655  29.812  1.00  0.00     0.031 C 
ATOM     67  C   UNL A   1      42.378  32.808  30.090  1.00  0.00     0.034 A 
BRANCH  54  68
ATOM     68  C   UNL A   1      36.272  33.165  30.503  1.00  0.00     0.023 A 
ATOM     69  C   UNL A   1      35.520  34.095  29.751  1.00  0.00     0.031 A 
ATOM     70  C   UNL A   1      35.735  32.831  31.760  1.00  0.00     0.131 A 
ATOM     71  C   UNL A   1      34.353  34.696  30.252  1.00  0.00     0.055 A 
ATOM     72  C   UNL A   1      34.572  33.438  32.271  1.00  0.00     0.041 A 
ATOM     73  F   UNL A   1      36.288  31.879  32.526  1.00  0.00    -0.206 F 
ATOM     74  C   UNL A   1      33.877  34.380  31.519  1.00  0.00     0.022 A 
BRANCH  71  75
ATOM     75  S   UNL A   1      33.464  35.877  29.200  1.00  0.00     0.124 S 
ATOM     76  O   UNL A   1      32.393  35.051  28.651  1.00  0.00    -0.237 OA
ATOM     77  O   UNL A   1      33.062  36.906  30.152  1.00  0.00    -0.237 OA
ATOM     78  O   UNL A   1      34.476  36.295  28.231  1.00  0.00    -0.744 OA
ENDBRANCH  71  75
ENDBRANCH  54  68
BRANCH  55  79
ATOM     79  C   UNL A   1      43.968  27.216  28.500  1.00  0.00     0.023 A 
ATOM     80  C   UNL A   1      44.057  25.835  28.815  1.00  0.00     0.031 A 
ATOM     81  C   UNL A   1      43.783  27.532  27.145  1.00  0.00     0.131 A 
ATOM     82  C   UNL A   1      43.837  24.840  27.844  1.00  0.00     0.055 A 
ATOM     83  C   UNL A   1      43.635  26.530  26.161  1.00  0.00     0.041 A 
ATOM     84  F   UNL A   1      43.644  28.805  26.749  1.00  0.00    -0.206 F 
ATOM     85  C   UNL A   1      43.629  25.178  26.511  1.00  0.00     0.022 A 
BRANCH  82  86
ATOM     86  S   UNL A   1      43.570  23.129  28.416  1.00  0.00     0.124 S 
ATOM     87  O   UNL A   1      43.620  22.378  27.167  1.00  0.00    -0.237 OA
ATOM     88  O   UNL A   1      44.699  22.936  29.327  1.00  0.00    -0.237 OA
ATOM     89  O   UNL A   1      42.266  23.180  29.065  1.00  0.00    -0.744 OA
ENDBRANCH  82  86
ENDBRANCH  55  79
BRANCH  67  90
ATOM     90  C   UNL A   1      42.766  34.255  29.972  1.00  0.00     0.023 A 
ATOM     91  C   UNL A   1      42.548  34.965  28.795  1.00  0.00     0.031 A 
ATOM     92  C   UNL A   1      43.275  35.004  31.060  1.00  0.00     0.131 A 
ATOM     93  C   UNL A   1      42.977  36.285  28.659  1.00  0.00     0.055 A 
ATOM     94  C   UNL A   1      43.569  36.364  30.967  1.00  0.00     0.041 A 
ATOM     95  F   UNL A   1      43.497  34.461  32.266  1.00  0.00    -0.206 F 
ATOM     96  C   UNL A   1      43.455  37.008  29.746  1.00  0.00     0.022 A 
BRANCH  93  97
ATOM     97  S   UNL A   1      43.010  36.953  26.985  1.00  0.00     0.124 S 
ATOM     98  O   UNL A   1      41.865  37.862  27.008  1.00  0.00    -0.237 OA
ATOM     99  O   UNL A   1      44.319  37.594  26.926  1.00  0.00    -0.237 OA
ATOM    100  O   UNL A   1      42.850  35.771  26.143  1.00  0.00    -0.744 OA
ENDBRANCH  93  97
ENDBRANCH  67  90
ENDBRANCH  41  42
ENDBRANCH  34  36
ENDBRANCH  33  34
ENDBRANCH  32  33
ENDBRANCH   1  32
TORSDOF 17
ENDMDL
MODEL 2
REMARK VINA RESULT:     -13.7      4.026     10.859
REMARK SMILES Cc1cccc(-c2ncc(C[NH+]3CCC4(CC3)NC(=O)C[C@H]4C(=O)OCCOC(=O)c3ccc(-c4c5nc(c(-c6cc(S(=O)(=O)[O-])ccc6F)c6ccc([nH]6)c(-c6cc(S(=O)(=O)[O-])ccc6F)c6nc(c(-c7cc(S(=O)(=O)[O-])ccc7F)c7ccc4[nH]7)C=C6)C=C5)cc3)cn2)c1
REMARK SMILES IDX 26 1 25 2 23 3 24 4 22 5 12 6 13 7 17 8 14 10 16 11 15 12
REMARK SMILES IDX 18 13 19 14 21 16 20 17 11 18 10 19 7 20 8 21 95 22 9 23
REMARK SMILES IDX 94 24 6 25 1 26 2 27 3 28 96 29 4 30 5 31 27 32 28 33 29 34
REMARK SMILES IDX 30 35 31 36 32 37 93 38 33 39 92 40 34 41 35 42 36 43 86 44
REMARK SMILES IDX 37 45 91 46 85 47 87 48 38 49 90 50 84 51 83 52 39 54 71 55
REMARK SMILES IDX 51 56 70 57 52 58 55 59 69 60 88 61 53 62 54 63 68 65 89 66
REMARK SMILES IDX 56 67 40 68 41 69 49 70 42 71 48 72 50 73 47 74 43 75 44 76
REMARK SMILES IDX 45 77 46 78 72 79 73 80 81 81 74 82 80 83 82 84 79 85 75 86
REMARK SMILES IDX 76 87 77 88 78 89 57 90 58 91 66 92 59 93 65 94 67 95 64 96
REMARK SMILES IDX 60 97 61 98 62 99 63 100
REMARK H PARENT 12 9 18 15 87 53 55 64
REMARK Flexibility Score: inf
ROOT
ATOM      1  C   UNL A   1      34.242  29.491  25.670  1.00  0.00     0.274 C 
ENDROOT
BRANCH   1   2
ATOM      2  O   UNL A   1      34.167  28.459  24.626  1.00  0.00    -0.462 OA
BRANCH   2   3
ATOM      3  C   UNL A   1      33.041  28.529  23.920  1.00  0.00     0.311 C 
ATOM      4  O   UNL A   1      33.139  29.085  22.837  1.00  0.00    -0.252 OA
BRANCH   3   5
ATOM      5  C   UNL A   1      31.674  28.001  24.437  1.00  0.00     0.134 C 
ATOM      6  N   UNL A   1      32.157  24.557  22.257  1.00  0.00    -0.331 N 
ATOM      7  C   UNL A   1      30.828  24.606  22.877  1.00  0.00     0.264 C 
ATOM      8  C   UNL A   1      32.818  25.795  22.544  1.00  0.00     0.264 C 
ATOM      9  H   UNL A   1      31.870  24.367  21.296  1.00  0.00     0.348 HD
ATOM     10  C   UNL A   1      30.542  25.549  24.134  1.00  0.00     0.091 C 
ATOM     11  C   UNL A   1      32.935  25.885  24.090  1.00  0.00     0.091 C 
ATOM     12  C   UNL A   1      31.694  26.468  24.667  1.00  0.00     0.064 C 
ATOM     13  N   UNL A   1      31.727  26.378  26.114  1.00  0.00    -0.349 N 
ATOM     14  C   UNL A   1      31.448  27.547  26.755  1.00  0.00     0.221 C 
ATOM     15  H   UNL A   1      31.934  25.542  26.593  1.00  0.00     0.164 HD
ATOM     16  C   UNL A   1      31.144  28.593  25.740  1.00  0.00     0.117 C 
ATOM     17  O   UNL A   1      31.407  27.675  27.980  1.00  0.00    -0.275 OA
BRANCH   6  18
ATOM     18  C   UNL A   1      33.102  23.415  22.290  1.00  0.00     0.302 C 
BRANCH  18  19
ATOM     19  C   UNL A   1      32.718  22.197  23.134  1.00  0.00     0.043 A 
ATOM     20  C   UNL A   1      33.019  19.690  24.201  1.00  0.00     0.159 A 
ATOM     21  N   UNL A   1      33.525  20.739  24.886  1.00  0.00    -0.236 NA
ATOM     22  N   UNL A   1      32.211  19.814  23.129  1.00  0.00    -0.236 NA
ATOM     23  C   UNL A   1      33.334  21.973  24.351  1.00  0.00     0.124 A 
ATOM     24  C   UNL A   1      32.078  21.070  22.616  1.00  0.00     0.124 A 
BRANCH  20  25
ATOM     25  C   UNL A   1      33.439  18.335  24.627  1.00  0.00     0.019 A 
ATOM     26  C   UNL A   1      32.010  15.063  26.126  1.00  0.00     0.044 C 
ATOM     27  C   UNL A   1      32.948  16.074  25.518  1.00  0.00    -0.050 A 
ATOM     28  C   UNL A   1      34.251  15.681  25.218  1.00  0.00     0.003 A 
ATOM     29  C   UNL A   1      32.559  17.401  25.230  1.00  0.00     0.015 A 
ATOM     30  C   UNL A   1      35.149  16.596  24.670  1.00  0.00     0.001 A 
ATOM     31  C   UNL A   1      34.749  17.906  24.387  1.00  0.00     0.012 A 
ENDBRANCH  20  25
ENDBRANCH  18  19
ENDBRANCH   6  18
ENDBRANCH   3   5
ENDBRANCH   2   3
ENDBRANCH   1   2
BRANCH   1  32
ATOM     32  C   UNL A   1      34.755  29.250  27.187  1.00  0.00     0.275 C 
BRANCH  32  33
ATOM     33  O   UNL A   1      35.824  29.949  27.967  1.00  0.00    -0.458 OA
BRANCH  33  34
ATOM     34  C   UNL A   1      36.631  29.653  29.032  1.00  0.00     0.338 C 
ATOM     35  O   UNL A   1      36.278  29.811  30.194  1.00  0.00    -0.246 OA
BRANCH  34  36
ATOM     36  C   UNL A   1      37.863  28.932  28.706  1.00  0.00     0.060 A 
ATOM     37  C   UNL A   1      38.749  29.361  27.698  1.00  0.00     0.016 A 
ATOM     38  C   UNL A   1      38.245  28.012  29.645  1.00  0.00     0.016 A 
ATOM     39  C   UNL A   1      40.098  29.003  27.775  1.00  0.00     0.010 A 
ATOM     40  C   UNL A   1      39.577  27.924  29.896  1.00  0.00     0.010 A 
ATOM     41  C   UNL A   1      40.508  28.347  28.933  1.00  0.00    -0.014 A 
BRANCH  41  42
ATOM     42  C   UNL A   1      41.734  27.588  29.129  1.00  0.00     0.031 A 
ATOM     43  C   UNL A   1      41.982  26.342  28.378  1.00  0.00     0.074 A 
ATOM     44  C   UNL A   1      42.603  28.416  29.762  1.00  0.00     0.049 A 
ATOM     45  N   UNL A   1      42.312  25.201  28.889  1.00  0.00    -0.248 NA
ATOM     46  C   UNL A   1      41.760  26.252  26.923  1.00  0.00     0.031 C 
ATOM     47  C   UNL A   1      44.039  28.489  29.873  1.00  0.00     0.029 A 
ATOM     48  N   UNL A   1      42.207  29.538  30.495  1.00  0.00    -0.354 N 
ATOM     49  C   UNL A   1      42.794  24.459  27.815  1.00  0.00     0.074 A 
ATOM     50  C   UNL A   1      42.140  24.997  26.648  1.00  0.00     0.031 C 
ATOM     51  C   UNL A   1      44.344  29.343  30.882  1.00  0.00     0.029 A 
ATOM     52  C   UNL A   1      43.101  29.832  31.487  1.00  0.00     0.049 A 
ATOM     53  H   UNL A   1      41.386  30.054  30.318  1.00  0.00     0.167 HD
ATOM     54  C   UNL A   1      44.068  23.954  27.845  1.00  0.00     0.034 A 
ATOM     55  C   UNL A   1      42.590  29.614  32.735  1.00  0.00     0.034 A 
ATOM     56  C   UNL A   1      44.802  24.567  28.944  1.00  0.00     0.049 A 
ATOM     57  C   UNL A   1      43.119  28.280  33.192  1.00  0.00     0.074 A 
ATOM     58  C   UNL A   1      45.754  25.572  28.962  1.00  0.00     0.029 A 
ATOM     59  N   UNL A   1      44.367  24.403  30.246  1.00  0.00    -0.354 N 
ATOM     60  N   UNL A   1      43.391  27.279  32.398  1.00  0.00    -0.248 NA
ATOM     61  C   UNL A   1      43.536  28.059  34.565  1.00  0.00     0.031 C 
ATOM     62  C   UNL A   1      45.882  26.017  30.301  1.00  0.00     0.029 A 
ATOM     63  C   UNL A   1      44.970  25.321  31.076  1.00  0.00     0.049 A 
ATOM     64  H   UNL A   1      43.718  23.724  30.539  1.00  0.00     0.167 HD
ATOM     65  C   UNL A   1      44.135  26.361  33.085  1.00  0.00     0.074 A 
ATOM     66  C   UNL A   1      44.173  26.885  34.445  1.00  0.00     0.031 C 
ATOM     67  C   UNL A   1      44.719  25.271  32.502  1.00  0.00     0.034 A 
BRANCH  54  68
ATOM     68  C   UNL A   1      44.796  23.253  26.713  1.00  0.00     0.023 A 
ATOM     69  C   UNL A   1      44.434  21.928  26.383  1.00  0.00     0.031 A 
ATOM     70  C   UNL A   1      45.761  23.841  25.876  1.00  0.00     0.131 A 
ATOM     71  C   UNL A   1      45.047  21.223  25.334  1.00  0.00     0.055 A 
ATOM     72  C   UNL A   1      46.386  23.135  24.830  1.00  0.00     0.041 A 
ATOM     73  F   UNL A   1      46.111  25.129  26.008  1.00  0.00    -0.206 F 
ATOM     74  C   UNL A   1      46.034  21.817  24.557  1.00  0.00     0.022 A 
BRANCH  71  75
ATOM     75  S   UNL A   1      44.505  19.524  24.997  1.00  0.00     0.124 S 
ATOM     76  O   UNL A   1      43.249  19.452  25.739  1.00  0.00    -0.237 OA
ATOM     77  O   UNL A   1      44.397  19.511  23.543  1.00  0.00    -0.237 OA
ATOM     78  O   UNL A   1      45.589  18.708  25.542  1.00  0.00    -0.744 OA
ENDBRANCH  71  75
ENDBRANCH  54  68
BRANCH  55  79
ATOM     79  C   UNL A   1      41.163  30.120  32.900  1.00  0.00     0.023 A 
ATOM     80  C   UNL A   1      40.895  31.460  32.515  1.00  0.00     0.031 A 
ATOM     81  C   UNL A   1      40.042  29.302  33.116  1.00  0.00     0.131 A 
ATOM     82  C   UNL A   1      39.588  31.902  32.235  1.00  0.00     0.055 A 
ATOM     83  C   UNL A   1      38.726  29.771  32.904  1.00  0.00     0.041 A 
ATOM     84  F   UNL A   1      40.187  28.010  33.441  1.00  0.00    -0.206 F 
ATOM     85  C   UNL A   1      38.495  31.064  32.431  1.00  0.00     0.022 A 
BRANCH  82  86
ATOM     86  S   UNL A   1      39.389  33.493  31.367  1.00  0.00     0.124 S 
ATOM     87  O   UNL A   1      38.670  33.096  30.162  1.00  0.00    -0.237 OA
ATOM     88  O   UNL A   1      38.628  34.275  32.341  1.00  0.00    -0.237 OA
ATOM     89  O   UNL A   1      40.759  33.947  31.158  1.00  0.00    -0.744 OA
ENDBRANCH  82  86
ENDBRANCH  55  79
BRANCH  67  90
ATOM     90  C   UNL A   1      45.212  24.068  33.256  1.00  0.00     0.023 A 
ATOM     91  C   UNL A   1      46.490  24.037  33.806  1.00  0.00     0.031 A 
ATOM     92  C   UNL A   1      44.389  22.951  33.539  1.00  0.00     0.131 A 
ATOM     93  C   UNL A   1      46.974  22.892  34.440  1.00  0.00     0.055 A 
ATOM     94  C   UNL A   1      44.827  21.866  34.298  1.00  0.00     0.041 A 
ATOM     95  F   UNL A   1      43.123  22.862  33.108  1.00  0.00    -0.206 F 
ATOM     96  C   UNL A   1      46.144  21.814  34.724  1.00  0.00     0.022 A 
BRANCH  93  97
ATOM     97  S   UNL A   1      48.751  22.829  34.739  1.00  0.00     0.124 S 
ATOM     98  O   UNL A   1      49.020  21.397  34.616  1.00  0.00    -0.237 OA
ATOM     99  O   UNL A   1      49.282  23.662  33.665  1.00  0.00    -0.237 OA
ATOM    100  O   UNL A   1      48.889  23.376  36.086  1.00  0.00    -0.744 OA
ENDBRANCH  93  97
ENDBRANCH  67  90
ENDBRANCH  41  42
ENDBRANCH  34  36
ENDBRANCH  33  34
ENDBRANCH  32  33
ENDBRANCH   1  32
TORSDOF 17
ENDMDL
MODEL 3
REMARK VINA RESULT:     -13.6      2.479      3.479
REMARK SMILES Cc1cccc(-c2ncc(C[NH+]3CCC4(CC3)NC(=O)C[C@H]4C(=O)OCCOC(=O)c3ccc(-c4c5nc(c(-c6cc(S(=O)(=O)[O-])ccc6F)c6ccc([nH]6)c(-c6cc(S(=O)(=O)[O-])ccc6F)c6nc(c(-c7cc(S(=O)(=O)[O-])ccc7F)c7ccc4[nH]7)C=C6)C=C5)cc3)cn2)c1
REMARK SMILES IDX 26 1 25 2 23 3 24 4 22 5 12 6 13 7 17 8 14 10 16 11 15 12
REMARK SMILES IDX 18 13 19 14 21 16 20 17 11 18 10 19 7 20 8 21 95 22 9 23
REMARK SMILES IDX 94 24 6 25 1 26 2 27 3 28 96 29 4 30 5 31 27 32 28 33 29 34
REMARK SMILES IDX 30 35 31 36 32 37 93 38 33 39 92 40 34 41 35 42 36 43 86 44
REMARK SMILES IDX 37 45 91 46 85 47 87 48 38 49 90 50 84 51 83 52 39 54 71 55
REMARK SMILES IDX 51 56 70 57 52 58 55 59 69 60 88 61 53 62 54 63 68 65 89 66
REMARK SMILES IDX 56 67 40 68 41 69 49 70 42 71 48 72 50 73 47 74 43 75 44 76
REMARK SMILES IDX 45 77 46 78 72 79 73 80 81 81 74 82 80 83 82 84 79 85 75 86
REMARK SMILES IDX 76 87 77 88 78 89 57 90 58 91 66 92 59 93 65 94 67 95 64 96
REMARK SMILES IDX 60 97 61 98 62 99 63 100
REMARK H PARENT 12 9 18 15 87 53 55 64
REMARK Flexibility Score: inf
ROOT
ATOM      1  C   UNL A   1      36.659  23.667  25.547  1.00  0.00     0.274 C 
ENDROOT
BRANCH   1   2
ATOM      2  O   UNL A   1      35.429  23.092  26.109  1.00  0.00    -0.462 OA
BRANCH   2   3
ATOM      3  C   UNL A   1      34.711  22.435  25.201  1.00  0.00     0.311 C 
ATOM      4  O   UNL A   1      35.009  22.661  24.039  1.00  0.00    -0.252 OA
BRANCH   3   5
ATOM      5  C   UNL A   1      33.536  21.485  25.565  1.00  0.00     0.134 C 
ATOM      6  N   UNL A   1      31.178  24.719  26.475  1.00  0.00    -0.331 N 
ATOM      7  C   UNL A   1      30.503  23.462  26.818  1.00  0.00     0.264 C 
ATOM      8  C   UNL A   1      32.498  24.395  26.021  1.00  0.00     0.264 C 
ATOM      9  H   UNL A   1      31.072  25.198  27.370  1.00  0.00     0.348 HD
ATOM     10  C   UNL A   1      30.949  22.082  26.150  1.00  0.00     0.091 C 
ATOM     11  C   UNL A   1      32.324  23.504  24.761  1.00  0.00     0.091 C 
ATOM     12  C   UNL A   1      32.163  22.079  25.159  1.00  0.00     0.064 C 
ATOM     13  N   UNL A   1      31.814  21.276  24.002  1.00  0.00    -0.349 N 
ATOM     14  C   UNL A   1      32.582  20.162  23.840  1.00  0.00     0.221 C 
ATOM     15  H   UNL A   1      31.085  21.515  23.386  1.00  0.00     0.164 HD
ATOM     16  C   UNL A   1      33.558  20.083  24.963  1.00  0.00     0.117 C 
ATOM     17  O   UNL A   1      32.435  19.342  22.933  1.00  0.00    -0.275 OA
BRANCH   6  18
ATOM     18  C   UNL A   1      30.600  25.848  25.708  1.00  0.00     0.302 C 
BRANCH  18  19
ATOM     19  C   UNL A   1      31.122  27.255  26.009  1.00  0.00     0.043 A 
ATOM     20  C   UNL A   1      32.988  29.148  26.678  1.00  0.00     0.159 A 
ATOM     21  N   UNL A   1      32.815  28.858  25.370  1.00  0.00    -0.236 NA
ATOM     22  N   UNL A   1      32.171  28.711  27.658  1.00  0.00    -0.236 NA
ATOM     23  C   UNL A   1      31.862  27.940  25.064  1.00  0.00     0.124 A 
ATOM     24  C   UNL A   1      31.252  27.769  27.301  1.00  0.00     0.124 A 
BRANCH  20  25
ATOM     25  C   UNL A   1      34.184  29.940  27.045  1.00  0.00     0.019 A 
ATOM     26  C   UNL A   1      35.209  33.455  28.306  1.00  0.00     0.044 C 
ATOM     27  C   UNL A   1      35.264  32.012  27.877  1.00  0.00    -0.050 A 
ATOM     28  C   UNL A   1      36.483  31.338  27.950  1.00  0.00     0.003 A 
ATOM     29  C   UNL A   1      34.130  31.308  27.414  1.00  0.00     0.015 A 
ATOM     30  C   UNL A   1      36.571  30.007  27.546  1.00  0.00     0.001 A 
ATOM     31  C   UNL A   1      35.439  29.322  27.093  1.00  0.00     0.012 A 
ENDBRANCH  20  25
ENDBRANCH  18  19
ENDBRANCH   6  18
ENDBRANCH   3   5
ENDBRANCH   2   3
ENDBRANCH   1   2
BRANCH   1  32
ATOM     32  C   UNL A   1      38.149  23.445  26.139  1.00  0.00     0.275 C 
BRANCH  32  33
ATOM     33  O   UNL A   1      38.974  24.320  27.031  1.00  0.00    -0.458 OA
BRANCH  33  34
ATOM     34  C   UNL A   1      39.804  25.396  26.873  1.00  0.00     0.338 C 
ATOM     35  O   UNL A   1      40.533  25.533  25.899  1.00  0.00    -0.246 OA
BRANCH  34  36
ATOM     36  C   UNL A   1      39.614  26.484  27.834  1.00  0.00     0.060 A 
ATOM     37  C   UNL A   1      39.655  26.281  29.228  1.00  0.00     0.016 A 
ATOM     38  C   UNL A   1      39.710  27.738  27.295  1.00  0.00     0.016 A 
ATOM     39  C   UNL A   1      40.005  27.345  30.065  1.00  0.00     0.010 A 
ATOM     40  C   UNL A   1      40.343  28.673  28.050  1.00  0.00     0.010 A 
ATOM     41  C   UNL A   1      40.425  28.518  29.444  1.00  0.00    -0.014 A 
BRANCH  41  42
ATOM     42  C   UNL A   1      40.522  29.843  30.039  1.00  0.00     0.031 A 
ATOM     43  C   UNL A   1      39.311  30.633  30.332  1.00  0.00     0.074 A 
ATOM     44  C   UNL A   1      41.779  29.949  30.541  1.00  0.00     0.049 A 
ATOM     45  N   UNL A   1      39.091  31.852  29.959  1.00  0.00    -0.248 NA
ATOM     46  C   UNL A   1      38.143  30.044  31.013  1.00  0.00     0.031 C 
ATOM     47  C   UNL A   1      42.397  30.744  31.573  1.00  0.00     0.029 A 
ATOM     48  N   UNL A   1      42.851  29.161  30.113  1.00  0.00    -0.354 N 
ATOM     49  C   UNL A   1      38.038  32.282  30.760  1.00  0.00     0.074 A 
ATOM     50  C   UNL A   1      37.311  31.089  31.116  1.00  0.00     0.031 C 
ATOM     51  C   UNL A   1      43.743  30.650  31.433  1.00  0.00     0.029 A 
ATOM     52  C   UNL A   1      44.046  29.808  30.272  1.00  0.00     0.049 A 
ATOM     53  H   UNL A   1      42.757  28.252  29.745  1.00  0.00     0.167 HD
ATOM     54  C   UNL A   1      38.189  33.384  31.560  1.00  0.00     0.034 A 
ATOM     55  C   UNL A   1      44.626  30.136  29.079  1.00  0.00     0.034 A 
ATOM     56  C   UNL A   1      39.600  33.744  31.622  1.00  0.00     0.049 A 
ATOM     57  C   UNL A   1      44.318  31.590  28.835  1.00  0.00     0.074 A 
ATOM     58  C   UNL A   1      40.554  33.541  32.604  1.00  0.00     0.029 A 
ATOM     59  N   UNL A   1      40.278  34.095  30.469  1.00  0.00    -0.354 N 
ATOM     60  N   UNL A   1      43.233  32.197  29.239  1.00  0.00    -0.248 NA
ATOM     61  C   UNL A   1      45.304  32.490  28.264  1.00  0.00     0.031 C 
ATOM     62  C   UNL A   1      41.825  33.771  32.019  1.00  0.00     0.029 A 
ATOM     63  C   UNL A   1      41.638  34.056  30.677  1.00  0.00     0.049 A 
ATOM     64  H   UNL A   1      39.848  34.340  29.619  1.00  0.00     0.167 HD
ATOM     65  C   UNL A   1      43.418  33.547  29.133  1.00  0.00     0.074 A 
ATOM     66  C   UNL A   1      44.720  33.676  28.491  1.00  0.00     0.031 C 
ATOM     67  C   UNL A   1      42.536  34.472  29.621  1.00  0.00     0.034 A 
BRANCH  54  68
ATOM     68  C   UNL A   1      37.205  33.901  32.592  1.00  0.00     0.023 A 
ATOM     69  C   UNL A   1      36.058  34.601  32.154  1.00  0.00     0.031 A 
ATOM     70  C   UNL A   1      37.276  33.668  33.978  1.00  0.00     0.131 A 
ATOM     71  C   UNL A   1      35.091  35.090  33.049  1.00  0.00     0.055 A 
ATOM     72  C   UNL A   1      36.316  34.165  34.879  1.00  0.00     0.041 A 
ATOM     73  F   UNL A   1      38.253  32.919  34.511  1.00  0.00    -0.206 F 
ATOM     74  C   UNL A   1      35.218  34.884  34.418  1.00  0.00     0.022 A 
BRANCH  71  75
ATOM     75  S   UNL A   1      33.656  35.975  32.378  1.00  0.00     0.124 S 
ATOM     76  O   UNL A   1      34.098  36.288  31.021  1.00  0.00    -0.237 OA
ATOM     77  O   UNL A   1      32.591  34.986  32.498  1.00  0.00    -0.237 OA
ATOM     78  O   UNL A   1      33.527  37.131  33.264  1.00  0.00    -0.744 OA
ENDBRANCH  71  75
ENDBRANCH  54  68
BRANCH  55  79
ATOM     79  C   UNL A   1      44.561  29.018  28.047  1.00  0.00     0.023 A 
ATOM     80  C   UNL A   1      45.220  27.800  28.361  1.00  0.00     0.031 A 
ATOM     81  C   UNL A   1      43.672  28.979  26.961  1.00  0.00     0.131 A 
ATOM     82  C   UNL A   1      44.899  26.596  27.707  1.00  0.00     0.055 A 
ATOM     83  C   UNL A   1      43.406  27.783  26.259  1.00  0.00     0.041 A 
ATOM     84  F   UNL A   1      42.969  30.064  26.610  1.00  0.00    -0.206 F 
ATOM     85  C   UNL A   1      43.994  26.578  26.650  1.00  0.00     0.022 A 
BRANCH  82  86
ATOM     86  S   UNL A   1      45.490  25.037  28.444  1.00  0.00     0.124 S 
ATOM     87  O   UNL A   1      44.598  24.882  29.588  1.00  0.00    -0.237 OA
ATOM     88  O   UNL A   1      45.295  24.090  27.345  1.00  0.00    -0.237 OA
ATOM     89  O   UNL A   1      46.883  25.313  28.769  1.00  0.00    -0.744 OA
ENDBRANCH  82  86
ENDBRANCH  55  79
BRANCH  67  90
ATOM     90  C   UNL A   1      42.508  35.916  29.207  1.00  0.00     0.023 A 
ATOM     91  C   UNL A   1      43.306  36.863  29.843  1.00  0.00     0.031 A 
ATOM     92  C   UNL A   1      41.759  36.382  28.099  1.00  0.00     0.131 A 
ATOM     93  C   UNL A   1      43.224  38.215  29.510  1.00  0.00     0.055 A 
ATOM     94  C   UNL A   1      41.789  37.710  27.675  1.00  0.00     0.041 A 
ATOM     95  F   UNL A   1      40.978  35.574  27.368  1.00  0.00    -0.206 F 
ATOM     96  C   UNL A   1      42.497  38.648  28.407  1.00  0.00     0.022 A 
BRANCH  93  97
ATOM     97  S   UNL A   1      43.986  39.375  30.661  1.00  0.00     0.124 S 
ATOM     98  O   UNL A   1      45.334  39.497  30.106  1.00  0.00    -0.237 OA
ATOM     99  O   UNL A   1      43.142  40.557  30.525  1.00  0.00    -0.237 OA
ATOM    100  O   UNL A   1      43.901  38.686  31.945  1.00  0.00    -0.744 OA
ENDBRANCH  93  97
ENDBRANCH  67  90
ENDBRANCH  41  42
ENDBRANCH  34  36
ENDBRANCH  33  34
ENDBRANCH  32  33
ENDBRANCH   1  32
TORSDOF 17
ENDMDL
