MODEL 1
REMARK VINA RESULT:      -9.6      0.000      0.000
REMARK SMILES CC(C)C[C@@H](CNC(=O)N(C)CCC#N)C(=O)OCCOC(=O)c1ccc(-c2c3nc(c(-c4cc(S(=O)(=O)[O-])ccc4F)c4ccc([nH]4)c(-c4cc(S(=O)(=O)[O-])ccc4F)c4nc(c(-c5cc(S(=O)(=O)[O-])ccc5F)c5ccc2[nH]5)C=C4)C=C3)cc1
REMARK SMILES IDX 18 1 16 2 17 3 5 4 4 5 2 6 1 7 3 8 6 9 7 10 8 11 9 13 10 14
REMARK SMILES IDX 11 15 12 16 13 17 14 18 15 19 19 20 20 21 21 22 22 23 23 24
REMARK SMILES IDX 24 25 25 26 86 27 26 28 85 29 27 30 28 31 29 32 79 33 30 34
REMARK SMILES IDX 84 35 78 36 80 37 31 38 83 39 77 40 76 41 32 43 64 44 44 45
REMARK SMILES IDX 63 46 45 47 48 48 62 49 81 50 46 51 47 52 61 54 82 55 49 56
REMARK SMILES IDX 33 57 34 58 42 59 35 60 41 61 43 62 40 63 36 64 37 65 38 66
REMARK SMILES IDX 39 67 65 68 66 69 74 70 67 71 73 72 75 73 72 74 68 75 69 76
REMARK SMILES IDX 70 77 71 78 50 79 51 80 59 81 52 82 58 83 60 84 57 85 53 86
REMARK SMILES IDX 54 87 55 88 56 89
REMARK H PARENT 7 12 80 42 48 53
REMARK Flexibility Score: inf
ROOT
ATOM      1  O   UNL A   1      35.194  22.500  23.994  1.00  0.00    -0.462 OA
ENDROOT
BRANCH   1   2
ATOM      2  C   UNL A   1      34.776  23.652  24.587  1.00  0.00     0.310 C 
ATOM      3  O   UNL A   1      35.516  24.481  25.104  1.00  0.00    -0.252 OA
BRANCH   2   4
ATOM      4  C   UNL A   1      33.256  23.766  24.641  1.00  0.00     0.119 C 
BRANCH   4   5
ATOM      5  C   UNL A   1      32.735  24.028  26.068  1.00  0.00     0.020 C 
BRANCH   5   6
ATOM      6  C   UNL A   1      31.622  23.073  26.550  1.00  0.00    -0.017 C 
ATOM      7  C   UNL A   1      30.242  23.733  26.570  1.00  0.00     0.007 C 
ATOM      8  C   UNL A   1      31.581  21.836  25.647  1.00  0.00     0.007 C 
ENDBRANCH   5   6
ENDBRANCH   4   5
BRANCH   4   9
ATOM      9  C   UNL A   1      32.778  24.806  23.619  1.00  0.00     0.133 C 
BRANCH   9  10
ATOM     10  N   UNL A   1      33.645  25.963  23.610  1.00  0.00    -0.337 N 
ATOM     11  C   UNL A   1      33.426  27.256  23.927  1.00  0.00     0.317 C 
ATOM     12  H   UNL A   1      34.566  25.772  23.317  1.00  0.00     0.165 HD
ATOM     13  O   UNL A   1      34.073  28.093  23.293  1.00  0.00    -0.249 OA
BRANCH  11  14
ATOM     14  N   UNL A   1      32.690  27.612  25.024  1.00  0.00    -0.327 N 
ATOM     15  C   UNL A   1      33.052  27.522  26.429  1.00  0.00     0.148 C 
BRANCH  14  16
ATOM     16  C   UNL A   1      31.427  28.287  24.724  1.00  0.00     0.136 C 
BRANCH  16  17
ATOM     17  C   UNL A   1      30.806  27.763  23.425  1.00  0.00     0.141 C 
BRANCH  17  18
ATOM     18  C   UNL A   1      29.466  27.092  23.678  1.00  0.00     0.064 C 
ATOM     19  N   UNL A   1      28.354  26.535  23.887  1.00  0.00    -0.198 NA
ENDBRANCH  17  18
ENDBRANCH  16  17
ENDBRANCH  14  16
ENDBRANCH  11  14
ENDBRANCH   9  10
ENDBRANCH   4   9
ENDBRANCH   2   4
ENDBRANCH   1   2
BRANCH   1  20
ATOM     20  C   UNL A   1      35.123  21.310  24.801  1.00  0.00     0.274 C 
BRANCH  20  21
ATOM     21  C   UNL A   1      36.501  20.682  25.011  1.00  0.00     0.275 C 
BRANCH  21  22
ATOM     22  O   UNL A   1      37.526  21.681  25.153  1.00  0.00    -0.458 OA
BRANCH  22  23
ATOM     23  C   UNL A   1      38.648  21.261  25.781  1.00  0.00     0.338 C 
ATOM     24  O   UNL A   1      39.134  20.139  25.761  1.00  0.00    -0.246 OA
BRANCH  23  25
ATOM     25  C   UNL A   1      39.316  22.412  26.399  1.00  0.00     0.060 A 
ATOM     26  C   UNL A   1      38.903  23.695  26.032  1.00  0.00     0.016 A 
ATOM     27  C   UNL A   1      40.384  22.231  27.274  1.00  0.00     0.016 A 
ATOM     28  C   UNL A   1      39.537  24.814  26.552  1.00  0.00     0.010 A 
ATOM     29  C   UNL A   1      41.036  23.355  27.782  1.00  0.00     0.010 A 
ATOM     30  C   UNL A   1      40.618  24.648  27.419  1.00  0.00    -0.014 A 
BRANCH  30  31
ATOM     31  C   UNL A   1      41.381  25.832  27.866  1.00  0.00     0.031 A 
ATOM     32  C   UNL A   1      40.674  26.888  28.659  1.00  0.00     0.074 A 
ATOM     33  C   UNL A   1      42.684  25.947  27.563  1.00  0.00     0.049 A 
ATOM     34  N   UNL A   1      41.083  28.079  29.004  1.00  0.00    -0.248 NA
ATOM     35  C   UNL A   1      39.315  26.556  29.114  1.00  0.00     0.031 C 
ATOM     36  C   UNL A   1      43.478  24.938  26.859  1.00  0.00     0.029 A 
ATOM     37  N   UNL A   1      43.564  26.974  27.786  1.00  0.00    -0.354 N 
ATOM     38  C   UNL A   1      40.021  28.657  29.688  1.00  0.00     0.074 A 
ATOM     39  C   UNL A   1      38.946  27.686  29.696  1.00  0.00     0.031 C 
ATOM     40  C   UNL A   1      44.721  25.412  26.678  1.00  0.00     0.029 A 
ATOM     41  C   UNL A   1      44.791  26.774  27.199  1.00  0.00     0.049 A 
ATOM     42  H   UNL A   1      43.339  27.774  28.314  1.00  0.00     0.167 HD
ATOM     43  C   UNL A   1      39.956  29.890  30.248  1.00  0.00     0.034 A 
ATOM     44  C   UNL A   1      45.829  27.620  27.047  1.00  0.00     0.034 A 
ATOM     45  C   UNL A   1      41.047  30.832  30.218  1.00  0.00     0.049 A 
ATOM     46  C   UNL A   1      45.710  29.014  27.607  1.00  0.00     0.074 A 
ATOM     47  C   UNL A   1      41.110  32.102  30.762  1.00  0.00     0.029 A 
ATOM     48  N   UNL A   1      42.271  30.607  29.597  1.00  0.00    -0.354 N 
ATOM     49  N   UNL A   1      44.696  29.568  28.233  1.00  0.00    -0.248 NA
ATOM     50  C   UNL A   1      46.870  29.898  27.439  1.00  0.00     0.031 C 
ATOM     51  C   UNL A   1      42.342  32.667  30.415  1.00  0.00     0.029 A 
ATOM     52  C   UNL A   1      43.080  31.725  29.714  1.00  0.00     0.049 A 
ATOM     53  H   UNL A   1      42.525  29.773  29.139  1.00  0.00     0.167 HD
ATOM     54  C   UNL A   1      45.103  30.859  28.550  1.00  0.00     0.074 A 
ATOM     55  C   UNL A   1      46.460  30.998  28.054  1.00  0.00     0.031 C 
ATOM     56  C   UNL A   1      44.425  31.842  29.197  1.00  0.00     0.034 A 
BRANCH  43  57
ATOM     57  C   UNL A   1      38.638  30.300  30.860  1.00  0.00     0.023 A 
ATOM     58  C   UNL A   1      37.644  30.960  30.116  1.00  0.00     0.031 A 
ATOM     59  C   UNL A   1      38.400  30.082  32.229  1.00  0.00     0.131 A 
ATOM     60  C   UNL A   1      36.498  31.449  30.761  1.00  0.00     0.055 A 
ATOM     61  C   UNL A   1      37.221  30.502  32.847  1.00  0.00     0.041 A 
ATOM     62  F   UNL A   1      39.323  29.480  32.996  1.00  0.00    -0.206 F 
ATOM     63  C   UNL A   1      36.269  31.206  32.117  1.00  0.00     0.022 A 
BRANCH  60  64
ATOM     64  S   UNL A   1      35.387  32.549  29.839  1.00  0.00     0.124 S 
ATOM     65  O   UNL A   1      35.061  31.731  28.672  1.00  0.00    -0.237 OA
ATOM     66  O   UNL A   1      34.302  32.768  30.787  1.00  0.00    -0.237 OA
ATOM     67  O   UNL A   1      36.217  33.718  29.558  1.00  0.00    -0.744 OA
ENDBRANCH  60  64
ENDBRANCH  43  57
BRANCH  44  68
ATOM     68  C   UNL A   1      47.024  27.198  26.267  1.00  0.00     0.023 A 
ATOM     69  C   UNL A   1      47.200  27.587  24.931  1.00  0.00     0.031 A 
ATOM     70  C   UNL A   1      48.012  26.385  26.855  1.00  0.00     0.131 A 
ATOM     71  C   UNL A   1      48.326  27.142  24.219  1.00  0.00     0.055 A 
ATOM     72  C   UNL A   1      49.149  25.982  26.156  1.00  0.00     0.041 A 
ATOM     73  F   UNL A   1      47.891  25.988  28.132  1.00  0.00    -0.206 F 
ATOM     74  C   UNL A   1      49.306  26.354  24.825  1.00  0.00     0.022 A 
BRANCH  71  75
ATOM     75  S   UNL A   1      48.466  27.566  22.461  1.00  0.00     0.124 S 
ATOM     76  O   UNL A   1      49.677  28.378  22.445  1.00  0.00    -0.237 OA
ATOM     77  O   UNL A   1      48.569  26.249  21.839  1.00  0.00    -0.237 OA
ATOM     78  O   UNL A   1      47.227  28.288  22.184  1.00  0.00    -0.744 OA
ENDBRANCH  71  75
ENDBRANCH  44  68
BRANCH  56  79
ATOM     79  C   UNL A   1      45.162  33.133  29.442  1.00  0.00     0.023 A 
ATOM     80  C   UNL A   1      45.162  34.174  28.498  1.00  0.00     0.031 A 
ATOM     81  C   UNL A   1      45.867  33.322  30.643  1.00  0.00     0.131 A 
ATOM     82  C   UNL A   1      45.889  35.346  28.756  1.00  0.00     0.055 A 
ATOM     83  C   UNL A   1      46.545  34.510  30.916  1.00  0.00     0.041 A 
ATOM     84  F   UNL A   1      45.898  32.357  31.576  1.00  0.00    -0.206 F 
ATOM     85  C   UNL A   1      46.566  35.527  29.966  1.00  0.00     0.022 A 
BRANCH  82  86
ATOM     86  S   UNL A   1      45.991  36.612  27.462  1.00  0.00     0.124 S 
ATOM     87  O   UNL A   1      44.616  36.659  26.975  1.00  0.00    -0.237 OA
ATOM     88  O   UNL A   1      46.446  37.784  28.205  1.00  0.00    -0.237 OA
ATOM     89  O   UNL A   1      46.964  36.062  26.520  1.00  0.00    -0.744 OA
ENDBRANCH  82  86
ENDBRANCH  56  79
ENDBRANCH  30  31
ENDBRANCH  23  25
ENDBRANCH  22  23
ENDBRANCH  21  22
ENDBRANCH  20  21
ENDBRANCH   1  20
TORSDOF 22
ENDMDL
MODEL 2
REMARK VINA RESULT:      -9.6      5.217     10.147
REMARK SMILES CC(C)C[C@@H](CNC(=O)N(C)CCC#N)C(=O)OCCOC(=O)c1ccc(-c2c3nc(c(-c4cc(S(=O)(=O)[O-])ccc4F)c4ccc([nH]4)c(-c4cc(S(=O)(=O)[O-])ccc4F)c4nc(c(-c5cc(S(=O)(=O)[O-])ccc5F)c5ccc2[nH]5)C=C4)C=C3)cc1
REMARK SMILES IDX 18 1 16 2 17 3 5 4 4 5 2 6 1 7 3 8 6 9 7 10 8 11 9 13 10 14
REMARK SMILES IDX 11 15 12 16 13 17 14 18 15 19 19 20 20 21 21 22 22 23 23 24
REMARK SMILES IDX 24 25 25 26 86 27 26 28 85 29 27 30 28 31 29 32 79 33 30 34
REMARK SMILES IDX 84 35 78 36 80 37 31 38 83 39 77 40 76 41 32 43 64 44 44 45
REMARK SMILES IDX 63 46 45 47 48 48 62 49 81 50 46 51 47 52 61 54 82 55 49 56
REMARK SMILES IDX 33 57 34 58 42 59 35 60 41 61 43 62 40 63 36 64 37 65 38 66
REMARK SMILES IDX 39 67 65 68 66 69 74 70 67 71 73 72 75 73 72 74 68 75 69 76
REMARK SMILES IDX 70 77 71 78 50 79 51 80 59 81 52 82 58 83 60 84 57 85 53 86
REMARK SMILES IDX 54 87 55 88 56 89
REMARK H PARENT 7 12 80 42 48 53
REMARK Flexibility Score: inf
ROOT
ATOM      1  O   UNL A   1      31.027  27.597  25.614  1.00  0.00    -0.462 OA
ENDROOT
BRANCH   1   2
ATOM      2  C   UNL A   1      30.776  26.884  24.483  1.00  0.00     0.310 C 
ATOM      3  O   UNL A   1      29.831  27.078  23.727  1.00  0.00    -0.252 OA
BRANCH   2   4
ATOM      4  C   UNL A   1      31.747  25.722  24.294  1.00  0.00     0.119 C 
BRANCH   4   5
ATOM      5  C   UNL A   1      33.195  26.198  24.057  1.00  0.00     0.020 C 
BRANCH   5   6
ATOM      6  C   UNL A   1      33.557  26.496  22.585  1.00  0.00    -0.017 C 
ATOM      7  C   UNL A   1      32.589  25.848  21.594  1.00  0.00     0.007 C 
ATOM      8  C   UNL A   1      33.579  28.011  22.359  1.00  0.00     0.007 C 
ENDBRANCH   5   6
ENDBRANCH   4   5
BRANCH   4   9
ATOM      9  C   UNL A   1      31.615  24.741  25.466  1.00  0.00     0.133 C 
BRANCH   9  10
ATOM     10  N   UNL A   1      32.908  24.431  26.034  1.00  0.00    -0.337 N 
ATOM     11  C   UNL A   1      33.576  23.267  26.172  1.00  0.00     0.317 C 
ATOM     12  H   UNL A   1      33.389  25.214  26.387  1.00  0.00     0.165 HD
ATOM     13  O   UNL A   1      34.305  23.167  27.161  1.00  0.00    -0.249 OA
BRANCH  11  14
ATOM     14  N   UNL A   1      33.610  22.336  25.170  1.00  0.00    -0.327 N 
ATOM     15  C   UNL A   1      33.901  22.529  23.759  1.00  0.00     0.148 C 
BRANCH  14  16
ATOM     16  C   UNL A   1      33.457  20.950  25.614  1.00  0.00     0.136 C 
BRANCH  16  17
ATOM     17  C   UNL A   1      33.305  19.994  24.426  1.00  0.00     0.141 C 
BRANCH  17  18
ATOM     18  C   UNL A   1      32.660  18.683  24.845  1.00  0.00     0.064 C 
ATOM     19  N   UNL A   1      32.124  17.595  25.193  1.00  0.00    -0.198 NA
ENDBRANCH  17  18
ENDBRANCH  16  17
ENDBRANCH  14  16
ENDBRANCH  11  14
ENDBRANCH   9  10
ENDBRANCH   4   9
ENDBRANCH   2   4
ENDBRANCH   1   2
BRANCH   1  20
ATOM     20  C   UNL A   1      31.424  28.968  25.424  1.00  0.00     0.274 C 
BRANCH  20  21
ATOM     21  C   UNL A   1      32.172  29.518  26.640  1.00  0.00     0.275 C 
BRANCH  21  22
ATOM     22  O   UNL A   1      33.223  30.422  26.254  1.00  0.00    -0.458 OA
BRANCH  22  23
ATOM     23  C   UNL A   1      33.518  31.374  27.168  1.00  0.00     0.338 C 
ATOM     24  O   UNL A   1      32.788  32.269  27.571  1.00  0.00    -0.246 OA
BRANCH  23  25
ATOM     25  C   UNL A   1      34.837  31.095  27.748  1.00  0.00     0.060 A 
ATOM     26  C   UNL A   1      35.102  29.801  28.202  1.00  0.00     0.016 A 
ATOM     27  C   UNL A   1      35.774  32.112  27.909  1.00  0.00     0.016 A 
ATOM     28  C   UNL A   1      36.316  29.501  28.803  1.00  0.00     0.010 A 
ATOM     29  C   UNL A   1      36.988  31.817  28.532  1.00  0.00     0.010 A 
ATOM     30  C   UNL A   1      37.260  30.513  28.984  1.00  0.00    -0.014 A 
BRANCH  30  31
ATOM     31  C   UNL A   1      38.495  30.230  29.744  1.00  0.00     0.031 A 
ATOM     32  C   UNL A   1      39.473  29.240  29.187  1.00  0.00     0.074 A 
ATOM     33  C   UNL A   1      38.727  30.854  30.909  1.00  0.00     0.049 A 
ATOM     34  N   UNL A   1      40.523  28.707  29.750  1.00  0.00    -0.248 NA
ATOM     35  C   UNL A   1      39.221  28.784  27.811  1.00  0.00     0.031 C 
ATOM     36  C   UNL A   1      37.870  31.887  31.497  1.00  0.00     0.029 A 
ATOM     37  N   UNL A   1      39.738  30.695  31.821  1.00  0.00    -0.354 N 
ATOM     38  C   UNL A   1      41.043  27.823  28.812  1.00  0.00     0.074 A 
ATOM     39  C   UNL A   1      40.181  27.887  27.649  1.00  0.00     0.031 C 
ATOM     40  C   UNL A   1      38.377  32.244  32.688  1.00  0.00     0.029 A 
ATOM     41  C   UNL A   1      39.553  31.426  32.970  1.00  0.00     0.049 A 
ATOM     42  H   UNL A   1      40.518  30.115  31.667  1.00  0.00     0.167 HD
ATOM     43  C   UNL A   1      42.136  27.030  28.923  1.00  0.00     0.034 A 
ATOM     44  C   UNL A   1      40.223  31.391  34.138  1.00  0.00     0.034 A 
ATOM     45  C   UNL A   1      42.970  26.991  30.099  1.00  0.00     0.049 A 
ATOM     46  C   UNL A   1      41.389  30.445  34.273  1.00  0.00     0.074 A 
ATOM     47  C   UNL A   1      44.111  26.242  30.327  1.00  0.00     0.029 A 
ATOM     48  N   UNL A   1      42.743  27.729  31.255  1.00  0.00    -0.354 N 
ATOM     49  N   UNL A   1      41.865  29.594  33.393  1.00  0.00    -0.248 NA
ATOM     50  C   UNL A   1      42.104  30.452  35.554  1.00  0.00     0.031 C 
ATOM     51  C   UNL A   1      44.535  26.479  31.639  1.00  0.00     0.029 A 
ATOM     52  C   UNL A   1      43.701  27.429  32.210  1.00  0.00     0.049 A 
ATOM     53  H   UNL A   1      42.008  28.372  31.378  1.00  0.00     0.167 HD
ATOM     54  C   UNL A   1      42.948  28.976  34.009  1.00  0.00     0.074 A 
ATOM     55  C   UNL A   1      43.060  29.562  35.332  1.00  0.00     0.031 C 
ATOM     56  C   UNL A   1      43.781  28.018  33.527  1.00  0.00     0.034 A 
BRANCH  43  57
ATOM     57  C   UNL A   1      42.428  26.095  27.775  1.00  0.00     0.023 A 
ATOM     58  C   UNL A   1      41.875  24.804  27.705  1.00  0.00     0.031 A 
ATOM     59  C   UNL A   1      43.327  26.481  26.764  1.00  0.00     0.131 A 
ATOM     60  C   UNL A   1      42.289  23.919  26.697  1.00  0.00     0.055 A 
ATOM     61  C   UNL A   1      43.673  25.623  25.718  1.00  0.00     0.041 A 
ATOM     62  F   UNL A   1      43.907  27.691  26.790  1.00  0.00    -0.206 F 
ATOM     63  C   UNL A   1      43.167  24.327  25.690  1.00  0.00     0.022 A 
BRANCH  60  64
ATOM     64  S   UNL A   1      41.789  22.179  26.811  1.00  0.00     0.124 S 
ATOM     65  O   UNL A   1      42.167  21.674  25.493  1.00  0.00    -0.237 OA
ATOM     66  O   UNL A   1      42.585  21.696  27.933  1.00  0.00    -0.237 OA
ATOM     67  O   UNL A   1      40.349  22.250  27.052  1.00  0.00    -0.744 OA
ENDBRANCH  60  64
ENDBRANCH  43  57
BRANCH  44  68
ATOM     68  C   UNL A   1      39.756  32.213  35.289  1.00  0.00     0.023 A 
ATOM     69  C   UNL A   1      38.931  31.673  36.287  1.00  0.00     0.031 A 
ATOM     70  C   UNL A   1      40.128  33.566  35.399  1.00  0.00     0.131 A 
ATOM     71  C   UNL A   1      38.485  32.489  37.338  1.00  0.00     0.055 A 
ATOM     72  C   UNL A   1      39.718  34.361  36.469  1.00  0.00     0.041 A 
ATOM     73  F   UNL A   1      40.919  34.129  34.471  1.00  0.00    -0.206 F 
ATOM     74  C   UNL A   1      38.883  33.824  37.443  1.00  0.00     0.022 A 
BRANCH  71  75
ATOM     75  S   UNL A   1      37.327  31.793  38.549  1.00  0.00     0.124 S 
ATOM     76  O   UNL A   1      37.140  30.440  38.039  1.00  0.00    -0.237 OA
ATOM     77  O   UNL A   1      38.084  31.911  39.792  1.00  0.00    -0.237 OA
ATOM     78  O   UNL A   1      36.162  32.667  38.448  1.00  0.00    -0.744 OA
ENDBRANCH  71  75
ENDBRANCH  44  68
BRANCH  56  79
ATOM     79  C   UNL A   1      44.911  27.582  34.425  1.00  0.00     0.023 A 
ATOM     80  C   UNL A   1      44.776  26.496  35.307  1.00  0.00     0.031 A 
ATOM     81  C   UNL A   1      46.140  28.262  34.386  1.00  0.00     0.131 A 
ATOM     82  C   UNL A   1      45.846  26.146  36.145  1.00  0.00     0.055 A 
ATOM     83  C   UNL A   1      47.216  27.877  35.185  1.00  0.00     0.041 A 
ATOM     84  F   UNL A   1      46.318  29.306  33.561  1.00  0.00    -0.206 F 
ATOM     85  C   UNL A   1      47.069  26.819  36.078  1.00  0.00     0.022 A 
BRANCH  82  86
ATOM     86  S   UNL A   1      45.598  24.836  37.375  1.00  0.00     0.124 S 
ATOM     87  O   UNL A   1      46.785  24.977  38.211  1.00  0.00    -0.237 OA
ATOM     88  O   UNL A   1      44.332  25.221  37.992  1.00  0.00    -0.237 OA
ATOM     89  O   UNL A   1      45.547  23.617  36.570  1.00  0.00    -0.744 OA
ENDBRANCH  82  86
ENDBRANCH  56  79
ENDBRANCH  30  31
ENDBRANCH  23  25
ENDBRANCH  22  23
ENDBRANCH  21  22
ENDBRANCH  20  21
ENDBRANCH   1  20
TORSDOF 22
ENDMDL
MODEL 3
REMARK VINA RESULT:      -9.5      1.691      2.144
REMARK SMILES CC(C)C[C@@H](CNC(=O)N(C)CCC#N)C(=O)OCCOC(=O)c1ccc(-c2c3nc(c(-c4cc(S(=O)(=O)[O-])ccc4F)c4ccc([nH]4)c(-c4cc(S(=O)(=O)[O-])ccc4F)c4nc(c(-c5cc(S(=O)(=O)[O-])ccc5F)c5ccc2[nH]5)C=C4)C=C3)cc1
REMARK SMILES IDX 18 1 16 2 17 3 5 4 4 5 2 6 1 7 3 8 6 9 7 10 8 11 9 13 10 14
REMARK SMILES IDX 11 15 12 16 13 17 14 18 15 19 19 20 20 21 21 22 22 23 23 24
REMARK SMILES IDX 24 25 25 26 86 27 26 28 85 29 27 30 28 31 29 32 79 33 30 34
REMARK SMILES IDX 84 35 78 36 80 37 31 38 83 39 77 40 76 41 32 43 64 44 44 45
REMARK SMILES IDX 63 46 45 47 48 48 62 49 81 50 46 51 47 52 61 54 82 55 49 56
REMARK SMILES IDX 33 57 34 58 42 59 35 60 41 61 43 62 40 63 36 64 37 65 38 66
REMARK SMILES IDX 39 67 65 68 66 69 74 70 67 71 73 72 75 73 72 74 68 75 69 76
REMARK SMILES IDX 70 77 71 78 50 79 51 80 59 81 52 82 58 83 60 84 57 85 53 86
REMARK SMILES IDX 54 87 55 88 56 89
REMARK H PARENT 7 12 80 42 48 53
REMARK Flexibility Score: inf
ROOT
ATOM      1  O   UNL A   1      34.583  22.414  24.972  1.00  0.00    -0.462 OA
ENDROOT
BRANCH   1   2
ATOM      2  C   UNL A   1      33.295  22.150  24.620  1.00  0.00     0.310 C 
ATOM      3  O   UNL A   1      32.755  21.053  24.708  1.00  0.00    -0.252 OA
BRANCH   2   4
ATOM      4  C   UNL A   1      32.600  23.355  23.992  1.00  0.00     0.119 C 
BRANCH   4   5
ATOM      5  C   UNL A   1      31.143  23.510  24.472  1.00  0.00     0.020 C 
BRANCH   5   6
ATOM      6  C   UNL A   1      30.975  24.090  25.893  1.00  0.00    -0.017 C 
ATOM      7  C   UNL A   1      30.150  25.379  25.913  1.00  0.00     0.007 C 
ATOM      8  C   UNL A   1      30.313  23.047  26.798  1.00  0.00     0.007 C 
ENDBRANCH   5   6
ENDBRANCH   4   5
BRANCH   4   9
ATOM      9  C   UNL A   1      33.449  24.614  24.209  1.00  0.00     0.133 C 
BRANCH   9  10
ATOM     10  N   UNL A   1      33.770  25.249  22.951  1.00  0.00    -0.337 N 
ATOM     11  C   UNL A   1      33.064  26.077  22.153  1.00  0.00     0.317 C 
ATOM     12  H   UNL A   1      34.670  25.037  22.613  1.00  0.00     0.165 HD
ATOM     13  O   UNL A   1      33.278  25.987  20.942  1.00  0.00    -0.249 OA
BRANCH  11  14
ATOM     14  N   UNL A   1      32.312  27.099  22.665  1.00  0.00    -0.327 N 
ATOM     15  C   UNL A   1      30.871  27.278  22.617  1.00  0.00     0.148 C 
BRANCH  14  16
ATOM     16  C   UNL A   1      33.057  28.067  23.471  1.00  0.00     0.136 C 
BRANCH  16  17
ATOM     17  C   UNL A   1      32.566  28.084  24.922  1.00  0.00     0.141 C 
BRANCH  17  18
ATOM     18  C   UNL A   1      32.030  29.452  25.313  1.00  0.00     0.064 C 
ATOM     19  N   UNL A   1      31.584  30.587  25.636  1.00  0.00    -0.198 NA
ENDBRANCH  17  18
ENDBRANCH  16  17
ENDBRANCH  14  16
ENDBRANCH  11  14
ENDBRANCH   9  10
ENDBRANCH   4   9
ENDBRANCH   2   4
ENDBRANCH   1   2
BRANCH   1  20
ATOM     20  C   UNL A   1      35.562  21.438  24.572  1.00  0.00     0.274 C 
BRANCH  20  21
ATOM     21  C   UNL A   1      36.651  21.258  25.631  1.00  0.00     0.275 C 
BRANCH  21  22
ATOM     22  O   UNL A   1      37.944  21.649  25.136  1.00  0.00    -0.458 OA
BRANCH  22  23
ATOM     23  C   UNL A   1      38.987  21.283  25.916  1.00  0.00     0.338 C 
ATOM     24  O   UNL A   1      39.475  20.166  26.028  1.00  0.00    -0.246 OA
BRANCH  23  25
ATOM     25  C   UNL A   1      39.576  22.479  26.529  1.00  0.00     0.060 A 
ATOM     26  C   UNL A   1      39.199  23.730  26.037  1.00  0.00     0.016 A 
ATOM     27  C   UNL A   1      40.541  22.367  27.527  1.00  0.00     0.016 A 
ATOM     28  C   UNL A   1      39.766  24.889  26.550  1.00  0.00     0.010 A 
ATOM     29  C   UNL A   1      41.127  23.529  28.030  1.00  0.00     0.010 A 
ATOM     30  C   UNL A   1      40.744  24.792  27.539  1.00  0.00    -0.014 A 
BRANCH  30  31
ATOM     31  C   UNL A   1      41.447  26.011  27.991  1.00  0.00     0.031 A 
ATOM     32  C   UNL A   1      40.665  27.071  28.705  1.00  0.00     0.074 A 
ATOM     33  C   UNL A   1      42.762  26.154  27.762  1.00  0.00     0.049 A 
ATOM     34  N   UNL A   1      41.020  28.284  29.033  1.00  0.00    -0.248 NA
ATOM     35  C   UNL A   1      39.290  26.714  29.089  1.00  0.00     0.031 C 
ATOM     36  C   UNL A   1      43.624  25.146  27.140  1.00  0.00     0.029 A 
ATOM     37  N   UNL A   1      43.599  27.213  28.002  1.00  0.00    -0.354 N 
ATOM     38  C   UNL A   1      39.903  28.853  29.632  1.00  0.00     0.074 A 
ATOM     39  C   UNL A   1      38.856  27.851  29.610  1.00  0.00     0.031 C 
ATOM     40  C   UNL A   1      44.862  25.650  27.018  1.00  0.00     0.029 A 
ATOM     41  C   UNL A   1      44.864  27.030  27.496  1.00  0.00     0.049 A 
ATOM     42  H   UNL A   1      43.321  28.022  28.488  1.00  0.00     0.167 HD
ATOM     43  C   UNL A   1      39.771  30.100  30.146  1.00  0.00     0.034 A 
ATOM     44  C   UNL A   1      45.885  27.901  27.377  1.00  0.00     0.034 A 
ATOM     45  C   UNL A   1      40.836  31.072  30.149  1.00  0.00     0.049 A 
ATOM     46  C   UNL A   1      45.695  29.308  27.882  1.00  0.00     0.074 A 
ATOM     47  C   UNL A   1      40.831  32.361  30.652  1.00  0.00     0.029 A 
ATOM     48  N   UNL A   1      42.101  30.863  29.609  1.00  0.00    -0.354 N 
ATOM     49  N   UNL A   1      44.631  29.852  28.427  1.00  0.00    -0.248 NA
ATOM     50  C   UNL A   1      46.838  30.219  27.752  1.00  0.00     0.031 C 
ATOM     51  C   UNL A   1      42.066  32.949  30.359  1.00  0.00     0.029 A 
ATOM     52  C   UNL A   1      42.871  32.007  29.736  1.00  0.00     0.049 A 
ATOM     53  H   UNL A   1      42.405  30.023  29.195  1.00  0.00     0.167 HD
ATOM     54  C   UNL A   1      44.983  31.164  28.723  1.00  0.00     0.074 A 
ATOM     55  C   UNL A   1      46.362  31.326  28.305  1.00  0.00     0.031 C 
ATOM     56  C   UNL A   1      44.240  32.147  29.296  1.00  0.00     0.034 A 
BRANCH  43  57
ATOM     57  C   UNL A   1      38.408  30.490  30.664  1.00  0.00     0.023 A 
ATOM     58  C   UNL A   1      37.473  31.171  29.864  1.00  0.00     0.031 A 
ATOM     59  C   UNL A   1      38.065  30.233  32.003  1.00  0.00     0.131 A 
ATOM     60  C   UNL A   1      36.278  31.641  30.431  1.00  0.00     0.055 A 
ATOM     61  C   UNL A   1      36.840  30.633  32.540  1.00  0.00     0.041 A 
ATOM     62  F   UNL A   1      38.926  29.610  32.823  1.00  0.00    -0.206 F 
ATOM     63  C   UNL A   1      35.945  31.357  31.758  1.00  0.00     0.022 A 
BRANCH  60  64
ATOM     64  S   UNL A   1      35.240  32.765  29.457  1.00  0.00     0.124 S 
ATOM     65  O   UNL A   1      36.239  33.485  28.670  1.00  0.00    -0.237 OA
ATOM     66  O   UNL A   1      34.386  31.844  28.717  1.00  0.00    -0.237 OA
ATOM     67  O   UNL A   1      34.560  33.569  30.471  1.00  0.00    -0.744 OA
ENDBRANCH  60  64
ENDBRANCH  43  57
BRANCH  44  68
ATOM     68  C   UNL A   1      47.137  27.489  26.684  1.00  0.00     0.023 A 
ATOM     69  C   UNL A   1      48.130  26.752  27.345  1.00  0.00     0.031 A 
ATOM     70  C   UNL A   1      47.359  27.841  25.339  1.00  0.00     0.131 A 
ATOM     71  C   UNL A   1      49.312  26.411  26.667  1.00  0.00     0.055 A 
ATOM     72  C   UNL A   1      48.515  27.462  24.657  1.00  0.00     0.041 A 
ATOM     73  F   UNL A   1      46.437  28.544  24.662  1.00  0.00    -0.206 F 
ATOM     74  C   UNL A   1      49.505  26.750  25.325  1.00  0.00     0.022 A 
BRANCH  71  75
ATOM     75  S   UNL A   1      50.625  25.558  27.582  1.00  0.00     0.124 S 
ATOM     76  O   UNL A   1      50.755  26.396  28.768  1.00  0.00    -0.237 OA
ATOM     77  O   UNL A   1      50.040  24.237  27.791  1.00  0.00    -0.237 OA
ATOM     78  O   UNL A   1      51.760  25.595  26.663  1.00  0.00    -0.744 OA
ENDBRANCH  71  75
ENDBRANCH  44  68
BRANCH  56  79
ATOM     79  C   UNL A   1      44.926  33.466  29.540  1.00  0.00     0.023 A 
ATOM     80  C   UNL A   1      44.859  34.517  28.609  1.00  0.00     0.031 A 
ATOM     81  C   UNL A   1      45.649  33.672  30.728  1.00  0.00     0.131 A 
ATOM     82  C   UNL A   1      45.540  35.716  28.866  1.00  0.00     0.055 A 
ATOM     83  C   UNL A   1      46.281  34.885  31.000  1.00  0.00     0.041 A 
ATOM     84  F   UNL A   1      45.744  32.698  31.647  1.00  0.00    -0.206 F 
ATOM     85  C   UNL A   1      46.236  35.913  30.062  1.00  0.00     0.022 A 
BRANCH  82  86
ATOM     86  S   UNL A   1      45.557  37.001  27.586  1.00  0.00     0.124 S 
ATOM     87  O   UNL A   1      46.644  36.553  26.722  1.00  0.00    -0.237 OA
ATOM     88  O   UNL A   1      44.213  36.903  27.025  1.00  0.00    -0.237 OA
ATOM     89  O   UNL A   1      45.825  38.227  28.335  1.00  0.00    -0.744 OA
ENDBRANCH  82  86
ENDBRANCH  56  79
ENDBRANCH  30  31
ENDBRANCH  23  25
ENDBRANCH  22  23
ENDBRANCH  21  22
ENDBRANCH  20  21
ENDBRANCH   1  20
TORSDOF 22
ENDMDL
