MODEL 1
REMARK VINA RESULT:     -10.4      0.000      0.000
REMARK SMILES O=C(CN(CC(F)(F)F)C(=O)CC[C@H]1CCC[NH2+]C1)OCCOC(=O)c1ccc(-c2c3nc(c(-c4cc(S(=O)(=O)[O-])ccc4F)c4ccc([nH]4)c(-c4cc(S(=O)(=O)[O-])ccc4F)c4nc(c(-c5cc(S(=O)(=O)[O-])ccc5F)c5ccc2[nH]5)C=C4)C=C3)cc1
REMARK SMILES IDX 21 1 20 2 2 3 1 4 3 5 4 6 5 7 6 8 7 9 8 10 9 11 10 12 11 13
REMARK SMILES IDX 12 14 13 15 14 16 15 17 19 18 16 19 18 20 17 21 22 24 23 25
REMARK SMILES IDX 24 26 25 27 26 28 27 29 88 30 28 31 87 32 29 33 30 34 31 35
REMARK SMILES IDX 81 36 32 37 86 38 80 39 82 40 33 41 85 42 79 43 78 44 34 46
REMARK SMILES IDX 66 47 46 48 65 49 47 50 50 51 64 52 83 53 48 54 49 55 63 57
REMARK SMILES IDX 84 58 51 59 35 60 36 61 44 62 37 63 43 64 45 65 42 66 38 67
REMARK SMILES IDX 39 68 40 69 41 70 67 71 68 72 76 73 69 74 75 75 77 76 74 77
REMARK SMILES IDX 70 78 71 79 72 80 73 81 52 82 53 83 61 84 54 85 60 86 62 87
REMARK SMILES IDX 59 88 55 89 56 90 57 91 58 92
REMARK H PARENT 18 22 18 23 82 45 50 56
REMARK Flexibility Score: inf
ROOT
ATOM      1  C   UNL A   1      31.626  29.533  25.618  1.00  0.00     0.274 C 
ENDROOT
BRANCH   1   2
ATOM      2  O   UNL A   1      30.799  29.550  24.442  1.00  0.00    -0.461 OA
BRANCH   2   3
ATOM      3  C   UNL A   1      31.091  28.836  23.322  1.00  0.00     0.325 C 
ATOM      4  O   UNL A   1      30.290  28.843  22.392  1.00  0.00    -0.250 OA
BRANCH   3   5
ATOM      5  C   UNL A   1      32.387  27.994  23.321  1.00  0.00     0.242 C 
BRANCH   5   6
ATOM      6  N   UNL A   1      32.281  26.531  23.440  1.00  0.00    -0.322 N 
BRANCH   6   7
ATOM      7  C   UNL A   1      31.024  25.998  24.027  1.00  0.00     0.235 C 
BRANCH   7   8
ATOM      8  C   UNL A   1      31.018  25.588  25.506  1.00  0.00     0.406 C 
ATOM      9  F   UNL A   1      32.170  25.892  26.133  1.00  0.00    -0.169 F 
ATOM     10  F   UNL A   1      30.026  26.252  26.150  1.00  0.00    -0.169 F 
ATOM     11  F   UNL A   1      30.791  24.269  25.649  1.00  0.00    -0.169 F 
ENDBRANCH   7   8
ENDBRANCH   6   7
BRANCH   6  12
ATOM     12  C   UNL A   1      33.235  25.774  22.772  1.00  0.00     0.223 C 
ATOM     13  O   UNL A   1      33.687  26.132  21.684  1.00  0.00    -0.275 OA
BRANCH  12  14
ATOM     14  C   UNL A   1      33.811  24.519  23.411  1.00  0.00     0.101 C 
BRANCH  14  15
ATOM     15  C   UNL A   1      34.898  24.778  24.471  1.00  0.00     0.019 C 
BRANCH  15  16
ATOM     16  C   UNL A   1      35.513  23.474  25.001  1.00  0.00     0.045 C 
ATOM     17  C   UNL A   1      35.356  22.265  24.077  1.00  0.00     0.015 C 
ATOM     18  C   UNL A   1      37.006  23.635  25.313  1.00  0.00     0.264 C 
ATOM     19  C   UNL A   1      35.912  21.030  24.800  1.00  0.00     0.062 C 
ATOM     20  N   UNL A   1      37.479  22.483  26.084  1.00  0.00    -0.346 N 
ATOM     21  C   UNL A   1      37.337  21.248  25.311  1.00  0.00     0.260 C 
ATOM     22  H   UNL A   1      38.461  22.620  26.322  1.00  0.00     0.346 HD
ATOM     23  H   UNL A   1      36.919  22.405  26.933  1.00  0.00     0.346 HD
ENDBRANCH  15  16
ENDBRANCH  14  15
ENDBRANCH  12  14
ENDBRANCH   6  12
ENDBRANCH   5   6
ENDBRANCH   3   5
ENDBRANCH   2   3
ENDBRANCH   1   2
BRANCH   1  24
ATOM     24  C   UNL A   1      31.735  30.922  26.238  1.00  0.00     0.275 C 
BRANCH  24  25
ATOM     25  O   UNL A   1      32.707  30.864  27.290  1.00  0.00    -0.458 OA
BRANCH  25  26
ATOM     26  C   UNL A   1      33.374  32.030  27.503  1.00  0.00     0.338 C 
ATOM     27  O   UNL A   1      32.899  33.142  27.535  1.00  0.00    -0.246 OA
BRANCH  26  28
ATOM     28  C   UNL A   1      34.738  31.686  27.966  1.00  0.00     0.060 A 
ATOM     29  C   UNL A   1      35.021  30.334  28.201  1.00  0.00     0.016 A 
ATOM     30  C   UNL A   1      35.744  32.652  28.078  1.00  0.00     0.016 A 
ATOM     31  C   UNL A   1      36.298  29.950  28.604  1.00  0.00     0.010 A 
ATOM     32  C   UNL A   1      37.019  32.269  28.489  1.00  0.00     0.010 A 
ATOM     33  C   UNL A   1      37.285  30.924  28.798  1.00  0.00    -0.014 A 
BRANCH  33  34
ATOM     34  C   UNL A   1      38.484  30.602  29.605  1.00  0.00     0.031 A 
ATOM     35  C   UNL A   1      39.454  29.613  29.021  1.00  0.00     0.074 A 
ATOM     36  C   UNL A   1      38.699  31.144  30.813  1.00  0.00     0.049 A 
ATOM     37  N   UNL A   1      40.522  29.077  29.547  1.00  0.00    -0.248 NA
ATOM     38  C   UNL A   1      39.159  29.153  27.653  1.00  0.00     0.031 C 
ATOM     39  C   UNL A   1      37.850  32.142  31.457  1.00  0.00     0.029 A 
ATOM     40  N   UNL A   1      39.699  30.911  31.723  1.00  0.00    -0.354 N 
ATOM     41  C   UNL A   1      41.024  28.215  28.579  1.00  0.00     0.074 A 
ATOM     42  C   UNL A   1      40.115  28.262  27.456  1.00  0.00     0.031 C 
ATOM     43  C   UNL A   1      38.352  32.418  32.675  1.00  0.00     0.029 A 
ATOM     44  C   UNL A   1      39.536  31.592  32.906  1.00  0.00     0.049 A 
ATOM     45  H   UNL A   1      40.460  30.313  31.547  1.00  0.00     0.167 HD
ATOM     46  C   UNL A   1      42.147  27.457  28.621  1.00  0.00     0.034 A 
ATOM     47  C   UNL A   1      40.246  31.527  34.050  1.00  0.00     0.034 A 
ATOM     48  C   UNL A   1      43.019  27.399  29.764  1.00  0.00     0.049 A 
ATOM     49  C   UNL A   1      41.443  30.606  34.117  1.00  0.00     0.074 A 
ATOM     50  C   UNL A   1      44.182  26.670  29.927  1.00  0.00     0.029 A 
ATOM     51  N   UNL A   1      42.810  28.086  30.955  1.00  0.00    -0.354 N 
ATOM     52  N   UNL A   1      41.920  29.799  33.195  1.00  0.00    -0.248 NA
ATOM     53  C   UNL A   1      42.202  30.591  35.375  1.00  0.00     0.031 C 
ATOM     54  C   UNL A   1      44.633  26.855  31.238  1.00  0.00     0.029 A 
ATOM     55  C   UNL A   1      43.803  27.770  31.867  1.00  0.00     0.049 A 
ATOM     56  H   UNL A   1      42.065  28.707  31.124  1.00  0.00     0.167 HD
ATOM     57  C   UNL A   1      43.055  29.213  33.750  1.00  0.00     0.074 A 
ATOM     58  C   UNL A   1      43.189  29.754  35.087  1.00  0.00     0.031 C 
ATOM     59  C   UNL A   1      43.919  28.320  33.199  1.00  0.00     0.034 A 
BRANCH  46  60
ATOM     60  C   UNL A   1      42.428  26.590  27.417  1.00  0.00     0.023 A 
ATOM     61  C   UNL A   1      41.923  25.281  27.315  1.00  0.00     0.031 A 
ATOM     62  C   UNL A   1      43.286  27.045  26.400  1.00  0.00     0.131 A 
ATOM     63  C   UNL A   1      42.361  24.442  26.280  1.00  0.00     0.055 A 
ATOM     64  C   UNL A   1      43.640  26.236  25.320  1.00  0.00     0.041 A 
ATOM     65  F   UNL A   1      43.823  28.274  26.457  1.00  0.00    -0.206 F 
ATOM     66  C   UNL A   1      43.194  24.917  25.267  1.00  0.00     0.022 A 
BRANCH  63  67
ATOM     67  S   UNL A   1      41.984  22.669  26.387  1.00  0.00     0.124 S 
ATOM     68  O   UNL A   1      42.619  22.160  25.174  1.00  0.00    -0.237 OA
ATOM     69  O   UNL A   1      42.612  22.289  27.647  1.00  0.00    -0.237 OA
ATOM     70  O   UNL A   1      40.522  22.629  26.379  1.00  0.00    -0.744 OA
ENDBRANCH  63  67
ENDBRANCH  46  60
BRANCH  47  71
ATOM     71  C   UNL A   1      39.825  32.320  35.241  1.00  0.00     0.023 A 
ATOM     72  C   UNL A   1      39.004  31.766  36.235  1.00  0.00     0.031 A 
ATOM     73  C   UNL A   1      40.218  33.664  35.382  1.00  0.00     0.131 A 
ATOM     74  C   UNL A   1      38.574  32.561  37.310  1.00  0.00     0.055 A 
ATOM     75  C   UNL A   1      39.827  34.436  36.477  1.00  0.00     0.041 A 
ATOM     76  F   UNL A   1      41.001  34.243  34.458  1.00  0.00    -0.206 F 
ATOM     77  C   UNL A   1      38.991  33.887  37.444  1.00  0.00     0.022 A 
BRANCH  74  78
ATOM     78  S   UNL A   1      37.403  31.855  38.502  1.00  0.00     0.124 S 
ATOM     79  O   UNL A   1      38.123  32.023  39.759  1.00  0.00    -0.237 OA
ATOM     80  O   UNL A   1      36.230  32.702  38.316  1.00  0.00    -0.237 OA
ATOM     81  O   UNL A   1      37.249  30.473  38.050  1.00  0.00    -0.744 OA
ENDBRANCH  74  78
ENDBRANCH  47  71
BRANCH  59  82
ATOM     82  C   UNL A   1      45.125  27.921  34.014  1.00  0.00     0.023 A 
ATOM     83  C   UNL A   1      45.115  26.811  34.876  1.00  0.00     0.031 A 
ATOM     84  C   UNL A   1      46.321  28.652  33.889  1.00  0.00     0.131 A 
ATOM     85  C   UNL A   1      46.269  26.486  35.607  1.00  0.00     0.055 A 
ATOM     86  C   UNL A   1      47.480  28.291  34.576  1.00  0.00     0.041 A 
ATOM     87  F   UNL A   1      46.386  29.722  33.079  1.00  0.00    -0.206 F 
ATOM     88  C   UNL A   1      47.456  27.207  35.447  1.00  0.00     0.022 A 
BRANCH  85  89
ATOM     89  S   UNL A   1      46.187  25.139  36.820  1.00  0.00     0.124 S 
ATOM     90  O   UNL A   1      45.226  25.659  37.787  1.00  0.00    -0.237 OA
ATOM     91  O   UNL A   1      45.732  24.014  36.009  1.00  0.00    -0.237 OA
ATOM     92  O   UNL A   1      47.561  25.032  37.307  1.00  0.00    -0.744 OA
ENDBRANCH  85  89
ENDBRANCH  59  82
ENDBRANCH  33  34
ENDBRANCH  26  28
ENDBRANCH  25  26
ENDBRANCH  24  25
ENDBRANCH   1  24
TORSDOF 21
ENDMDL
MODEL 2
REMARK VINA RESULT:     -10.4      5.111     10.040
REMARK SMILES O=C(CN(CC(F)(F)F)C(=O)CC[C@H]1CCC[NH2+]C1)OCCOC(=O)c1ccc(-c2c3nc(c(-c4cc(S(=O)(=O)[O-])ccc4F)c4ccc([nH]4)c(-c4cc(S(=O)(=O)[O-])ccc4F)c4nc(c(-c5cc(S(=O)(=O)[O-])ccc5F)c5ccc2[nH]5)C=C4)C=C3)cc1
REMARK SMILES IDX 21 1 20 2 2 3 1 4 3 5 4 6 5 7 6 8 7 9 8 10 9 11 10 12 11 13
REMARK SMILES IDX 12 14 13 15 14 16 15 17 19 18 16 19 18 20 17 21 22 24 23 25
REMARK SMILES IDX 24 26 25 27 26 28 27 29 88 30 28 31 87 32 29 33 30 34 31 35
REMARK SMILES IDX 81 36 32 37 86 38 80 39 82 40 33 41 85 42 79 43 78 44 34 46
REMARK SMILES IDX 66 47 46 48 65 49 47 50 50 51 64 52 83 53 48 54 49 55 63 57
REMARK SMILES IDX 84 58 51 59 35 60 36 61 44 62 37 63 43 64 45 65 42 66 38 67
REMARK SMILES IDX 39 68 40 69 41 70 67 71 68 72 76 73 69 74 75 75 77 76 74 77
REMARK SMILES IDX 70 78 71 79 72 80 73 81 52 82 53 83 61 84 54 85 60 86 62 87
REMARK SMILES IDX 59 88 55 89 56 90 57 91 58 92
REMARK H PARENT 18 22 18 23 82 45 50 56
REMARK Flexibility Score: inf
ROOT
ATOM      1  C   UNL A   1      35.741  21.344  25.413  1.00  0.00     0.274 C 
ENDROOT
BRANCH   1   2
ATOM      2  O   UNL A   1      34.681  20.635  24.750  1.00  0.00    -0.461 OA
BRANCH   2   3
ATOM      3  C   UNL A   1      33.398  20.628  25.203  1.00  0.00     0.325 C 
ATOM      4  O   UNL A   1      32.643  19.737  24.824  1.00  0.00    -0.250 OA
BRANCH   3   5
ATOM      5  C   UNL A   1      32.949  21.794  26.113  1.00  0.00     0.242 C 
BRANCH   5   6
ATOM      6  N   UNL A   1      32.475  23.039  25.487  1.00  0.00    -0.322 N 
BRANCH   6   7
ATOM      7  C   UNL A   1      31.814  22.910  24.162  1.00  0.00     0.235 C 
BRANCH   7   8
ATOM      8  C   UNL A   1      32.606  23.295  22.904  1.00  0.00     0.406 C 
ATOM      9  F   UNL A   1      32.113  24.392  22.298  1.00  0.00    -0.169 F 
ATOM     10  F   UNL A   1      33.887  23.573  23.251  1.00  0.00    -0.169 F 
ATOM     11  F   UNL A   1      32.629  22.290  22.011  1.00  0.00    -0.169 F 
ENDBRANCH   7   8
ENDBRANCH   6   7
BRANCH   6  12
ATOM     12  C   UNL A   1      32.451  24.175  26.285  1.00  0.00     0.223 C 
ATOM     13  O   UNL A   1      31.654  24.285  27.218  1.00  0.00    -0.275 OA
BRANCH  12  14
ATOM     14  C   UNL A   1      33.471  25.285  26.079  1.00  0.00     0.101 C 
BRANCH  14  15
ATOM     15  C   UNL A   1      32.865  26.684  25.862  1.00  0.00     0.019 C 
BRANCH  15  16
ATOM     16  C   UNL A   1      32.011  26.755  24.587  1.00  0.00     0.045 C 
ATOM     17  C   UNL A   1      30.508  26.917  24.826  1.00  0.00     0.015 C 
ATOM     18  C   UNL A   1      32.464  27.891  23.662  1.00  0.00     0.264 C 
ATOM     19  C   UNL A   1      29.794  26.850  23.468  1.00  0.00     0.062 C 
ATOM     20  N   UNL A   1      31.837  27.740  22.347  1.00  0.00    -0.346 N 
ATOM     21  C   UNL A   1      30.379  27.835  22.455  1.00  0.00     0.260 C 
ATOM     22  H   UNL A   1      32.176  28.475  21.728  1.00  0.00     0.346 HD
ATOM     23  H   UNL A   1      32.079  26.823  21.972  1.00  0.00     0.346 HD
ENDBRANCH  15  16
ENDBRANCH  14  15
ENDBRANCH  12  14
ENDBRANCH   6  12
ENDBRANCH   5   6
ENDBRANCH   3   5
ENDBRANCH   2   3
ENDBRANCH   1   2
BRANCH   1  24
ATOM     24  C   UNL A   1      37.108  20.810  24.999  1.00  0.00     0.275 C 
BRANCH  24  25
ATOM     25  O   UNL A   1      38.077  21.841  25.230  1.00  0.00    -0.458 OA
BRANCH  25  26
ATOM     26  C   UNL A   1      39.117  21.466  26.021  1.00  0.00     0.338 C 
ATOM     27  O   UNL A   1      39.667  20.388  26.034  1.00  0.00    -0.246 OA
BRANCH  26  28
ATOM     28  C   UNL A   1      39.649  22.687  26.668  1.00  0.00     0.060 A 
ATOM     29  C   UNL A   1      39.033  23.907  26.356  1.00  0.00     0.016 A 
ATOM     30  C   UNL A   1      40.665  22.630  27.628  1.00  0.00     0.016 A 
ATOM     31  C   UNL A   1      39.469  25.082  26.963  1.00  0.00     0.010 A 
ATOM     32  C   UNL A   1      41.108  23.807  28.229  1.00  0.00     0.010 A 
ATOM     33  C   UNL A   1      40.542  25.041  27.863  1.00  0.00    -0.014 A 
BRANCH  33  34
ATOM     34  C   UNL A   1      41.275  26.285  28.186  1.00  0.00     0.031 A 
ATOM     35  C   UNL A   1      40.496  27.381  28.859  1.00  0.00     0.074 A 
ATOM     36  C   UNL A   1      42.572  26.451  27.881  1.00  0.00     0.049 A 
ATOM     37  N   UNL A   1      40.856  28.600  29.160  1.00  0.00    -0.248 NA
ATOM     38  C   UNL A   1      39.108  27.052  29.223  1.00  0.00     0.031 C 
ATOM     39  C   UNL A   1      43.433  25.444  27.268  1.00  0.00     0.029 A 
ATOM     40  N   UNL A   1      43.385  27.545  28.034  1.00  0.00    -0.354 N 
ATOM     41  C   UNL A   1      39.738  29.185  29.745  1.00  0.00     0.074 A 
ATOM     42  C   UNL A   1      38.677  28.204  29.709  1.00  0.00     0.031 C 
ATOM     43  C   UNL A   1      44.653  25.977  27.072  1.00  0.00     0.029 A 
ATOM     44  C   UNL A   1      44.645  27.371  27.514  1.00  0.00     0.049 A 
ATOM     45  H   UNL A   1      43.093  28.377  28.472  1.00  0.00     0.167 HD
ATOM     46  C   UNL A   1      39.612  30.427  30.272  1.00  0.00     0.034 A 
ATOM     47  C   UNL A   1      45.660  28.249  27.384  1.00  0.00     0.034 A 
ATOM     48  C   UNL A   1      40.672  31.400  30.267  1.00  0.00     0.049 A 
ATOM     49  C   UNL A   1      45.474  29.662  27.891  1.00  0.00     0.074 A 
ATOM     50  C   UNL A   1      40.666  32.688  30.767  1.00  0.00     0.029 A 
ATOM     51  N   UNL A   1      41.931  31.195  29.710  1.00  0.00    -0.354 N 
ATOM     52  N   UNL A   1      44.419  30.208  28.453  1.00  0.00    -0.248 NA
ATOM     53  C   UNL A   1      46.618  30.574  27.754  1.00  0.00     0.031 C 
ATOM     54  C   UNL A   1      41.889  33.288  30.446  1.00  0.00     0.029 A 
ATOM     55  C   UNL A   1      42.694  32.346  29.824  1.00  0.00     0.049 A 
ATOM     56  H   UNL A   1      42.235  30.356  29.296  1.00  0.00     0.167 HD
ATOM     57  C   UNL A   1      44.787  31.514  28.769  1.00  0.00     0.074 A 
ATOM     58  C   UNL A   1      46.159  31.675  28.332  1.00  0.00     0.031 C 
ATOM     59  C   UNL A   1      44.062  32.488  29.380  1.00  0.00     0.034 A 
BRANCH  46  60
ATOM     60  C   UNL A   1      38.256  30.798  30.822  1.00  0.00     0.023 A 
ATOM     61  C   UNL A   1      37.263  31.376  30.010  1.00  0.00     0.031 A 
ATOM     62  C   UNL A   1      37.983  30.656  32.193  1.00  0.00     0.131 A 
ATOM     63  C   UNL A   1      36.092  31.883  30.592  1.00  0.00     0.055 A 
ATOM     64  C   UNL A   1      36.774  31.075  32.750  1.00  0.00     0.041 A 
ATOM     65  F   UNL A   1      38.902  30.140  33.024  1.00  0.00    -0.206 F 
ATOM     66  C   UNL A   1      35.827  31.713  31.952  1.00  0.00     0.022 A 
BRANCH  63  67
ATOM     67  S   UNL A   1      35.013  32.940  29.584  1.00  0.00     0.124 S 
ATOM     68  O   UNL A   1      34.092  33.464  30.589  1.00  0.00    -0.237 OA
ATOM     69  O   UNL A   1      35.953  33.898  29.015  1.00  0.00    -0.237 OA
ATOM     70  O   UNL A   1      34.415  32.007  28.630  1.00  0.00    -0.744 OA
ENDBRANCH  63  67
ENDBRANCH  46  60
BRANCH  47  71
ATOM     71  C   UNL A   1      46.925  27.839  26.710  1.00  0.00     0.023 A 
ATOM     72  C   UNL A   1      47.088  27.967  25.322  1.00  0.00     0.031 A 
ATOM     73  C   UNL A   1      47.984  27.282  27.452  1.00  0.00     0.131 A 
ATOM     74  C   UNL A   1      48.269  27.511  24.713  1.00  0.00     0.055 A 
ATOM     75  C   UNL A   1      49.174  26.876  26.847  1.00  0.00     0.041 A 
ATOM     76  F   UNL A   1      47.878  27.137  28.782  1.00  0.00    -0.206 F 
ATOM     77  C   UNL A   1      49.317  26.980  25.467  1.00  0.00     0.022 A 
BRANCH  74  78
ATOM     78  S   UNL A   1      48.391  27.562  22.903  1.00  0.00     0.124 S 
ATOM     79  O   UNL A   1      47.199  28.321  22.547  1.00  0.00    -0.237 OA
ATOM     80  O   UNL A   1      49.668  28.239  22.703  1.00  0.00    -0.237 OA
ATOM     81  O   UNL A   1      48.370  26.151  22.521  1.00  0.00    -0.744 OA
ENDBRANCH  74  78
ENDBRANCH  47  71
BRANCH  59  82
ATOM     82  C   UNL A   1      44.758  33.794  29.677  1.00  0.00     0.023 A 
ATOM     83  C   UNL A   1      44.732  34.878  28.782  1.00  0.00     0.031 A 
ATOM     84  C   UNL A   1      45.428  33.963  30.903  1.00  0.00     0.131 A 
ATOM     85  C   UNL A   1      45.395  36.070  29.113  1.00  0.00     0.055 A 
ATOM     86  C   UNL A   1      46.037  35.168  31.249  1.00  0.00     0.041 A 
ATOM     87  F   UNL A   1      45.483  32.959  31.794  1.00  0.00    -0.206 F 
ATOM     88  C   UNL A   1      46.031  36.228  30.348  1.00  0.00     0.022 A 
BRANCH  85  89
ATOM     89  S   UNL A   1      45.471  37.401  27.883  1.00  0.00     0.124 S 
ATOM     90  O   UNL A   1      45.614  38.585  28.724  1.00  0.00    -0.237 OA
ATOM     91  O   UNL A   1      46.642  37.033  27.094  1.00  0.00    -0.237 OA
ATOM     92  O   UNL A   1      44.193  37.292  27.180  1.00  0.00    -0.744 OA
ENDBRANCH  85  89
ENDBRANCH  59  82
ENDBRANCH  33  34
ENDBRANCH  26  28
ENDBRANCH  25  26
ENDBRANCH  24  25
ENDBRANCH   1  24
TORSDOF 21
ENDMDL
MODEL 3
REMARK VINA RESULT:     -10.4      4.811     10.061
REMARK SMILES O=C(CN(CC(F)(F)F)C(=O)CC[C@H]1CCC[NH2+]C1)OCCOC(=O)c1ccc(-c2c3nc(c(-c4cc(S(=O)(=O)[O-])ccc4F)c4ccc([nH]4)c(-c4cc(S(=O)(=O)[O-])ccc4F)c4nc(c(-c5cc(S(=O)(=O)[O-])ccc5F)c5ccc2[nH]5)C=C4)C=C3)cc1
REMARK SMILES IDX 21 1 20 2 2 3 1 4 3 5 4 6 5 7 6 8 7 9 8 10 9 11 10 12 11 13
REMARK SMILES IDX 12 14 13 15 14 16 15 17 19 18 16 19 18 20 17 21 22 24 23 25
REMARK SMILES IDX 24 26 25 27 26 28 27 29 88 30 28 31 87 32 29 33 30 34 31 35
REMARK SMILES IDX 81 36 32 37 86 38 80 39 82 40 33 41 85 42 79 43 78 44 34 46
REMARK SMILES IDX 66 47 46 48 65 49 47 50 50 51 64 52 83 53 48 54 49 55 63 57
REMARK SMILES IDX 84 58 51 59 35 60 36 61 44 62 37 63 43 64 45 65 42 66 38 67
REMARK SMILES IDX 39 68 40 69 41 70 67 71 68 72 76 73 69 74 75 75 77 76 74 77
REMARK SMILES IDX 70 78 71 79 72 80 73 81 52 82 53 83 61 84 54 85 60 86 62 87
REMARK SMILES IDX 59 88 55 89 56 90 57 91 58 92
REMARK H PARENT 18 22 18 23 82 45 50 56
REMARK Flexibility Score: inf
ROOT
ATOM      1  C   UNL A   1      35.701  20.845  25.373  1.00  0.00     0.274 C 
ENDROOT
BRANCH   1   2
ATOM      2  O   UNL A   1      34.595  20.044  24.925  1.00  0.00    -0.461 OA
BRANCH   2   3
ATOM      3  C   UNL A   1      33.332  20.188  25.408  1.00  0.00     0.325 C 
ATOM      4  O   UNL A   1      32.484  19.355  25.104  1.00  0.00    -0.250 OA
BRANCH   3   5
ATOM      5  C   UNL A   1      33.024  21.444  26.255  1.00  0.00     0.242 C 
BRANCH   5   6
ATOM      6  N   UNL A   1      32.238  22.532  25.650  1.00  0.00    -0.322 N 
BRANCH   6   7
ATOM      7  C   UNL A   1      31.848  22.361  24.226  1.00  0.00     0.235 C 
BRANCH   7   8
ATOM      8  C   UNL A   1      32.706  23.031  23.143  1.00  0.00     0.406 C 
ATOM      9  F   UNL A   1      32.401  24.331  22.972  1.00  0.00    -0.169 F 
ATOM     10  F   UNL A   1      34.011  22.971  23.507  1.00  0.00    -0.169 F 
ATOM     11  F   UNL A   1      32.579  22.405  21.959  1.00  0.00    -0.169 F 
ENDBRANCH   7   8
ENDBRANCH   6   7
BRANCH   6  12
ATOM     12  C   UNL A   1      31.715  23.486  26.514  1.00  0.00     0.223 C 
ATOM     13  O   UNL A   1      30.825  23.203  27.316  1.00  0.00    -0.275 OA
BRANCH  12  14
ATOM     14  C   UNL A   1      32.290  24.894  26.547  1.00  0.00     0.101 C 
BRANCH  14  15
ATOM     15  C   UNL A   1      31.451  25.950  25.803  1.00  0.00     0.019 C 
BRANCH  15  16
ATOM     16  C   UNL A   1      32.000  27.371  25.999  1.00  0.00     0.045 C 
ATOM     17  C   UNL A   1      31.416  28.424  25.056  1.00  0.00     0.015 C 
ATOM     18  C   UNL A   1      31.797  27.866  27.437  1.00  0.00     0.264 C 
ATOM     19  C   UNL A   1      32.150  29.750  25.298  1.00  0.00     0.062 C 
ATOM     20  N   UNL A   1      32.587  29.079  27.660  1.00  0.00    -0.346 N 
ATOM     21  C   UNL A   1      32.144  30.156  26.773  1.00  0.00     0.260 C 
ATOM     22  H   UNL A   1      32.478  29.375  28.630  1.00  0.00     0.346 HD
ATOM     23  H   UNL A   1      33.566  28.873  27.462  1.00  0.00     0.346 HD
ENDBRANCH  15  16
ENDBRANCH  14  15
ENDBRANCH  12  14
ENDBRANCH   6  12
ENDBRANCH   5   6
ENDBRANCH   3   5
ENDBRANCH   2   3
ENDBRANCH   1   2
BRANCH   1  24
ATOM     24  C   UNL A   1      37.035  20.209  24.994  1.00  0.00     0.275 C 
BRANCH  24  25
ATOM     25  O   UNL A   1      38.054  21.209  25.116  1.00  0.00    -0.458 OA
BRANCH  25  26
ATOM     26  C   UNL A   1      39.107  20.845  25.895  1.00  0.00     0.338 C 
ATOM     27  O   UNL A   1      39.640  19.759  25.934  1.00  0.00    -0.246 OA
BRANCH  26  28
ATOM     28  C   UNL A   1      39.673  22.079  26.486  1.00  0.00     0.060 A 
ATOM     29  C   UNL A   1      39.084  23.300  26.128  1.00  0.00     0.016 A 
ATOM     30  C   UNL A   1      40.696  22.038  27.441  1.00  0.00     0.016 A 
ATOM     31  C   UNL A   1      39.553  24.488  26.681  1.00  0.00     0.010 A 
ATOM     32  C   UNL A   1      41.171  23.228  27.988  1.00  0.00     0.010 A 
ATOM     33  C   UNL A   1      40.632  24.459  27.574  1.00  0.00    -0.014 A 
BRANCH  33  34
ATOM     34  C   UNL A   1      41.398  25.698  27.840  1.00  0.00     0.031 A 
ATOM     35  C   UNL A   1      40.689  26.790  28.592  1.00  0.00     0.074 A 
ATOM     36  C   UNL A   1      42.660  25.862  27.417  1.00  0.00     0.049 A 
ATOM     37  N   UNL A   1      41.080  28.004  28.870  1.00  0.00    -0.248 NA
ATOM     38  C   UNL A   1      39.339  26.462  29.081  1.00  0.00     0.031 C 
ATOM     39  C   UNL A   1      43.457  24.858  26.717  1.00  0.00     0.029 A 
ATOM     40  N   UNL A   1      43.489  26.952  27.503  1.00  0.00    -0.354 N 
ATOM     41  C   UNL A   1      40.025  28.587  29.562  1.00  0.00     0.074 A 
ATOM     42  C   UNL A   1      38.961  27.610  29.615  1.00  0.00     0.031 C 
ATOM     43  C   UNL A   1      44.655  25.389  26.413  1.00  0.00     0.029 A 
ATOM     44  C   UNL A   1      44.695  26.779  26.867  1.00  0.00     0.049 A 
ATOM     45  H   UNL A   1      43.243  27.780  27.975  1.00  0.00     0.167 HD
ATOM     46  C   UNL A   1      39.953  29.824  30.110  1.00  0.00     0.034 A 
ATOM     47  C   UNL A   1      45.697  27.655  26.651  1.00  0.00     0.034 A 
ATOM     48  C   UNL A   1      41.012  30.794  30.015  1.00  0.00     0.049 A 
ATOM     49  C   UNL A   1      45.565  29.063  27.186  1.00  0.00     0.074 A 
ATOM     50  C   UNL A   1      41.058  32.078  30.526  1.00  0.00     0.029 A 
ATOM     51  N   UNL A   1      42.213  30.591  29.341  1.00  0.00    -0.354 N 
ATOM     52  N   UNL A   1      44.568  29.607  27.849  1.00  0.00    -0.248 NA
ATOM     53  C   UNL A   1      46.694  29.972  26.951  1.00  0.00     0.031 C 
ATOM     54  C   UNL A   1      42.248  32.676  30.098  1.00  0.00     0.029 A 
ATOM     55  C   UNL A   1      42.988  31.737  29.395  1.00  0.00     0.049 A 
ATOM     56  H   UNL A   1      42.473  29.754  28.893  1.00  0.00     0.167 HD
ATOM     57  C   UNL A   1      44.970  30.909  28.142  1.00  0.00     0.074 A 
ATOM     58  C   UNL A   1      46.296  31.069  27.580  1.00  0.00     0.031 C 
ATOM     59  C   UNL A   1      44.310  31.879  28.826  1.00  0.00     0.034 A 
BRANCH  46  60
ATOM     60  C   UNL A   1      38.655  30.195  30.787  1.00  0.00     0.023 A 
ATOM     61  C   UNL A   1      37.600  30.799  30.080  1.00  0.00     0.031 A 
ATOM     62  C   UNL A   1      38.505  30.025  32.174  1.00  0.00     0.131 A 
ATOM     63  C   UNL A   1      36.491  31.303  30.775  1.00  0.00     0.055 A 
ATOM     64  C   UNL A   1      37.355  30.442  32.846  1.00  0.00     0.041 A 
ATOM     65  F   UNL A   1      39.490  29.483  32.908  1.00  0.00    -0.206 F 
ATOM     66  C   UNL A   1      36.348  31.105  32.149  1.00  0.00     0.022 A 
BRANCH  63  67
ATOM     67  S   UNL A   1      35.337  32.390  29.890  1.00  0.00     0.124 S 
ATOM     68  O   UNL A   1      34.874  31.514  28.816  1.00  0.00    -0.237 OA
ATOM     69  O   UNL A   1      34.356  32.714  30.920  1.00  0.00    -0.237 OA
ATOM     70  O   UNL A   1      36.180  33.502  29.456  1.00  0.00    -0.744 OA
ENDBRANCH  63  67
ENDBRANCH  46  60
BRANCH  47  71
ATOM     71  C   UNL A   1      46.892  27.247  25.858  1.00  0.00     0.023 A 
ATOM     72  C   UNL A   1      47.074  27.680  24.536  1.00  0.00     0.031 A 
ATOM     73  C   UNL A   1      47.859  26.387  26.411  1.00  0.00     0.131 A 
ATOM     74  C   UNL A   1      48.179  27.224  23.798  1.00  0.00     0.055 A 
ATOM     75  C   UNL A   1      48.980  25.976  25.689  1.00  0.00     0.041 A 
ATOM     76  F   UNL A   1      47.731  25.942  27.671  1.00  0.00    -0.206 F 
ATOM     77  C   UNL A   1      49.140  26.388  24.370  1.00  0.00     0.022 A 
BRANCH  74  78
ATOM     78  S   UNL A   1      48.311  27.691  22.049  1.00  0.00     0.124 S 
ATOM     79  O   UNL A   1      49.471  28.574  22.066  1.00  0.00    -0.237 OA
ATOM     80  O   UNL A   1      48.497  26.398  21.401  1.00  0.00    -0.237 OA
ATOM     81  O   UNL A   1      47.033  28.346  21.775  1.00  0.00    -0.744 OA
ENDBRANCH  74  78
ENDBRANCH  47  71
BRANCH  59  82
ATOM     82  C   UNL A   1      45.035  33.180  29.069  1.00  0.00     0.023 A 
ATOM     83  C   UNL A   1      45.868  33.378  30.185  1.00  0.00     0.031 A 
ATOM     84  C   UNL A   1      44.915  34.228  28.138  1.00  0.00     0.131 A 
ATOM     85  C   UNL A   1      46.520  34.609  30.357  1.00  0.00     0.055 A 
ATOM     86  C   UNL A   1      45.610  35.428  28.286  1.00  0.00     0.041 A 
ATOM     87  F   UNL A   1      44.133  34.092  27.054  1.00  0.00    -0.206 F 
ATOM     88  C   UNL A   1      46.411  35.627  29.406  1.00  0.00     0.022 A 
BRANCH  85  89
ATOM     89  S   UNL A   1      47.471  34.891  31.876  1.00  0.00     0.124 S 
ATOM     90  O   UNL A   1      47.035  33.781  32.718  1.00  0.00    -0.237 OA
ATOM     91  O   UNL A   1      48.849  34.828  31.400  1.00  0.00    -0.237 OA
ATOM     92  O   UNL A   1      47.030  36.214  32.317  1.00  0.00    -0.744 OA
ENDBRANCH  85  89
ENDBRANCH  59  82
ENDBRANCH  33  34
ENDBRANCH  26  28
ENDBRANCH  25  26
ENDBRANCH  24  25
ENDBRANCH   1  24
TORSDOF 21
ENDMDL
