MODEL 1
REMARK VINA RESULT:     -10.9      0.000      0.000
REMARK SMILES CCn1cccc1C(=O)N1CC[C@H](C(=O)OCCOC(=O)c2ccc(-c3c4nc(c(-c5cc(S(=O)(=O)[O-])ccc5F)c5ccc([nH]5)c(-c5cc(S(=O)(=O)[O-])ccc5F)c5nc(c(-c6cc(S(=O)(=O)[O-])ccc6F)c6ccc3[nH]6)C=C5)C=C4)cc2)[C@H]1C
REMARK SMILES IDX 17 1 16 2 14 3 15 4 13 5 10 6 11 7 85 8 12 9 86 10 8 11 9 12
REMARK SMILES IDX 7 13 3 14 4 15 5 16 6 17 2 18 1 19 18 20 19 21 20 22 21 23
REMARK SMILES IDX 22 24 23 25 84 26 24 27 83 28 25 29 26 30 27 31 77 32 28 33
REMARK SMILES IDX 82 34 76 35 78 36 29 37 81 38 75 39 74 40 30 42 62 43 42 44
REMARK SMILES IDX 61 45 43 46 46 47 60 48 79 49 44 50 45 51 59 53 80 54 47 55
REMARK SMILES IDX 31 56 32 57 40 58 33 59 39 60 41 61 38 62 34 63 35 64 36 65
REMARK SMILES IDX 37 66 63 67 64 68 72 69 65 70 71 71 73 72 70 73 66 74 67 75
REMARK SMILES IDX 68 76 69 77 48 78 49 79 57 80 50 81 56 82 58 83 55 84 51 85
REMARK SMILES IDX 52 86 53 87 54 88
REMARK H PARENT 78 41 46 52
REMARK Flexibility Score: inf
ROOT
ATOM      1  C   UNL A   1      38.288  21.489  25.473  1.00  0.00     0.274 C 
ENDROOT
BRANCH   1   2
ATOM      2  O   UNL A   1      36.923  21.843  25.793  1.00  0.00    -0.462 OA
BRANCH   2   3
ATOM      3  C   UNL A   1      35.955  20.977  25.387  1.00  0.00     0.311 C 
ATOM      4  O   UNL A   1      36.184  19.865  24.921  1.00  0.00    -0.252 OA
BRANCH   3   5
ATOM      5  C   UNL A   1      34.545  21.547  25.468  1.00  0.00     0.123 C 
ATOM      6  N   UNL A   1      33.531  23.520  24.522  1.00  0.00    -0.334 N 
ATOM      7  C   UNL A   1      34.290  23.931  25.686  1.00  0.00     0.121 C 
ATOM      8  C   UNL A   1      33.944  22.150  24.174  1.00  0.00     0.096 C 
ATOM      9  C   UNL A   1      34.421  22.669  26.507  1.00  0.00     0.039 C 
ATOM     10  C   UNL A   1      32.796  21.265  23.702  1.00  0.00     0.032 C 
BRANCH   6  11
ATOM     11  C   UNL A   1      33.424  24.490  23.520  1.00  0.00     0.270 C 
ATOM     12  O   UNL A   1      34.182  24.468  22.551  1.00  0.00    -0.267 OA
BRANCH  11  13
ATOM     13  C   UNL A   1      32.417  25.533  23.658  1.00  0.00     0.107 A 
ATOM     14  N   UNL A   1      32.505  26.816  24.170  1.00  0.00    -0.344 N 
ATOM     15  C   UNL A   1      31.279  27.444  24.049  1.00  0.00     0.086 A 
ATOM     16  C   UNL A   1      30.420  26.607  23.384  1.00  0.00     0.020 A 
ATOM     17  C   UNL A   1      31.134  25.424  23.124  1.00  0.00     0.033 A 
BRANCH  14  18
ATOM     18  C   UNL A   1      33.646  27.494  24.760  1.00  0.00     0.119 C 
ATOM     19  C   UNL A   1      33.578  27.749  26.253  1.00  0.00     0.027 C 
ENDBRANCH  14  18
ENDBRANCH  11  13
ENDBRANCH   6  11
ENDBRANCH   3   5
ENDBRANCH   2   3
ENDBRANCH   1   2
BRANCH   1  20
ATOM     20  C   UNL A   1      39.350  22.210  26.319  1.00  0.00     0.275 C 
BRANCH  20  21
ATOM     21  O   UNL A   1      38.990  23.547  26.698  1.00  0.00    -0.458 OA
BRANCH  21  22
ATOM     22  C   UNL A   1      39.918  24.116  27.482  1.00  0.00     0.338 C 
ATOM     23  O   UNL A   1      40.867  23.531  28.020  1.00  0.00    -0.246 OA
BRANCH  22  24
ATOM     24  C   UNL A   1      39.676  25.518  27.778  1.00  0.00     0.060 A 
ATOM     25  C   UNL A   1      40.084  26.441  26.809  1.00  0.00     0.016 A 
ATOM     26  C   UNL A   1      39.429  25.898  29.098  1.00  0.00     0.016 A 
ATOM     27  C   UNL A   1      40.404  27.725  27.183  1.00  0.00     0.010 A 
ATOM     28  C   UNL A   1      39.739  27.197  29.476  1.00  0.00     0.010 A 
ATOM     29  C   UNL A   1      40.270  28.083  28.524  1.00  0.00    -0.014 A 
BRANCH  29  30
ATOM     30  C   UNL A   1      40.544  29.484  28.872  1.00  0.00     0.031 A 
ATOM     31  C   UNL A   1      39.243  30.233  29.211  1.00  0.00     0.074 A 
ATOM     32  C   UNL A   1      41.855  29.868  28.804  1.00  0.00     0.049 A 
ATOM     33  N   UNL A   1      39.011  31.499  29.366  1.00  0.00    -0.248 NA
ATOM     34  C   UNL A   1      37.977  29.445  29.344  1.00  0.00     0.031 C 
ATOM     35  C   UNL A   1      42.986  29.005  28.377  1.00  0.00     0.029 A 
ATOM     36  N   UNL A   1      42.507  31.050  29.070  1.00  0.00    -0.354 N 
ATOM     37  C   UNL A   1      37.697  31.621  29.871  1.00  0.00     0.074 A 
ATOM     38  C   UNL A   1      37.067  30.352  29.691  1.00  0.00     0.031 C 
ATOM     39  C   UNL A   1      44.149  29.698  28.359  1.00  0.00     0.029 A 
ATOM     40  C   UNL A   1      43.909  31.051  28.820  1.00  0.00     0.049 A 
ATOM     41  H   UNL A   1      42.034  31.844  29.413  1.00  0.00     0.167 HD
ATOM     42  C   UNL A   1      37.247  32.713  30.552  1.00  0.00     0.034 A 
ATOM     43  C   UNL A   1      44.804  32.075  28.980  1.00  0.00     0.034 A 
ATOM     44  C   UNL A   1      38.238  33.734  30.555  1.00  0.00     0.049 A 
ATOM     45  C   UNL A   1      44.043  33.106  29.700  1.00  0.00     0.074 A 
ATOM     46  C   UNL A   1      38.656  34.620  29.601  1.00  0.00     0.029 A 
ATOM     47  N   UNL A   1      39.135  33.744  31.596  1.00  0.00    -0.354 N 
ATOM     48  N   UNL A   1      43.698  33.015  30.947  1.00  0.00    -0.248 NA
ATOM     49  C   UNL A   1      43.581  34.298  28.983  1.00  0.00     0.031 C 
ATOM     50  C   UNL A   1      40.016  34.829  29.904  1.00  0.00     0.029 A 
ATOM     51  C   UNL A   1      40.344  34.151  31.086  1.00  0.00     0.049 A 
ATOM     52  H   UNL A   1      38.946  33.505  32.533  1.00  0.00     0.167 HD
ATOM     53  C   UNL A   1      42.718  33.965  31.070  1.00  0.00     0.074 A 
ATOM     54  C   UNL A   1      42.921  34.891  29.976  1.00  0.00     0.031 C 
ATOM     55  C   UNL A   1      41.559  33.658  31.709  1.00  0.00     0.034 A 
BRANCH  42  56
ATOM     56  C   UNL A   1      36.022  32.936  31.396  1.00  0.00     0.023 A 
ATOM     57  C   UNL A   1      35.124  33.936  30.952  1.00  0.00     0.031 A 
ATOM     58  C   UNL A   1      35.824  32.459  32.699  1.00  0.00     0.131 A 
ATOM     59  C   UNL A   1      34.159  34.492  31.802  1.00  0.00     0.055 A 
ATOM     60  C   UNL A   1      34.817  32.972  33.532  1.00  0.00     0.041 A 
ATOM     61  F   UNL A   1      36.640  31.548  33.247  1.00  0.00    -0.206 F 
ATOM     62  C   UNL A   1      33.999  34.013  33.097  1.00  0.00     0.022 A 
BRANCH  59  63
ATOM     63  S   UNL A   1      33.248  35.954  31.230  1.00  0.00     0.124 S 
ATOM     64  O   UNL A   1      33.470  35.919  29.789  1.00  0.00    -0.237 OA
ATOM     65  O   UNL A   1      31.889  35.655  31.674  1.00  0.00    -0.237 OA
ATOM     66  O   UNL A   1      33.902  37.056  31.932  1.00  0.00    -0.744 OA
ENDBRANCH  59  63
ENDBRANCH  42  56
BRANCH  43  67
ATOM     67  C   UNL A   1      46.250  32.425  28.669  1.00  0.00     0.023 A 
ATOM     68  C   UNL A   1      46.702  33.307  27.672  1.00  0.00     0.031 A 
ATOM     69  C   UNL A   1      47.282  31.900  29.512  1.00  0.00     0.131 A 
ATOM     70  C   UNL A   1      48.082  33.662  27.600  1.00  0.00     0.055 A 
ATOM     71  C   UNL A   1      48.615  32.309  29.485  1.00  0.00     0.041 A 
ATOM     72  F   UNL A   1      47.043  30.958  30.435  1.00  0.00    -0.206 F 
ATOM     73  C   UNL A   1      49.020  33.209  28.531  1.00  0.00     0.022 A 
BRANCH  70  74
ATOM     74  S   UNL A   1      48.723  34.765  26.305  1.00  0.00     0.124 S 
ATOM     75  O   UNL A   1      49.026  33.826  25.230  1.00  0.00    -0.237 OA
ATOM     76  O   UNL A   1      47.612  35.680  26.064  1.00  0.00    -0.237 OA
ATOM     77  O   UNL A   1      49.891  35.374  26.942  1.00  0.00    -0.744 OA
ENDBRANCH  70  74
ENDBRANCH  43  67
BRANCH  55  78
ATOM     78  C   UNL A   1      41.684  32.484  32.693  1.00  0.00     0.023 A 
ATOM     79  C   UNL A   1      41.160  31.217  32.361  1.00  0.00     0.031 A 
ATOM     80  C   UNL A   1      42.187  32.605  34.003  1.00  0.00     0.131 A 
ATOM     81  C   UNL A   1      41.107  30.175  33.313  1.00  0.00     0.055 A 
ATOM     82  C   UNL A   1      42.142  31.573  34.949  1.00  0.00     0.041 A 
ATOM     83  F   UNL A   1      42.760  33.731  34.421  1.00  0.00    -0.206 F 
ATOM     84  C   UNL A   1      41.591  30.350  34.609  1.00  0.00     0.022 A 
BRANCH  81  85
ATOM     85  S   UNL A   1      40.429  28.561  32.837  1.00  0.00     0.124 S 
ATOM     86  O   UNL A   1      39.102  28.902  32.340  1.00  0.00    -0.237 OA
ATOM     87  O   UNL A   1      41.389  28.097  31.838  1.00  0.00    -0.237 OA
ATOM     88  O   UNL A   1      40.443  27.803  34.089  1.00  0.00    -0.744 OA
ENDBRANCH  81  85
ENDBRANCH  55  78
ENDBRANCH  29  30
ENDBRANCH  22  24
ENDBRANCH  21  22
ENDBRANCH  20  21
ENDBRANCH   1  20
TORSDOF 17
ENDMDL
MODEL 2
REMARK VINA RESULT:     -10.5      4.310      8.738
REMARK SMILES CCn1cccc1C(=O)N1CC[C@H](C(=O)OCCOC(=O)c2ccc(-c3c4nc(c(-c5cc(S(=O)(=O)[O-])ccc5F)c5ccc([nH]5)c(-c5cc(S(=O)(=O)[O-])ccc5F)c5nc(c(-c6cc(S(=O)(=O)[O-])ccc6F)c6ccc3[nH]6)C=C5)C=C4)cc2)[C@H]1C
REMARK SMILES IDX 17 1 16 2 14 3 15 4 13 5 10 6 11 7 85 8 12 9 86 10 8 11 9 12
REMARK SMILES IDX 7 13 3 14 4 15 5 16 6 17 2 18 1 19 18 20 19 21 20 22 21 23
REMARK SMILES IDX 22 24 23 25 84 26 24 27 83 28 25 29 26 30 27 31 77 32 28 33
REMARK SMILES IDX 82 34 76 35 78 36 29 37 81 38 75 39 74 40 30 42 62 43 42 44
REMARK SMILES IDX 61 45 43 46 46 47 60 48 79 49 44 50 45 51 59 53 80 54 47 55
REMARK SMILES IDX 31 56 32 57 40 58 33 59 39 60 41 61 38 62 34 63 35 64 36 65
REMARK SMILES IDX 37 66 63 67 64 68 72 69 65 70 71 71 73 72 70 73 66 74 67 75
REMARK SMILES IDX 68 76 69 77 48 78 49 79 57 80 50 81 56 82 58 83 55 84 51 85
REMARK SMILES IDX 52 86 53 87 54 88
REMARK H PARENT 78 41 46 52
REMARK Flexibility Score: inf
ROOT
ATOM      1  C   UNL A   1      33.753  29.834  27.284  1.00  0.00     0.274 C 
ENDROOT
BRANCH   1   2
ATOM      2  O   UNL A   1      33.175  29.887  25.958  1.00  0.00    -0.462 OA
BRANCH   2   3
ATOM      3  C   UNL A   1      32.195  28.985  25.682  1.00  0.00     0.311 C 
ATOM      4  O   UNL A   1      31.606  28.330  26.537  1.00  0.00    -0.252 OA
BRANCH   3   5
ATOM      5  C   UNL A   1      31.951  28.776  24.193  1.00  0.00     0.123 C 
ATOM      6  N   UNL A   1      32.623  27.038  22.662  1.00  0.00    -0.334 N 
ATOM      7  C   UNL A   1      33.757  27.919  22.852  1.00  0.00     0.121 C 
ATOM      8  C   UNL A   1      31.639  27.336  23.716  1.00  0.00     0.096 C 
ATOM      9  C   UNL A   1      33.144  29.214  23.334  1.00  0.00     0.039 C 
ATOM     10  C   UNL A   1      30.192  27.275  23.239  1.00  0.00     0.032 C 
BRANCH   6  11
ATOM     11  C   UNL A   1      32.955  25.709  22.376  1.00  0.00     0.270 C 
ATOM     12  O   UNL A   1      33.487  25.419  21.305  1.00  0.00    -0.267 OA
BRANCH  11  13
ATOM     13  C   UNL A   1      32.639  24.680  23.356  1.00  0.00     0.107 A 
ATOM     14  N   UNL A   1      33.216  24.384  24.579  1.00  0.00    -0.344 N 
ATOM     15  C   UNL A   1      32.536  23.334  25.167  1.00  0.00     0.086 A 
ATOM     16  C   UNL A   1      31.468  23.003  24.373  1.00  0.00     0.020 A 
ATOM     17  C   UNL A   1      31.521  23.854  23.254  1.00  0.00     0.033 A 
BRANCH  14  18
ATOM     18  C   UNL A   1      34.351  25.010  25.235  1.00  0.00     0.119 C 
ATOM     19  C   UNL A   1      35.627  24.193  25.296  1.00  0.00     0.027 C 
ENDBRANCH  14  18
ENDBRANCH  11  13
ENDBRANCH   6  11
ENDBRANCH   3   5
ENDBRANCH   2   3
ENDBRANCH   1   2
BRANCH   1  20
ATOM     20  C   UNL A   1      34.195  31.195  27.843  1.00  0.00     0.275 C 
BRANCH  20  21
ATOM     21  O   UNL A   1      35.612  31.322  28.029  1.00  0.00    -0.458 OA
BRANCH  21  22
ATOM     22  C   UNL A   1      36.027  30.727  29.158  1.00  0.00     0.338 C 
ATOM     23  O   UNL A   1      35.631  30.988  30.301  1.00  0.00    -0.246 OA
BRANCH  22  24
ATOM     24  C   UNL A   1      37.114  29.781  28.973  1.00  0.00     0.060 A 
ATOM     25  C   UNL A   1      37.691  29.257  30.134  1.00  0.00     0.016 A 
ATOM     26  C   UNL A   1      37.770  29.734  27.741  1.00  0.00     0.016 A 
ATOM     27  C   UNL A   1      38.996  28.823  30.112  1.00  0.00     0.010 A 
ATOM     28  C   UNL A   1      39.082  29.285  27.712  1.00  0.00     0.010 A 
ATOM     29  C   UNL A   1      39.698  28.880  28.908  1.00  0.00    -0.014 A 
BRANCH  29  30
ATOM     30  C   UNL A   1      41.062  28.334  28.904  1.00  0.00     0.031 A 
ATOM     31  C   UNL A   1      42.091  29.418  29.271  1.00  0.00     0.074 A 
ATOM     32  C   UNL A   1      41.175  27.016  28.556  1.00  0.00     0.049 A 
ATOM     33  N   UNL A   1      43.384  29.420  29.187  1.00  0.00    -0.248 NA
ATOM     34  C   UNL A   1      41.592  30.742  29.760  1.00  0.00     0.031 C 
ATOM     35  C   UNL A   1      40.051  26.131  28.155  1.00  0.00     0.029 A 
ATOM     36  N   UNL A   1      42.241  26.153  28.463  1.00  0.00    -0.354 N 
ATOM     37  C   UNL A   1      43.841  30.582  29.850  1.00  0.00     0.074 A 
ATOM     38  C   UNL A   1      42.701  31.421  30.042  1.00  0.00     0.031 C 
ATOM     39  C   UNL A   1      40.499  24.899  27.812  1.00  0.00     0.029 A 
ATOM     40  C   UNL A   1      41.934  24.839  28.007  1.00  0.00     0.049 A 
ATOM     41  H   UNL A   1      43.159  26.425  28.697  1.00  0.00     0.167 HD
ATOM     42  C   UNL A   1      45.104  30.724  30.344  1.00  0.00     0.034 A 
ATOM     43  C   UNL A   1      42.783  23.784  27.806  1.00  0.00     0.034 A 
ATOM     44  C   UNL A   1      45.903  29.606  29.978  1.00  0.00     0.049 A 
ATOM     45  C   UNL A   1      44.053  24.229  28.399  1.00  0.00     0.074 A 
ATOM     46  C   UNL A   1      46.505  29.243  28.805  1.00  0.00     0.029 A 
ATOM     47  N   UNL A   1      45.935  28.538  30.844  1.00  0.00    -0.354 N 
ATOM     48  N   UNL A   1      44.258  24.344  29.675  1.00  0.00    -0.248 NA
ATOM     49  C   UNL A   1      45.158  24.630  27.525  1.00  0.00     0.031 C 
ATOM     50  C   UNL A   1      46.508  27.834  28.846  1.00  0.00     0.029 A 
ATOM     51  C   UNL A   1      46.008  27.398  30.080  1.00  0.00     0.049 A 
ATOM     52  H   UNL A   1      45.911  28.583  31.828  1.00  0.00     0.167 HD
ATOM     53  C   UNL A   1      45.380  25.126  29.741  1.00  0.00     0.074 A 
ATOM     54  C   UNL A   1      46.036  24.992  28.458  1.00  0.00     0.031 C 
ATOM     55  C   UNL A   1      45.418  26.178  30.601  1.00  0.00     0.034 A 
BRANCH  42  56
ATOM     56  C   UNL A   1      45.703  31.720  31.298  1.00  0.00     0.023 A 
ATOM     57  C   UNL A   1      45.717  31.353  32.666  1.00  0.00     0.031 A 
ATOM     58  C   UNL A   1      45.988  33.062  31.013  1.00  0.00     0.131 A 
ATOM     59  C   UNL A   1      45.901  32.300  33.682  1.00  0.00     0.055 A 
ATOM     60  C   UNL A   1      46.234  34.000  32.029  1.00  0.00     0.041 A 
ATOM     61  F   UNL A   1      45.956  33.539  29.761  1.00  0.00    -0.206 F 
ATOM     62  C   UNL A   1      46.162  33.629  33.370  1.00  0.00     0.022 A 
BRANCH  59  63
ATOM     63  S   UNL A   1      45.625  31.783  35.399  1.00  0.00     0.124 S 
ATOM     64  O   UNL A   1      46.650  30.763  35.590  1.00  0.00    -0.237 OA
ATOM     65  O   UNL A   1      45.825  33.033  36.127  1.00  0.00    -0.237 OA
ATOM     66  O   UNL A   1      44.251  31.285  35.386  1.00  0.00    -0.744 OA
ENDBRANCH  59  63
ENDBRANCH  42  56
BRANCH  43  67
ATOM     67  C   UNL A   1      42.793  22.385  27.211  1.00  0.00     0.023 A 
ATOM     68  C   UNL A   1      43.768  21.848  26.352  1.00  0.00     0.031 A 
ATOM     69  C   UNL A   1      41.777  21.458  27.613  1.00  0.00     0.131 A 
ATOM     70  C   UNL A   1      43.730  20.466  26.000  1.00  0.00     0.055 A 
ATOM     71  C   UNL A   1      41.788  20.094  27.327  1.00  0.00     0.041 A 
ATOM     72  F   UNL A   1      40.711  21.833  28.333  1.00  0.00    -0.206 F 
ATOM     73  C   UNL A   1      42.780  19.586  26.524  1.00  0.00     0.022 A 
BRANCH  70  74
ATOM     74  S   UNL A   1      44.942  19.733  24.861  1.00  0.00     0.124 S 
ATOM     75  O   UNL A   1      44.528  20.291  23.577  1.00  0.00    -0.237 OA
ATOM     76  O   UNL A   1      46.220  20.204  25.383  1.00  0.00    -0.237 OA
ATOM     77  O   UNL A   1      44.710  18.296  25.015  1.00  0.00    -0.744 OA
ENDBRANCH  70  74
ENDBRANCH  43  67
BRANCH  55  78
ATOM     78  C   UNL A   1      44.441  26.052  31.781  1.00  0.00     0.023 A 
ATOM     79  C   UNL A   1      43.551  27.104  32.084  1.00  0.00     0.031 A 
ATOM     80  C   UNL A   1      44.449  24.984  32.698  1.00  0.00     0.131 A 
ATOM     81  C   UNL A   1      42.770  27.085  33.261  1.00  0.00     0.055 A 
ATOM     82  C   UNL A   1      43.673  24.958  33.865  1.00  0.00     0.041 A 
ATOM     83  F   UNL A   1      45.202  23.906  32.496  1.00  0.00    -0.206 F 
ATOM     84  C   UNL A   1      42.833  26.018  34.157  1.00  0.00     0.022 A 
BRANCH  81  85
ATOM     85  S   UNL A   1      41.635  28.458  33.605  1.00  0.00     0.124 S 
ATOM     86  O   UNL A   1      40.342  27.916  33.207  1.00  0.00    -0.237 OA
ATOM     87  O   UNL A   1      41.828  28.675  35.037  1.00  0.00    -0.237 OA
ATOM     88  O   UNL A   1      42.139  29.538  32.754  1.00  0.00    -0.744 OA
ENDBRANCH  81  85
ENDBRANCH  55  78
ENDBRANCH  29  30
ENDBRANCH  22  24
ENDBRANCH  21  22
ENDBRANCH  20  21
ENDBRANCH   1  20
TORSDOF 17
ENDMDL
MODEL 3
REMARK VINA RESULT:     -10.4      3.861      5.453
REMARK SMILES CCn1cccc1C(=O)N1CC[C@H](C(=O)OCCOC(=O)c2ccc(-c3c4nc(c(-c5cc(S(=O)(=O)[O-])ccc5F)c5ccc([nH]5)c(-c5cc(S(=O)(=O)[O-])ccc5F)c5nc(c(-c6cc(S(=O)(=O)[O-])ccc6F)c6ccc3[nH]6)C=C5)C=C4)cc2)[C@H]1C
REMARK SMILES IDX 17 1 16 2 14 3 15 4 13 5 10 6 11 7 85 8 12 9 86 10 8 11 9 12
REMARK SMILES IDX 7 13 3 14 4 15 5 16 6 17 2 18 1 19 18 20 19 21 20 22 21 23
REMARK SMILES IDX 22 24 23 25 84 26 24 27 83 28 25 29 26 30 27 31 77 32 28 33
REMARK SMILES IDX 82 34 76 35 78 36 29 37 81 38 75 39 74 40 30 42 62 43 42 44
REMARK SMILES IDX 61 45 43 46 46 47 60 48 79 49 44 50 45 51 59 53 80 54 47 55
REMARK SMILES IDX 31 56 32 57 40 58 33 59 39 60 41 61 38 62 34 63 35 64 36 65
REMARK SMILES IDX 37 66 63 67 64 68 72 69 65 70 71 71 73 72 70 73 66 74 67 75
REMARK SMILES IDX 68 76 69 77 48 78 49 79 57 80 50 81 56 82 58 83 55 84 51 85
REMARK SMILES IDX 52 86 53 87 54 88
REMARK H PARENT 78 41 46 52
REMARK Flexibility Score: inf
ROOT
ATOM      1  C   UNL A   1      34.669  21.160  25.203  1.00  0.00     0.274 C 
ENDROOT
BRANCH   1   2
ATOM      2  O   UNL A   1      34.023  21.627  23.995  1.00  0.00    -0.462 OA
BRANCH   2   3
ATOM      3  C   UNL A   1      33.714  22.951  23.939  1.00  0.00     0.311 C 
ATOM      4  O   UNL A   1      33.511  23.562  22.895  1.00  0.00    -0.252 OA
BRANCH   3   5
ATOM      5  C   UNL A   1      33.739  23.647  25.293  1.00  0.00     0.123 C 
ATOM      6  N   UNL A   1      32.714  25.677  26.098  1.00  0.00    -0.334 N 
ATOM      7  C   UNL A   1      33.888  26.050  25.336  1.00  0.00     0.121 C 
ATOM      8  C   UNL A   1      32.414  24.266  25.802  1.00  0.00     0.096 C 
ATOM      9  C   UNL A   1      34.745  24.805  25.342  1.00  0.00     0.039 C 
ATOM     10  C   UNL A   1      31.931  23.475  27.013  1.00  0.00     0.032 C 
BRANCH   6  11
ATOM     11  C   UNL A   1      31.684  26.624  26.090  1.00  0.00     0.270 C 
ATOM     12  O   UNL A   1      31.061  26.873  27.121  1.00  0.00    -0.267 OA
BRANCH  11  13
ATOM     13  C   UNL A   1      31.352  27.288  24.837  1.00  0.00     0.107 A 
ATOM     14  N   UNL A   1      31.730  28.522  24.336  1.00  0.00    -0.344 N 
ATOM     15  C   UNL A   1      31.186  28.693  23.078  1.00  0.00     0.086 A 
ATOM     16  C   UNL A   1      30.529  27.543  22.722  1.00  0.00     0.020 A 
ATOM     17  C   UNL A   1      30.648  26.660  23.810  1.00  0.00     0.033 A 
BRANCH  14  18
ATOM     18  C   UNL A   1      32.559  29.546  24.947  1.00  0.00     0.119 C 
ATOM     19  C   UNL A   1      31.896  30.403  26.008  1.00  0.00     0.027 C 
ENDBRANCH  14  18
ENDBRANCH  11  13
ENDBRANCH   6  11
ENDBRANCH   3   5
ENDBRANCH   2   3
ENDBRANCH   1   2
BRANCH   1  20
ATOM     20  C   UNL A   1      36.152  20.795  25.033  1.00  0.00     0.275 C 
BRANCH  20  21
ATOM     21  O   UNL A   1      37.047  21.913  25.128  1.00  0.00    -0.458 OA
BRANCH  21  22
ATOM     22  C   UNL A   1      38.239  21.564  25.636  1.00  0.00     0.338 C 
ATOM     23  O   UNL A   1      38.753  20.441  25.564  1.00  0.00    -0.246 OA
BRANCH  22  24
ATOM     24  C   UNL A   1      38.885  22.602  26.420  1.00  0.00     0.060 A 
ATOM     25  C   UNL A   1      38.523  23.922  26.128  1.00  0.00     0.016 A 
ATOM     26  C   UNL A   1      40.058  22.298  27.111  1.00  0.00     0.016 A 
ATOM     27  C   UNL A   1      39.407  24.944  26.383  1.00  0.00     0.010 A 
ATOM     28  C   UNL A   1      40.947  23.328  27.382  1.00  0.00     0.010 A 
ATOM     29  C   UNL A   1      40.633  24.634  26.971  1.00  0.00    -0.014 A 
BRANCH  29  30
ATOM     30  C   UNL A   1      41.518  25.760  27.302  1.00  0.00     0.031 A 
ATOM     31  C   UNL A   1      40.803  26.773  28.214  1.00  0.00     0.074 A 
ATOM     32  C   UNL A   1      42.762  25.725  26.737  1.00  0.00     0.049 A 
ATOM     33  N   UNL A   1      41.136  27.976  28.566  1.00  0.00    -0.248 NA
ATOM     34  C   UNL A   1      39.468  26.407  28.783  1.00  0.00     0.031 C 
ATOM     35  C   UNL A   1      43.258  24.679  25.805  1.00  0.00     0.029 A 
ATOM     36  N   UNL A   1      43.860  26.550  26.819  1.00  0.00    -0.354 N 
ATOM     37  C   UNL A   1      40.231  28.376  29.576  1.00  0.00     0.074 A 
ATOM     38  C   UNL A   1      39.151  27.444  29.555  1.00  0.00     0.031 C 
ATOM     39  C   UNL A   1      44.510  24.963  25.374  1.00  0.00     0.029 A 
ATOM     40  C   UNL A   1      44.975  26.177  26.015  1.00  0.00     0.049 A 
ATOM     41  H   UNL A   1      43.874  27.348  27.396  1.00  0.00     0.167 HD
ATOM     42  C   UNL A   1      40.496  29.364  30.478  1.00  0.00     0.034 A 
ATOM     43  C   UNL A   1      46.184  26.806  25.885  1.00  0.00     0.034 A 
ATOM     44  C   UNL A   1      41.731  29.998  30.167  1.00  0.00     0.049 A 
ATOM     45  C   UNL A   1      46.172  27.824  26.947  1.00  0.00     0.074 A 
ATOM     46  C   UNL A   1      42.088  30.908  29.211  1.00  0.00     0.029 A 
ATOM     47  N   UNL A   1      42.870  29.486  30.743  1.00  0.00    -0.354 N 
ATOM     48  N   UNL A   1      46.279  27.556  28.211  1.00  0.00    -0.248 NA
ATOM     49  C   UNL A   1      45.973  29.233  26.595  1.00  0.00     0.031 C 
ATOM     50  C   UNL A   1      43.440  30.609  28.946  1.00  0.00     0.029 A 
ATOM     51  C   UNL A   1      43.880  29.607  29.820  1.00  0.00     0.049 A 
ATOM     52  H   UNL A   1      42.946  29.106  31.648  1.00  0.00     0.167 HD
ATOM     53  C   UNL A   1      45.840  28.705  28.812  1.00  0.00     0.074 A 
ATOM     54  C   UNL A   1      45.979  29.752  27.822  1.00  0.00     0.031 C 
ATOM     55  C   UNL A   1      44.955  28.631  29.840  1.00  0.00     0.034 A 
BRANCH  42  56
ATOM     56  C   UNL A   1      39.826  29.751  31.768  1.00  0.00     0.023 A 
ATOM     57  C   UNL A   1      38.886  30.807  31.699  1.00  0.00     0.031 A 
ATOM     58  C   UNL A   1      40.234  29.367  33.053  1.00  0.00     0.131 A 
ATOM     59  C   UNL A   1      38.468  31.500  32.842  1.00  0.00     0.055 A 
ATOM     60  C   UNL A   1      39.768  30.021  34.206  1.00  0.00     0.041 A 
ATOM     61  F   UNL A   1      41.155  28.413  33.245  1.00  0.00    -0.206 F 
ATOM     62  C   UNL A   1      38.906  31.111  34.103  1.00  0.00     0.022 A 
BRANCH  59  63
ATOM     63  S   UNL A   1      37.485  33.010  32.622  1.00  0.00     0.124 S 
ATOM     64  O   UNL A   1      36.860  32.792  31.322  1.00  0.00    -0.237 OA
ATOM     65  O   UNL A   1      36.592  32.959  33.776  1.00  0.00    -0.237 OA
ATOM     66  O   UNL A   1      38.486  34.074  32.658  1.00  0.00    -0.744 OA
ENDBRANCH  59  63
ENDBRANCH  42  56
BRANCH  43  67
ATOM     67  C   UNL A   1      47.446  26.755  25.040  1.00  0.00     0.023 A 
ATOM     68  C   UNL A   1      47.575  27.163  23.702  1.00  0.00     0.031 A 
ATOM     69  C   UNL A   1      48.672  26.345  25.659  1.00  0.00     0.131 A 
ATOM     70  C   UNL A   1      48.861  27.206  23.086  1.00  0.00     0.055 A 
ATOM     71  C   UNL A   1      49.933  26.461  25.077  1.00  0.00     0.041 A 
ATOM     72  F   UNL A   1      48.711  25.817  26.890  1.00  0.00    -0.206 F 
ATOM     73  C   UNL A   1      50.035  26.909  23.783  1.00  0.00     0.022 A 
BRANCH  70  74
ATOM     74  S   UNL A   1      49.076  27.687  21.346  1.00  0.00     0.124 S 
ATOM     75  O   UNL A   1      49.475  29.086  21.466  1.00  0.00    -0.237 OA
ATOM     76  O   UNL A   1      50.100  26.765  20.867  1.00  0.00    -0.237 OA
ATOM     77  O   UNL A   1      47.744  27.471  20.779  1.00  0.00    -0.744 OA
ENDBRANCH  70  74
ENDBRANCH  43  67
BRANCH  55  78
ATOM     78  C   UNL A   1      44.966  27.280  30.574  1.00  0.00     0.023 A 
ATOM     79  C   UNL A   1      44.677  26.088  29.876  1.00  0.00     0.031 A 
ATOM     80  C   UNL A   1      45.122  27.142  31.966  1.00  0.00     0.131 A 
ATOM     81  C   UNL A   1      44.510  24.864  30.559  1.00  0.00     0.055 A 
ATOM     82  C   UNL A   1      44.962  25.928  32.648  1.00  0.00     0.041 A 
ATOM     83  F   UNL A   1      45.452  28.180  32.730  1.00  0.00    -0.206 F 
ATOM     84  C   UNL A   1      44.645  24.780  31.944  1.00  0.00     0.022 A 
BRANCH  81  85
ATOM     85  S   UNL A   1      44.146  23.356  29.617  1.00  0.00     0.124 S 
ATOM     86  O   UNL A   1      42.701  23.430  29.435  1.00  0.00    -0.237 OA
ATOM     87  O   UNL A   1      44.954  23.533  28.413  1.00  0.00    -0.237 OA
ATOM     88  O   UNL A   1      44.602  22.283  30.502  1.00  0.00    -0.744 OA
ENDBRANCH  81  85
ENDBRANCH  55  78
ENDBRANCH  29  30
ENDBRANCH  22  24
ENDBRANCH  21  22
ENDBRANCH  20  21
ENDBRANCH   1  20
TORSDOF 17
ENDMDL
