MODEL 1
REMARK VINA RESULT:     -12.5      0.000      0.000
REMARK SMILES C[C@]12CC/C(=N\OCC(=O)OCCOC(=O)c3ccc(-c4c5nc(c(-c6cc(S(=O)(=O)[O-])ccc6F)c6ccc([nH]6)c(-c6cc(S(=O)(=O)[O-])ccc6F)c6nc(c(-c7cc(S(=O)(=O)[O-])ccc7F)c7ccc4[nH]7)C=C6)C=C5)cc3)C=C1CC[C@@H]1[C@@H]2CC[C@@]2(C)[C@H]1CC[C@]2(C)O
REMARK SMILES IDX 12 1 11 2 9 3 10 4 8 5 7 6 6 7 94 8 93 9 92 10 88 11 91 12
REMARK SMILES IDX 90 13 87 14 89 15 84 16 86 17 83 18 85 19 82 20 2 21 81 22
REMARK SMILES IDX 3 23 1 24 80 25 4 26 5 27 95 28 13 30 14 31 15 32 16 33
REMARK SMILES IDX 17 34 18 35 79 36 19 37 78 38 20 39 21 40 22 41 72 42 23 43
REMARK SMILES IDX 77 44 71 45 73 46 24 47 76 48 70 49 69 50 25 52 57 53 37 54
REMARK SMILES IDX 56 55 38 56 41 57 55 58 74 59 39 60 40 61 54 63 75 64 42 65
REMARK SMILES IDX 26 66 27 67 35 68 28 69 34 70 36 71 33 72 29 73 30 74 31 75
REMARK SMILES IDX 32 76 58 77 59 78 67 79 60 80 66 81 68 82 65 83 61 84 62 85
REMARK SMILES IDX 63 86 64 87 43 88 44 89 52 90 45 91 51 92 53 93 50 94 46 95
REMARK SMILES IDX 47 96 48 97 49 98
REMARK H PARENT 95 29 73 51 41 62
REMARK Flexibility Score: inf
ROOT
ATOM      1  C   UNL A   1      33.479  35.090  28.630  1.00  0.00     0.274 C 
ENDROOT
BRANCH   1   2
ATOM      2  O   UNL A   1      34.581  34.354  29.189  1.00  0.00    -0.459 OA
BRANCH   2   3
ATOM      3  C   UNL A   1      34.391  33.011  29.308  1.00  0.00     0.347 C 
ATOM      4  O   UNL A   1      34.587  32.365  30.334  1.00  0.00    -0.248 OA
BRANCH   3   5
ATOM      5  C   UNL A   1      33.971  32.364  27.999  1.00  0.00     0.386 C 
BRANCH   5   6
ATOM      6  O   UNL A   1      33.787  30.961  28.012  1.00  0.00    -0.384 OA
BRANCH   6   7
ATOM      7  N   UNL A   1      34.327  30.384  26.848  1.00  0.00    -0.091 NA
ATOM      8  C   UNL A   1      35.006  21.909  26.920  1.00  0.00     0.042 C 
ATOM      9  C   UNL A   1      33.789  21.442  26.090  1.00  0.00     0.068 C 
ATOM     10  C   UNL A   1      34.231  21.116  24.626  1.00  0.00     0.036 C 
ATOM     11  C   UNL A   1      32.669  22.513  25.868  1.00  0.00    -0.001 C 
ATOM     12  C   UNL A   1      33.765  22.306  23.748  1.00  0.00     0.007 C 
ATOM     13  C   UNL A   1      33.387  23.355  24.784  1.00  0.00     0.001 C 
ATOM     14  C   UNL A   1      32.270  23.390  27.065  1.00  0.00     0.010 C 
ATOM     15  C   UNL A   1      31.368  21.809  25.377  1.00  0.00     0.015 C 
ATOM     16  C   UNL A   1      32.769  24.706  24.378  1.00  0.00    -0.003 C 
ATOM     17  C   UNL A   1      31.542  24.665  26.599  1.00  0.00     0.005 C 
ATOM     18  C   UNL A   1      33.790  25.472  23.503  1.00  0.00     0.008 C 
ATOM     19  C   UNL A   1      32.487  25.487  25.695  1.00  0.00     0.002 C 
ATOM     20  C   UNL A   1      33.564  26.980  23.391  1.00  0.00     0.032 C 
ATOM     21  C   UNL A   1      32.099  26.989  25.504  1.00  0.00    -0.008 C 
ATOM     22  C   UNL A   1      33.240  27.639  24.717  1.00  0.00    -0.062 C 
ATOM     23  C   UNL A   1      31.961  27.621  26.918  1.00  0.00     0.018 C 
ATOM     24  C   UNL A   1      30.776  27.177  24.739  1.00  0.00     0.016 C 
ATOM     25  C   UNL A   1      33.939  28.707  25.147  1.00  0.00     0.027 C 
ATOM     26  C   UNL A   1      32.187  29.118  26.958  1.00  0.00     0.061 C 
ATOM     27  C   UNL A   1      33.546  29.450  26.380  1.00  0.00     0.080 C 
BRANCH   9  28
ATOM     28  O   UNL A   1      33.278  20.278  26.731  1.00  0.00    -0.390 OA
ATOM     29  H   UNL A   1      33.646  19.487  26.308  1.00  0.00     0.211 HD
ENDBRANCH   9  28
ENDBRANCH   6   7
ENDBRANCH   5   6
ENDBRANCH   3   5
ENDBRANCH   2   3
ENDBRANCH   1   2
BRANCH   1  30
ATOM     30  C   UNL A   1      32.923  36.060  29.670  1.00  0.00     0.275 C 
BRANCH  30  31
ATOM     31  O   UNL A   1      32.438  35.318  30.800  1.00  0.00    -0.458 OA
BRANCH  31  32
ATOM     32  C   UNL A   1      32.701  35.850  32.013  1.00  0.00     0.338 C 
ATOM     33  O   UNL A   1      32.150  36.806  32.543  1.00  0.00    -0.246 OA
BRANCH  32  34
ATOM     34  C   UNL A   1      33.863  35.157  32.587  1.00  0.00     0.060 A 
ATOM     35  C   UNL A   1      35.153  35.669  32.424  1.00  0.00     0.016 A 
ATOM     36  C   UNL A   1      33.660  33.947  33.251  1.00  0.00     0.016 A 
ATOM     37  C   UNL A   1      36.251  34.953  32.907  1.00  0.00     0.010 A 
ATOM     38  C   UNL A   1      34.755  33.251  33.765  1.00  0.00     0.010 A 
ATOM     39  C   UNL A   1      36.062  33.735  33.578  1.00  0.00    -0.014 A 
BRANCH  39  40
ATOM     40  C   UNL A   1      37.221  32.918  34.026  1.00  0.00     0.031 A 
ATOM     41  C   UNL A   1      37.922  33.271  35.312  1.00  0.00     0.074 A 
ATOM     42  C   UNL A   1      37.657  31.881  33.285  1.00  0.00     0.049 A 
ATOM     43  N   UNL A   1      39.030  32.791  35.815  1.00  0.00    -0.248 NA
ATOM     44  C   UNL A   1      37.288  34.313  36.135  1.00  0.00     0.031 C 
ATOM     45  C   UNL A   1      37.040  31.411  32.045  1.00  0.00     0.029 A 
ATOM     46  N   UNL A   1      38.730  31.043  33.462  1.00  0.00    -0.354 N 
ATOM     47  C   UNL A   1      39.233  33.476  37.009  1.00  0.00     0.074 A 
ATOM     48  C   UNL A   1      38.153  34.433  37.131  1.00  0.00     0.031 C 
ATOM     49  C   UNL A   1      37.743  30.368  31.574  1.00  0.00     0.029 A 
ATOM     50  C   UNL A   1      38.892  30.132  32.444  1.00  0.00     0.049 A 
ATOM     51  H   UNL A   1      39.327  31.089  34.244  1.00  0.00     0.167 HD
ATOM     52  C   UNL A   1      40.222  33.313  37.924  1.00  0.00     0.034 A 
ATOM     53  C   UNL A   1      39.874  29.234  32.219  1.00  0.00     0.034 A 
ATOM     54  C   UNL A   1      41.299  32.361  37.786  1.00  0.00     0.049 A 
ATOM     55  C   UNL A   1      41.015  29.138  33.204  1.00  0.00     0.074 A 
ATOM     56  C   UNL A   1      42.364  32.131  38.640  1.00  0.00     0.029 A 
ATOM     57  N   UNL A   1      41.447  31.478  36.724  1.00  0.00    -0.354 N 
ATOM     58  N   UNL A   1      41.212  29.815  34.311  1.00  0.00    -0.248 NA
ATOM     59  C   UNL A   1      42.065  28.154  32.907  1.00  0.00     0.031 C 
ATOM     60  C   UNL A   1      43.183  31.149  38.069  1.00  0.00     0.029 A 
ATOM     61  C   UNL A   1      42.593  30.716  36.893  1.00  0.00     0.049 A 
ATOM     62  H   UNL A   1      40.827  31.404  35.962  1.00  0.00     0.167 HD
ATOM     63  C   UNL A   1      42.391  29.312  34.858  1.00  0.00     0.074 A 
ATOM     64  C   UNL A   1      42.849  28.266  33.968  1.00  0.00     0.031 C 
ATOM     65  C   UNL A   1      43.037  29.676  35.995  1.00  0.00     0.034 A 
BRANCH  52  66
ATOM     66  C   UNL A   1      40.201  34.218  39.132  1.00  0.00     0.023 A 
ATOM     67  C   UNL A   1      39.403  33.931  40.254  1.00  0.00     0.031 A 
ATOM     68  C   UNL A   1      40.969  35.396  39.154  1.00  0.00     0.131 A 
ATOM     69  C   UNL A   1      39.341  34.840  41.321  1.00  0.00     0.055 A 
ATOM     70  C   UNL A   1      40.960  36.260  40.252  1.00  0.00     0.041 A 
ATOM     71  F   UNL A   1      41.732  35.735  38.103  1.00  0.00    -0.206 F 
ATOM     72  C   UNL A   1      40.133  35.990  41.339  1.00  0.00     0.022 A 
BRANCH  69  73
ATOM     73  S   UNL A   1      38.113  34.563  42.627  1.00  0.00     0.124 S 
ATOM     74  O   UNL A   1      36.865  34.578  41.869  1.00  0.00    -0.237 OA
ATOM     75  O   UNL A   1      38.515  33.272  43.171  1.00  0.00    -0.237 OA
ATOM     76  O   UNL A   1      38.303  35.703  43.523  1.00  0.00    -0.744 OA
ENDBRANCH  69  73
ENDBRANCH  52  66
BRANCH  53  77
ATOM     77  C   UNL A   1      39.864  28.382  30.995  1.00  0.00     0.023 A 
ATOM     78  C   UNL A   1      40.679  28.689  29.893  1.00  0.00     0.031 A 
ATOM     79  C   UNL A   1      38.982  27.293  30.876  1.00  0.00     0.131 A 
ATOM     80  C   UNL A   1      40.552  27.957  28.702  1.00  0.00     0.055 A 
ATOM     81  C   UNL A   1      38.903  26.529  29.710  1.00  0.00     0.041 A 
ATOM     82  F   UNL A   1      38.176  26.957  31.897  1.00  0.00    -0.206 F 
ATOM     83  C   UNL A   1      39.680  26.871  28.608  1.00  0.00     0.022 A 
BRANCH  80  84
ATOM     84  S   UNL A   1      41.461  28.521  27.237  1.00  0.00     0.124 S 
ATOM     85  O   UNL A   1      42.283  29.592  27.790  1.00  0.00    -0.237 OA
ATOM     86  O   UNL A   1      42.169  27.310  26.837  1.00  0.00    -0.237 OA
ATOM     87  O   UNL A   1      40.403  28.953  26.326  1.00  0.00    -0.744 OA
ENDBRANCH  80  84
ENDBRANCH  53  77
BRANCH  65  88
ATOM     88  C   UNL A   1      44.272  28.892  36.360  1.00  0.00     0.023 A 
ATOM     89  C   UNL A   1      44.212  27.746  37.172  1.00  0.00     0.031 A 
ATOM     90  C   UNL A   1      45.535  29.316  35.906  1.00  0.00     0.131 A 
ATOM     91  C   UNL A   1      45.396  27.098  37.556  1.00  0.00     0.055 A 
ATOM     92  C   UNL A   1      46.704  28.633  36.245  1.00  0.00     0.041 A 
ATOM     93  F   UNL A   1      45.652  30.403  35.127  1.00  0.00    -0.206 F 
ATOM     94  C   UNL A   1      46.641  27.526  37.086  1.00  0.00     0.022 A 
BRANCH  91  95
ATOM     95  S   UNL A   1      45.297  25.738  38.754  1.00  0.00     0.124 S 
ATOM     96  O   UNL A   1      44.405  26.289  39.768  1.00  0.00    -0.237 OA
ATOM     97  O   UNL A   1      44.753  24.651  37.948  1.00  0.00    -0.237 OA
ATOM     98  O   UNL A   1      46.684  25.557  39.181  1.00  0.00    -0.744 OA
ENDBRANCH  91  95
ENDBRANCH  65  88
ENDBRANCH  39  40
ENDBRANCH  32  34
ENDBRANCH  31  32
ENDBRANCH  30  31
ENDBRANCH   1  30
TORSDOF 17
ENDMDL
MODEL 2
REMARK VINA RESULT:     -12.4      3.310      9.573
REMARK SMILES C[C@]12CC/C(=N\OCC(=O)OCCOC(=O)c3ccc(-c4c5nc(c(-c6cc(S(=O)(=O)[O-])ccc6F)c6ccc([nH]6)c(-c6cc(S(=O)(=O)[O-])ccc6F)c6nc(c(-c7cc(S(=O)(=O)[O-])ccc7F)c7ccc4[nH]7)C=C6)C=C5)cc3)C=C1CC[C@@H]1[C@@H]2CC[C@@]2(C)[C@H]1CC[C@]2(C)O
REMARK SMILES IDX 12 1 11 2 9 3 10 4 8 5 7 6 6 7 94 8 93 9 92 10 88 11 91 12
REMARK SMILES IDX 90 13 87 14 89 15 84 16 86 17 83 18 85 19 82 20 2 21 81 22
REMARK SMILES IDX 3 23 1 24 80 25 4 26 5 27 95 28 13 30 14 31 15 32 16 33
REMARK SMILES IDX 17 34 18 35 79 36 19 37 78 38 20 39 21 40 22 41 72 42 23 43
REMARK SMILES IDX 77 44 71 45 73 46 24 47 76 48 70 49 69 50 25 52 57 53 37 54
REMARK SMILES IDX 56 55 38 56 41 57 55 58 74 59 39 60 40 61 54 63 75 64 42 65
REMARK SMILES IDX 26 66 27 67 35 68 28 69 34 70 36 71 33 72 29 73 30 74 31 75
REMARK SMILES IDX 32 76 58 77 59 78 67 79 60 80 66 81 68 82 65 83 61 84 62 85
REMARK SMILES IDX 63 86 64 87 43 88 44 89 52 90 45 91 51 92 53 93 50 94 46 95
REMARK SMILES IDX 47 96 48 97 49 98
REMARK H PARENT 95 29 73 51 41 62
REMARK Flexibility Score: inf
ROOT
ATOM      1  C   UNL A   1      42.643  20.496  26.212  1.00  0.00     0.274 C 
ENDROOT
BRANCH   1   2
ATOM      2  O   UNL A   1      41.734  19.775  25.361  1.00  0.00    -0.459 OA
BRANCH   2   3
ATOM      3  C   UNL A   1      40.422  19.826  25.724  1.00  0.00     0.347 C 
ATOM      4  O   UNL A   1      39.648  18.874  25.686  1.00  0.00    -0.248 OA
BRANCH   3   5
ATOM      5  C   UNL A   1      39.984  21.225  26.124  1.00  0.00     0.386 C 
BRANCH   5   6
ATOM      6  O   UNL A   1      38.901  21.783  25.403  1.00  0.00    -0.384 OA
BRANCH   6   7
ATOM      7  N   UNL A   1      37.884  22.193  26.284  1.00  0.00    -0.091 NA
ATOM      8  C   UNL A   1      33.604  29.165  23.966  1.00  0.00     0.042 C 
ATOM      9  C   UNL A   1      32.293  28.603  23.369  1.00  0.00     0.068 C 
ATOM     10  C   UNL A   1      31.147  28.676  24.430  1.00  0.00     0.036 C 
ATOM     11  C   UNL A   1      32.313  27.080  23.006  1.00  0.00    -0.001 C 
ATOM     12  C   UNL A   1      30.953  27.236  24.972  1.00  0.00     0.007 C 
ATOM     13  C   UNL A   1      32.184  26.513  24.441  1.00  0.00     0.001 C 
ATOM     14  C   UNL A   1      33.566  26.526  22.311  1.00  0.00     0.010 C 
ATOM     15  C   UNL A   1      31.106  26.754  22.075  1.00  0.00     0.015 C 
ATOM     16  C   UNL A   1      32.386  25.002  24.653  1.00  0.00    -0.003 C 
ATOM     17  C   UNL A   1      33.644  24.995  22.448  1.00  0.00     0.005 C 
ATOM     18  C   UNL A   1      32.481  24.724  26.172  1.00  0.00     0.008 C 
ATOM     19  C   UNL A   1      33.721  24.622  23.946  1.00  0.00     0.002 C 
ATOM     20  C   UNL A   1      33.130  23.396  26.562  1.00  0.00     0.032 C 
ATOM     21  C   UNL A   1      34.250  23.185  24.257  1.00  0.00    -0.008 C 
ATOM     22  C   UNL A   1      34.391  23.091  25.779  1.00  0.00    -0.062 C 
ATOM     23  C   UNL A   1      35.628  23.030  23.554  1.00  0.00     0.018 C 
ATOM     24  C   UNL A   1      33.305  22.075  23.760  1.00  0.00     0.016 C 
ATOM     25  C   UNL A   1      35.539  22.779  26.411  1.00  0.00     0.027 C 
ATOM     26  C   UNL A   1      36.544  22.008  24.194  1.00  0.00     0.061 C 
ATOM     27  C   UNL A   1      36.750  22.343  25.656  1.00  0.00     0.080 C 
BRANCH   9  28
ATOM     28  O   UNL A   1      31.981  29.406  22.236  1.00  0.00    -0.390 OA
ATOM     29  H   UNL A   1      32.298  28.968  21.431  1.00  0.00     0.211 HD
ENDBRANCH   9  28
ENDBRANCH   6   7
ENDBRANCH   5   6
ENDBRANCH   3   5
ENDBRANCH   2   3
ENDBRANCH   1   2
BRANCH   1  30
ATOM     30  C   UNL A   1      43.588  21.343  25.363  1.00  0.00     0.275 C 
BRANCH  30  31
ATOM     31  O   UNL A   1      42.932  22.568  25.001  1.00  0.00    -0.458 OA
BRANCH  31  32
ATOM     32  C   UNL A   1      43.707  23.673  24.993  1.00  0.00     0.338 C 
ATOM     33  O   UNL A   1      44.631  23.930  24.233  1.00  0.00    -0.246 OA
BRANCH  32  34
ATOM     34  C   UNL A   1      43.339  24.514  26.141  1.00  0.00     0.060 A 
ATOM     35  C   UNL A   1      42.433  24.055  27.102  1.00  0.00     0.016 A 
ATOM     36  C   UNL A   1      43.866  25.803  26.224  1.00  0.00     0.016 A 
ATOM     37  C   UNL A   1      42.034  24.899  28.140  1.00  0.00     0.010 A 
ATOM     38  C   UNL A   1      43.494  26.633  27.282  1.00  0.00     0.010 A 
ATOM     39  C   UNL A   1      42.558  26.198  28.238  1.00  0.00    -0.014 A 
BRANCH  39  40
ATOM     40  C   UNL A   1      42.084  27.140  29.286  1.00  0.00     0.031 A 
ATOM     41  C   UNL A   1      42.810  27.205  30.604  1.00  0.00     0.074 A 
ATOM     42  C   UNL A   1      41.005  27.918  29.072  1.00  0.00     0.049 A 
ATOM     43  N   UNL A   1      42.488  27.842  31.701  1.00  0.00    -0.248 NA
ATOM     44  C   UNL A   1      44.064  26.442  30.696  1.00  0.00     0.031 C 
ATOM     45  C   UNL A   1      40.242  27.980  27.826  1.00  0.00     0.029 A 
ATOM     46  N   UNL A   1      40.357  28.798  29.904  1.00  0.00    -0.354 N 
ATOM     47  C   UNL A   1      43.494  27.551  32.618  1.00  0.00     0.074 A 
ATOM     48  C   UNL A   1      44.413  26.647  31.958  1.00  0.00     0.031 C 
ATOM     49  C   UNL A   1      39.231  28.851  27.974  1.00  0.00     0.029 A 
ATOM     50  C   UNL A   1      39.237  29.365  29.342  1.00  0.00     0.049 A 
ATOM     51  H   UNL A   1      40.665  29.002  30.817  1.00  0.00     0.167 HD
ATOM     52  C   UNL A   1      43.642  28.004  33.888  1.00  0.00     0.034 A 
ATOM     53  C   UNL A   1      38.304  30.180  29.878  1.00  0.00     0.034 A 
ATOM     54  C   UNL A   1      42.713  28.898  34.539  1.00  0.00     0.049 A 
ATOM     55  C   UNL A   1      38.440  30.594  31.324  1.00  0.00     0.074 A 
ATOM     56  C   UNL A   1      42.754  29.399  35.828  1.00  0.00     0.029 A 
ATOM     57  N   UNL A   1      41.573  29.426  33.947  1.00  0.00    -0.354 N 
ATOM     58  N   UNL A   1      39.378  30.284  32.189  1.00  0.00    -0.248 NA
ATOM     59  C   UNL A   1      37.391  31.470  31.863  1.00  0.00     0.031 C 
ATOM     60  C   UNL A   1      41.614  30.186  36.033  1.00  0.00     0.029 A 
ATOM     61  C   UNL A   1      40.895  30.232  34.849  1.00  0.00     0.049 A 
ATOM     62  H   UNL A   1      41.287  29.253  33.020  1.00  0.00     0.167 HD
ATOM     63  C   UNL A   1      39.046  30.957  33.363  1.00  0.00     0.074 A 
ATOM     64  C   UNL A   1      37.834  31.699  33.089  1.00  0.00     0.031 C 
ATOM     65  C   UNL A   1      39.686  30.966  34.561  1.00  0.00     0.034 A 
BRANCH  52  66
ATOM     66  C   UNL A   1      44.834  27.502  34.666  1.00  0.00     0.023 A 
ATOM     67  C   UNL A   1      44.798  26.279  35.361  1.00  0.00     0.031 A 
ATOM     68  C   UNL A   1      46.013  28.264  34.737  1.00  0.00     0.131 A 
ATOM     69  C   UNL A   1      45.892  25.887  36.146  1.00  0.00     0.055 A 
ATOM     70  C   UNL A   1      47.128  27.831  35.458  1.00  0.00     0.041 A 
ATOM     71  F   UNL A   1      46.099  29.449  34.113  1.00  0.00    -0.206 F 
ATOM     72  C   UNL A   1      47.067  26.642  36.179  1.00  0.00     0.022 A 
BRANCH  69  73
ATOM     73  S   UNL A   1      45.714  24.440  37.226  1.00  0.00     0.124 S 
ATOM     74  O   UNL A   1      47.097  23.985  37.343  1.00  0.00    -0.237 OA
ATOM     75  O   UNL A   1      45.124  25.013  38.429  1.00  0.00    -0.237 OA
ATOM     76  O   UNL A   1      44.836  23.551  36.465  1.00  0.00    -0.744 OA
ENDBRANCH  69  73
ENDBRANCH  52  66
BRANCH  53  77
ATOM     77  C   UNL A   1      37.129  30.626  29.076  1.00  0.00     0.023 A 
ATOM     78  C   UNL A   1      36.728  31.972  29.067  1.00  0.00     0.031 A 
ATOM     79  C   UNL A   1      36.339  29.701  28.370  1.00  0.00     0.131 A 
ATOM     80  C   UNL A   1      35.540  32.345  28.419  1.00  0.00     0.055 A 
ATOM     81  C   UNL A   1      35.191  30.087  27.675  1.00  0.00     0.041 A 
ATOM     82  F   UNL A   1      36.672  28.399  28.348  1.00  0.00    -0.206 F 
ATOM     83  C   UNL A   1      34.777  31.414  27.712  1.00  0.00     0.022 A 
BRANCH  80  84
ATOM     84  S   UNL A   1      34.945  34.048  28.614  1.00  0.00     0.124 S 
ATOM     85  O   UNL A   1      34.621  34.410  27.239  1.00  0.00    -0.237 OA
ATOM     86  O   UNL A   1      33.811  33.869  29.515  1.00  0.00    -0.237 OA
ATOM     87  O   UNL A   1      36.093  34.745  29.190  1.00  0.00    -0.744 OA
ENDBRANCH  80  84
ENDBRANCH  53  77
BRANCH  65  88
ATOM     88  C   UNL A   1      39.111  31.854  35.636  1.00  0.00     0.023 A 
ATOM     89  C   UNL A   1      38.425  31.329  36.745  1.00  0.00     0.031 A 
ATOM     90  C   UNL A   1      39.232  33.252  35.533  1.00  0.00     0.131 A 
ATOM     91  C   UNL A   1      37.833  32.198  37.675  1.00  0.00     0.055 A 
ATOM     92  C   UNL A   1      38.690  34.109  36.492  1.00  0.00     0.041 A 
ATOM     93  F   UNL A   1      39.878  33.808  34.495  1.00  0.00    -0.206 F 
ATOM     94  C   UNL A   1      37.973  33.584  37.563  1.00  0.00     0.022 A 
BRANCH  91  95
ATOM     95  S   UNL A   1      36.797  31.494  38.988  1.00  0.00     0.124 S 
ATOM     96  O   UNL A   1      36.505  30.163  38.467  1.00  0.00    -0.237 OA
ATOM     97  O   UNL A   1      37.683  31.545  40.146  1.00  0.00    -0.237 OA
ATOM     98  O   UNL A   1      35.652  32.403  39.045  1.00  0.00    -0.744 OA
ENDBRANCH  91  95
ENDBRANCH  65  88
ENDBRANCH  39  40
ENDBRANCH  32  34
ENDBRANCH  31  32
ENDBRANCH  30  31
ENDBRANCH   1  30
TORSDOF 17
ENDMDL
MODEL 3
REMARK VINA RESULT:     -12.4      5.653      8.162
REMARK SMILES C[C@]12CC/C(=N\OCC(=O)OCCOC(=O)c3ccc(-c4c5nc(c(-c6cc(S(=O)(=O)[O-])ccc6F)c6ccc([nH]6)c(-c6cc(S(=O)(=O)[O-])ccc6F)c6nc(c(-c7cc(S(=O)(=O)[O-])ccc7F)c7ccc4[nH]7)C=C6)C=C5)cc3)C=C1CC[C@@H]1[C@@H]2CC[C@@]2(C)[C@H]1CC[C@]2(C)O
REMARK SMILES IDX 12 1 11 2 9 3 10 4 8 5 7 6 6 7 94 8 93 9 92 10 88 11 91 12
REMARK SMILES IDX 90 13 87 14 89 15 84 16 86 17 83 18 85 19 82 20 2 21 81 22
REMARK SMILES IDX 3 23 1 24 80 25 4 26 5 27 95 28 13 30 14 31 15 32 16 33
REMARK SMILES IDX 17 34 18 35 79 36 19 37 78 38 20 39 21 40 22 41 72 42 23 43
REMARK SMILES IDX 77 44 71 45 73 46 24 47 76 48 70 49 69 50 25 52 57 53 37 54
REMARK SMILES IDX 56 55 38 56 41 57 55 58 74 59 39 60 40 61 54 63 75 64 42 65
REMARK SMILES IDX 26 66 27 67 35 68 28 69 34 70 36 71 33 72 29 73 30 74 31 75
REMARK SMILES IDX 32 76 58 77 59 78 67 79 60 80 66 81 68 82 65 83 61 84 62 85
REMARK SMILES IDX 63 86 64 87 43 88 44 89 52 90 45 91 51 92 53 93 50 94 46 95
REMARK SMILES IDX 47 96 48 97 49 98
REMARK H PARENT 95 29 73 51 41 62
REMARK Flexibility Score: inf
ROOT
ATOM      1  C   UNL A   1      34.312  34.436  29.670  1.00  0.00     0.274 C 
ENDROOT
BRANCH   1   2
ATOM      2  O   UNL A   1      32.995  34.307  29.105  1.00  0.00    -0.459 OA
BRANCH   2   3
ATOM      3  C   UNL A   1      32.884  33.435  28.065  1.00  0.00     0.347 C 
ATOM      4  O   UNL A   1      31.981  33.450  27.234  1.00  0.00    -0.248 OA
BRANCH   3   5
ATOM      5  C   UNL A   1      33.974  32.376  28.075  1.00  0.00     0.386 C 
BRANCH   5   6
ATOM      6  O   UNL A   1      33.553  31.029  27.970  1.00  0.00    -0.384 OA
BRANCH   6   7
ATOM      7  N   UNL A   1      34.189  30.399  26.885  1.00  0.00    -0.091 NA
ATOM      8  C   UNL A   1      34.680  21.922  27.329  1.00  0.00     0.042 C 
ATOM      9  C   UNL A   1      33.538  21.445  26.404  1.00  0.00     0.068 C 
ATOM     10  C   UNL A   1      34.109  21.056  25.002  1.00  0.00     0.036 C 
ATOM     11  C   UNL A   1      32.466  22.527  26.038  1.00  0.00    -0.001 C 
ATOM     12  C   UNL A   1      33.753  22.219  24.041  1.00  0.00     0.007 C 
ATOM     13  C   UNL A   1      33.300  23.314  24.998  1.00  0.00     0.001 C 
ATOM     14  C   UNL A   1      31.974  23.455  27.159  1.00  0.00     0.010 C 
ATOM     15  C   UNL A   1      31.203  21.827  25.452  1.00  0.00     0.015 C 
ATOM     16  C   UNL A   1      32.752  24.658  24.485  1.00  0.00    -0.003 C 
ATOM     17  C   UNL A   1      31.320  24.723  26.580  1.00  0.00     0.005 C 
ATOM     18  C   UNL A   1      33.867  25.373  23.684  1.00  0.00     0.008 C 
ATOM     19  C   UNL A   1      32.363  25.495  25.741  1.00  0.00     0.002 C 
ATOM     20  C   UNL A   1      33.685  26.879  23.497  1.00  0.00     0.032 C 
ATOM     21  C   UNL A   1      32.027  26.994  25.459  1.00  0.00    -0.008 C 
ATOM     22  C   UNL A   1      33.251  27.594  24.761  1.00  0.00    -0.062 C 
ATOM     23  C   UNL A   1      31.769  27.682  26.830  1.00  0.00     0.018 C 
ATOM     24  C   UNL A   1      30.786  27.176  24.565  1.00  0.00     0.016 C 
ATOM     25  C   UNL A   1      33.928  28.666  25.216  1.00  0.00     0.027 C 
ATOM     26  C   UNL A   1      32.021  29.176  26.836  1.00  0.00     0.061 C 
ATOM     27  C   UNL A   1      33.436  29.461  26.378  1.00  0.00     0.080 C 
BRANCH   9  28
ATOM     28  O   UNL A   1      32.944  20.315  27.036  1.00  0.00    -0.390 OA
ATOM     29  H   UNL A   1      33.481  19.527  26.862  1.00  0.00     0.211 HD
ENDBRANCH   9  28
ENDBRANCH   6   7
ENDBRANCH   5   6
ENDBRANCH   3   5
ENDBRANCH   2   3
ENDBRANCH   1   2
BRANCH   1  30
ATOM     30  C   UNL A   1      34.281  34.063  31.150  1.00  0.00     0.275 C 
BRANCH  30  31
ATOM     31  O   UNL A   1      34.534  32.656  31.291  1.00  0.00    -0.458 OA
BRANCH  31  32
ATOM     32  C   UNL A   1      35.356  32.301  32.301  1.00  0.00     0.338 C 
ATOM     33  O   UNL A   1      35.220  32.543  33.493  1.00  0.00    -0.246 OA
BRANCH  32  34
ATOM     34  C   UNL A   1      36.544  31.648  31.733  1.00  0.00     0.060 A 
ATOM     35  C   UNL A   1      37.672  31.406  32.521  1.00  0.00     0.016 A 
ATOM     36  C   UNL A   1      36.547  31.327  30.375  1.00  0.00     0.016 A 
ATOM     37  C   UNL A   1      38.820  30.859  31.943  1.00  0.00     0.010 A 
ATOM     38  C   UNL A   1      37.682  30.747  29.806  1.00  0.00     0.010 A 
ATOM     39  C   UNL A   1      38.837  30.529  30.579  1.00  0.00    -0.014 A 
BRANCH  39  40
ATOM     40  C   UNL A   1      40.074  30.024  29.926  1.00  0.00     0.031 A 
ATOM     41  C   UNL A   1      41.251  30.949  29.758  1.00  0.00     0.074 A 
ATOM     42  C   UNL A   1      40.143  28.758  29.471  1.00  0.00     0.049 A 
ATOM     43  N   UNL A   1      42.365  30.766  29.097  1.00  0.00    -0.248 NA
ATOM     44  C   UNL A   1      41.151  32.258  30.420  1.00  0.00     0.031 C 
ATOM     45  C   UNL A   1      39.090  27.752  29.611  1.00  0.00     0.029 A 
ATOM     46  N   UNL A   1      41.138  28.105  28.788  1.00  0.00    -0.354 N 
ATOM     47  C   UNL A   1      43.097  31.939  29.255  1.00  0.00     0.074 A 
ATOM     48  C   UNL A   1      42.279  32.840  30.041  1.00  0.00     0.031 C 
ATOM     49  C   UNL A   1      39.496  26.610  29.034  1.00  0.00     0.029 A 
ATOM     50  C   UNL A   1      40.810  26.817  28.431  1.00  0.00     0.049 A 
ATOM     51  H   UNL A   1      42.006  28.519  28.574  1.00  0.00     0.167 HD
ATOM     52  C   UNL A   1      44.340  32.233  28.796  1.00  0.00     0.034 A 
ATOM     53  C   UNL A   1      41.478  25.920  27.677  1.00  0.00     0.034 A 
ATOM     54  C   UNL A   1      45.142  31.329  28.005  1.00  0.00     0.049 A 
ATOM     55  C   UNL A   1      42.818  26.305  27.098  1.00  0.00     0.074 A 
ATOM     56  C   UNL A   1      46.402  31.534  27.470  1.00  0.00     0.029 A 
ATOM     57  N   UNL A   1      44.761  30.045  27.638  1.00  0.00    -0.354 N 
ATOM     58  N   UNL A   1      43.483  27.430  27.227  1.00  0.00    -0.248 NA
ATOM     59  C   UNL A   1      43.497  25.297  26.272  1.00  0.00     0.031 C 
ATOM     60  C   UNL A   1      46.760  30.397  26.735  1.00  0.00     0.029 A 
ATOM     61  C   UNL A   1      45.753  29.455  26.869  1.00  0.00     0.049 A 
ATOM     62  H   UNL A   1      43.911  29.616  27.886  1.00  0.00     0.167 HD
ATOM     63  C   UNL A   1      44.674  27.248  26.526  1.00  0.00     0.074 A 
ATOM     64  C   UNL A   1      44.641  25.903  25.992  1.00  0.00     0.031 C 
ATOM     65  C   UNL A   1      45.705  28.112  26.343  1.00  0.00     0.034 A 
BRANCH  52  66
ATOM     66  C   UNL A   1      44.884  33.607  29.107  1.00  0.00     0.023 A 
ATOM     67  C   UNL A   1      45.547  33.879  30.318  1.00  0.00     0.031 A 
ATOM     68  C   UNL A   1      44.718  34.664  28.195  1.00  0.00     0.131 A 
ATOM     69  C   UNL A   1      45.960  35.188  30.611  1.00  0.00     0.055 A 
ATOM     70  C   UNL A   1      45.200  35.947  28.461  1.00  0.00     0.041 A 
ATOM     71  F   UNL A   1      44.074  34.469  27.034  1.00  0.00    -0.206 F 
ATOM     72  C   UNL A   1      45.813  36.218  29.680  1.00  0.00     0.022 A 
BRANCH  69  73
ATOM     73  S   UNL A   1      46.576  35.551  32.278  1.00  0.00     0.124 S 
ATOM     74  O   UNL A   1      45.699  34.726  33.105  1.00  0.00    -0.237 OA
ATOM     75  O   UNL A   1      47.968  35.126  32.201  1.00  0.00    -0.237 OA
ATOM     76  O   UNL A   1      46.371  36.992  32.412  1.00  0.00    -0.744 OA
ENDBRANCH  69  73
ENDBRANCH  52  66
BRANCH  53  77
ATOM     77  C   UNL A   1      40.884  24.585  27.374  1.00  0.00     0.023 A 
ATOM     78  C   UNL A   1      39.738  24.469  26.571  1.00  0.00     0.031 A 
ATOM     79  C   UNL A   1      41.406  23.413  27.948  1.00  0.00     0.131 A 
ATOM     80  C   UNL A   1      39.117  23.220  26.413  1.00  0.00     0.055 A 
ATOM     81  C   UNL A   1      40.820  22.162  27.739  1.00  0.00     0.041 A 
ATOM     82  F   UNL A   1      42.497  23.465  28.730  1.00  0.00    -0.206 F 
ATOM     83  C   UNL A   1      39.658  22.065  26.980  1.00  0.00     0.022 A 
BRANCH  80  84
ATOM     84  S   UNL A   1      37.522  23.148  25.551  1.00  0.00     0.124 S 
ATOM     85  O   UNL A   1      37.225  21.721  25.593  1.00  0.00    -0.237 OA
ATOM     86  O   UNL A   1      36.688  24.003  26.388  1.00  0.00    -0.237 OA
ATOM     87  O   UNL A   1      37.828  23.683  24.226  1.00  0.00    -0.744 OA
ENDBRANCH  80  84
ENDBRANCH  53  77
BRANCH  65  88
ATOM     88  C   UNL A   1      46.901  27.596  25.581  1.00  0.00     0.023 A 
ATOM     89  C   UNL A   1      47.130  27.938  24.237  1.00  0.00     0.031 A 
ATOM     90  C   UNL A   1      47.812  26.725  26.207  1.00  0.00     0.131 A 
ATOM     91  C   UNL A   1      48.208  27.366  23.544  1.00  0.00     0.055 A 
ATOM     92  C   UNL A   1      48.914  26.203  25.528  1.00  0.00     0.041 A 
ATOM     93  F   UNL A   1      47.642  26.365  27.489  1.00  0.00    -0.206 F 
ATOM     94  C   UNL A   1      49.109  26.511  24.185  1.00  0.00     0.022 A 
BRANCH  91  95
ATOM     95  S   UNL A   1      48.366  27.681  21.764  1.00  0.00     0.124 S 
ATOM     96  O   UNL A   1      48.645  26.347  21.242  1.00  0.00    -0.237 OA
ATOM     97  O   UNL A   1      47.060  28.237  21.428  1.00  0.00    -0.237 OA
ATOM     98  O   UNL A   1      49.480  28.625  21.681  1.00  0.00    -0.744 OA
ENDBRANCH  91  95
ENDBRANCH  65  88
ENDBRANCH  39  40
ENDBRANCH  32  34
ENDBRANCH  31  32
ENDBRANCH  30  31
ENDBRANCH   1  30
TORSDOF 17
ENDMDL
