MODEL 1
REMARK VINA RESULT:     -12.2      0.000      0.000
REMARK SMILES C[C@@H]1[C@@H](C(=O)OCCOC(=O)c2ccc(-c3c4nc(c(-c5cc(S(=O)(=O)[O-])ccc5F)c5ccc([nH]5)c(-c5cc(S(=O)(=O)[O-])ccc5F)c5nc(c(-c6cc(S(=O)(=O)[O-])ccc6F)c6ccc3[nH]6)C=C5)C=C4)cc2)CCN1C(=O)N1CCC[C@H]2CCC[C@@H]21
REMARK SMILES IDX 8 1 7 2 6 3 4 4 5 5 3 6 1 7 2 8 77 9 75 10 76 11 78 12 79 13
REMARK SMILES IDX 80 14 81 15 88 16 82 17 84 18 87 19 83 20 85 21 86 22 9 23
REMARK SMILES IDX 10 24 11 25 12 26 13 27 74 28 14 29 73 30 15 31 16 32 17 33
REMARK SMILES IDX 67 34 18 35 72 36 66 37 68 38 19 39 71 40 65 41 64 42 20 44
REMARK SMILES IDX 52 45 32 46 51 47 33 48 36 49 50 50 69 51 34 52 35 53 49 55
REMARK SMILES IDX 70 56 37 57 21 58 22 59 30 60 23 61 29 62 31 63 28 64 24 65
REMARK SMILES IDX 25 66 26 67 27 68 53 69 54 70 62 71 55 72 61 73 63 74 60 75
REMARK SMILES IDX 56 76 57 77 58 78 59 79 38 80 39 81 47 82 40 83 46 84 48 85
REMARK SMILES IDX 45 86 41 87 42 88 43 89 44 90
REMARK H PARENT 68 43 36 54
REMARK Flexibility Score: inf
ROOT
ATOM      1  C   UNL A   1      37.545  20.667  24.917  1.00  0.00     0.275 C 
ENDROOT
BRANCH   1   2
ATOM      2  C   UNL A   1      36.016  20.575  25.001  1.00  0.00     0.274 C 
BRANCH   2   3
ATOM      3  O   UNL A   1      35.467  21.508  25.951  1.00  0.00    -0.462 OA
BRANCH   3   4
ATOM      4  C   UNL A   1      34.124  21.406  26.178  1.00  0.00     0.311 C 
ATOM      5  O   UNL A   1      33.627  21.216  27.279  1.00  0.00    -0.252 OA
BRANCH   4   6
ATOM      6  C   UNL A   1      33.354  21.657  24.894  1.00  0.00     0.123 C 
ATOM      7  C   UNL A   1      33.110  23.384  23.088  1.00  0.00     0.032 C 
ATOM      8  C   UNL A   1      33.214  23.161  24.601  1.00  0.00     0.098 C 
ATOM      9  N   UNL A   1      31.985  23.541  25.313  1.00  0.00    -0.321 N 
ATOM     10  C   UNL A   1      31.899  21.193  24.973  1.00  0.00     0.039 C 
ATOM     11  C   UNL A   1      31.176  22.374  25.609  1.00  0.00     0.122 C 
BRANCH   9  12
ATOM     12  C   UNL A   1      31.798  24.677  26.091  1.00  0.00     0.320 C 
ATOM     13  O   UNL A   1      31.389  24.607  27.250  1.00  0.00    -0.248 OA
BRANCH  12  14
ATOM     14  N   UNL A   1      32.238  25.853  25.542  1.00  0.00    -0.321 N 
ATOM     15  C   UNL A   1      33.611  26.317  25.706  1.00  0.00     0.121 C 
ATOM     16  C   UNL A   1      31.536  26.507  24.454  1.00  0.00     0.090 C 
ATOM     17  C   UNL A   1      33.654  27.822  25.968  1.00  0.00     0.022 C 
ATOM     18  C   UNL A   1      31.404  27.982  24.838  1.00  0.00     0.012 C 
ATOM     19  C   UNL A   1      30.092  26.131  24.145  1.00  0.00     0.025 C 
ATOM     20  C   UNL A   1      32.789  28.615  24.977  1.00  0.00     0.007 C 
ATOM     21  C   UNL A   1      30.470  28.529  23.769  1.00  0.00     0.006 C 
ATOM     22  C   UNL A   1      29.529  27.367  23.436  1.00  0.00     0.002 C 
ENDBRANCH  12  14
ENDBRANCH   9  12
ENDBRANCH   4   6
ENDBRANCH   3   4
ENDBRANCH   2   3
ENDBRANCH   1   2
BRANCH   1  23
ATOM     23  O   UNL A   1      38.076  21.772  25.675  1.00  0.00    -0.458 OA
BRANCH  23  24
ATOM     24  C   UNL A   1      39.272  21.538  26.269  1.00  0.00     0.338 C 
ATOM     25  O   UNL A   1      39.911  20.499  26.226  1.00  0.00    -0.246 OA
BRANCH  24  26
ATOM     26  C   UNL A   1      39.803  22.781  26.867  1.00  0.00     0.060 A 
ATOM     27  C   UNL A   1      39.297  23.987  26.378  1.00  0.00     0.016 A 
ATOM     28  C   UNL A   1      40.805  22.787  27.843  1.00  0.00     0.016 A 
ATOM     29  C   UNL A   1      39.768  25.199  26.876  1.00  0.00     0.010 A 
ATOM     30  C   UNL A   1      41.298  24.009  28.326  1.00  0.00     0.010 A 
ATOM     31  C   UNL A   1      40.779  25.223  27.847  1.00  0.00    -0.014 A 
BRANCH  31  32
ATOM     32  C   UNL A   1      41.300  26.546  28.278  1.00  0.00     0.031 A 
ATOM     33  C   UNL A   1      42.637  27.004  27.786  1.00  0.00     0.074 A 
ATOM     34  C   UNL A   1      40.517  27.380  28.988  1.00  0.00     0.049 A 
ATOM     35  N   UNL A   1      43.231  28.153  27.966  1.00  0.00    -0.248 NA
ATOM     36  C   UNL A   1      43.414  26.031  27.006  1.00  0.00     0.031 C 
ATOM     37  C   UNL A   1      39.197  27.033  29.494  1.00  0.00     0.029 A 
ATOM     38  N   UNL A   1      40.668  28.701  29.333  1.00  0.00    -0.354 N 
ATOM     39  C   UNL A   1      44.480  28.028  27.370  1.00  0.00     0.074 A 
ATOM     40  C   UNL A   1      44.536  26.701  26.790  1.00  0.00     0.031 C 
ATOM     41  C   UNL A   1      38.600  28.143  29.956  1.00  0.00     0.029 A 
ATOM     42  C   UNL A   1      39.522  29.269  29.855  1.00  0.00     0.049 A 
ATOM     43  H   UNL A   1      41.511  29.197  29.220  1.00  0.00     0.167 HD
ATOM     44  C   UNL A   1      45.496  28.926  27.358  1.00  0.00     0.034 A 
ATOM     45  C   UNL A   1      39.252  30.548  30.195  1.00  0.00     0.034 A 
ATOM     46  C   UNL A   1      45.419  30.229  27.973  1.00  0.00     0.049 A 
ATOM     47  C   UNL A   1      40.388  31.543  30.128  1.00  0.00     0.074 A 
ATOM     48  C   UNL A   1      46.414  31.180  28.121  1.00  0.00     0.029 A 
ATOM     49  N   UNL A   1      44.272  30.770  28.545  1.00  0.00    -0.354 N 
ATOM     50  N   UNL A   1      41.599  31.381  29.645  1.00  0.00    -0.248 NA
ATOM     51  C   UNL A   1      40.140  32.873  30.699  1.00  0.00     0.031 C 
ATOM     52  C   UNL A   1      45.886  32.266  28.829  1.00  0.00     0.029 A 
ATOM     53  C   UNL A   1      44.540  32.028  29.060  1.00  0.00     0.049 A 
ATOM     54  H   UNL A   1      43.395  30.322  28.579  1.00  0.00     0.167 HD
ATOM     55  C   UNL A   1      42.266  32.578  29.892  1.00  0.00     0.074 A 
ATOM     56  C   UNL A   1      41.300  33.477  30.490  1.00  0.00     0.031 C 
ATOM     57  C   UNL A   1      43.569  32.897  29.683  1.00  0.00     0.034 A 
BRANCH  44  58
ATOM     58  C   UNL A   1      46.805  28.457  26.778  1.00  0.00     0.023 A 
ATOM     59  C   UNL A   1      47.029  28.393  25.392  1.00  0.00     0.031 A 
ATOM     60  C   UNL A   1      47.819  27.987  27.634  1.00  0.00     0.131 A 
ATOM     61  C   UNL A   1      48.204  27.802  24.904  1.00  0.00     0.055 A 
ATOM     62  C   UNL A   1      49.019  27.474  27.142  1.00  0.00     0.041 A 
ATOM     63  F   UNL A   1      47.646  27.994  28.965  1.00  0.00    -0.206 F 
ATOM     64  C   UNL A   1      49.211  27.364  25.769  1.00  0.00     0.022 A 
BRANCH  61  65
ATOM     65  S   UNL A   1      48.334  27.467  23.125  1.00  0.00     0.124 S 
ATOM     66  O   UNL A   1      47.154  28.159  22.610  1.00  0.00    -0.237 OA
ATOM     67  O   UNL A   1      49.621  28.060  22.785  1.00  0.00    -0.237 OA
ATOM     68  O   UNL A   1      48.276  26.009  23.045  1.00  0.00    -0.744 OA
ENDBRANCH  61  65
ENDBRANCH  44  58
BRANCH  45  69
ATOM     69  C   UNL A   1      37.897  30.979  30.671  1.00  0.00     0.023 A 
ATOM     70  C   UNL A   1      36.960  31.529  29.775  1.00  0.00     0.031 A 
ATOM     71  C   UNL A   1      37.536  30.931  32.029  1.00  0.00     0.131 A 
ATOM     72  C   UNL A   1      35.744  32.050  30.251  1.00  0.00     0.055 A 
ATOM     73  C   UNL A   1      36.292  31.374  32.487  1.00  0.00     0.041 A 
ATOM     74  F   UNL A   1      38.393  30.454  32.946  1.00  0.00    -0.206 F 
ATOM     75  C   UNL A   1      35.394  31.953  31.598  1.00  0.00     0.022 A 
BRANCH  72  76
ATOM     76  S   UNL A   1      34.683  32.982  29.109  1.00  0.00     0.124 S 
ATOM     77  O   UNL A   1      35.662  33.777  28.377  1.00  0.00    -0.237 OA
ATOM     78  O   UNL A   1      34.031  31.915  28.360  1.00  0.00    -0.237 OA
ATOM     79  O   UNL A   1      33.807  33.741  30.001  1.00  0.00    -0.744 OA
ENDBRANCH  72  76
ENDBRANCH  45  69
BRANCH  57  80
ATOM     80  C   UNL A   1      44.012  34.266  30.130  1.00  0.00     0.023 A 
ATOM     81  C   UNL A   1      43.876  35.388  29.291  1.00  0.00     0.031 A 
ATOM     82  C   UNL A   1      44.582  34.454  31.400  1.00  0.00     0.131 A 
ATOM     83  C   UNL A   1      44.354  36.638  29.711  1.00  0.00     0.055 A 
ATOM     84  C   UNL A   1      45.007  35.711  31.834  1.00  0.00     0.041 A 
ATOM     85  F   UNL A   1      44.735  33.418  32.241  1.00  0.00    -0.206 F 
ATOM     86  C   UNL A   1      44.904  36.809  30.984  1.00  0.00     0.022 A 
BRANCH  83  87
ATOM     87  S   UNL A   1      44.314  38.025  28.542  1.00  0.00     0.124 S 
ATOM     88  O   UNL A   1      43.108  38.737  28.954  1.00  0.00    -0.237 OA
ATOM     89  O   UNL A   1      45.577  38.701  28.814  1.00  0.00    -0.237 OA
ATOM     90  O   UNL A   1      44.231  37.370  27.237  1.00  0.00    -0.744 OA
ENDBRANCH  83  87
ENDBRANCH  57  80
ENDBRANCH  31  32
ENDBRANCH  24  26
ENDBRANCH  23  24
ENDBRANCH   1  23
TORSDOF 16
ENDMDL
MODEL 2
REMARK VINA RESULT:     -12.2      1.628      7.721
REMARK SMILES C[C@@H]1[C@@H](C(=O)OCCOC(=O)c2ccc(-c3c4nc(c(-c5cc(S(=O)(=O)[O-])ccc5F)c5ccc([nH]5)c(-c5cc(S(=O)(=O)[O-])ccc5F)c5nc(c(-c6cc(S(=O)(=O)[O-])ccc6F)c6ccc3[nH]6)C=C5)C=C4)cc2)CCN1C(=O)N1CCC[C@H]2CCC[C@@H]21
REMARK SMILES IDX 8 1 7 2 6 3 4 4 5 5 3 6 1 7 2 8 77 9 75 10 76 11 78 12 79 13
REMARK SMILES IDX 80 14 81 15 88 16 82 17 84 18 87 19 83 20 85 21 86 22 9 23
REMARK SMILES IDX 10 24 11 25 12 26 13 27 74 28 14 29 73 30 15 31 16 32 17 33
REMARK SMILES IDX 67 34 18 35 72 36 66 37 68 38 19 39 71 40 65 41 64 42 20 44
REMARK SMILES IDX 52 45 32 46 51 47 33 48 36 49 50 50 69 51 34 52 35 53 49 55
REMARK SMILES IDX 70 56 37 57 21 58 22 59 30 60 23 61 29 62 31 63 28 64 24 65
REMARK SMILES IDX 25 66 26 67 27 68 53 69 54 70 62 71 55 72 61 73 63 74 60 75
REMARK SMILES IDX 56 76 57 77 58 78 59 79 38 80 39 81 47 82 40 83 46 84 48 85
REMARK SMILES IDX 45 86 41 87 42 88 43 89 44 90
REMARK H PARENT 68 43 36 54
REMARK Flexibility Score: inf
ROOT
ATOM      1  C   UNL A   1      36.525  20.096  25.001  1.00  0.00     0.275 C 
ENDROOT
BRANCH   1   2
ATOM      2  C   UNL A   1      35.017  20.375  24.943  1.00  0.00     0.274 C 
BRANCH   2   3
ATOM      3  O   UNL A   1      34.568  21.170  26.057  1.00  0.00    -0.462 OA
BRANCH   3   4
ATOM      4  C   UNL A   1      33.406  21.861  25.865  1.00  0.00     0.311 C 
ATOM      5  O   UNL A   1      32.384  21.371  25.406  1.00  0.00    -0.252 OA
BRANCH   4   6
ATOM      6  C   UNL A   1      33.545  23.279  26.390  1.00  0.00     0.123 C 
ATOM      7  C   UNL A   1      32.232  25.411  26.579  1.00  0.00     0.032 C 
ATOM      8  C   UNL A   1      32.610  24.252  25.650  1.00  0.00     0.098 C 
ATOM      9  N   UNL A   1      33.408  24.691  24.496  1.00  0.00    -0.321 N 
ATOM     10  C   UNL A   1      34.927  23.877  26.129  1.00  0.00     0.039 C 
ATOM     11  C   UNL A   1      34.819  24.436  24.715  1.00  0.00     0.122 C 
BRANCH   9  12
ATOM     12  C   UNL A   1      32.966  24.817  23.185  1.00  0.00     0.320 C 
ATOM     13  O   UNL A   1      32.814  23.836  22.457  1.00  0.00    -0.248 OA
BRANCH  12  14
ATOM     14  N   UNL A   1      32.569  26.074  22.809  1.00  0.00    -0.321 N 
ATOM     15  C   UNL A   1      33.444  26.969  22.061  1.00  0.00     0.121 C 
ATOM     16  C   UNL A   1      31.172  26.458  22.755  1.00  0.00     0.090 C 
ATOM     17  C   UNL A   1      33.339  28.402  22.584  1.00  0.00     0.022 C 
ATOM     18  C   UNL A   1      31.056  27.803  23.475  1.00  0.00     0.012 C 
ATOM     19  C   UNL A   1      30.124  25.621  23.480  1.00  0.00     0.025 C 
ATOM     20  C   UNL A   1      31.882  28.862  22.745  1.00  0.00     0.007 C 
ATOM     21  C   UNL A   1      29.552  28.009  23.571  1.00  0.00     0.006 C 
ATOM     22  C   UNL A   1      28.970  26.599  23.725  1.00  0.00     0.002 C 
ENDBRANCH  12  14
ENDBRANCH   9  12
ENDBRANCH   4   6
ENDBRANCH   3   4
ENDBRANCH   2   3
ENDBRANCH   1   2
BRANCH   1  23
ATOM     23  O   UNL A   1      37.281  21.235  25.455  1.00  0.00    -0.458 OA
BRANCH  23  24
ATOM     24  C   UNL A   1      38.549  20.962  25.850  1.00  0.00     0.338 C 
ATOM     25  O   UNL A   1      39.114  19.882  25.776  1.00  0.00    -0.246 OA
BRANCH  24  26
ATOM     26  C   UNL A   1      39.244  22.202  26.255  1.00  0.00     0.060 A 
ATOM     27  C   UNL A   1      38.651  23.411  25.881  1.00  0.00     0.016 A 
ATOM     28  C   UNL A   1      40.466  22.203  26.936  1.00  0.00     0.016 A 
ATOM     29  C   UNL A   1      39.261  24.620  26.204  1.00  0.00     0.010 A 
ATOM     30  C   UNL A   1      41.092  23.421  27.239  1.00  0.00     0.010 A 
ATOM     31  C   UNL A   1      40.491  24.638  26.877  1.00  0.00    -0.014 A 
BRANCH  31  32
ATOM     32  C   UNL A   1      41.133  25.955  27.121  1.00  0.00     0.031 A 
ATOM     33  C   UNL A   1      40.556  26.874  28.153  1.00  0.00     0.074 A 
ATOM     34  C   UNL A   1      42.301  26.257  26.524  1.00  0.00     0.049 A 
ATOM     35  N   UNL A   1      41.012  28.019  28.583  1.00  0.00    -0.248 NA
ATOM     36  C   UNL A   1      39.286  26.453  28.762  1.00  0.00     0.031 C 
ATOM     37  C   UNL A   1      42.951  25.421  25.524  1.00  0.00     0.029 A 
ATOM     38  N   UNL A   1      43.189  27.287  26.721  1.00  0.00    -0.354 N 
ATOM     39  C   UNL A   1      40.058  28.491  29.476  1.00  0.00     0.074 A 
ATOM     40  C   UNL A   1      39.020  27.483  29.552  1.00  0.00     0.031 C 
ATOM     41  C   UNL A   1      44.189  25.888  25.300  1.00  0.00     0.029 A 
ATOM     42  C   UNL A   1      44.397  27.105  26.078  1.00  0.00     0.049 A 
ATOM     43  H   UNL A   1      42.984  28.079  27.268  1.00  0.00     0.167 HD
ATOM     44  C   UNL A   1      40.037  29.679  30.129  1.00  0.00     0.034 A 
ATOM     45  C   UNL A   1      45.536  27.829  26.127  1.00  0.00     0.034 A 
ATOM     46  C   UNL A   1      41.075  30.676  30.008  1.00  0.00     0.049 A 
ATOM     47  C   UNL A   1      45.505  29.127  26.901  1.00  0.00     0.074 A 
ATOM     48  C   UNL A   1      41.113  31.957  30.531  1.00  0.00     0.029 A 
ATOM     49  N   UNL A   1      42.266  30.501  29.311  1.00  0.00    -0.354 N 
ATOM     50  N   UNL A   1      44.554  29.607  27.670  1.00  0.00    -0.248 NA
ATOM     51  C   UNL A   1      46.675  30.006  26.772  1.00  0.00     0.031 C 
ATOM     52  C   UNL A   1      42.295  32.573  30.105  1.00  0.00     0.029 A 
ATOM     53  C   UNL A   1      43.033  31.653  29.377  1.00  0.00     0.049 A 
ATOM     54  H   UNL A   1      42.526  29.677  28.839  1.00  0.00     0.167 HD
ATOM     55  C   UNL A   1      44.999  30.861  28.082  1.00  0.00     0.074 A 
ATOM     56  C   UNL A   1      46.333  31.026  27.544  1.00  0.00     0.031 C 
ATOM     57  C   UNL A   1      44.350  31.809  28.805  1.00  0.00     0.034 A 
BRANCH  44  58
ATOM     58  C   UNL A   1      38.790  30.000  30.911  1.00  0.00     0.023 A 
ATOM     59  C   UNL A   1      37.801  30.867  30.417  1.00  0.00     0.031 A 
ATOM     60  C   UNL A   1      38.632  29.489  32.212  1.00  0.00     0.131 A 
ATOM     61  C   UNL A   1      36.739  31.256  31.248  1.00  0.00     0.055 A 
ATOM     62  C   UNL A   1      37.531  29.817  33.004  1.00  0.00     0.041 A 
ATOM     63  F   UNL A   1      39.563  28.683  32.747  1.00  0.00    -0.206 F 
ATOM     64  C   UNL A   1      36.584  30.718  32.529  1.00  0.00     0.022 A 
BRANCH  61  65
ATOM     65  S   UNL A   1      35.647  32.594  30.693  1.00  0.00     0.124 S 
ATOM     66  O   UNL A   1      35.557  32.324  29.260  1.00  0.00    -0.237 OA
ATOM     67  O   UNL A   1      34.434  32.353  31.465  1.00  0.00    -0.237 OA
ATOM     68  O   UNL A   1      36.382  33.807  31.047  1.00  0.00    -0.744 OA
ENDBRANCH  61  65
ENDBRANCH  44  58
BRANCH  45  69
ATOM     69  C   UNL A   1      46.782  27.407  25.409  1.00  0.00     0.023 A 
ATOM     70  C   UNL A   1      47.043  27.849  24.097  1.00  0.00     0.031 A 
ATOM     71  C   UNL A   1      47.693  26.497  25.974  1.00  0.00     0.131 A 
ATOM     72  C   UNL A   1      48.147  27.345  23.385  1.00  0.00     0.055 A 
ATOM     73  C   UNL A   1      48.834  26.062  25.293  1.00  0.00     0.041 A 
ATOM     74  F   UNL A   1      47.489  26.003  27.205  1.00  0.00    -0.206 F 
ATOM     75  C   UNL A   1      49.057  26.474  23.983  1.00  0.00     0.022 A 
BRANCH  72  76
ATOM     76  S   UNL A   1      48.302  27.735  21.618  1.00  0.00     0.124 S 
ATOM     77  O   UNL A   1      48.581  26.422  21.048  1.00  0.00    -0.237 OA
ATOM     78  O   UNL A   1      46.992  28.301  21.316  1.00  0.00    -0.237 OA
ATOM     79  O   UNL A   1      49.414  28.682  21.574  1.00  0.00    -0.744 OA
ENDBRANCH  72  76
ENDBRANCH  45  69
BRANCH  57  80
ATOM     80  C   UNL A   1      45.080  33.109  29.026  1.00  0.00     0.023 A 
ATOM     81  C   UNL A   1      44.988  34.165  28.100  1.00  0.00     0.031 A 
ATOM     82  C   UNL A   1      45.879  33.296  30.166  1.00  0.00     0.131 A 
ATOM     83  C   UNL A   1      45.726  35.340  28.302  1.00  0.00     0.055 A 
ATOM     84  C   UNL A   1      46.570  34.488  30.389  1.00  0.00     0.041 A 
ATOM     85  F   UNL A   1      46.001  32.322  31.082  1.00  0.00    -0.206 F 
ATOM     86  C   UNL A   1      46.504  35.514  29.449  1.00  0.00     0.022 A 
BRANCH  83  87
ATOM     87  S   UNL A   1      45.714  36.612  27.008  1.00  0.00     0.124 S 
ATOM     88  O   UNL A   1      44.296  36.940  26.916  1.00  0.00    -0.237 OA
ATOM     89  O   UNL A   1      46.573  37.645  27.576  1.00  0.00    -0.237 OA
ATOM     90  O   UNL A   1      46.267  35.920  25.844  1.00  0.00    -0.744 OA
ENDBRANCH  83  87
ENDBRANCH  57  80
ENDBRANCH  31  32
ENDBRANCH  24  26
ENDBRANCH  23  24
ENDBRANCH   1  23
TORSDOF 16
ENDMDL
MODEL 3
REMARK VINA RESULT:     -12.2      5.023      7.678
REMARK SMILES C[C@@H]1[C@@H](C(=O)OCCOC(=O)c2ccc(-c3c4nc(c(-c5cc(S(=O)(=O)[O-])ccc5F)c5ccc([nH]5)c(-c5cc(S(=O)(=O)[O-])ccc5F)c5nc(c(-c6cc(S(=O)(=O)[O-])ccc6F)c6ccc3[nH]6)C=C5)C=C4)cc2)CCN1C(=O)N1CCC[C@H]2CCC[C@@H]21
REMARK SMILES IDX 8 1 7 2 6 3 4 4 5 5 3 6 1 7 2 8 77 9 75 10 76 11 78 12 79 13
REMARK SMILES IDX 80 14 81 15 88 16 82 17 84 18 87 19 83 20 85 21 86 22 9 23
REMARK SMILES IDX 10 24 11 25 12 26 13 27 74 28 14 29 73 30 15 31 16 32 17 33
REMARK SMILES IDX 67 34 18 35 72 36 66 37 68 38 19 39 71 40 65 41 64 42 20 44
REMARK SMILES IDX 52 45 32 46 51 47 33 48 36 49 50 50 69 51 34 52 35 53 49 55
REMARK SMILES IDX 70 56 37 57 21 58 22 59 30 60 23 61 29 62 31 63 28 64 24 65
REMARK SMILES IDX 25 66 26 67 27 68 53 69 54 70 62 71 55 72 61 73 63 74 60 75
REMARK SMILES IDX 56 76 57 77 58 78 59 79 38 80 39 81 47 82 40 83 46 84 48 85
REMARK SMILES IDX 45 86 41 87 42 88 43 89 44 90
REMARK H PARENT 68 43 36 54
REMARK Flexibility Score: inf
ROOT
ATOM      1  C   UNL A   1      31.592  29.917  25.114  1.00  0.00     0.275 C 
ENDROOT
BRANCH   1   2
ATOM      2  C   UNL A   1      31.489  28.406  24.865  1.00  0.00     0.274 C 
BRANCH   2   3
ATOM      3  O   UNL A   1      31.569  27.646  26.086  1.00  0.00    -0.462 OA
BRANCH   3   4
ATOM      4  C   UNL A   1      32.398  26.562  26.061  1.00  0.00     0.311 C 
ATOM      5  O   UNL A   1      33.588  26.615  25.781  1.00  0.00    -0.252 OA
BRANCH   4   6
ATOM      6  C   UNL A   1      31.655  25.320  26.518  1.00  0.00     0.123 C 
ATOM      7  C   UNL A   1      32.083  22.924  27.135  1.00  0.00     0.032 C 
ATOM      8  C   UNL A   1      32.405  24.034  26.128  1.00  0.00     0.098 C 
ATOM      9  N   UNL A   1      31.903  23.735  24.779  1.00  0.00    -0.321 N 
ATOM     10  C   UNL A   1      30.305  25.145  25.823  1.00  0.00     0.039 C 
ATOM     11  C   UNL A   1      30.655  24.429  24.524  1.00  0.00     0.122 C 
BRANCH   9  12
ATOM     12  C   UNL A   1      32.662  23.337  23.685  1.00  0.00     0.320 C 
ATOM     13  O   UNL A   1      32.721  24.014  22.659  1.00  0.00    -0.248 OA
BRANCH  12  14
ATOM     14  N   UNL A   1      33.450  22.232  23.877  1.00  0.00    -0.321 N 
ATOM     15  C   UNL A   1      32.972  20.883  23.598  1.00  0.00     0.121 C 
ATOM     16  C   UNL A   1      34.894  22.323  23.971  1.00  0.00     0.090 C 
ATOM     17  C   UNL A   1      33.425  19.906  24.683  1.00  0.00     0.022 C 
ATOM     18  C   UNL A   1      35.308  21.505  25.195  1.00  0.00     0.012 C 
ATOM     19  C   UNL A   1      35.557  23.666  24.251  1.00  0.00     0.025 C 
ATOM     20  C   UNL A   1      34.922  20.038  25.002  1.00  0.00     0.007 C 
ATOM     21  C   UNL A   1      36.784  21.842  25.347  1.00  0.00     0.006 C 
ATOM     22  C   UNL A   1      36.906  23.294  24.873  1.00  0.00     0.002 C 
ENDBRANCH  12  14
ENDBRANCH   9  12
ENDBRANCH   4   6
ENDBRANCH   3   4
ENDBRANCH   2   3
ENDBRANCH   1   2
BRANCH   1  23
ATOM     23  O   UNL A   1      32.917  30.323  25.510  1.00  0.00    -0.458 OA
BRANCH  23  24
ATOM     24  C   UNL A   1      32.972  31.096  26.623  1.00  0.00     0.338 C 
ATOM     25  O   UNL A   1      32.095  31.840  27.031  1.00  0.00    -0.246 OA
BRANCH  24  26
ATOM     26  C   UNL A   1      34.200  30.807  27.393  1.00  0.00     0.060 A 
ATOM     27  C   UNL A   1      34.499  29.463  27.628  1.00  0.00     0.016 A 
ATOM     28  C   UNL A   1      35.019  31.809  27.922  1.00  0.00     0.016 A 
ATOM     29  C   UNL A   1      35.625  29.115  28.368  1.00  0.00     0.010 A 
ATOM     30  C   UNL A   1      36.141  31.458  28.689  1.00  0.00     0.010 A 
ATOM     31  C   UNL A   1      36.452  30.107  28.914  1.00  0.00    -0.014 A 
BRANCH  31  32
ATOM     32  C   UNL A   1      37.591  29.676  29.764  1.00  0.00     0.031 A 
ATOM     33  C   UNL A   1      38.754  28.975  29.132  1.00  0.00     0.074 A 
ATOM     34  C   UNL A   1      37.642  30.038  31.059  1.00  0.00     0.049 A 
ATOM     35  N   UNL A   1      39.883  28.601  29.672  1.00  0.00    -0.248 NA
ATOM     36  C   UNL A   1      38.615  28.634  27.709  1.00  0.00     0.031 C 
ATOM     37  C   UNL A   1      36.572  30.737  31.757  1.00  0.00     0.029 A 
ATOM     38  N   UNL A   1      38.646  29.952  31.993  1.00  0.00    -0.354 N 
ATOM     39  C   UNL A   1      40.572  27.927  28.672  1.00  0.00     0.074 A 
ATOM     40  C   UNL A   1      39.747  27.983  27.483  1.00  0.00     0.031 C 
ATOM     41  C   UNL A   1      37.023  31.142  32.955  1.00  0.00     0.029 A 
ATOM     42  C   UNL A   1      38.387  30.663  33.148  1.00  0.00     0.049 A 
ATOM     43  H   UNL A   1      39.470  29.432  31.854  1.00  0.00     0.167 HD
ATOM     44  C   UNL A   1      41.762  27.282  28.764  1.00  0.00     0.034 A 
ATOM     45  C   UNL A   1      39.168  30.908  34.222  1.00  0.00     0.034 A 
ATOM     46  C   UNL A   1      42.546  27.219  29.974  1.00  0.00     0.049 A 
ATOM     47  C   UNL A   1      40.511  30.218  34.281  1.00  0.00     0.074 A 
ATOM     48  C   UNL A   1      43.708  26.508  30.219  1.00  0.00     0.029 A 
ATOM     49  N   UNL A   1      42.246  27.899  31.150  1.00  0.00    -0.354 N 
ATOM     50  N   UNL A   1      41.112  29.502  33.357  1.00  0.00    -0.248 NA
ATOM     51  C   UNL A   1      41.256  30.320  35.543  1.00  0.00     0.031 C 
ATOM     52  C   UNL A   1      44.077  26.712  31.554  1.00  0.00     0.029 A 
ATOM     53  C   UNL A   1      43.189  27.609  32.124  1.00  0.00     0.049 A 
ATOM     54  H   UNL A   1      41.475  28.499  31.273  1.00  0.00     0.167 HD
ATOM     55  C   UNL A   1      42.287  29.039  33.944  1.00  0.00     0.074 A 
ATOM     56  C   UNL A   1      42.348  29.622  35.268  1.00  0.00     0.031 C 
ATOM     57  C   UNL A   1      43.213  28.178  33.452  1.00  0.00     0.034 A 
BRANCH  44  58
ATOM     58  C   UNL A   1      42.196  26.491  27.558  1.00  0.00     0.023 A 
ATOM     59  C   UNL A   1      41.847  25.140  27.385  1.00  0.00     0.031 A 
ATOM     60  C   UNL A   1      43.047  27.081  26.605  1.00  0.00     0.131 A 
ATOM     61  C   UNL A   1      42.407  24.407  26.327  1.00  0.00     0.055 A 
ATOM     62  C   UNL A   1      43.536  26.367  25.511  1.00  0.00     0.041 A 
ATOM     63  F   UNL A   1      43.439  28.358  26.739  1.00  0.00    -0.206 F 
ATOM     64  C   UNL A   1      43.230  25.017  25.376  1.00  0.00     0.022 A 
BRANCH  61  65
ATOM     65  S   UNL A   1      42.175  22.608  26.299  1.00  0.00     0.124 S 
ATOM     66  O   UNL A   1      42.990  22.189  27.438  1.00  0.00    -0.237 OA
ATOM     67  O   UNL A   1      40.733  22.473  26.462  1.00  0.00    -0.237 OA
ATOM     68  O   UNL A   1      42.695  22.215  24.991  1.00  0.00    -0.744 OA
ENDBRANCH  61  65
ENDBRANCH  44  58
BRANCH  45  69
ATOM     69  C   UNL A   1      38.722  31.790  35.350  1.00  0.00     0.023 A 
ATOM     70  C   UNL A   1      38.245  31.235  36.553  1.00  0.00     0.031 A 
ATOM     71  C   UNL A   1      38.682  33.191  35.227  1.00  0.00     0.131 A 
ATOM     72  C   UNL A   1      37.707  32.066  37.553  1.00  0.00     0.055 A 
ATOM     73  C   UNL A   1      38.224  34.017  36.257  1.00  0.00     0.041 A 
ATOM     74  F   UNL A   1      39.085  33.787  34.094  1.00  0.00    -0.206 F 
ATOM     75  C   UNL A   1      37.717  33.454  37.422  1.00  0.00     0.022 A 
BRANCH  72  76
ATOM     76  S   UNL A   1      36.867  31.300  38.970  1.00  0.00     0.124 S 
ATOM     77  O   UNL A   1      37.871  31.439  40.020  1.00  0.00    -0.237 OA
ATOM     78  O   UNL A   1      35.677  32.132  39.104  1.00  0.00    -0.237 OA
ATOM     79  O   UNL A   1      36.622  29.931  38.521  1.00  0.00    -0.744 OA
ENDBRANCH  72  76
ENDBRANCH  45  69
BRANCH  57  80
ATOM     80  C   UNL A   1      44.350  27.808  34.370  1.00  0.00     0.023 A 
ATOM     81  C   UNL A   1      44.271  26.685  35.215  1.00  0.00     0.031 A 
ATOM     82  C   UNL A   1      45.520  28.584  34.408  1.00  0.00     0.131 A 
ATOM     83  C   UNL A   1      45.320  26.400  36.102  1.00  0.00     0.055 A 
ATOM     84  C   UNL A   1      46.583  28.266  35.255  1.00  0.00     0.041 A 
ATOM     85  F   UNL A   1      45.649  29.666  33.623  1.00  0.00    -0.206 F 
ATOM     86  C   UNL A   1      46.482  27.175  36.116  1.00  0.00     0.022 A 
BRANCH  83  87
ATOM     87  S   UNL A   1      45.114  25.046  37.291  1.00  0.00     0.124 S 
ATOM     88  O   UNL A   1      44.620  25.749  38.471  1.00  0.00    -0.237 OA
ATOM     89  O   UNL A   1      44.153  24.180  36.617  1.00  0.00    -0.237 OA
ATOM     90  O   UNL A   1      46.461  24.494  37.418  1.00  0.00    -0.744 OA
ENDBRANCH  83  87
ENDBRANCH  57  80
ENDBRANCH  31  32
ENDBRANCH  24  26
ENDBRANCH  23  24
ENDBRANCH   1  23
TORSDOF 16
ENDMDL
