MODEL 1
REMARK VINA RESULT:     -11.0      0.000      0.000
REMARK SMILES O=C(CCCN1C(=O)/C(=C/c2cc(Br)ccc2O)SC1=S)OCCOC(=O)c1ccc(-c2c3nc(c(-c4cc(S(=O)(=O)[O-])ccc4F)c4ccc([nH]4)c(-c4cc(S(=O)(=O)[O-])ccc4F)c4nc(c(-c5cc(S(=O)(=O)[O-])ccc5F)c5ccc2[nH]5)C=C4)C=C3)cc1
REMARK SMILES IDX 23 1 22 2 2 3 1 4 3 5 4 6 5 7 6 8 7 9 20 10 8 11 9 12 19 13
REMARK SMILES IDX 21 14 10 15 11 16 12 17 17 18 13 19 16 20 14 21 15 22 18 23
REMARK SMILES IDX 24 25 25 26 26 27 27 28 28 29 29 30 90 31 30 32 89 33 31 34
REMARK SMILES IDX 32 35 33 36 83 37 34 38 88 39 82 40 84 41 35 42 87 43 81 44
REMARK SMILES IDX 80 45 36 47 68 48 48 49 67 50 49 51 52 52 66 53 85 54 50 55
REMARK SMILES IDX 51 56 65 58 86 59 53 60 37 61 38 62 46 63 39 64 45 65 47 66
REMARK SMILES IDX 44 67 40 68 41 69 42 70 43 71 69 72 70 73 78 74 71 75 77 76
REMARK SMILES IDX 79 77 76 78 72 79 73 80 74 81 75 82 54 83 55 84 63 85 56 86
REMARK SMILES IDX 62 87 64 88 61 89 57 90 58 91 59 92 60 93
REMARK H PARENT 18 24 84 46 52 57
REMARK Flexibility Score: inf
ROOT
ATOM      1  C   UNL A   1      36.771  20.843  24.839  1.00  0.00     0.274 C 
ENDROOT
BRANCH   1   2
ATOM      2  O   UNL A   1      36.081  21.535  25.894  1.00  0.00    -0.462 OA
BRANCH   2   3
ATOM      3  C   UNL A   1      34.728  21.459  25.973  1.00  0.00     0.305 C 
ATOM      4  O   UNL A   1      34.128  21.861  26.965  1.00  0.00    -0.252 OA
BRANCH   3   5
ATOM      5  C   UNL A   1      34.019  20.742  24.845  1.00  0.00     0.124 C 
BRANCH   5   6
ATOM      6  C   UNL A   1      32.498  20.728  24.968  1.00  0.00     0.034 C 
BRANCH   6   7
ATOM      7  C   UNL A   1      31.757  21.820  24.185  1.00  0.00     0.128 C 
BRANCH   7   8
ATOM      8  N   UNL A   1      31.779  23.208  24.688  1.00  0.00    -0.293 N 
ATOM      9  C   UNL A   1      32.402  24.235  23.996  1.00  0.00     0.266 C 
ATOM     10  C   UNL A   1      31.071  23.597  25.815  1.00  0.00     0.148 C 
ATOM     11  O   UNL A   1      32.919  24.168  22.892  1.00  0.00    -0.268 OA
ATOM     12  C   UNL A   1      32.359  25.496  24.786  1.00  0.00     0.081 C 
ATOM     13  S   UNL A   1      31.336  25.303  26.147  1.00  0.00    -0.054 SA
ATOM     14  S   UNL A   1      30.101  22.666  26.806  1.00  0.00    -0.052 S 
ATOM     15  C   UNL A   1      33.061  26.582  24.438  1.00  0.00     0.033 C 
BRANCH  15  16
ATOM     16  C   UNL A   1      33.082  27.849  25.181  1.00  0.00     0.019 A 
ATOM     17  C   UNL A   1      34.149  28.095  26.054  1.00  0.00     0.027 A 
ATOM     18  C   UNL A   1      32.072  28.814  25.049  1.00  0.00     0.122 A 
ATOM     19  C   UNL A   1      34.205  29.296  26.764  1.00  0.00     0.018 A 
ATOM     20  C   UNL A   1      32.131  30.014  25.759  1.00  0.00     0.048 A 
ATOM     21  Br  UNL A   1      35.655  29.626  27.932  1.00  0.00    -0.051 Br
ATOM     22  C   UNL A   1      33.205  30.256  26.618  1.00  0.00     0.019 A 
BRANCH  18  23
ATOM     23  O   UNL A   1      31.016  28.572  24.213  1.00  0.00    -0.507 OA
ATOM     24  H   UNL A   1      30.145  28.539  24.557  1.00  0.00     0.293 HD
ENDBRANCH  18  23
ENDBRANCH  15  16
ENDBRANCH   7   8
ENDBRANCH   6   7
ENDBRANCH   5   6
ENDBRANCH   3   5
ENDBRANCH   2   3
ENDBRANCH   1   2
BRANCH   1  25
ATOM     25  C   UNL A   1      38.286  20.781  25.043  1.00  0.00     0.275 C 
BRANCH  25  26
ATOM     26  O   UNL A   1      38.657  21.332  26.315  1.00  0.00    -0.458 OA
BRANCH  26  27
ATOM     27  C   UNL A   1      39.999  21.431  26.506  1.00  0.00     0.338 C 
ATOM     28  O   UNL A   1      40.836  20.639  26.118  1.00  0.00    -0.246 OA
BRANCH  27  29
ATOM     29  C   UNL A   1      40.339  22.737  27.117  1.00  0.00     0.060 A 
ATOM     30  C   UNL A   1      39.654  23.861  26.637  1.00  0.00     0.016 A 
ATOM     31  C   UNL A   1      41.302  22.881  28.120  1.00  0.00     0.016 A 
ATOM     32  C   UNL A   1      39.964  25.131  27.122  1.00  0.00     0.010 A 
ATOM     33  C   UNL A   1      41.611  24.160  28.608  1.00  0.00     0.010 A 
ATOM     34  C   UNL A   1      40.966  25.294  28.087  1.00  0.00    -0.014 A 
BRANCH  34  35
ATOM     35  C   UNL A   1      41.418  26.669  28.426  1.00  0.00     0.031 A 
ATOM     36  C   UNL A   1      42.815  27.090  28.055  1.00  0.00     0.074 A 
ATOM     37  C   UNL A   1      40.575  27.554  28.991  1.00  0.00     0.049 A 
ATOM     38  N   UNL A   1      43.391  28.258  28.178  1.00  0.00    -0.248 NA
ATOM     39  C   UNL A   1      43.675  26.054  27.465  1.00  0.00     0.031 C 
ATOM     40  C   UNL A   1      39.193  27.276  29.375  1.00  0.00     0.029 A 
ATOM     41  N   UNL A   1      40.760  28.872  29.332  1.00  0.00    -0.354 N 
ATOM     42  C   UNL A   1      44.672  28.106  27.660  1.00  0.00     0.074 A 
ATOM     43  C   UNL A   1      44.806  26.717  27.273  1.00  0.00     0.031 C 
ATOM     44  C   UNL A   1      38.652  28.391  29.899  1.00  0.00     0.029 A 
ATOM     45  C   UNL A   1      39.654  29.456  29.905  1.00  0.00     0.049 A 
ATOM     46  H   UNL A   1      41.604  29.353  29.179  1.00  0.00     0.167 HD
ATOM     47  C   UNL A   1      45.643  29.039  27.501  1.00  0.00     0.034 A 
ATOM     48  C   UNL A   1      39.474  30.703  30.387  1.00  0.00     0.034 A 
ATOM     49  C   UNL A   1      45.513  30.415  27.911  1.00  0.00     0.049 A 
ATOM     50  C   UNL A   1      40.603  31.702  30.279  1.00  0.00     0.074 A 
ATOM     51  C   UNL A   1      46.433  31.443  27.788  1.00  0.00     0.029 A 
ATOM     52  N   UNL A   1      44.399  30.957  28.540  1.00  0.00    -0.354 N 
ATOM     53  N   UNL A   1      41.796  31.553  29.751  1.00  0.00    -0.248 NA
ATOM     54  C   UNL A   1      40.353  33.045  30.821  1.00  0.00     0.031 C 
ATOM     55  C   UNL A   1      45.904  32.585  28.401  1.00  0.00     0.029 A 
ATOM     56  C   UNL A   1      44.623  32.292  28.843  1.00  0.00     0.049 A 
ATOM     57  H   UNL A   1      43.572  30.465  28.742  1.00  0.00     0.167 HD
ATOM     58  C   UNL A   1      42.423  32.793  29.869  1.00  0.00     0.074 A 
ATOM     59  C   UNL A   1      41.470  33.680  30.502  1.00  0.00     0.031 C 
ATOM     60  C   UNL A   1      43.670  33.166  29.484  1.00  0.00     0.034 A 
BRANCH  47  61
ATOM     61  C   UNL A   1      46.945  28.583  26.890  1.00  0.00     0.023 A 
ATOM     62  C   UNL A   1      47.082  28.393  25.504  1.00  0.00     0.031 A 
ATOM     63  C   UNL A   1      48.058  28.317  27.707  1.00  0.00     0.131 A 
ATOM     64  C   UNL A   1      48.284  27.893  24.983  1.00  0.00     0.055 A 
ATOM     65  C   UNL A   1      49.274  27.888  27.173  1.00  0.00     0.041 A 
ATOM     66  F   UNL A   1      47.978  28.459  29.040  1.00  0.00    -0.206 F 
ATOM     67  C   UNL A   1      49.390  27.662  25.805  1.00  0.00     0.022 A 
BRANCH  64  68
ATOM     68  S   UNL A   1      48.346  27.431  23.229  1.00  0.00     0.124 S 
ATOM     69  O   UNL A   1      48.151  25.986  23.297  1.00  0.00    -0.237 OA
ATOM     70  O   UNL A   1      47.245  28.199  22.661  1.00  0.00    -0.237 OA
ATOM     71  O   UNL A   1      49.682  27.852  22.811  1.00  0.00    -0.744 OA
ENDBRANCH  64  68
ENDBRANCH  47  61
BRANCH  48  72
ATOM     72  C   UNL A   1      38.194  31.088  31.048  1.00  0.00     0.023 A 
ATOM     73  C   UNL A   1      37.195  31.788  30.354  1.00  0.00     0.031 A 
ATOM     74  C   UNL A   1      37.992  30.835  32.418  1.00  0.00     0.131 A 
ATOM     75  C   UNL A   1      36.066  32.264  31.042  1.00  0.00     0.055 A 
ATOM     76  C   UNL A   1      36.842  31.262  33.084  1.00  0.00     0.041 A 
ATOM     77  F   UNL A   1      38.916  30.174  33.130  1.00  0.00    -0.206 F 
ATOM     78  C   UNL A   1      35.879  31.995  32.399  1.00  0.00     0.022 A 
BRANCH  75  79
ATOM     79  S   UNL A   1      34.897  33.336  30.161  1.00  0.00     0.124 S 
ATOM     80  O   UNL A   1      34.162  32.371  29.352  1.00  0.00    -0.237 OA
ATOM     81  O   UNL A   1      34.159  33.947  31.260  1.00  0.00    -0.237 OA
ATOM     82  O   UNL A   1      35.766  34.244  29.414  1.00  0.00    -0.744 OA
ENDBRANCH  75  79
ENDBRANCH  48  72
BRANCH  60  83
ATOM     83  C   UNL A   1      44.055  34.610  29.705  1.00  0.00     0.023 A 
ATOM     84  C   UNL A   1      43.722  35.615  28.780  1.00  0.00     0.031 A 
ATOM     85  C   UNL A   1      44.784  34.981  30.850  1.00  0.00     0.131 A 
ATOM     86  C   UNL A   1      44.168  36.931  28.985  1.00  0.00     0.055 A 
ATOM     87  C   UNL A   1      45.173  36.302  31.078  1.00  0.00     0.041 A 
ATOM     88  F   UNL A   1      45.129  34.063  31.767  1.00  0.00    -0.206 F 
ATOM     89  C   UNL A   1      44.878  37.283  30.136  1.00  0.00     0.022 A 
BRANCH  86  90
ATOM     90  S   UNL A   1      43.887  38.160  27.680  1.00  0.00     0.124 S 
ATOM     91  O   UNL A   1      45.210  38.271  27.076  1.00  0.00    -0.237 OA
ATOM     92  O   UNL A   1      42.864  37.517  26.861  1.00  0.00    -0.237 OA
ATOM     93  O   UNL A   1      43.439  39.343  28.413  1.00  0.00    -0.744 OA
ENDBRANCH  86  90
ENDBRANCH  60  83
ENDBRANCH  34  35
ENDBRANCH  27  29
ENDBRANCH  26  27
ENDBRANCH  25  26
ENDBRANCH   1  25
TORSDOF 19
ENDMDL
MODEL 2
REMARK VINA RESULT:     -10.6      1.603      7.664
REMARK SMILES O=C(CCCN1C(=O)/C(=C/c2cc(Br)ccc2O)SC1=S)OCCOC(=O)c1ccc(-c2c3nc(c(-c4cc(S(=O)(=O)[O-])ccc4F)c4ccc([nH]4)c(-c4cc(S(=O)(=O)[O-])ccc4F)c4nc(c(-c5cc(S(=O)(=O)[O-])ccc5F)c5ccc2[nH]5)C=C4)C=C3)cc1
REMARK SMILES IDX 23 1 22 2 2 3 1 4 3 5 4 6 5 7 6 8 7 9 20 10 8 11 9 12 19 13
REMARK SMILES IDX 21 14 10 15 11 16 12 17 17 18 13 19 16 20 14 21 15 22 18 23
REMARK SMILES IDX 24 25 25 26 26 27 27 28 28 29 29 30 90 31 30 32 89 33 31 34
REMARK SMILES IDX 32 35 33 36 83 37 34 38 88 39 82 40 84 41 35 42 87 43 81 44
REMARK SMILES IDX 80 45 36 47 68 48 48 49 67 50 49 51 52 52 66 53 85 54 50 55
REMARK SMILES IDX 51 56 65 58 86 59 53 60 37 61 38 62 46 63 39 64 45 65 47 66
REMARK SMILES IDX 44 67 40 68 41 69 42 70 43 71 69 72 70 73 78 74 71 75 77 76
REMARK SMILES IDX 79 77 76 78 72 79 73 80 74 81 75 82 54 83 55 84 63 85 56 86
REMARK SMILES IDX 62 87 64 88 61 89 57 90 58 91 59 92 60 93
REMARK H PARENT 18 24 84 46 52 57
REMARK Flexibility Score: inf
ROOT
ATOM      1  C   UNL A   1      35.085  20.732  24.770  1.00  0.00     0.274 C 
ENDROOT
BRANCH   1   2
ATOM      2  O   UNL A   1      34.023  20.159  25.553  1.00  0.00    -0.462 OA
BRANCH   2   3
ATOM      3  C   UNL A   1      33.010  19.503  24.931  1.00  0.00     0.305 C 
ATOM      4  O   UNL A   1      32.341  18.663  25.525  1.00  0.00    -0.252 OA
BRANCH   3   5
ATOM      5  C   UNL A   1      32.838  19.762  23.450  1.00  0.00     0.124 C 
BRANCH   5   6
ATOM      6  C   UNL A   1      32.112  21.064  23.122  1.00  0.00     0.034 C 
BRANCH   6   7
ATOM      7  C   UNL A   1      32.984  22.327  23.112  1.00  0.00     0.128 C 
BRANCH   7   8
ATOM      8  N   UNL A   1      32.377  23.624  23.470  1.00  0.00    -0.293 N 
ATOM      9  C   UNL A   1      32.509  24.749  22.670  1.00  0.00     0.266 C 
ATOM     10  C   UNL A   1      31.530  23.769  24.559  1.00  0.00     0.148 C 
ATOM     11  O   UNL A   1      33.043  24.810  21.573  1.00  0.00    -0.268 OA
ATOM     12  C   UNL A   1      31.890  25.932  23.328  1.00  0.00     0.081 C 
ATOM     13  S   UNL A   1      31.008  25.440  24.712  1.00  0.00    -0.054 SA
ATOM     14  S   UNL A   1      31.033  22.606  25.651  1.00  0.00    -0.052 S 
ATOM     15  C   UNL A   1      32.056  27.176  22.863  1.00  0.00     0.033 C 
BRANCH  15  16
ATOM     16  C   UNL A   1      31.493  28.388  23.472  1.00  0.00     0.019 A 
ATOM     17  C   UNL A   1      32.042  28.851  24.675  1.00  0.00     0.027 A 
ATOM     18  C   UNL A   1      30.425  29.093  22.895  1.00  0.00     0.122 A 
ATOM     19  C   UNL A   1      31.538  30.007  25.271  1.00  0.00     0.018 A 
ATOM     20  C   UNL A   1      29.923  30.250  23.494  1.00  0.00     0.048 A 
ATOM     21  Br  UNL A   1      32.293  30.631  26.889  1.00  0.00    -0.051 Br
ATOM     22  C   UNL A   1      30.485  30.710  24.686  1.00  0.00     0.019 A 
BRANCH  18  23
ATOM     23  O   UNL A   1      29.869  28.636  21.731  1.00  0.00    -0.507 OA
ATOM     24  H   UNL A   1      28.941  28.675  21.608  1.00  0.00     0.293 HD
ENDBRANCH  18  23
ENDBRANCH  15  16
ENDBRANCH   7   8
ENDBRANCH   6   7
ENDBRANCH   5   6
ENDBRANCH   3   5
ENDBRANCH   2   3
ENDBRANCH   1   2
BRANCH   1  25
ATOM     25  C   UNL A   1      36.478  20.285  25.216  1.00  0.00     0.275 C 
BRANCH  25  26
ATOM     26  O   UNL A   1      37.373  21.403  25.306  1.00  0.00    -0.458 OA
BRANCH  26  27
ATOM     27  C   UNL A   1      38.603  21.091  25.794  1.00  0.00     0.338 C 
ATOM     28  O   UNL A   1      39.155  20.011  25.702  1.00  0.00    -0.246 OA
BRANCH  27  29
ATOM     29  C   UNL A   1      39.273  22.303  26.321  1.00  0.00     0.060 A 
ATOM     30  C   UNL A   1      38.660  23.534  26.056  1.00  0.00     0.016 A 
ATOM     31  C   UNL A   1      40.470  22.259  27.043  1.00  0.00     0.016 A 
ATOM     32  C   UNL A   1      39.264  24.721  26.468  1.00  0.00     0.010 A 
ATOM     33  C   UNL A   1      41.074  23.454  27.459  1.00  0.00     0.010 A 
ATOM     34  C   UNL A   1      40.490  24.693  27.144  1.00  0.00    -0.014 A 
BRANCH  34  35
ATOM     35  C   UNL A   1      41.209  25.972  27.381  1.00  0.00     0.031 A 
ATOM     36  C   UNL A   1      40.537  27.048  28.191  1.00  0.00     0.074 A 
ATOM     37  C   UNL A   1      42.471  26.147  26.944  1.00  0.00     0.049 A 
ATOM     38  N   UNL A   1      41.005  28.202  28.591  1.00  0.00    -0.248 NA
ATOM     39  C   UNL A   1      39.152  26.782  28.608  1.00  0.00     0.031 C 
ATOM     40  C   UNL A   1      43.239  25.173  26.171  1.00  0.00     0.029 A 
ATOM     41  N   UNL A   1      43.331  27.207  27.098  1.00  0.00    -0.354 N 
ATOM     42  C   UNL A   1      39.982  28.792  29.326  1.00  0.00     0.074 A 
ATOM     43  C   UNL A   1      38.850  27.891  29.267  1.00  0.00     0.031 C 
ATOM     44  C   UNL A   1      44.459  25.681  25.918  1.00  0.00     0.029 A 
ATOM     45  C   UNL A   1      44.553  27.021  26.494  1.00  0.00     0.049 A 
ATOM     46  H   UNL A   1      43.095  28.023  27.595  1.00  0.00     0.167 HD
ATOM     47  C   UNL A   1      39.989  29.967  30.004  1.00  0.00     0.034 A 
ATOM     48  C   UNL A   1      45.620  27.842  26.409  1.00  0.00     0.034 A 
ATOM     49  C   UNL A   1      41.111  30.872  30.037  1.00  0.00     0.049 A 
ATOM     50  C   UNL A   1      45.571  29.186  27.099  1.00  0.00     0.074 A 
ATOM     51  C   UNL A   1      41.224  32.082  30.700  1.00  0.00     0.029 A 
ATOM     52  N   UNL A   1      42.312  30.676  29.366  1.00  0.00    -0.354 N 
ATOM     53  N   UNL A   1      44.610  29.713  27.822  1.00  0.00    -0.248 NA
ATOM     54  C   UNL A   1      46.761  30.039  26.972  1.00  0.00     0.031 C 
ATOM     55  C   UNL A   1      42.463  32.649  30.377  1.00  0.00     0.029 A 
ATOM     56  C   UNL A   1      43.155  31.759  29.570  1.00  0.00     0.049 A 
ATOM     57  H   UNL A   1      42.532  29.885  28.825  1.00  0.00     0.167 HD
ATOM     58  C   UNL A   1      45.095  30.944  28.262  1.00  0.00     0.074 A 
ATOM     59  C   UNL A   1      46.439  31.071  27.737  1.00  0.00     0.031 C 
ATOM     60  C   UNL A   1      44.488  31.881  29.033  1.00  0.00     0.034 A 
BRANCH  47  61
ATOM     61  C   UNL A   1      38.724  30.351  30.730  1.00  0.00     0.023 A 
ATOM     62  C   UNL A   1      37.715  31.105  30.105  1.00  0.00     0.031 A 
ATOM     63  C   UNL A   1      38.533  29.975  32.071  1.00  0.00     0.131 A 
ATOM     64  C   UNL A   1      36.589  31.509  30.837  1.00  0.00     0.055 A 
ATOM     65  C   UNL A   1      37.376  30.320  32.773  1.00  0.00     0.041 A 
ATOM     66  F   UNL A   1      39.473  29.275  32.726  1.00  0.00    -0.206 F 
ATOM     67  C   UNL A   1      36.401  31.102  32.160  1.00  0.00     0.022 A 
BRANCH  64  68
ATOM     68  S   UNL A   1      35.430  32.678  30.075  1.00  0.00     0.124 S 
ATOM     69  O   UNL A   1      36.282  33.846  29.868  1.00  0.00    -0.237 OA
ATOM     70  O   UNL A   1      35.012  31.970  28.871  1.00  0.00    -0.237 OA
ATOM     71  O   UNL A   1      34.394  32.846  31.092  1.00  0.00    -0.744 OA
ENDBRANCH  64  68
ENDBRANCH  47  61
BRANCH  48  72
ATOM     72  C   UNL A   1      46.822  27.449  25.618  1.00  0.00     0.023 A 
ATOM     73  C   UNL A   1      47.002  27.886  24.296  1.00  0.00     0.031 A 
ATOM     74  C   UNL A   1      47.768  26.553  26.150  1.00  0.00     0.131 A 
ATOM     75  C   UNL A   1      48.066  27.381  23.530  1.00  0.00     0.055 A 
ATOM     76  C   UNL A   1      48.855  26.098  25.403  1.00  0.00     0.041 A 
ATOM     77  F   UNL A   1      47.642  26.100  27.407  1.00  0.00    -0.206 F 
ATOM     78  C   UNL A   1      48.999  26.499  24.079  1.00  0.00     0.022 A 
BRANCH  75  79
ATOM     79  S   UNL A   1      48.150  27.810  21.769  1.00  0.00     0.124 S 
ATOM     80  O   UNL A   1      46.834  28.395  21.542  1.00  0.00    -0.237 OA
ATOM     81  O   UNL A   1      49.278  28.735  21.737  1.00  0.00    -0.237 OA
ATOM     82  O   UNL A   1      48.382  26.523  21.117  1.00  0.00    -0.744 OA
ENDBRANCH  75  79
ENDBRANCH  48  72
BRANCH  60  83
ATOM     83  C   UNL A   1      45.295  33.109  29.385  1.00  0.00     0.023 A 
ATOM     84  C   UNL A   1      45.279  34.262  28.580  1.00  0.00     0.031 A 
ATOM     85  C   UNL A   1      46.108  33.116  30.533  1.00  0.00     0.131 A 
ATOM     86  C   UNL A   1      46.104  35.352  28.901  1.00  0.00     0.055 A 
ATOM     87  C   UNL A   1      46.882  34.226  30.879  1.00  0.00     0.041 A 
ATOM     88  F   UNL A   1      46.163  32.044  31.338  1.00  0.00    -0.206 F 
ATOM     89  C   UNL A   1      46.894  35.346  30.053  1.00  0.00     0.022 A 
BRANCH  86  90
ATOM     90  S   UNL A   1      46.204  36.742  27.739  1.00  0.00     0.124 S 
ATOM     91  O   UNL A   1      44.797  37.011  27.464  1.00  0.00    -0.237 OA
ATOM     92  O   UNL A   1      46.905  37.754  28.524  1.00  0.00    -0.237 OA
ATOM     93  O   UNL A   1      46.962  36.197  26.614  1.00  0.00    -0.744 OA
ENDBRANCH  86  90
ENDBRANCH  60  83
ENDBRANCH  34  35
ENDBRANCH  27  29
ENDBRANCH  26  27
ENDBRANCH  25  26
ENDBRANCH   1  25
TORSDOF 19
ENDMDL
MODEL 3
REMARK VINA RESULT:     -10.5      2.093      2.456
REMARK SMILES O=C(CCCN1C(=O)/C(=C/c2cc(Br)ccc2O)SC1=S)OCCOC(=O)c1ccc(-c2c3nc(c(-c4cc(S(=O)(=O)[O-])ccc4F)c4ccc([nH]4)c(-c4cc(S(=O)(=O)[O-])ccc4F)c4nc(c(-c5cc(S(=O)(=O)[O-])ccc5F)c5ccc2[nH]5)C=C4)C=C3)cc1
REMARK SMILES IDX 23 1 22 2 2 3 1 4 3 5 4 6 5 7 6 8 7 9 20 10 8 11 9 12 19 13
REMARK SMILES IDX 21 14 10 15 11 16 12 17 17 18 13 19 16 20 14 21 15 22 18 23
REMARK SMILES IDX 24 25 25 26 26 27 27 28 28 29 29 30 90 31 30 32 89 33 31 34
REMARK SMILES IDX 32 35 33 36 83 37 34 38 88 39 82 40 84 41 35 42 87 43 81 44
REMARK SMILES IDX 80 45 36 47 68 48 48 49 67 50 49 51 52 52 66 53 85 54 50 55
REMARK SMILES IDX 51 56 65 58 86 59 53 60 37 61 38 62 46 63 39 64 45 65 47 66
REMARK SMILES IDX 44 67 40 68 41 69 42 70 43 71 69 72 70 73 78 74 71 75 77 76
REMARK SMILES IDX 79 77 76 78 72 79 73 80 74 81 75 82 54 83 55 84 63 85 56 86
REMARK SMILES IDX 62 87 64 88 61 89 57 90 58 91 59 92 60 93
REMARK H PARENT 18 24 84 46 52 57
REMARK Flexibility Score: inf
ROOT
ATOM      1  C   UNL A   1      36.149  20.635  24.609  1.00  0.00     0.274 C 
ENDROOT
BRANCH   1   2
ATOM      2  O   UNL A   1      35.289  19.826  25.430  1.00  0.00    -0.462 OA
BRANCH   2   3
ATOM      3  C   UNL A   1      34.378  19.008  24.845  1.00  0.00     0.305 C 
ATOM      4  O   UNL A   1      34.725  18.138  24.052  1.00  0.00    -0.252 OA
BRANCH   3   5
ATOM      5  C   UNL A   1      32.919  19.307  25.116  1.00  0.00     0.124 C 
BRANCH   5   6
ATOM      6  C   UNL A   1      32.675  20.621  25.853  1.00  0.00     0.034 C 
BRANCH   6   7
ATOM      7  C   UNL A   1      31.515  21.475  25.322  1.00  0.00     0.128 C 
BRANCH   7   8
ATOM      8  N   UNL A   1      31.702  22.931  25.174  1.00  0.00    -0.293 N 
ATOM      9  C   UNL A   1      31.268  23.834  26.132  1.00  0.00     0.266 C 
ATOM     10  C   UNL A   1      32.436  23.481  24.133  1.00  0.00     0.148 C 
ATOM     11  O   UNL A   1      30.774  23.571  27.218  1.00  0.00    -0.268 OA
ATOM     12  C   UNL A   1      31.492  25.232  25.671  1.00  0.00     0.081 C 
ATOM     13  S   UNL A   1      32.438  25.235  24.243  1.00  0.00    -0.054 SA
ATOM     14  S   UNL A   1      33.222  22.694  22.886  1.00  0.00    -0.052 S 
ATOM     15  C   UNL A   1      30.980  26.287  26.317  1.00  0.00     0.033 C 
BRANCH  15  16
ATOM     16  C   UNL A   1      31.143  27.689  25.907  1.00  0.00     0.019 A 
ATOM     17  C   UNL A   1      30.640  28.085  24.661  1.00  0.00     0.027 A 
ATOM     18  C   UNL A   1      31.786  28.638  26.715  1.00  0.00     0.122 A 
ATOM     19  C   UNL A   1      30.767  29.412  24.249  1.00  0.00     0.018 A 
ATOM     20  C   UNL A   1      31.911  29.966  26.301  1.00  0.00     0.048 A 
ATOM     21  Br  UNL A   1      30.075  29.941  22.570  1.00  0.00    -0.051 Br
ATOM     22  C   UNL A   1      31.396  30.354  25.063  1.00  0.00     0.019 A 
BRANCH  18  23
ATOM     23  O   UNL A   1      32.298  28.255  27.925  1.00  0.00    -0.507 OA
ATOM     24  H   UNL A   1      31.758  27.797  28.539  1.00  0.00     0.293 HD
ENDBRANCH  18  23
ENDBRANCH  15  16
ENDBRANCH   7   8
ENDBRANCH   6   7
ENDBRANCH   5   6
ENDBRANCH   3   5
ENDBRANCH   2   3
ENDBRANCH   1   2
BRANCH   1  25
ATOM     25  C   UNL A   1      37.637  20.382  24.854  1.00  0.00     0.275 C 
BRANCH  25  26
ATOM     26  O   UNL A   1      38.267  21.537  25.428  1.00  0.00    -0.458 OA
BRANCH  26  27
ATOM     27  C   UNL A   1      39.356  21.252  26.192  1.00  0.00     0.338 C 
ATOM     28  O   UNL A   1      39.903  20.170  26.280  1.00  0.00    -0.246 OA
BRANCH  27  29
ATOM     29  C   UNL A   1      39.907  22.492  26.788  1.00  0.00     0.060 A 
ATOM     30  C   UNL A   1      39.354  23.705  26.358  1.00  0.00     0.016 A 
ATOM     31  C   UNL A   1      40.939  22.489  27.731  1.00  0.00     0.016 A 
ATOM     32  C   UNL A   1      39.863  24.914  26.830  1.00  0.00     0.010 A 
ATOM     33  C   UNL A   1      41.448  23.707  28.206  1.00  0.00     0.010 A 
ATOM     34  C   UNL A   1      40.934  24.926  27.732  1.00  0.00    -0.014 A 
BRANCH  34  35
ATOM     35  C   UNL A   1      41.590  26.221  28.052  1.00  0.00     0.031 A 
ATOM     36  C   UNL A   1      43.005  26.455  27.594  1.00  0.00     0.074 A 
ATOM     37  C   UNL A   1      40.912  27.203  28.675  1.00  0.00     0.049 A 
ATOM     38  N   UNL A   1      43.741  27.533  27.688  1.00  0.00    -0.248 NA
ATOM     39  C   UNL A   1      43.677  25.322  26.942  1.00  0.00     0.031 C 
ATOM     40  C   UNL A   1      39.531  27.108  29.147  1.00  0.00     0.029 A 
ATOM     41  N   UNL A   1      41.295  28.478  29.013  1.00  0.00    -0.354 N 
ATOM     42  C   UNL A   1      44.954  27.217  27.087  1.00  0.00     0.074 A 
ATOM     43  C   UNL A   1      44.873  25.829  26.682  1.00  0.00     0.031 C 
ATOM     44  C   UNL A   1      39.182  28.278  29.712  1.00  0.00     0.029 A 
ATOM     45  C   UNL A   1      40.317  29.197  29.660  1.00  0.00     0.049 A 
ATOM     46  H   UNL A   1      42.186  28.843  28.810  1.00  0.00     0.167 HD
ATOM     47  C   UNL A   1      46.031  28.013  26.872  1.00  0.00     0.034 A 
ATOM     48  C   UNL A   1      40.340  30.450  30.162  1.00  0.00     0.034 A 
ATOM     49  C   UNL A   1      46.115  29.388  27.299  1.00  0.00     0.049 A 
ATOM     50  C   UNL A   1      41.585  31.289  29.989  1.00  0.00     0.074 A 
ATOM     51  C   UNL A   1      47.156  30.284  27.124  1.00  0.00     0.029 A 
ATOM     52  N   UNL A   1      45.127  30.064  28.002  1.00  0.00    -0.354 N 
ATOM     53  N   UNL A   1      42.711  30.988  29.383  1.00  0.00    -0.248 NA
ATOM     54  C   UNL A   1      41.554  32.645  30.555  1.00  0.00     0.031 C 
ATOM     55  C   UNL A   1      46.827  31.477  27.778  1.00  0.00     0.029 A 
ATOM     56  C   UNL A   1      45.549  31.353  28.299  1.00  0.00     0.049 A 
ATOM     57  H   UNL A   1      44.254  29.686  28.254  1.00  0.00     0.167 HD
ATOM     58  C   UNL A   1      43.506  32.130  29.469  1.00  0.00     0.074 A 
ATOM     59  C   UNL A   1      42.725  33.128  30.168  1.00  0.00     0.031 C 
ATOM     60  C   UNL A   1      44.766  32.337  29.007  1.00  0.00     0.034 A 
BRANCH  47  61
ATOM     61  C   UNL A   1      47.217  27.395  26.175  1.00  0.00     0.023 A 
ATOM     62  C   UNL A   1      48.171  26.637  26.877  1.00  0.00     0.031 A 
ATOM     63  C   UNL A   1      47.407  27.581  24.795  1.00  0.00     0.131 A 
ATOM     64  C   UNL A   1      49.302  26.145  26.209  1.00  0.00     0.055 A 
ATOM     65  C   UNL A   1      48.498  27.027  24.123  1.00  0.00     0.041 A 
ATOM     66  F   UNL A   1      46.541  28.315  24.078  1.00  0.00    -0.206 F 
ATOM     67  C   UNL A   1      49.460  26.315  24.831  1.00  0.00     0.022 A 
BRANCH  64  68
ATOM     68  S   UNL A   1      50.628  25.384  27.187  1.00  0.00     0.124 S 
ATOM     69  O   UNL A   1      51.086  26.513  27.992  1.00  0.00    -0.237 OA
ATOM     70  O   UNL A   1      49.924  24.329  27.906  1.00  0.00    -0.237 OA
ATOM     71  O   UNL A   1      51.578  24.924  26.177  1.00  0.00    -0.744 OA
ENDBRANCH  64  68
ENDBRANCH  47  61
BRANCH  48  72
ATOM     72  C   UNL A   1      39.167  30.993  30.907  1.00  0.00     0.023 A 
ATOM     73  C   UNL A   1      38.076  31.566  30.235  1.00  0.00     0.031 A 
ATOM     74  C   UNL A   1      39.167  31.027  32.314  1.00  0.00     0.131 A 
ATOM     75  C   UNL A   1      37.058  32.201  30.966  1.00  0.00     0.055 A 
ATOM     76  C   UNL A   1      38.125  31.610  33.037  1.00  0.00     0.041 A 
ATOM     77  F   UNL A   1      40.187  30.499  33.006  1.00  0.00    -0.206 F 
ATOM     78  C   UNL A   1      37.070  32.216  32.362  1.00  0.00     0.022 A 
BRANCH  75  79
ATOM     79  S   UNL A   1      35.770  33.103  30.061  1.00  0.00     0.124 S 
ATOM     80  O   UNL A   1      36.562  34.042  29.275  1.00  0.00    -0.237 OA
ATOM     81  O   UNL A   1      35.118  32.033  29.315  1.00  0.00    -0.237 OA
ATOM     82  O   UNL A   1      34.965  33.702  31.123  1.00  0.00    -0.744 OA
ENDBRANCH  75  79
ENDBRANCH  48  72
BRANCH  60  83
ATOM     83  C   UNL A   1      45.356  33.712  29.213  1.00  0.00     0.023 A 
ATOM     84  C   UNL A   1      45.027  34.793  28.375  1.00  0.00     0.031 A 
ATOM     85  C   UNL A   1      46.278  33.938  30.251  1.00  0.00     0.131 A 
ATOM     86  C   UNL A   1      45.659  36.034  28.553  1.00  0.00     0.055 A 
ATOM     87  C   UNL A   1      46.859  35.190  30.460  1.00  0.00     0.041 A 
ATOM     88  F   UNL A   1      46.629  32.944  31.082  1.00  0.00    -0.206 F 
ATOM     89  C   UNL A   1      46.561  36.243  29.599  1.00  0.00     0.022 A 
BRANCH  86  90
ATOM     90  S   UNL A   1      45.357  37.348  27.339  1.00  0.00     0.124 S 
ATOM     91  O   UNL A   1      45.565  38.552  28.135  1.00  0.00    -0.237 OA
ATOM     92  O   UNL A   1      46.368  37.072  26.323  1.00  0.00    -0.237 OA
ATOM     93  O   UNL A   1      43.977  37.114  26.917  1.00  0.00    -0.744 OA
ENDBRANCH  86  90
ENDBRANCH  60  83
ENDBRANCH  34  35
ENDBRANCH  27  29
ENDBRANCH  26  27
ENDBRANCH  25  26
ENDBRANCH   1  25
TORSDOF 19
ENDMDL
