MODEL 1
REMARK VINA RESULT:     -10.3      0.000      0.000
REMARK SMILES Cc1cccc(N2CCN(c3ncc(NC(=O)c4ccccc4F)cc3C(=O)OCCOC(=O)c3ccc(-c4c5nc(c(-c6cc(S(=O)(=O)[O-])ccc6F)c6ccc([nH]6)c(-c6cc(S(=O)(=O)[O-])ccc6F)c6nc(c(-c7cc(S(=O)(=O)[O-])ccc7F)c7ccc4[nH]7)C=C6)C=C5)cc3)C[C@@H]2C)c1
REMARK SMILES IDX 31 1 30 2 29 3 27 4 28 5 26 6 11 7 12 8 13 9 25 10 14 11
REMARK SMILES IDX 10 12 7 13 8 14 99 15 9 16 98 17 100 18 6 19 1 20 2 21 3 22
REMARK SMILES IDX 101 23 4 24 5 25 15 26 16 27 17 29 18 30 19 31 23 32 20 33
REMARK SMILES IDX 22 34 24 35 21 36 32 37 33 38 34 39 35 40 36 41 97 42 37 43
REMARK SMILES IDX 96 44 38 45 39 46 40 47 90 48 41 49 95 50 89 51 91 52 42 53
REMARK SMILES IDX 94 54 88 55 87 56 43 58 75 59 55 60 74 61 56 62 59 63 73 64
REMARK SMILES IDX 92 65 57 66 58 67 72 69 93 70 60 71 44 72 45 73 53 74 46 75
REMARK SMILES IDX 52 76 54 77 51 78 47 79 48 80 49 81 50 82 76 83 77 84 85 85
REMARK SMILES IDX 78 86 84 87 86 88 83 89 79 90 80 91 81 92 82 93 61 94 62 95
REMARK SMILES IDX 70 96 63 97 69 98 71 99 68 100 64 101 65 102 66 103 67 104
REMARK H PARENT 15 28 91 57 59 68
REMARK Flexibility Score: inf
ROOT
ATOM      1  C   UNL A   1      39.324  30.259  34.877  1.00  0.00     0.275 C 
ENDROOT
BRANCH   1   2
ATOM      2  C   UNL A   1      38.947  30.895  36.235  1.00  0.00     0.275 C 
BRANCH   2   3
ATOM      3  O   UNL A   1      37.626  31.504  36.314  1.00  0.00    -0.458 OA
BRANCH   3   4
ATOM      4  C   UNL A   1      37.591  32.618  37.109  1.00  0.00     0.342 C 
ATOM      5  O   UNL A   1      36.902  32.685  38.128  1.00  0.00    -0.246 OA
BRANCH   4   6
ATOM      6  C   UNL A   1      38.013  33.904  36.510  1.00  0.00     0.104 A 
ATOM      7  C   UNL A   1      38.000  34.442  35.186  1.00  0.00     0.143 A 
ATOM      8  N   UNL A   1      38.906  35.434  34.909  1.00  0.00    -0.236 NA
ATOM      9  C   UNL A   1      39.874  35.777  35.798  1.00  0.00     0.139 A 
ATOM     10  C   UNL A   1      38.979  34.374  37.434  1.00  0.00     0.047 A 
ATOM     11  C   UNL A   1      39.950  35.273  37.075  1.00  0.00     0.061 A 
BRANCH   7  12
ATOM     12  N   UNL A   1      37.303  33.996  34.033  1.00  0.00    -0.352 N 
ATOM     13  N   UNL A   1      36.166  33.282  31.370  1.00  0.00    -0.365 N 
ATOM     14  C   UNL A   1      37.627  33.336  31.557  1.00  0.00     0.138 C 
ATOM     15  C   UNL A   1      35.286  33.986  32.363  1.00  0.00     0.098 C 
ATOM     16  C   UNL A   1      38.203  33.947  32.843  1.00  0.00     0.139 C 
ATOM     17  C   UNL A   1      36.042  34.676  33.608  1.00  0.00     0.142 C 
ATOM     18  C   UNL A   1      34.173  33.099  32.911  1.00  0.00     0.033 C 
BRANCH  13  19
ATOM     19  C   UNL A   1      35.697  32.585  30.226  1.00  0.00     0.037 A 
ATOM     20  C   UNL A   1      36.639  29.735  27.782  1.00  0.00     0.044 C 
ATOM     21  C   UNL A   1      35.929  30.903  28.407  1.00  0.00    -0.049 A 
ATOM     22  C   UNL A   1      34.846  31.445  27.714  1.00  0.00     0.003 A 
ATOM     23  C   UNL A   1      36.357  31.491  29.631  1.00  0.00     0.029 A 
ATOM     24  C   UNL A   1      34.134  32.476  28.288  1.00  0.00     0.002 A 
ATOM     25  C   UNL A   1      34.524  32.986  29.537  1.00  0.00     0.026 A 
ENDBRANCH  13  19
ENDBRANCH   7  12
BRANCH  11  26
ATOM     26  N   UNL A   1      40.916  35.588  38.040  1.00  0.00    -0.320 N 
ATOM     27  C   UNL A   1      42.115  34.962  38.273  1.00  0.00     0.258 C 
ATOM     28  H   UNL A   1      40.710  36.354  38.622  1.00  0.00     0.170 HD
ATOM     29  O   UNL A   1      42.812  35.266  39.239  1.00  0.00    -0.269 OA
BRANCH  27  30
ATOM     30  C   UNL A   1      42.606  33.951  37.319  1.00  0.00     0.075 A 
ATOM     31  C   UNL A   1      42.430  32.605  37.637  1.00  0.00     0.017 A 
ATOM     32  C   UNL A   1      43.204  34.308  36.107  1.00  0.00     0.135 A 
ATOM     33  C   UNL A   1      42.765  31.631  36.698  1.00  0.00     0.001 A 
ATOM     34  C   UNL A   1      43.487  33.344  35.150  1.00  0.00     0.040 A 
ATOM     35  F   UNL A   1      43.499  35.585  35.822  1.00  0.00    -0.206 F 
ATOM     36  C   UNL A   1      43.259  32.002  35.443  1.00  0.00     0.003 A 
ENDBRANCH  27  30
ENDBRANCH  11  26
ENDBRANCH   4   6
ENDBRANCH   3   4
ENDBRANCH   2   3
ENDBRANCH   1   2
BRANCH   1  37
ATOM     37  O   UNL A   1      40.703  30.021  34.538  1.00  0.00    -0.458 OA
BRANCH  37  38
ATOM     38  C   UNL A   1      41.183  28.776  34.727  1.00  0.00     0.338 C 
ATOM     39  O   UNL A   1      41.109  28.217  35.817  1.00  0.00    -0.246 OA
BRANCH  38  40
ATOM     40  C   UNL A   1      41.578  28.137  33.445  1.00  0.00     0.060 A 
ATOM     41  C   UNL A   1      40.675  28.175  32.377  1.00  0.00     0.016 A 
ATOM     42  C   UNL A   1      42.893  27.750  33.228  1.00  0.00     0.016 A 
ATOM     43  C   UNL A   1      41.085  27.999  31.070  1.00  0.00     0.010 A 
ATOM     44  C   UNL A   1      43.315  27.560  31.934  1.00  0.00     0.010 A 
ATOM     45  C   UNL A   1      42.409  27.686  30.870  1.00  0.00    -0.014 A 
BRANCH  45  46
ATOM     46  C   UNL A   1      42.904  27.307  29.570  1.00  0.00     0.031 A 
ATOM     47  C   UNL A   1      43.419  25.936  29.356  1.00  0.00     0.074 A 
ATOM     48  C   UNL A   1      42.708  28.286  28.659  1.00  0.00     0.049 A 
ATOM     49  N   UNL A   1      44.339  25.626  28.509  1.00  0.00    -0.248 NA
ATOM     50  C   UNL A   1      43.019  24.778  30.172  1.00  0.00     0.031 C 
ATOM     51  C   UNL A   1      42.616  28.215  27.220  1.00  0.00     0.029 A 
ATOM     52  N   UNL A   1      42.606  29.663  28.910  1.00  0.00    -0.354 N 
ATOM     53  C   UNL A   1      44.240  24.256  28.334  1.00  0.00     0.074 A 
ATOM     54  C   UNL A   1      43.615  23.763  29.531  1.00  0.00     0.031 C 
ATOM     55  C   UNL A   1      42.775  29.456  26.716  1.00  0.00     0.029 A 
ATOM     56  C   UNL A   1      43.148  30.336  27.814  1.00  0.00     0.049 A 
ATOM     57  H   UNL A   1      42.221  30.078  29.715  1.00  0.00     0.167 HD
ATOM     58  C   UNL A   1      44.379  23.749  27.074  1.00  0.00     0.034 A 
ATOM     59  C   UNL A   1      44.287  31.101  27.875  1.00  0.00     0.034 A 
ATOM     60  C   UNL A   1      44.646  24.838  26.145  1.00  0.00     0.049 A 
ATOM     61  C   UNL A   1      45.412  30.461  27.096  1.00  0.00     0.074 A 
ATOM     62  C   UNL A   1      43.787  25.578  25.349  1.00  0.00     0.029 A 
ATOM     63  N   UNL A   1      45.832  25.537  26.223  1.00  0.00    -0.354 N 
ATOM     64  N   UNL A   1      45.402  29.217  26.714  1.00  0.00    -0.248 NA
ATOM     65  C   UNL A   1      46.659  31.141  26.766  1.00  0.00     0.031 C 
ATOM     66  C   UNL A   1      44.453  26.774  24.999  1.00  0.00     0.029 A 
ATOM     67  C   UNL A   1      45.703  26.754  25.588  1.00  0.00     0.049 A 
ATOM     68  H   UNL A   1      46.649  25.214  26.668  1.00  0.00     0.167 HD
ATOM     69  C   UNL A   1      46.575  28.923  26.081  1.00  0.00     0.074 A 
ATOM     70  C   UNL A   1      47.324  30.167  26.123  1.00  0.00     0.031 C 
ATOM     71  C   UNL A   1      46.819  27.673  25.587  1.00  0.00     0.034 A 
BRANCH  58  72
ATOM     72  C   UNL A   1      43.885  22.413  26.572  1.00  0.00     0.023 A 
ATOM     73  C   UNL A   1      44.835  21.560  25.962  1.00  0.00     0.031 A 
ATOM     74  C   UNL A   1      42.577  21.912  26.630  1.00  0.00     0.131 A 
ATOM     75  C   UNL A   1      44.487  20.335  25.384  1.00  0.00     0.055 A 
ATOM     76  C   UNL A   1      42.221  20.679  26.050  1.00  0.00     0.041 A 
ATOM     77  F   UNL A   1      41.600  22.570  27.270  1.00  0.00    -0.206 F 
ATOM     78  C   UNL A   1      43.175  19.887  25.415  1.00  0.00     0.022 A 
BRANCH  75  79
ATOM     79  S   UNL A   1      45.797  19.364  24.592  1.00  0.00     0.124 S 
ATOM     80  O   UNL A   1      46.127  18.392  25.630  1.00  0.00    -0.237 OA
ATOM     81  O   UNL A   1      45.125  18.837  23.409  1.00  0.00    -0.237 OA
ATOM     82  O   UNL A   1      46.836  20.355  24.321  1.00  0.00    -0.744 OA
ENDBRANCH  75  79
ENDBRANCH  58  72
BRANCH  59  83
ATOM     83  C   UNL A   1      44.538  31.731  29.208  1.00  0.00     0.023 A 
ATOM     84  C   UNL A   1      43.618  32.714  29.639  1.00  0.00     0.031 A 
ATOM     85  C   UNL A   1      45.155  30.905  30.154  1.00  0.00     0.131 A 
ATOM     86  C   UNL A   1      43.081  32.607  30.921  1.00  0.00     0.055 A 
ATOM     87  C   UNL A   1      44.580  30.780  31.400  1.00  0.00     0.041 A 
ATOM     88  F   UNL A   1      46.140  30.059  29.822  1.00  0.00    -0.206 F 
ATOM     89  C   UNL A   1      43.510  31.591  31.760  1.00  0.00     0.022 A 
BRANCH  86  90
ATOM     90  S   UNL A   1      41.652  33.592  31.439  1.00  0.00     0.124 S 
ATOM     91  O   UNL A   1      40.869  33.716  30.213  1.00  0.00    -0.237 OA
ATOM     92  O   UNL A   1      41.073  32.746  32.479  1.00  0.00    -0.237 OA
ATOM     93  O   UNL A   1      42.236  34.840  31.921  1.00  0.00    -0.744 OA
ENDBRANCH  86  90
ENDBRANCH  59  83
BRANCH  71  94
ATOM     94  C   UNL A   1      48.101  27.227  24.961  1.00  0.00     0.023 A 
ATOM     95  C   UNL A   1      49.090  26.564  25.683  1.00  0.00     0.031 A 
ATOM     96  C   UNL A   1      48.357  27.444  23.585  1.00  0.00     0.131 A 
ATOM     97  C   UNL A   1      50.338  26.318  25.103  1.00  0.00     0.055 A 
ATOM     98  C   UNL A   1      49.549  27.065  22.974  1.00  0.00     0.041 A 
ATOM     99  F   UNL A   1      47.468  28.048  22.782  1.00  0.00    -0.206 F 
ATOM    100  C   UNL A   1      50.570  26.536  23.746  1.00  0.00     0.022 A 
BRANCH  97 101
ATOM    101  S   UNL A   1      51.692  25.897  26.221  1.00  0.00     0.124 S 
ATOM    102  O   UNL A   1      51.101  24.819  27.010  1.00  0.00    -0.237 OA
ATOM    103  O   UNL A   1      52.748  25.496  25.297  1.00  0.00    -0.237 OA
ATOM    104  O   UNL A   1      51.934  27.140  26.949  1.00  0.00    -0.744 OA
ENDBRANCH  97 101
ENDBRANCH  71  94
ENDBRANCH  45  46
ENDBRANCH  38  40
ENDBRANCH  37  38
ENDBRANCH   1  37
TORSDOF 18
ENDMDL
MODEL 2
REMARK VINA RESULT:     -10.3      5.974     10.659
REMARK SMILES Cc1cccc(N2CCN(c3ncc(NC(=O)c4ccccc4F)cc3C(=O)OCCOC(=O)c3ccc(-c4c5nc(c(-c6cc(S(=O)(=O)[O-])ccc6F)c6ccc([nH]6)c(-c6cc(S(=O)(=O)[O-])ccc6F)c6nc(c(-c7cc(S(=O)(=O)[O-])ccc7F)c7ccc4[nH]7)C=C6)C=C5)cc3)C[C@@H]2C)c1
REMARK SMILES IDX 31 1 30 2 29 3 27 4 28 5 26 6 11 7 12 8 13 9 25 10 14 11
REMARK SMILES IDX 10 12 7 13 8 14 99 15 9 16 98 17 100 18 6 19 1 20 2 21 3 22
REMARK SMILES IDX 101 23 4 24 5 25 15 26 16 27 17 29 18 30 19 31 23 32 20 33
REMARK SMILES IDX 22 34 24 35 21 36 32 37 33 38 34 39 35 40 36 41 97 42 37 43
REMARK SMILES IDX 96 44 38 45 39 46 40 47 90 48 41 49 95 50 89 51 91 52 42 53
REMARK SMILES IDX 94 54 88 55 87 56 43 58 75 59 55 60 74 61 56 62 59 63 73 64
REMARK SMILES IDX 92 65 57 66 58 67 72 69 93 70 60 71 44 72 45 73 53 74 46 75
REMARK SMILES IDX 52 76 54 77 51 78 47 79 48 80 49 81 50 82 76 83 77 84 85 85
REMARK SMILES IDX 78 86 84 87 86 88 83 89 79 90 80 91 81 92 82 93 61 94 62 95
REMARK SMILES IDX 70 96 63 97 69 98 71 99 68 100 64 101 65 102 66 103 67 104
REMARK H PARENT 15 28 91 57 59 68
REMARK Flexibility Score: inf
ROOT
ATOM      1  C   UNL A   1      44.258  30.051  28.064  1.00  0.00     0.275 C 
ENDROOT
BRANCH   1   2
ATOM      2  C   UNL A   1      43.877  29.104  26.903  1.00  0.00     0.275 C 
BRANCH   2   3
ATOM      3  O   UNL A   1      42.452  28.927  26.659  1.00  0.00    -0.458 OA
BRANCH   3   4
ATOM      4  C   UNL A   1      42.169  27.862  25.847  1.00  0.00     0.342 C 
ATOM      5  O   UNL A   1      42.502  27.824  24.661  1.00  0.00    -0.246 OA
BRANCH   4   6
ATOM      6  C   UNL A   1      41.070  26.959  26.254  1.00  0.00     0.104 A 
ATOM      7  C   UNL A   1      40.096  26.977  27.300  1.00  0.00     0.143 A 
ATOM      8  N   UNL A   1      39.571  25.770  27.683  1.00  0.00    -0.236 NA
ATOM      9  C   UNL A   1      40.067  24.599  27.205  1.00  0.00     0.139 A 
ATOM     10  C   UNL A   1      41.476  25.713  25.715  1.00  0.00     0.047 A 
ATOM     11  C   UNL A   1      41.022  24.521  26.218  1.00  0.00     0.061 A 
BRANCH   7  12
ATOM     12  N   UNL A   1      39.694  28.045  28.145  1.00  0.00    -0.352 N 
ATOM     13  N   UNL A   1      38.939  30.561  29.555  1.00  0.00    -0.365 N 
ATOM     14  C   UNL A   1      38.623  30.395  28.126  1.00  0.00     0.138 C 
ATOM     15  C   UNL A   1      39.989  29.680  30.170  1.00  0.00     0.098 C 
ATOM     16  C   UNL A   1      39.234  29.220  27.348  1.00  0.00     0.139 C 
ATOM     17  C   UNL A   1      40.620  28.558  29.199  1.00  0.00     0.142 C 
ATOM     18  C   UNL A   1      39.521  28.997  31.450  1.00  0.00     0.033 C 
BRANCH  13  19
ATOM     19  C   UNL A   1      38.237  31.584  30.246  1.00  0.00     0.037 A 
ATOM     20  C   UNL A   1      34.807  32.395  31.845  1.00  0.00     0.044 C 
ATOM     21  C   UNL A   1      36.204  32.545  31.314  1.00  0.00    -0.049 A 
ATOM     22  C   UNL A   1      36.772  33.818  31.340  1.00  0.00     0.003 A 
ATOM     23  C   UNL A   1      36.926  31.455  30.746  1.00  0.00     0.029 A 
ATOM     24  C   UNL A   1      38.075  33.978  30.918  1.00  0.00     0.002 A 
ATOM     25  C   UNL A   1      38.796  32.873  30.439  1.00  0.00     0.026 A 
ENDBRANCH  13  19
ENDBRANCH   7  12
BRANCH  11  26
ATOM     26  N   UNL A   1      41.569  23.350  25.678  1.00  0.00    -0.320 N 
ATOM     27  C   UNL A   1      42.714  22.696  26.061  1.00  0.00     0.258 C 
ATOM     28  H   UNL A   1      41.071  22.945  24.933  1.00  0.00     0.170 HD
ATOM     29  O   UNL A   1      43.147  21.745  25.415  1.00  0.00    -0.269 OA
BRANCH  27  30
ATOM     30  C   UNL A   1      43.405  23.102  27.299  1.00  0.00     0.075 A 
ATOM     31  C   UNL A   1      42.921  22.615  28.513  1.00  0.00     0.017 A 
ATOM     32  C   UNL A   1      44.535  23.924  27.279  1.00  0.00     0.135 A 
ATOM     33  C   UNL A   1      43.630  22.875  29.685  1.00  0.00     0.001 A 
ATOM     34  C   UNL A   1      45.271  24.138  28.435  1.00  0.00     0.040 A 
ATOM     35  F   UNL A   1      44.955  24.508  26.146  1.00  0.00    -0.206 F 
ATOM     36  C   UNL A   1      44.822  23.605  29.640  1.00  0.00     0.003 A 
ENDBRANCH  27  30
ENDBRANCH  11  26
ENDBRANCH   4   6
ENDBRANCH   3   4
ENDBRANCH   2   3
ENDBRANCH   1   2
BRANCH   1  37
ATOM     37  O   UNL A   1      45.565  30.653  28.119  1.00  0.00    -0.458 OA
BRANCH  37  38
ATOM     38  C   UNL A   1      46.605  29.922  27.673  1.00  0.00     0.338 C 
ATOM     39  O   UNL A   1      47.114  30.130  26.575  1.00  0.00    -0.246 OA
BRANCH  38  40
ATOM     40  C   UNL A   1      47.156  29.041  28.735  1.00  0.00     0.060 A 
ATOM     41  C   UNL A   1      47.887  29.628  29.774  1.00  0.00     0.016 A 
ATOM     42  C   UNL A   1      46.739  27.721  28.841  1.00  0.00     0.016 A 
ATOM     43  C   UNL A   1      48.071  28.991  30.986  1.00  0.00     0.010 A 
ATOM     44  C   UNL A   1      46.925  27.069  30.036  1.00  0.00     0.010 A 
ATOM     45  C   UNL A   1      47.587  27.708  31.094  1.00  0.00    -0.014 A 
BRANCH  45  46
ATOM     46  C   UNL A   1      47.880  26.890  32.244  1.00  0.00     0.031 A 
ATOM     47  C   UNL A   1      48.782  25.726  32.101  1.00  0.00     0.074 A 
ATOM     48  C   UNL A   1      47.341  27.406  33.371  1.00  0.00     0.049 A 
ATOM     49  N   UNL A   1      48.709  24.653  32.812  1.00  0.00    -0.248 NA
ATOM     50  C   UNL A   1      49.802  25.609  31.046  1.00  0.00     0.031 C 
ATOM     51  C   UNL A   1      47.715  27.218  34.753  1.00  0.00     0.029 A 
ATOM     52  N   UNL A   1      46.209  28.228  33.464  1.00  0.00    -0.354 N 
ATOM     53  C   UNL A   1      49.929  24.017  32.655  1.00  0.00     0.074 A 
ATOM     54  C   UNL A   1      50.447  24.488  31.399  1.00  0.00     0.031 C 
ATOM     55  C   UNL A   1      46.696  27.630  35.535  1.00  0.00     0.029 A 
ATOM     56  C   UNL A   1      45.566  27.934  34.669  1.00  0.00     0.049 A 
ATOM     57  H   UNL A   1      45.919  28.893  32.798  1.00  0.00     0.167 HD
ATOM     58  C   UNL A   1      50.508  23.441  33.749  1.00  0.00     0.034 A 
ATOM     59  C   UNL A   1      44.319  27.365  34.749  1.00  0.00     0.034 A 
ATOM     60  C   UNL A   1      49.637  23.617  34.902  1.00  0.00     0.049 A 
ATOM     61  C   UNL A   1      44.399  25.963  35.307  1.00  0.00     0.074 A 
ATOM     62  C   UNL A   1      49.626  24.592  35.886  1.00  0.00     0.029 A 
ATOM     63  N   UNL A   1      48.416  22.978  34.949  1.00  0.00    -0.354 N 
ATOM     64  N   UNL A   1      45.505  25.282  35.378  1.00  0.00    -0.248 NA
ATOM     65  C   UNL A   1      43.237  25.198  35.743  1.00  0.00     0.031 C 
ATOM     66  C   UNL A   1      48.347  24.577  36.488  1.00  0.00     0.029 A 
ATOM     67  C   UNL A   1      47.594  23.601  35.863  1.00  0.00     0.049 A 
ATOM     68  H   UNL A   1      48.168  22.193  34.408  1.00  0.00     0.167 HD
ATOM     69  C   UNL A   1      45.245  24.038  35.874  1.00  0.00     0.074 A 
ATOM     70  C   UNL A   1      43.811  24.038  36.105  1.00  0.00     0.031 C 
ATOM     71  C   UNL A   1      46.242  23.120  36.043  1.00  0.00     0.034 A 
BRANCH  58  72
ATOM     72  C   UNL A   1      51.969  23.104  33.933  1.00  0.00     0.023 A 
ATOM     73  C   UNL A   1      52.299  21.741  34.119  1.00  0.00     0.031 A 
ATOM     74  C   UNL A   1      53.052  23.993  33.950  1.00  0.00     0.131 A 
ATOM     75  C   UNL A   1      53.604  21.310  34.382  1.00  0.00     0.055 A 
ATOM     76  C   UNL A   1      54.368  23.565  34.213  1.00  0.00     0.041 A 
ATOM     77  F   UNL A   1      52.895  25.298  33.685  1.00  0.00    -0.206 F 
ATOM     78  C   UNL A   1      54.649  22.220  34.440  1.00  0.00     0.022 A 
BRANCH  75  79
ATOM     79  S   UNL A   1      53.879  19.538  34.649  1.00  0.00     0.124 S 
ATOM     80  O   UNL A   1      52.725  19.168  35.462  1.00  0.00    -0.237 OA
ATOM     81  O   UNL A   1      53.899  19.016  33.287  1.00  0.00    -0.237 OA
ATOM     82  O   UNL A   1      55.164  19.497  35.344  1.00  0.00    -0.744 OA
ENDBRANCH  75  79
ENDBRANCH  58  72
BRANCH  59  83
ATOM     83  C   UNL A   1      43.418  27.684  33.599  1.00  0.00     0.023 A 
ATOM     84  C   UNL A   1      42.912  29.002  33.524  1.00  0.00     0.031 A 
ATOM     85  C   UNL A   1      43.683  26.981  32.419  1.00  0.00     0.131 A 
ATOM     86  C   UNL A   1      43.024  29.691  32.317  1.00  0.00     0.055 A 
ATOM     87  C   UNL A   1      43.834  27.689  31.246  1.00  0.00     0.041 A 
ATOM     88  F   UNL A   1      44.023  25.685  32.426  1.00  0.00    -0.206 F 
ATOM     89  C   UNL A   1      43.559  29.051  31.211  1.00  0.00     0.022 A 
BRANCH  86  90
ATOM     90  S   UNL A   1      42.734  31.476  32.211  1.00  0.00     0.124 S 
ATOM     91  O   UNL A   1      43.755  32.034  33.093  1.00  0.00    -0.237 OA
ATOM     92  O   UNL A   1      42.927  31.719  30.784  1.00  0.00    -0.237 OA
ATOM     93  O   UNL A   1      41.362  31.642  32.679  1.00  0.00    -0.744 OA
ENDBRANCH  86  90
ENDBRANCH  59  83
BRANCH  71  94
ATOM     94  C   UNL A   1      46.050  21.707  36.493  1.00  0.00     0.023 A 
ATOM     95  C   UNL A   1      46.343  21.293  37.789  1.00  0.00     0.031 A 
ATOM     96  C   UNL A   1      45.536  20.723  35.613  1.00  0.00     0.131 A 
ATOM     97  C   UNL A   1      46.311  19.934  38.117  1.00  0.00     0.055 A 
ATOM     98  C   UNL A   1      45.368  19.394  35.988  1.00  0.00     0.041 A 
ATOM     99  F   UNL A   1      45.193  21.010  34.348  1.00  0.00    -0.206 F 
ATOM    100  C   UNL A   1      45.799  18.981  37.238  1.00  0.00     0.022 A 
BRANCH  97 101
ATOM    101  S   UNL A   1      47.143  19.440  39.641  1.00  0.00     0.124 S 
ATOM    102  O   UNL A   1      47.025  20.652  40.450  1.00  0.00    -0.237 OA
ATOM    103  O   UNL A   1      46.338  18.306  40.084  1.00  0.00    -0.237 OA
ATOM    104  O   UNL A   1      48.497  19.115  39.203  1.00  0.00    -0.744 OA
ENDBRANCH  97 101
ENDBRANCH  71  94
ENDBRANCH  45  46
ENDBRANCH  38  40
ENDBRANCH  37  38
ENDBRANCH   1  37
TORSDOF 18
ENDMDL
MODEL 3
REMARK VINA RESULT:     -10.2      1.721      2.232
REMARK SMILES Cc1cccc(N2CCN(c3ncc(NC(=O)c4ccccc4F)cc3C(=O)OCCOC(=O)c3ccc(-c4c5nc(c(-c6cc(S(=O)(=O)[O-])ccc6F)c6ccc([nH]6)c(-c6cc(S(=O)(=O)[O-])ccc6F)c6nc(c(-c7cc(S(=O)(=O)[O-])ccc7F)c7ccc4[nH]7)C=C6)C=C5)cc3)C[C@@H]2C)c1
REMARK SMILES IDX 31 1 30 2 29 3 27 4 28 5 26 6 11 7 12 8 13 9 25 10 14 11
REMARK SMILES IDX 10 12 7 13 8 14 99 15 9 16 98 17 100 18 6 19 1 20 2 21 3 22
REMARK SMILES IDX 101 23 4 24 5 25 15 26 16 27 17 29 18 30 19 31 23 32 20 33
REMARK SMILES IDX 22 34 24 35 21 36 32 37 33 38 34 39 35 40 36 41 97 42 37 43
REMARK SMILES IDX 96 44 38 45 39 46 40 47 90 48 41 49 95 50 89 51 91 52 42 53
REMARK SMILES IDX 94 54 88 55 87 56 43 58 75 59 55 60 74 61 56 62 59 63 73 64
REMARK SMILES IDX 92 65 57 66 58 67 72 69 93 70 60 71 44 72 45 73 53 74 46 75
REMARK SMILES IDX 52 76 54 77 51 78 47 79 48 80 49 81 50 82 76 83 77 84 85 85
REMARK SMILES IDX 78 86 84 87 86 88 83 89 79 90 80 91 81 92 82 93 61 94 62 95
REMARK SMILES IDX 70 96 63 97 69 98 71 99 68 100 64 101 65 102 66 103 67 104
REMARK H PARENT 15 28 91 57 59 68
REMARK Flexibility Score: inf
ROOT
ATOM      1  C   UNL A   1      39.234  30.142  34.566  1.00  0.00     0.275 C 
ENDROOT
BRANCH   1   2
ATOM      2  C   UNL A   1      38.431  30.622  35.797  1.00  0.00     0.275 C 
BRANCH   2   3
ATOM      3  O   UNL A   1      39.094  31.589  36.660  1.00  0.00    -0.458 OA
BRANCH   3   4
ATOM      4  C   UNL A   1      38.282  32.623  37.040  1.00  0.00     0.342 C 
ATOM      5  O   UNL A   1      37.179  32.446  37.558  1.00  0.00    -0.246 OA
BRANCH   4   6
ATOM      6  C   UNL A   1      38.514  33.945  36.416  1.00  0.00     0.104 A 
ATOM      7  C   UNL A   1      38.565  34.419  35.068  1.00  0.00     0.143 A 
ATOM      8  N   UNL A   1      39.283  35.565  34.839  1.00  0.00    -0.236 NA
ATOM      9  C   UNL A   1      40.039  36.133  35.813  1.00  0.00     0.139 A 
ATOM     10  C   UNL A   1      39.239  34.639  37.416  1.00  0.00     0.047 A 
ATOM     11  C   UNL A   1      40.049  35.704  37.119  1.00  0.00     0.061 A 
BRANCH   7  12
ATOM     12  N   UNL A   1      38.126  33.796  33.870  1.00  0.00    -0.352 N 
ATOM     13  N   UNL A   1      37.435  32.825  31.137  1.00  0.00    -0.365 N 
ATOM     14  C   UNL A   1      38.764  33.404  31.399  1.00  0.00     0.138 C 
ATOM     15  C   UNL A   1      36.319  33.115  32.101  1.00  0.00     0.098 C 
ATOM     16  C   UNL A   1      39.025  34.130  32.727  1.00  0.00     0.139 C 
ATOM     17  C   UNL A   1      36.720  33.982  33.399  1.00  0.00     0.142 C 
ATOM     18  C   UNL A   1      35.593  31.859  32.570  1.00  0.00     0.033 C 
BRANCH  13  19
ATOM     19  C   UNL A   1      37.300  32.052  29.954  1.00  0.00     0.037 A 
ATOM     20  C   UNL A   1      34.676  30.817  27.391  1.00  0.00     0.044 C 
ATOM     21  C   UNL A   1      35.966  30.990  28.140  1.00  0.00    -0.049 A 
ATOM     22  C   UNL A   1      37.048  30.199  27.754  1.00  0.00     0.003 A 
ATOM     23  C   UNL A   1      36.094  31.881  29.245  1.00  0.00     0.029 A 
ATOM     24  C   UNL A   1      38.263  30.377  28.381  1.00  0.00     0.002 A 
ATOM     25  C   UNL A   1      38.388  31.321  29.412  1.00  0.00     0.026 A 
ENDBRANCH  13  19
ENDBRANCH   7  12
BRANCH  11  26
ATOM     26  N   UNL A   1      40.799  36.247  38.170  1.00  0.00    -0.320 N 
ATOM     27  C   UNL A   1      41.988  35.793  38.685  1.00  0.00     0.258 C 
ATOM     28  H   UNL A   1      40.429  37.056  38.591  1.00  0.00     0.170 HD
ATOM     29  O   UNL A   1      42.475  36.295  39.695  1.00  0.00    -0.269 OA
BRANCH  27  30
ATOM     30  C   UNL A   1      42.724  34.725  37.984  1.00  0.00     0.075 A 
ATOM     31  C   UNL A   1      43.615  35.091  36.975  1.00  0.00     0.017 A 
ATOM     32  C   UNL A   1      42.575  33.378  38.325  1.00  0.00     0.135 A 
ATOM     33  C   UNL A   1      44.419  34.117  36.386  1.00  0.00     0.001 A 
ATOM     34  C   UNL A   1      43.411  32.415  37.779  1.00  0.00     0.040 A 
ATOM     35  F   UNL A   1      41.642  32.978  39.202  1.00  0.00    -0.206 F 
ATOM     36  C   UNL A   1      44.342  32.787  36.812  1.00  0.00     0.003 A 
ENDBRANCH  27  30
ENDBRANCH  11  26
ENDBRANCH   4   6
ENDBRANCH   3   4
ENDBRANCH   2   3
ENDBRANCH   1   2
BRANCH   1  37
ATOM     37  O   UNL A   1      38.620  30.093  33.265  1.00  0.00    -0.458 OA
BRANCH  37  38
ATOM     38  C   UNL A   1      38.419  28.878  32.718  1.00  0.00     0.338 C 
ATOM     39  O   UNL A   1      37.498  28.153  33.084  1.00  0.00    -0.246 OA
BRANCH  38  40
ATOM     40  C   UNL A   1      39.277  28.661  31.524  1.00  0.00     0.060 A 
ATOM     41  C   UNL A   1      40.596  29.127  31.560  1.00  0.00     0.016 A 
ATOM     42  C   UNL A   1      38.873  27.798  30.515  1.00  0.00     0.016 A 
ATOM     43  C   UNL A   1      41.568  28.626  30.716  1.00  0.00     0.010 A 
ATOM     44  C   UNL A   1      39.825  27.299  29.660  1.00  0.00     0.010 A 
ATOM     45  C   UNL A   1      41.160  27.716  29.768  1.00  0.00    -0.014 A 
BRANCH  45  46
ATOM     46  C   UNL A   1      42.049  27.267  28.726  1.00  0.00     0.031 A 
ATOM     47  C   UNL A   1      42.596  25.892  28.776  1.00  0.00     0.074 A 
ATOM     48  C   UNL A   1      42.170  28.187  27.745  1.00  0.00     0.049 A 
ATOM     49  N   UNL A   1      43.741  25.544  28.296  1.00  0.00    -0.248 NA
ATOM     50  C   UNL A   1      41.943  24.780  29.484  1.00  0.00     0.031 C 
ATOM     51  C   UNL A   1      42.553  28.029  26.361  1.00  0.00     0.029 A 
ATOM     52  N   UNL A   1      42.002  29.575  27.864  1.00  0.00    -0.354 N 
ATOM     53  C   UNL A   1      43.694  24.165  28.182  1.00  0.00     0.074 A 
ATOM     54  C   UNL A   1      42.708  23.736  29.137  1.00  0.00     0.031 C 
ATOM     55  C   UNL A   1      42.878  29.240  25.863  1.00  0.00     0.029 A 
ATOM     56  C   UNL A   1      42.878  30.189  26.967  1.00  0.00     0.049 A 
ATOM     57  H   UNL A   1      41.378  30.033  28.472  1.00  0.00     0.167 HD
ATOM     58  C   UNL A   1      44.234  23.586  27.070  1.00  0.00     0.034 A 
ATOM     59  C   UNL A   1      43.940  30.970  27.351  1.00  0.00     0.034 A 
ATOM     60  C   UNL A   1      44.798  24.620  26.215  1.00  0.00     0.049 A 
ATOM     61  C   UNL A   1      45.253  30.299  27.023  1.00  0.00     0.074 A 
ATOM     62  C   UNL A   1      44.252  25.301  25.139  1.00  0.00     0.029 A 
ATOM     63  N   UNL A   1      45.898  25.338  26.634  1.00  0.00    -0.354 N 
ATOM     64  N   UNL A   1      45.359  29.035  26.734  1.00  0.00    -0.248 NA
ATOM     65  C   UNL A   1      46.544  30.975  27.078  1.00  0.00     0.031 C 
ATOM     66  C   UNL A   1      45.005  26.482  24.954  1.00  0.00     0.029 A 
ATOM     67  C   UNL A   1      45.994  26.513  25.920  1.00  0.00     0.049 A 
ATOM     68  H   UNL A   1      46.523  25.053  27.341  1.00  0.00     0.167 HD
ATOM     69  C   UNL A   1      46.672  28.718  26.539  1.00  0.00     0.074 A 
ATOM     70  C   UNL A   1      47.376  29.972  26.748  1.00  0.00     0.031 C 
ATOM     71  C   UNL A   1      47.055  27.445  26.228  1.00  0.00     0.034 A 
BRANCH  58  72
ATOM     72  C   UNL A   1      43.921  22.216  26.515  1.00  0.00     0.023 A 
ATOM     73  C   UNL A   1      44.996  21.482  25.961  1.00  0.00     0.031 A 
ATOM     74  C   UNL A   1      42.674  21.577  26.475  1.00  0.00     0.131 A 
ATOM     75  C   UNL A   1      44.822  20.240  25.342  1.00  0.00     0.055 A 
ATOM     76  C   UNL A   1      42.492  20.326  25.855  1.00  0.00     0.041 A 
ATOM     77  F   UNL A   1      41.591  22.114  27.055  1.00  0.00    -0.206 F 
ATOM     78  C   UNL A   1      43.567  19.654  25.276  1.00  0.00     0.022 A 
BRANCH  75  79
ATOM     79  S   UNL A   1      46.279  19.430  24.630  1.00  0.00     0.124 S 
ATOM     80  O   UNL A   1      45.718  18.763  23.460  1.00  0.00    -0.237 OA
ATOM     81  O   UNL A   1      47.165  20.559  24.362  1.00  0.00    -0.237 OA
ATOM     82  O   UNL A   1      46.725  18.537  25.698  1.00  0.00    -0.744 OA
ENDBRANCH  75  79
ENDBRANCH  58  72
BRANCH  59  83
ATOM     83  C   UNL A   1      43.745  31.682  28.653  1.00  0.00     0.023 A 
ATOM     84  C   UNL A   1      44.074  30.971  29.830  1.00  0.00     0.031 A 
ATOM     85  C   UNL A   1      43.932  33.067  28.611  1.00  0.00     0.131 A 
ATOM     86  C   UNL A   1      44.894  31.588  30.773  1.00  0.00     0.055 A 
ATOM     87  C   UNL A   1      44.783  33.648  29.526  1.00  0.00     0.041 A 
ATOM     88  F   UNL A   1      43.504  33.810  27.582  1.00  0.00    -0.206 F 
ATOM     89  C   UNL A   1      45.306  32.895  30.571  1.00  0.00     0.022 A 
BRANCH  86  90
ATOM     90  S   UNL A   1      45.654  30.656  32.128  1.00  0.00     0.124 S 
ATOM     91  O   UNL A   1      44.522  29.957  32.730  1.00  0.00    -0.237 OA
ATOM     92  O   UNL A   1      46.607  29.816  31.408  1.00  0.00    -0.237 OA
ATOM     93  O   UNL A   1      46.259  31.682  32.971  1.00  0.00    -0.744 OA
ENDBRANCH  86  90
ENDBRANCH  59  83
BRANCH  71  94
ATOM     94  C   UNL A   1      48.468  26.978  26.084  1.00  0.00     0.023 A 
ATOM     95  C   UNL A   1      49.304  26.789  27.181  1.00  0.00     0.031 A 
ATOM     96  C   UNL A   1      49.015  26.687  24.810  1.00  0.00     0.131 A 
ATOM     97  C   UNL A   1      50.662  26.518  26.990  1.00  0.00     0.055 A 
ATOM     98  C   UNL A   1      50.333  26.275  24.636  1.00  0.00     0.041 A 
ATOM     99  F   UNL A   1      48.297  26.806  23.683  1.00  0.00    -0.206 F 
ATOM    100  C   UNL A   1      51.182  26.231  25.729  1.00  0.00     0.022 A 
BRANCH  97 101
ATOM    101  S   UNL A   1      51.751  26.752  28.412  1.00  0.00     0.124 S 
ATOM    102  O   UNL A   1      52.877  25.885  28.068  1.00  0.00    -0.237 OA
ATOM    103  O   UNL A   1      52.023  28.185  28.367  1.00  0.00    -0.237 OA
ATOM    104  O   UNL A   1      50.942  26.301  29.541  1.00  0.00    -0.744 OA
ENDBRANCH  97 101
ENDBRANCH  71  94
ENDBRANCH  45  46
ENDBRANCH  38  40
ENDBRANCH  37  38
ENDBRANCH   1  37
TORSDOF 18
ENDMDL
