MODEL 1
REMARK VINA RESULT:     -11.4      0.000      0.000
REMARK SMILES CCCc1cc(OC(F)(F)F)cc2c1O[C@@H](C(F)(F)F)C(C(=O)OCCOC(=O)c1ccc(-c3c4nc(c(-c5cc(S(=O)(=O)[O-])ccc5F)c5ccc([nH]5)c(-c5cc(S(=O)(=O)[O-])ccc5F)c5nc(c(-c6cc(S(=O)(=O)[O-])ccc6F)c6ccc3[nH]6)C=C5)C=C4)cc1)=C2
REMARK SMILES IDX 26 1 25 2 24 3 22 4 23 5 21 6 4 7 5 8 14 9 6 10 13 11 15 12
REMARK SMILES IDX 12 13 93 14 16 15 3 16 2 17 1 18 7 19 8 20 9 21 10 22 11 23
REMARK SMILES IDX 17 24 18 25 19 26 20 27 27 28 28 29 29 30 30 31 31 32 92 33
REMARK SMILES IDX 32 34 91 35 33 36 34 37 35 38 85 39 36 40 90 41 84 42 86 43
REMARK SMILES IDX 37 44 89 45 83 46 82 47 38 49 70 50 50 51 69 52 51 53 54 54
REMARK SMILES IDX 68 55 87 56 52 57 53 58 67 60 88 61 55 62 39 63 40 64 48 65
REMARK SMILES IDX 41 66 47 67 49 68 46 69 42 70 43 71 44 72 45 73 71 74 72 75
REMARK SMILES IDX 80 76 73 77 79 78 81 79 78 80 74 81 75 82 76 83 77 84 56 85
REMARK SMILES IDX 57 86 65 87 58 88 64 89 66 90 63 91 59 92 60 93 61 94 62 95
REMARK H PARENT 86 48 54 59
REMARK Flexibility Score: inf
ROOT
ATOM      1  C   UNL A   1      36.610  20.883  24.887  1.00  0.00     0.275 C 
ENDROOT
BRANCH   1   2
ATOM      2  C   UNL A   1      35.092  21.070  24.974  1.00  0.00     0.275 C 
BRANCH   2   3
ATOM      3  O   UNL A   1      34.712  22.458  24.864  1.00  0.00    -0.459 OA
BRANCH   3   4
ATOM      4  C   UNL A   1      33.785  22.885  25.761  1.00  0.00     0.338 C 
ATOM      5  O   UNL A   1      33.449  22.285  26.762  1.00  0.00    -0.246 OA
BRANCH   4   6
ATOM      6  C   UNL A   1      33.237  24.212  25.398  1.00  0.00     0.087 C 
ATOM      7  C   UNL A   1      31.436  27.804  24.283  1.00  0.00    -0.002 A 
ATOM      8  C   UNL A   1      31.969  29.018  24.752  1.00  0.00     0.054 A 
ATOM      9  C   UNL A   1      32.153  26.631  24.541  1.00  0.00     0.131 A 
ATOM     10  C   UNL A   1      33.151  29.047  25.497  1.00  0.00     0.130 A 
ATOM     11  C   UNL A   1      33.272  26.624  25.385  1.00  0.00     0.021 A 
ATOM     12  O   UNL A   1      31.800  25.495  23.869  1.00  0.00    -0.475 OA
ATOM     13  C   UNL A   1      33.768  27.842  25.856  1.00  0.00     0.058 A 
ATOM     14  C   UNL A   1      33.889  25.341  25.738  1.00  0.00     0.027 C 
ATOM     15  C   UNL A   1      31.922  24.273  24.641  1.00  0.00     0.316 C 
BRANCH   7  16
ATOM     16  C   UNL A   1      30.132  27.835  23.507  1.00  0.00     0.039 C 
BRANCH  16  17
ATOM     17  C   UNL A   1      29.532  29.206  23.156  1.00  0.00     0.001 C 
ATOM     18  C   UNL A   1      28.043  29.180  22.838  1.00  0.00     0.004 C 
ENDBRANCH  16  17
ENDBRANCH   7  16
BRANCH  10  19
ATOM     19  O   UNL A   1      33.782  30.176  25.944  1.00  0.00    -0.406 OA
BRANCH  19  20
ATOM     20  C   UNL A   1      33.558  30.548  27.297  1.00  0.00     0.573 C 
ATOM     21  F   UNL A   1      32.387  30.062  27.762  1.00  0.00    -0.132 F 
ATOM     22  F   UNL A   1      34.569  30.129  28.088  1.00  0.00    -0.132 F 
ATOM     23  F   UNL A   1      33.503  31.898  27.370  1.00  0.00    -0.132 F 
ENDBRANCH  19  20
ENDBRANCH  10  19
BRANCH  15  24
ATOM     24  C   UNL A   1      31.539  23.105  23.712  1.00  0.00     0.430 C 
ATOM     25  F   UNL A   1      31.367  21.952  24.398  1.00  0.00    -0.167 F 
ATOM     26  F   UNL A   1      30.348  23.355  23.108  1.00  0.00    -0.167 F 
ATOM     27  F   UNL A   1      32.445  22.904  22.731  1.00  0.00    -0.167 F 
ENDBRANCH  15  24
ENDBRANCH   4   6
ENDBRANCH   3   4
ENDBRANCH   2   3
ENDBRANCH   1   2
BRANCH   1  28
ATOM     28  O   UNL A   1      37.299  21.563  25.952  1.00  0.00    -0.458 OA
BRANCH  28  29
ATOM     29  C   UNL A   1      38.614  21.254  26.066  1.00  0.00     0.338 C 
ATOM     30  O   UNL A   1      39.144  20.208  25.724  1.00  0.00    -0.246 OA
BRANCH  29  31
ATOM     31  C   UNL A   1      39.386  22.443  26.486  1.00  0.00     0.060 A 
ATOM     32  C   UNL A   1      39.010  23.664  25.922  1.00  0.00     0.016 A 
ATOM     33  C   UNL A   1      40.450  22.389  27.389  1.00  0.00     0.016 A 
ATOM     34  C   UNL A   1      39.626  24.848  26.320  1.00  0.00     0.010 A 
ATOM     35  C   UNL A   1      41.114  23.575  27.743  1.00  0.00     0.010 A 
ATOM     36  C   UNL A   1      40.692  24.813  27.225  1.00  0.00    -0.014 A 
BRANCH  36  37
ATOM     37  C   UNL A   1      41.415  26.073  27.532  1.00  0.00     0.031 A 
ATOM     38  C   UNL A   1      40.722  27.138  28.334  1.00  0.00     0.074 A 
ATOM     39  C   UNL A   1      42.697  26.239  27.159  1.00  0.00     0.049 A 
ATOM     40  N   UNL A   1      41.157  28.314  28.705  1.00  0.00    -0.248 NA
ATOM     41  C   UNL A   1      39.360  26.824  28.789  1.00  0.00     0.031 C 
ATOM     42  C   UNL A   1      43.507  25.242  26.461  1.00  0.00     0.029 A 
ATOM     43  N   UNL A   1      43.545  27.308  27.320  1.00  0.00    -0.354 N 
ATOM     44  C   UNL A   1      40.128  28.881  29.446  1.00  0.00     0.074 A 
ATOM     45  C   UNL A   1      39.037  27.927  29.447  1.00  0.00     0.031 C 
ATOM     46  C   UNL A   1      44.731  25.753  26.238  1.00  0.00     0.029 A 
ATOM     47  C   UNL A   1      44.781  27.127  26.740  1.00  0.00     0.049 A 
ATOM     48  H   UNL A   1      43.293  28.127  27.805  1.00  0.00     0.167 HD
ATOM     49  C   UNL A   1      40.096  30.086  30.069  1.00  0.00     0.034 A 
ATOM     50  C   UNL A   1      45.816  27.981  26.601  1.00  0.00     0.034 A 
ATOM     51  C   UNL A   1      41.174  31.045  30.026  1.00  0.00     0.049 A 
ATOM     52  C   UNL A   1      45.700  29.376  27.178  1.00  0.00     0.074 A 
ATOM     53  C   UNL A   1      41.233  32.302  30.603  1.00  0.00     0.029 A 
ATOM     54  N   UNL A   1      42.376  30.865  29.350  1.00  0.00    -0.354 N 
ATOM     55  N   UNL A   1      44.716  29.909  27.868  1.00  0.00    -0.248 NA
ATOM     56  C   UNL A   1      46.836  30.281  26.962  1.00  0.00     0.031 C 
ATOM     57  C   UNL A   1      42.428  32.913  30.207  1.00  0.00     0.029 A 
ATOM     58  C   UNL A   1      43.161  32.004  29.461  1.00  0.00     0.049 A 
ATOM     59  H   UNL A   1      42.633  30.048  28.865  1.00  0.00     0.167 HD
ATOM     60  C   UNL A   1      45.135  31.198  28.196  1.00  0.00     0.074 A 
ATOM     61  C   UNL A   1      46.463  31.355  27.642  1.00  0.00     0.031 C 
ATOM     62  C   UNL A   1      44.483  32.161  28.897  1.00  0.00     0.034 A 
BRANCH  49  63
ATOM     63  C   UNL A   1      38.819  30.459  30.782  1.00  0.00     0.023 A 
ATOM     64  C   UNL A   1      37.866  31.312  30.198  1.00  0.00     0.031 A 
ATOM     65  C   UNL A   1      38.568  29.981  32.080  1.00  0.00     0.131 A 
ATOM     66  C   UNL A   1      36.745  31.717  30.939  1.00  0.00     0.055 A 
ATOM     67  C   UNL A   1      37.411  30.322  32.780  1.00  0.00     0.041 A 
ATOM     68  F   UNL A   1      39.456  29.184  32.698  1.00  0.00    -0.206 F 
ATOM     69  C   UNL A   1      36.497  31.207  32.216  1.00  0.00     0.022 A 
BRANCH  66  70
ATOM     70  S   UNL A   1      35.695  33.038  30.271  1.00  0.00     0.124 S 
ATOM     71  O   UNL A   1      34.380  32.400  30.275  1.00  0.00    -0.237 OA
ATOM     72  O   UNL A   1      35.886  34.113  31.239  1.00  0.00    -0.237 OA
ATOM     73  O   UNL A   1      36.256  33.284  28.945  1.00  0.00    -0.744 OA
ENDBRANCH  66  70
ENDBRANCH  49  63
BRANCH  50  74
ATOM     74  C   UNL A   1      47.033  27.587  25.829  1.00  0.00     0.023 A 
ATOM     75  C   UNL A   1      47.195  27.947  24.481  1.00  0.00     0.031 A 
ATOM     76  C   UNL A   1      48.013  26.760  26.409  1.00  0.00     0.131 A 
ATOM     77  C   UNL A   1      48.277  27.437  23.744  1.00  0.00     0.055 A 
ATOM     78  C   UNL A   1      49.120  26.308  25.690  1.00  0.00     0.041 A 
ATOM     79  F   UNL A   1      47.903  26.370  27.689  1.00  0.00    -0.206 F 
ATOM     80  C   UNL A   1      49.249  26.635  24.344  1.00  0.00     0.022 A 
BRANCH  77  81
ATOM     81  S   UNL A   1      48.338  27.746  21.957  1.00  0.00     0.124 S 
ATOM     82  O   UNL A   1      48.561  26.403  21.433  1.00  0.00    -0.237 OA
ATOM     83  O   UNL A   1      47.023  28.324  21.702  1.00  0.00    -0.237 OA
ATOM     84  O   UNL A   1      49.462  28.668  21.808  1.00  0.00    -0.744 OA
ENDBRANCH  77  81
ENDBRANCH  50  74
BRANCH  62  85
ATOM     85  C   UNL A   1      45.222  33.456  29.152  1.00  0.00     0.023 A 
ATOM     86  C   UNL A   1      45.177  34.532  28.247  1.00  0.00     0.031 A 
ATOM     87  C   UNL A   1      45.990  33.613  30.321  1.00  0.00     0.131 A 
ATOM     88  C   UNL A   1      45.933  35.689  28.497  1.00  0.00     0.055 A 
ATOM     89  C   UNL A   1      46.684  34.792  30.596  1.00  0.00     0.041 A 
ATOM     90  F   UNL A   1      46.076  32.619  31.221  1.00  0.00    -0.206 F 
ATOM     91  C   UNL A   1      46.670  35.834  29.675  1.00  0.00     0.022 A 
BRANCH  88  92
ATOM     92  S   UNL A   1      46.022  36.969  27.213  1.00  0.00     0.124 S 
ATOM     93  O   UNL A   1      46.964  37.919  27.796  1.00  0.00    -0.237 OA
ATOM     94  O   UNL A   1      46.505  36.220  26.057  1.00  0.00    -0.237 OA
ATOM     95  O   UNL A   1      44.644  37.447  27.109  1.00  0.00    -0.744 OA
ENDBRANCH  88  92
ENDBRANCH  62  85
ENDBRANCH  36  37
ENDBRANCH  29  31
ENDBRANCH  28  29
ENDBRANCH   1  28
TORSDOF 19
ENDMDL
MODEL 2
REMARK VINA RESULT:     -11.3      4.914     10.122
REMARK SMILES CCCc1cc(OC(F)(F)F)cc2c1O[C@@H](C(F)(F)F)C(C(=O)OCCOC(=O)c1ccc(-c3c4nc(c(-c5cc(S(=O)(=O)[O-])ccc5F)c5ccc([nH]5)c(-c5cc(S(=O)(=O)[O-])ccc5F)c5nc(c(-c6cc(S(=O)(=O)[O-])ccc6F)c6ccc3[nH]6)C=C5)C=C4)cc1)=C2
REMARK SMILES IDX 26 1 25 2 24 3 22 4 23 5 21 6 4 7 5 8 14 9 6 10 13 11 15 12
REMARK SMILES IDX 12 13 93 14 16 15 3 16 2 17 1 18 7 19 8 20 9 21 10 22 11 23
REMARK SMILES IDX 17 24 18 25 19 26 20 27 27 28 28 29 29 30 30 31 31 32 92 33
REMARK SMILES IDX 32 34 91 35 33 36 34 37 35 38 85 39 36 40 90 41 84 42 86 43
REMARK SMILES IDX 37 44 89 45 83 46 82 47 38 49 70 50 50 51 69 52 51 53 54 54
REMARK SMILES IDX 68 55 87 56 52 57 53 58 67 60 88 61 55 62 39 63 40 64 48 65
REMARK SMILES IDX 41 66 47 67 49 68 46 69 42 70 43 71 44 72 45 73 71 74 72 75
REMARK SMILES IDX 80 76 73 77 79 78 81 79 78 80 74 81 75 82 76 83 77 84 56 85
REMARK SMILES IDX 57 86 65 87 58 88 64 89 66 90 63 91 59 92 60 93 61 94 62 95
REMARK H PARENT 86 48 54 59
REMARK Flexibility Score: inf
ROOT
ATOM      1  C   UNL A   1      31.529  30.218  25.526  1.00  0.00     0.275 C 
ENDROOT
BRANCH   1   2
ATOM      2  C   UNL A   1      31.241  28.826  24.953  1.00  0.00     0.275 C 
BRANCH   2   3
ATOM      3  O   UNL A   1      32.362  27.932  25.117  1.00  0.00    -0.459 OA
BRANCH   3   4
ATOM      4  C   UNL A   1      32.807  27.336  23.980  1.00  0.00     0.338 C 
ATOM      5  O   UNL A   1      33.040  27.907  22.934  1.00  0.00    -0.246 OA
BRANCH   4   6
ATOM      6  C   UNL A   1      33.017  25.882  24.166  1.00  0.00     0.087 C 
ATOM      7  C   UNL A   1      33.358  21.740  24.510  1.00  0.00    -0.002 A 
ATOM      8  C   UNL A   1      34.563  21.183  24.975  1.00  0.00     0.054 A 
ATOM      9  C   UNL A   1      33.218  23.131  24.557  1.00  0.00     0.131 A 
ATOM     10  C   UNL A   1      35.607  21.996  25.424  1.00  0.00     0.130 A 
ATOM     11  C   UNL A   1      34.293  23.967  24.889  1.00  0.00     0.021 A 
ATOM     12  O   UNL A   1      31.974  23.664  24.371  1.00  0.00    -0.475 OA
ATOM     13  C   UNL A   1      35.487  23.388  25.327  1.00  0.00     0.058 A 
ATOM     14  C   UNL A   1      34.126  25.420  24.773  1.00  0.00     0.027 C 
ATOM     15  C   UNL A   1      31.957  24.923  23.651  1.00  0.00     0.316 C 
BRANCH   7  16
ATOM     16  C   UNL A   1      32.273  20.807  24.007  1.00  0.00     0.039 C 
BRANCH  16  17
ATOM     17  C   UNL A   1      32.447  19.298  24.249  1.00  0.00     0.001 C 
ATOM     18  C   UNL A   1      32.527  18.461  22.980  1.00  0.00     0.004 C 
ENDBRANCH  16  17
ENDBRANCH   7  16
BRANCH  10  19
ATOM     19  O   UNL A   1      36.790  21.553  25.951  1.00  0.00    -0.406 OA
BRANCH  19  20
ATOM     20  C   UNL A   1      37.732  20.997  25.045  1.00  0.00     0.573 C 
ATOM     21  F   UNL A   1      37.580  21.492  23.798  1.00  0.00    -0.132 F 
ATOM     22  F   UNL A   1      38.996  21.212  25.467  1.00  0.00    -0.132 F 
ATOM     23  F   UNL A   1      37.535  19.659  24.985  1.00  0.00    -0.132 F 
ENDBRANCH  19  20
ENDBRANCH  10  19
BRANCH  15  24
ATOM     24  C   UNL A   1      30.491  25.394  23.587  1.00  0.00     0.430 C 
ATOM     25  F   UNL A   1      29.660  24.398  23.202  1.00  0.00    -0.167 F 
ATOM     26  F   UNL A   1      30.064  25.774  24.818  1.00  0.00    -0.167 F 
ATOM     27  F   UNL A   1      30.322  26.451  22.765  1.00  0.00    -0.167 F 
ENDBRANCH  15  24
ENDBRANCH   4   6
ENDBRANCH   3   4
ENDBRANCH   2   3
ENDBRANCH   1   2
BRANCH   1  28
ATOM     28  O   UNL A   1      32.872  30.323  26.035  1.00  0.00    -0.458 OA
BRANCH  28  29
ATOM     29  C   UNL A   1      33.067  31.338  26.913  1.00  0.00     0.338 C 
ATOM     30  O   UNL A   1      32.272  32.223  27.186  1.00  0.00    -0.246 OA
BRANCH  29  31
ATOM     31  C   UNL A   1      34.322  31.129  27.666  1.00  0.00     0.060 A 
ATOM     32  C   UNL A   1      34.581  29.827  28.102  1.00  0.00     0.016 A 
ATOM     33  C   UNL A   1      35.223  32.154  27.959  1.00  0.00     0.016 A 
ATOM     34  C   UNL A   1      35.775  29.520  28.748  1.00  0.00     0.010 A 
ATOM     35  C   UNL A   1      36.399  31.857  28.666  1.00  0.00     0.010 A 
ATOM     36  C   UNL A   1      36.691  30.535  29.046  1.00  0.00    -0.014 A 
BRANCH  36  37
ATOM     37  C   UNL A   1      37.894  30.202  29.850  1.00  0.00     0.031 A 
ATOM     38  C   UNL A   1      38.927  29.277  29.272  1.00  0.00     0.074 A 
ATOM     39  C   UNL A   1      38.098  30.771  31.052  1.00  0.00     0.049 A 
ATOM     40  N   UNL A   1      40.043  28.843  29.800  1.00  0.00    -0.248 NA
ATOM     41  C   UNL A   1      38.671  28.788  27.910  1.00  0.00     0.031 C 
ATOM     42  C   UNL A   1      37.217  31.756  31.678  1.00  0.00     0.029 A 
ATOM     43  N   UNL A   1      39.115  30.604  31.961  1.00  0.00    -0.354 N 
ATOM     44  C   UNL A   1      40.630  28.037  28.832  1.00  0.00     0.074 A 
ATOM     45  C   UNL A   1      39.730  28.023  27.697  1.00  0.00     0.031 C 
ATOM     46  C   UNL A   1      37.724  32.094  32.877  1.00  0.00     0.029 A 
ATOM     47  C   UNL A   1      38.942  31.321  33.124  1.00  0.00     0.049 A 
ATOM     48  H   UNL A   1      39.895  30.027  31.796  1.00  0.00     0.167 HD
ATOM     49  C   UNL A   1      41.810  27.370  28.887  1.00  0.00     0.034 A 
ATOM     50  C   UNL A   1      39.663  31.325  34.265  1.00  0.00     0.034 A 
ATOM     51  C   UNL A   1      42.678  27.359  30.041  1.00  0.00     0.049 A 
ATOM     52  C   UNL A   1      40.899  30.458  34.355  1.00  0.00     0.074 A 
ATOM     53  C   UNL A   1      43.883  26.699  30.207  1.00  0.00     0.029 A 
ATOM     54  N   UNL A   1      42.425  28.023  31.236  1.00  0.00    -0.354 N 
ATOM     55  N   UNL A   1      41.441  29.688  33.438  1.00  0.00    -0.248 NA
ATOM     56  C   UNL A   1      41.623  30.465  35.634  1.00  0.00     0.031 C 
ATOM     57  C   UNL A   1      44.313  26.892  31.524  1.00  0.00     0.029 A 
ATOM     58  C   UNL A   1      43.428  27.751  32.155  1.00  0.00     0.049 A 
ATOM     59  H   UNL A   1      41.647  28.602  31.406  1.00  0.00     0.167 HD
ATOM     60  C   UNL A   1      42.588  29.150  34.021  1.00  0.00     0.074 A 
ATOM     61  C   UNL A   1      42.666  29.695  35.360  1.00  0.00     0.031 C 
ATOM     62  C   UNL A   1      43.497  28.289  33.495  1.00  0.00     0.034 A 
BRANCH  49  63
ATOM     63  C   UNL A   1      42.185  26.536  27.687  1.00  0.00     0.023 A 
ATOM     64  C   UNL A   1      41.981  25.145  27.658  1.00  0.00     0.031 A 
ATOM     65  C   UNL A   1      42.790  27.136  26.569  1.00  0.00     0.131 A 
ATOM     66  C   UNL A   1      42.443  24.394  26.566  1.00  0.00     0.055 A 
ATOM     67  C   UNL A   1      43.172  26.395  25.450  1.00  0.00     0.041 A 
ATOM     68  F   UNL A   1      43.034  28.457  26.551  1.00  0.00    -0.206 F 
ATOM     69  C   UNL A   1      43.013  25.012  25.450  1.00  0.00     0.022 A 
BRANCH  66  70
ATOM     70  S   UNL A   1      42.428  22.584  26.689  1.00  0.00     0.124 S 
ATOM     71  O   UNL A   1      41.877  22.204  25.390  1.00  0.00    -0.237 OA
ATOM     72  O   UNL A   1      43.837  22.270  26.901  1.00  0.00    -0.237 OA
ATOM     73  O   UNL A   1      41.552  22.325  27.829  1.00  0.00    -0.744 OA
ENDBRANCH  66  70
ENDBRANCH  49  63
BRANCH  50  74
ATOM     74  C   UNL A   1      39.213  32.118  35.449  1.00  0.00     0.023 A 
ATOM     75  C   UNL A   1      39.610  33.454  35.629  1.00  0.00     0.031 A 
ATOM     76  C   UNL A   1      38.453  31.517  36.468  1.00  0.00     0.131 A 
ATOM     77  C   UNL A   1      39.292  34.124  36.823  1.00  0.00     0.055 A 
ATOM     78  C   UNL A   1      38.085  32.207  37.623  1.00  0.00     0.041 A 
ATOM     79  F   UNL A   1      38.059  30.238  36.357  1.00  0.00    -0.206 F 
ATOM     80  C   UNL A   1      38.519  33.515  37.814  1.00  0.00     0.022 A 
BRANCH  77  81
ATOM     81  S   UNL A   1      40.002  35.769  37.115  1.00  0.00     0.124 S 
ATOM     82  O   UNL A   1      39.660  36.461  35.878  1.00  0.00    -0.237 OA
ATOM     83  O   UNL A   1      39.288  36.201  38.311  1.00  0.00    -0.237 OA
ATOM     84  O   UNL A   1      41.425  35.496  37.305  1.00  0.00    -0.744 OA
ENDBRANCH  77  81
ENDBRANCH  50  74
BRANCH  62  85
ATOM     85  C   UNL A   1      44.688  27.925  34.354  1.00  0.00     0.023 A 
ATOM     86  C   UNL A   1      44.679  26.808  35.209  1.00  0.00     0.031 A 
ATOM     87  C   UNL A   1      45.852  28.715  34.318  1.00  0.00     0.131 A 
ATOM     88  C   UNL A   1      45.785  26.548  36.034  1.00  0.00     0.055 A 
ATOM     89  C   UNL A   1      46.974  28.412  35.091  1.00  0.00     0.041 A 
ATOM     90  F   UNL A   1      45.920  29.797  33.525  1.00  0.00    -0.206 F 
ATOM     91  C   UNL A   1      46.940  27.332  35.967  1.00  0.00     0.022 A 
BRANCH  88  92
ATOM     92  S   UNL A   1      45.660  25.230  37.276  1.00  0.00     0.124 S 
ATOM     93  O   UNL A   1      46.703  24.306  36.843  1.00  0.00    -0.237 OA
ATOM     94  O   UNL A   1      45.918  25.947  38.520  1.00  0.00    -0.237 OA
ATOM     95  O   UNL A   1      44.292  24.738  37.117  1.00  0.00    -0.744 OA
ENDBRANCH  88  92
ENDBRANCH  62  85
ENDBRANCH  36  37
ENDBRANCH  29  31
ENDBRANCH  28  29
ENDBRANCH   1  28
TORSDOF 19
ENDMDL
MODEL 3
REMARK VINA RESULT:     -11.2      0.692      7.367
REMARK SMILES CCCc1cc(OC(F)(F)F)cc2c1O[C@@H](C(F)(F)F)C(C(=O)OCCOC(=O)c1ccc(-c3c4nc(c(-c5cc(S(=O)(=O)[O-])ccc5F)c5ccc([nH]5)c(-c5cc(S(=O)(=O)[O-])ccc5F)c5nc(c(-c6cc(S(=O)(=O)[O-])ccc6F)c6ccc3[nH]6)C=C5)C=C4)cc1)=C2
REMARK SMILES IDX 26 1 25 2 24 3 22 4 23 5 21 6 4 7 5 8 14 9 6 10 13 11 15 12
REMARK SMILES IDX 12 13 93 14 16 15 3 16 2 17 1 18 7 19 8 20 9 21 10 22 11 23
REMARK SMILES IDX 17 24 18 25 19 26 20 27 27 28 28 29 29 30 30 31 31 32 92 33
REMARK SMILES IDX 32 34 91 35 33 36 34 37 35 38 85 39 36 40 90 41 84 42 86 43
REMARK SMILES IDX 37 44 89 45 83 46 82 47 38 49 70 50 50 51 69 52 51 53 54 54
REMARK SMILES IDX 68 55 87 56 52 57 53 58 67 60 88 61 55 62 39 63 40 64 48 65
REMARK SMILES IDX 41 66 47 67 49 68 46 69 42 70 43 71 44 72 45 73 71 74 72 75
REMARK SMILES IDX 80 76 73 77 79 78 81 79 78 80 74 81 75 82 76 83 77 84 56 85
REMARK SMILES IDX 57 86 65 87 58 88 64 89 66 90 63 91 59 92 60 93 61 94 62 95
REMARK H PARENT 86 48 54 59
REMARK Flexibility Score: inf
ROOT
ATOM      1  C   UNL A   1      37.238  20.273  24.993  1.00  0.00     0.275 C 
ENDROOT
BRANCH   1   2
ATOM      2  C   UNL A   1      35.750  20.640  25.004  1.00  0.00     0.275 C 
BRANCH   2   3
ATOM      3  O   UNL A   1      35.544  22.053  25.219  1.00  0.00    -0.459 OA
BRANCH   3   4
ATOM      4  C   UNL A   1      34.483  22.377  26.005  1.00  0.00     0.338 C 
ATOM      5  O   UNL A   1      34.128  21.765  26.991  1.00  0.00    -0.246 OA
BRANCH   4   6
ATOM      6  C   UNL A   1      33.808  23.609  25.537  1.00  0.00     0.087 C 
ATOM      7  C   UNL A   1      31.684  26.898  24.101  1.00  0.00    -0.002 A 
ATOM      8  C   UNL A   1      31.980  28.181  24.596  1.00  0.00     0.054 A 
ATOM      9  C   UNL A   1      32.518  25.841  24.481  1.00  0.00     0.131 A 
ATOM     10  C   UNL A   1      33.043  28.384  25.481  1.00  0.00     0.130 A 
ATOM     11  C   UNL A   1      33.510  26.002  25.457  1.00  0.00     0.021 A 
ATOM     12  O   UNL A   1      32.413  24.659  23.804  1.00  0.00    -0.475 OA
ATOM     13  C   UNL A   1      33.770  27.283  25.949  1.00  0.00     0.058 A 
ATOM     14  C   UNL A   1      34.249  24.822  25.921  1.00  0.00     0.027 C 
ATOM     15  C   UNL A   1      32.604  23.475  24.621  1.00  0.00     0.316 C 
BRANCH   7  16
ATOM     16  C   UNL A   1      30.498  26.735  23.168  1.00  0.00     0.039 C 
BRANCH  16  17
ATOM     17  C   UNL A   1      29.226  27.545  23.469  1.00  0.00     0.001 C 
ATOM     18  C   UNL A   1      28.025  26.704  23.878  1.00  0.00     0.004 C 
ENDBRANCH  16  17
ENDBRANCH   7  16
BRANCH  10  19
ATOM     19  O   UNL A   1      33.450  29.596  25.970  1.00  0.00    -0.406 OA
BRANCH  19  20
ATOM     20  C   UNL A   1      32.544  30.288  26.817  1.00  0.00     0.573 C 
ATOM     21  F   UNL A   1      33.183  31.158  27.628  1.00  0.00    -0.132 F 
ATOM     22  F   UNL A   1      31.609  30.943  26.097  1.00  0.00    -0.132 F 
ATOM     23  F   UNL A   1      31.910  29.384  27.600  1.00  0.00    -0.132 F 
ENDBRANCH  19  20
ENDBRANCH  10  19
BRANCH  15  24
ATOM     24  C   UNL A   1      32.507  22.254  23.686  1.00  0.00     0.430 C 
ATOM     25  F   UNL A   1      33.625  22.102  22.940  1.00  0.00    -0.167 F 
ATOM     26  F   UNL A   1      32.393  21.113  24.414  1.00  0.00    -0.167 F 
ATOM     27  F   UNL A   1      31.435  22.310  22.869  1.00  0.00    -0.167 F 
ENDBRANCH  15  24
ENDBRANCH   4   6
ENDBRANCH   3   4
ENDBRANCH   2   3
ENDBRANCH   1   2
BRANCH   1  28
ATOM     28  O   UNL A   1      38.074  21.408  25.284  1.00  0.00    -0.458 OA
BRANCH  28  29
ATOM     29  C   UNL A   1      39.109  21.150  26.121  1.00  0.00     0.338 C 
ATOM     30  O   UNL A   1      39.575  20.051  26.378  1.00  0.00    -0.246 OA
BRANCH  29  31
ATOM     31  C   UNL A   1      39.749  22.412  26.549  1.00  0.00     0.060 A 
ATOM     32  C   UNL A   1      39.265  23.587  25.969  1.00  0.00     0.016 A 
ATOM     33  C   UNL A   1      40.795  22.469  27.473  1.00  0.00     0.016 A 
ATOM     34  C   UNL A   1      39.752  24.828  26.371  1.00  0.00     0.010 A 
ATOM     35  C   UNL A   1      41.329  23.717  27.832  1.00  0.00     0.010 A 
ATOM     36  C   UNL A   1      40.796  24.904  27.298  1.00  0.00    -0.014 A 
BRANCH  36  37
ATOM     37  C   UNL A   1      41.384  26.232  27.611  1.00  0.00     0.031 A 
ATOM     38  C   UNL A   1      42.770  26.551  27.129  1.00  0.00     0.074 A 
ATOM     39  C   UNL A   1      40.664  27.166  28.258  1.00  0.00     0.049 A 
ATOM     40  N   UNL A   1      43.479  27.637  27.298  1.00  0.00    -0.248 NA
ATOM     41  C   UNL A   1      43.438  25.507  26.340  1.00  0.00     0.031 C 
ATOM     42  C   UNL A   1      39.276  27.012  28.692  1.00  0.00     0.029 A 
ATOM     43  N   UNL A   1      41.001  28.437  28.659  1.00  0.00    -0.354 N 
ATOM     44  C   UNL A   1      44.676  27.414  26.628  1.00  0.00     0.074 A 
ATOM     45  C   UNL A   1      44.603  26.077  26.074  1.00  0.00     0.031 C 
ATOM     46  C   UNL A   1      38.886  28.138  29.315  1.00  0.00     0.029 A 
ATOM     47  C   UNL A   1      40.005  29.079  29.361  1.00  0.00     0.049 A 
ATOM     48  H   UNL A   1      41.873  28.850  28.463  1.00  0.00     0.167 HD
ATOM     49  C   UNL A   1      45.736  28.249  26.488  1.00  0.00     0.034 A 
ATOM     50  C   UNL A   1      40.010  30.271  29.994  1.00  0.00     0.034 A 
ATOM     51  C   UNL A   1      45.812  29.564  27.080  1.00  0.00     0.049 A 
ATOM     52  C   UNL A   1      41.260  31.122  29.947  1.00  0.00     0.074 A 
ATOM     53  C   UNL A   1      46.849  30.478  27.017  1.00  0.00     0.029 A 
ATOM     54  N   UNL A   1      44.821  30.145  27.862  1.00  0.00    -0.354 N 
ATOM     55  N   UNL A   1      42.393  30.899  29.320  1.00  0.00    -0.248 NA
ATOM     56  C   UNL A   1      41.228  32.390  30.690  1.00  0.00     0.031 C 
ATOM     57  C   UNL A   1      46.523  31.570  27.828  1.00  0.00     0.029 A 
ATOM     58  C   UNL A   1      45.242  31.384  28.322  1.00  0.00     0.049 A 
ATOM     59  H   UNL A   1      43.948  29.737  28.061  1.00  0.00     0.167 HD
ATOM     60  C   UNL A   1      43.192  32.015  29.566  1.00  0.00     0.074 A 
ATOM     61  C   UNL A   1      42.406  32.915  30.384  1.00  0.00     0.031 C 
ATOM     62  C   UNL A   1      44.458  32.275  29.148  1.00  0.00     0.034 A 
BRANCH  49  63
ATOM     63  C   UNL A   1      46.929  27.724  25.726  1.00  0.00     0.023 A 
ATOM     64  C   UNL A   1      47.147  28.049  24.375  1.00  0.00     0.031 A 
ATOM     65  C   UNL A   1      47.841  26.856  26.350  1.00  0.00     0.131 A 
ATOM     66  C   UNL A   1      48.208  27.453  23.677  1.00  0.00     0.055 A 
ATOM     67  C   UNL A   1      48.942  26.332  25.672  1.00  0.00     0.041 A 
ATOM     68  F   UNL A   1      47.668  26.489  27.631  1.00  0.00    -0.206 F 
ATOM     69  C   UNL A   1      49.123  26.618  24.322  1.00  0.00     0.022 A 
BRANCH  66  70
ATOM     70  S   UNL A   1      48.288  27.664  21.876  1.00  0.00     0.124 S 
ATOM     71  O   UNL A   1      48.536  26.295  21.430  1.00  0.00    -0.237 OA
ATOM     72  O   UNL A   1      46.972  28.208  21.563  1.00  0.00    -0.237 OA
ATOM     73  O   UNL A   1      49.407  28.585  21.688  1.00  0.00    -0.744 OA
ENDBRANCH  66  70
ENDBRANCH  49  63
BRANCH  50  74
ATOM     74  C   UNL A   1      38.827  30.716  30.791  1.00  0.00     0.023 A 
ATOM     75  C   UNL A   1      37.832  31.535  30.230  1.00  0.00     0.031 A 
ATOM     76  C   UNL A   1      38.724  30.404  32.158  1.00  0.00     0.131 A 
ATOM     77  C   UNL A   1      36.812  32.056  31.044  1.00  0.00     0.055 A 
ATOM     78  C   UNL A   1      37.674  30.872  32.949  1.00  0.00     0.041 A 
ATOM     79  F   UNL A   1      39.654  29.639  32.753  1.00  0.00    -0.206 F 
ATOM     80  C   UNL A   1      36.717  31.717  32.395  1.00  0.00     0.022 A 
BRANCH  77  81
ATOM     81  S   UNL A   1      35.672  33.279  30.337  1.00  0.00     0.124 S 
ATOM     82  O   UNL A   1      34.418  32.535  30.317  1.00  0.00    -0.237 OA
ATOM     83  O   UNL A   1      35.757  34.369  31.303  1.00  0.00    -0.237 OA
ATOM     84  O   UNL A   1      36.250  33.564  29.025  1.00  0.00    -0.744 OA
ENDBRANCH  77  81
ENDBRANCH  50  74
BRANCH  62  85
ATOM     85  C   UNL A   1      45.052  33.614  29.524  1.00  0.00     0.023 A 
ATOM     86  C   UNL A   1      44.926  34.746  28.699  1.00  0.00     0.031 A 
ATOM     87  C   UNL A   1      45.765  33.757  30.730  1.00  0.00     0.131 A 
ATOM     88  C   UNL A   1      45.551  35.951  29.061  1.00  0.00     0.055 A 
ATOM     89  C   UNL A   1      46.326  34.975  31.116  1.00  0.00     0.041 A 
ATOM     90  F   UNL A   1      45.924  32.711  31.557  1.00  0.00    -0.206 F 
ATOM     91  C   UNL A   1      46.233  36.078  30.274  1.00  0.00     0.022 A 
BRANCH  88  92
ATOM     92  S   UNL A   1      45.547  37.328  27.878  1.00  0.00     0.124 S 
ATOM     93  O   UNL A   1      46.633  38.163  28.382  1.00  0.00    -0.237 OA
ATOM     94  O   UNL A   1      45.798  36.651  26.610  1.00  0.00    -0.237 OA
ATOM     95  O   UNL A   1      44.210  37.899  28.021  1.00  0.00    -0.744 OA
ENDBRANCH  88  92
ENDBRANCH  62  85
ENDBRANCH  36  37
ENDBRANCH  29  31
ENDBRANCH  28  29
ENDBRANCH   1  28
TORSDOF 19
ENDMDL
