MODEL 1
REMARK VINA RESULT:     -11.1      0.000      0.000
REMARK SMILES CC[C@@H]1SC[C@@H](C(=O)OCCOC(=O)c2ccc(-c3c4nc(c(-c5cc(S(=O)(=O)[O-])ccc5F)c5ccc([nH]5)c(-c5cc(S(=O)(=O)[O-])ccc5F)c5nc(c(-c6cc(S(=O)(=O)[O-])ccc6F)c6ccc3[nH]6)C=C5)C=C4)cc2)N1C(=O)NC1C(C)(C)C1(C)C
REMARK SMILES IDX 11 1 10 2 9 3 7 4 8 5 6 6 3 7 4 8 78 9 5 10 2 11 1 12 79 13
REMARK SMILES IDX 80 14 81 15 82 17 83 18 86 19 84 20 85 21 87 22 88 23 12 24
REMARK SMILES IDX 13 25 14 26 15 27 16 28 77 29 17 30 76 31 18 32 19 33 20 34
REMARK SMILES IDX 70 35 21 36 75 37 69 38 71 39 22 40 74 41 68 42 67 43 23 45
REMARK SMILES IDX 55 46 35 47 54 48 36 49 39 50 53 51 72 52 37 53 38 54 52 56
REMARK SMILES IDX 73 57 40 58 24 59 25 60 33 61 26 62 32 63 34 64 31 65 27 66
REMARK SMILES IDX 28 67 29 68 30 69 56 70 57 71 65 72 58 73 64 74 66 75 63 76
REMARK SMILES IDX 59 77 60 78 61 79 62 80 41 81 42 82 50 83 43 84 49 85 51 86
REMARK SMILES IDX 48 87 44 88 45 89 46 90 47 91
REMARK H PARENT 81 16 71 44 39 55
REMARK Flexibility Score: inf
ROOT
ATOM      1  C   UNL A   1      31.601  30.369  25.618  1.00  0.00     0.275 C 
ENDROOT
BRANCH   1   2
ATOM      2  C   UNL A   1      31.356  29.007  24.973  1.00  0.00     0.274 C 
BRANCH   2   3
ATOM      3  O   UNL A   1      31.904  28.957  23.641  1.00  0.00    -0.461 OA
BRANCH   3   4
ATOM      4  C   UNL A   1      32.960  28.109  23.485  1.00  0.00     0.329 C 
ATOM      5  O   UNL A   1      34.112  28.475  23.265  1.00  0.00    -0.250 OA
BRANCH   4   6
ATOM      6  C   UNL A   1      32.561  26.622  23.436  1.00  0.00     0.208 C 
ATOM      7  C   UNL A   1      31.083  25.108  24.730  1.00  0.00     0.145 C 
ATOM      8  S   UNL A   1      30.254  25.318  23.117  1.00  0.00    -0.134 SA
ATOM      9  N   UNL A   1      32.303  25.923  24.711  1.00  0.00    -0.298 N 
ATOM     10  C   UNL A   1      31.312  26.646  22.565  1.00  0.00     0.109 C 
BRANCH   7  11
ATOM     11  C   UNL A   1      31.271  23.612  25.088  1.00  0.00     0.033 C 
ATOM     12  C   UNL A   1      31.112  23.138  26.529  1.00  0.00     0.007 C 
ENDBRANCH   7  11
BRANCH   9  13
ATOM     13  C   UNL A   1      33.350  25.905  25.596  1.00  0.00     0.319 C 
ATOM     14  O   UNL A   1      33.328  26.614  26.606  1.00  0.00    -0.249 OA
ATOM     15  N   UNL A   1      34.429  25.100  25.458  1.00  0.00    -0.334 N 
ATOM     16  H   UNL A   1      35.155  25.303  26.092  1.00  0.00     0.165 HD
BRANCH  15  17
ATOM     17  C   UNL A   1      34.725  24.023  24.582  1.00  0.00     0.096 C 
ATOM     18  C   UNL A   1      36.075  23.325  24.519  1.00  0.00    -0.007 C 
ATOM     19  C   UNL A   1      34.843  22.591  25.069  1.00  0.00    -0.007 C 
ATOM     20  C   UNL A   1      36.592  22.951  23.142  1.00  0.00     0.014 C 
ATOM     21  C   UNL A   1      37.195  23.722  25.454  1.00  0.00     0.014 C 
ATOM     22  C   UNL A   1      34.764  22.304  26.553  1.00  0.00     0.014 C 
ATOM     23  C   UNL A   1      34.186  21.515  24.236  1.00  0.00     0.014 C 
ENDBRANCH  15  17
ENDBRANCH   9  13
ENDBRANCH   4   6
ENDBRANCH   3   4
ENDBRANCH   2   3
ENDBRANCH   1   2
BRANCH   1  24
ATOM     24  O   UNL A   1      32.985  30.482  25.980  1.00  0.00    -0.458 OA
BRANCH  24  25
ATOM     25  C   UNL A   1      33.257  31.366  26.966  1.00  0.00     0.338 C 
ATOM     26  O   UNL A   1      32.602  32.358  27.263  1.00  0.00    -0.246 OA
BRANCH  25  27
ATOM     27  C   UNL A   1      34.551  31.022  27.582  1.00  0.00     0.060 A 
ATOM     28  C   UNL A   1      34.860  29.703  27.930  1.00  0.00     0.016 A 
ATOM     29  C   UNL A   1      35.448  32.048  27.873  1.00  0.00     0.016 A 
ATOM     30  C   UNL A   1      36.035  29.415  28.622  1.00  0.00     0.010 A 
ATOM     31  C   UNL A   1      36.656  31.750  28.505  1.00  0.00     0.010 A 
ATOM     32  C   UNL A   1      36.947  30.436  28.915  1.00  0.00    -0.014 A 
BRANCH  32  33
ATOM     33  C   UNL A   1      38.166  30.160  29.719  1.00  0.00     0.031 A 
ATOM     34  C   UNL A   1      39.198  29.203  29.187  1.00  0.00     0.074 A 
ATOM     35  C   UNL A   1      38.343  30.748  30.917  1.00  0.00     0.049 A 
ATOM     36  N   UNL A   1      40.240  28.686  29.785  1.00  0.00    -0.248 NA
ATOM     37  C   UNL A   1      39.017  28.757  27.798  1.00  0.00     0.031 C 
ATOM     38  C   UNL A   1      37.435  31.724  31.522  1.00  0.00     0.029 A 
ATOM     39  N   UNL A   1      39.341  30.600  31.847  1.00  0.00    -0.354 N 
ATOM     40  C   UNL A   1      40.821  27.826  28.860  1.00  0.00     0.074 A 
ATOM     41  C   UNL A   1      39.992  27.869  27.673  1.00  0.00     0.031 C 
ATOM     42  C   UNL A   1      37.918  32.089  32.720  1.00  0.00     0.029 A 
ATOM     43  C   UNL A   1      39.131  31.324  32.997  1.00  0.00     0.049 A 
ATOM     44  H   UNL A   1      40.131  30.029  31.705  1.00  0.00     0.167 HD
ATOM     45  C   UNL A   1      41.944  27.077  28.987  1.00  0.00     0.034 A 
ATOM     46  C   UNL A   1      39.813  31.339  34.160  1.00  0.00     0.034 A 
ATOM     47  C   UNL A   1      42.765  27.059  30.176  1.00  0.00     0.049 A 
ATOM     48  C   UNL A   1      41.028  30.459  34.303  1.00  0.00     0.074 A 
ATOM     49  C   UNL A   1      43.924  26.343  30.417  1.00  0.00     0.029 A 
ATOM     50  N   UNL A   1      42.509  27.795  31.327  1.00  0.00    -0.354 N 
ATOM     51  N   UNL A   1      41.546  29.619  33.436  1.00  0.00    -0.248 NA
ATOM     52  C   UNL A   1      41.748  30.529  35.581  1.00  0.00     0.031 C 
ATOM     53  C   UNL A   1      44.336  26.600  31.729  1.00  0.00     0.029 A 
ATOM     54  C   UNL A   1      43.476  27.533  32.287  1.00  0.00     0.049 A 
ATOM     55  H   UNL A   1      41.752  28.413  31.445  1.00  0.00     0.167 HD
ATOM     56  C   UNL A   1      42.665  29.074  34.059  1.00  0.00     0.074 A 
ATOM     57  C   UNL A   1      42.755  29.694  35.366  1.00  0.00     0.031 C 
ATOM     58  C   UNL A   1      43.541  28.147  33.593  1.00  0.00     0.034 A 
BRANCH  45  59
ATOM     59  C   UNL A   1      42.310  26.178  27.828  1.00  0.00     0.023 A 
ATOM     60  C   UNL A   1      41.751  24.897  27.674  1.00  0.00     0.031 A 
ATOM     61  C   UNL A   1      43.273  26.590  26.889  1.00  0.00     0.131 A 
ATOM     62  C   UNL A   1      42.219  24.045  26.662  1.00  0.00     0.055 A 
ATOM     63  C   UNL A   1      43.673  25.768  25.834  1.00  0.00     0.041 A 
ATOM     64  F   UNL A   1      43.859  27.794  26.994  1.00  0.00    -0.206 F 
ATOM     65  C   UNL A   1      43.159  24.481  25.725  1.00  0.00     0.022 A 
BRANCH  62  66
ATOM     66  S   UNL A   1      41.695  22.307  26.678  1.00  0.00     0.124 S 
ATOM     67  O   UNL A   1      42.295  21.805  25.445  1.00  0.00    -0.237 OA
ATOM     68  O   UNL A   1      42.278  21.813  27.920  1.00  0.00    -0.237 OA
ATOM     69  O   UNL A   1      40.235  22.388  26.662  1.00  0.00    -0.744 OA
ENDBRANCH  62  66
ENDBRANCH  45  59
BRANCH  46  70
ATOM     70  C   UNL A   1      39.329  32.170  35.298  1.00  0.00     0.023 A 
ATOM     71  C   UNL A   1      39.836  33.458  35.528  1.00  0.00     0.031 A 
ATOM     72  C   UNL A   1      38.362  31.673  36.190  1.00  0.00     0.131 A 
ATOM     73  C   UNL A   1      39.395  34.194  36.639  1.00  0.00     0.055 A 
ATOM     74  C   UNL A   1      37.890  32.428  37.265  1.00  0.00     0.041 A 
ATOM     75  F   UNL A   1      37.844  30.446  36.015  1.00  0.00    -0.206 F 
ATOM     76  C   UNL A   1      38.416  33.694  37.500  1.00  0.00     0.022 A 
BRANCH  73  77
ATOM     77  S   UNL A   1      40.168  35.799  36.982  1.00  0.00     0.124 S 
ATOM     78  O   UNL A   1      39.689  36.605  35.867  1.00  0.00    -0.237 OA
ATOM     79  O   UNL A   1      39.620  36.126  38.294  1.00  0.00    -0.237 OA
ATOM     80  O   UNL A   1      41.598  35.498  36.967  1.00  0.00    -0.744 OA
ENDBRANCH  73  77
ENDBRANCH  46  70
BRANCH  58  81
ATOM     81  C   UNL A   1      44.694  27.785  34.497  1.00  0.00     0.023 A 
ATOM     82  C   UNL A   1      44.611  26.721  35.412  1.00  0.00     0.031 A 
ATOM     83  C   UNL A   1      45.887  28.527  34.449  1.00  0.00     0.131 A 
ATOM     84  C   UNL A   1      45.682  26.463  36.281  1.00  0.00     0.055 A 
ATOM     85  C   UNL A   1      46.970  28.230  35.278  1.00  0.00     0.041 A 
ATOM     86  F   UNL A   1      46.018  29.555  33.596  1.00  0.00    -0.206 F 
ATOM     87  C   UNL A   1      46.867  27.200  36.209  1.00  0.00     0.022 A 
BRANCH  84  88
ATOM     88  S   UNL A   1      45.478  25.201  37.569  1.00  0.00     0.124 S 
ATOM     89  O   UNL A   1      44.037  24.971  37.542  1.00  0.00    -0.237 OA
ATOM     90  O   UNL A   1      46.307  24.108  37.072  1.00  0.00    -0.237 OA
ATOM     91  O   UNL A   1      45.978  25.858  38.775  1.00  0.00    -0.744 OA
ENDBRANCH  84  88
ENDBRANCH  58  81
ENDBRANCH  32  33
ENDBRANCH  25  27
ENDBRANCH  24  25
ENDBRANCH   1  24
TORSDOF 17
ENDMDL
MODEL 2
REMARK VINA RESULT:     -10.9      2.447      3.385
REMARK SMILES CC[C@@H]1SC[C@@H](C(=O)OCCOC(=O)c2ccc(-c3c4nc(c(-c5cc(S(=O)(=O)[O-])ccc5F)c5ccc([nH]5)c(-c5cc(S(=O)(=O)[O-])ccc5F)c5nc(c(-c6cc(S(=O)(=O)[O-])ccc6F)c6ccc3[nH]6)C=C5)C=C4)cc2)N1C(=O)NC1C(C)(C)C1(C)C
REMARK SMILES IDX 11 1 10 2 9 3 7 4 8 5 6 6 3 7 4 8 78 9 5 10 2 11 1 12 79 13
REMARK SMILES IDX 80 14 81 15 82 17 83 18 86 19 84 20 85 21 87 22 88 23 12 24
REMARK SMILES IDX 13 25 14 26 15 27 16 28 77 29 17 30 76 31 18 32 19 33 20 34
REMARK SMILES IDX 70 35 21 36 75 37 69 38 71 39 22 40 74 41 68 42 67 43 23 45
REMARK SMILES IDX 55 46 35 47 54 48 36 49 39 50 53 51 72 52 37 53 38 54 52 56
REMARK SMILES IDX 73 57 40 58 24 59 25 60 33 61 26 62 32 63 34 64 31 65 27 66
REMARK SMILES IDX 28 67 29 68 30 69 56 70 57 71 65 72 58 73 64 74 66 75 63 76
REMARK SMILES IDX 59 77 60 78 61 79 62 80 41 81 42 82 50 83 43 84 49 85 51 86
REMARK SMILES IDX 48 87 44 88 45 89 46 90 47 91
REMARK H PARENT 81 16 71 44 39 55
REMARK Flexibility Score: inf
ROOT
ATOM      1  C   UNL A   1      32.609  32.255  27.607  1.00  0.00     0.275 C 
ENDROOT
BRANCH   1   2
ATOM      2  C   UNL A   1      33.624  31.149  27.334  1.00  0.00     0.274 C 
BRANCH   2   3
ATOM      3  O   UNL A   1      33.244  30.369  26.183  1.00  0.00    -0.461 OA
BRANCH   3   4
ATOM      4  C   UNL A   1      33.710  29.087  26.178  1.00  0.00     0.329 C 
ATOM      5  O   UNL A   1      34.686  28.706  26.822  1.00  0.00    -0.250 OA
BRANCH   4   6
ATOM      6  C   UNL A   1      33.012  28.175  25.152  1.00  0.00     0.208 C 
ATOM      7  C   UNL A   1      30.699  27.828  24.330  1.00  0.00     0.145 C 
ATOM      8  S   UNL A   1      31.586  28.607  22.937  1.00  0.00    -0.134 SA
ATOM      9  N   UNL A   1      31.643  27.710  25.447  1.00  0.00    -0.298 N 
ATOM     10  C   UNL A   1      33.040  29.023  23.887  1.00  0.00     0.109 C 
BRANCH   7  11
ATOM     11  C   UNL A   1      29.989  26.520  23.897  1.00  0.00     0.033 C 
ATOM     12  C   UNL A   1      28.467  26.427  23.912  1.00  0.00     0.007 C 
ENDBRANCH   7  11
BRANCH   9  13
ATOM     13  C   UNL A   1      31.500  26.991  26.605  1.00  0.00     0.319 C 
ATOM     14  O   UNL A   1      30.970  27.501  27.597  1.00  0.00    -0.249 OA
ATOM     15  N   UNL A   1      31.875  25.697  26.731  1.00  0.00    -0.334 N 
ATOM     16  H   UNL A   1      31.839  25.365  27.658  1.00  0.00     0.165 HD
BRANCH  15  17
ATOM     17  C   UNL A   1      32.310  24.722  25.795  1.00  0.00     0.096 C 
ATOM     18  C   UNL A   1      32.950  23.398  26.183  1.00  0.00    -0.007 C 
ATOM     19  C   UNL A   1      31.548  23.432  25.556  1.00  0.00    -0.007 C 
ATOM     20  C   UNL A   1      34.116  22.924  25.334  1.00  0.00     0.014 C 
ATOM     21  C   UNL A   1      33.116  23.016  27.635  1.00  0.00     0.014 C 
ATOM     22  C   UNL A   1      30.351  23.106  26.422  1.00  0.00     0.014 C 
ATOM     23  C   UNL A   1      31.363  22.987  24.123  1.00  0.00     0.014 C 
ENDBRANCH  15  17
ENDBRANCH   9  13
ENDBRANCH   4   6
ENDBRANCH   3   4
ENDBRANCH   2   3
ENDBRANCH   1   2
BRANCH   1  24
ATOM     24  O   UNL A   1      33.249  33.532  27.481  1.00  0.00    -0.458 OA
BRANCH  24  25
ATOM     25  C   UNL A   1      33.296  34.274  28.610  1.00  0.00     0.338 C 
ATOM     26  O   UNL A   1      32.525  35.171  28.930  1.00  0.00    -0.246 OA
BRANCH  25  27
ATOM     27  C   UNL A   1      34.504  33.917  29.375  1.00  0.00     0.060 A 
ATOM     28  C   UNL A   1      35.774  34.324  28.954  1.00  0.00     0.016 A 
ATOM     29  C   UNL A   1      34.369  33.107  30.501  1.00  0.00     0.016 A 
ATOM     30  C   UNL A   1      36.913  33.875  29.621  1.00  0.00     0.010 A 
ATOM     31  C   UNL A   1      35.505  32.714  31.209  1.00  0.00     0.010 A 
ATOM     32  C   UNL A   1      36.790  33.066  30.757  1.00  0.00    -0.014 A 
BRANCH  32  33
ATOM     33  C   UNL A   1      37.994  32.516  31.432  1.00  0.00     0.031 A 
ATOM     34  C   UNL A   1      38.732  31.367  30.803  1.00  0.00     0.074 A 
ATOM     35  C   UNL A   1      38.416  33.031  32.603  1.00  0.00     0.049 A 
ATOM     36  N   UNL A   1      39.691  30.624  31.293  1.00  0.00    -0.248 NA
ATOM     37  C   UNL A   1      38.318  30.995  29.442  1.00  0.00     0.031 C 
ATOM     38  C   UNL A   1      37.810  34.171  33.293  1.00  0.00     0.029 A 
ATOM     39  N   UNL A   1      39.446  32.652  33.426  1.00  0.00    -0.354 N 
ATOM     40  C   UNL A   1      39.972  29.675  30.317  1.00  0.00     0.074 A 
ATOM     41  C   UNL A   1      39.057  29.918  29.222  1.00  0.00     0.031 C 
ATOM     42  C   UNL A   1      38.481  34.400  34.433  1.00  0.00     0.029 A 
ATOM     43  C   UNL A   1      39.519  33.384  34.588  1.00  0.00     0.049 A 
ATOM     44  H   UNL A   1      40.074  31.925  33.207  1.00  0.00     0.167 HD
ATOM     45  C   UNL A   1      40.911  28.696  30.332  1.00  0.00     0.034 A 
ATOM     46  C   UNL A   1      40.301  33.230  35.675  1.00  0.00     0.034 A 
ATOM     47  C   UNL A   1      41.824  28.479  31.430  1.00  0.00     0.049 A 
ATOM     48  C   UNL A   1      41.302  32.103  35.697  1.00  0.00     0.074 A 
ATOM     49  C   UNL A   1      42.817  27.523  31.555  1.00  0.00     0.029 A 
ATOM     50  N   UNL A   1      41.854  29.232  32.598  1.00  0.00    -0.354 N 
ATOM     51  N   UNL A   1      41.533  31.186  34.785  1.00  0.00    -0.248 NA
ATOM     52  C   UNL A   1      42.146  31.992  36.893  1.00  0.00     0.031 C 
ATOM     53  C   UNL A   1      43.406  27.661  32.816  1.00  0.00     0.029 A 
ATOM     54  C   UNL A   1      42.833  28.749  33.454  1.00  0.00     0.049 A 
ATOM     55  H   UNL A   1      41.266  29.999  32.790  1.00  0.00     0.167 HD
ATOM     56  C   UNL A   1      42.563  30.399  35.293  1.00  0.00     0.074 A 
ATOM     57  C   UNL A   1      42.918  30.961  36.580  1.00  0.00     0.031 C 
ATOM     58  C   UNL A   1      43.163  29.311  34.744  1.00  0.00     0.034 A 
BRANCH  45  59
ATOM     59  C   UNL A   1      40.952  27.760  29.146  1.00  0.00     0.023 A 
ATOM     60  C   UNL A   1      41.866  27.932  28.092  1.00  0.00     0.031 A 
ATOM     61  C   UNL A   1      40.023  26.708  29.043  1.00  0.00     0.131 A 
ATOM     62  C   UNL A   1      41.780  27.123  26.949  1.00  0.00     0.055 A 
ATOM     63  C   UNL A   1      39.997  25.853  27.938  1.00  0.00     0.041 A 
ATOM     64  F   UNL A   1      39.110  26.505  30.006  1.00  0.00    -0.206 F 
ATOM     65  C   UNL A   1      40.867  26.069  26.875  1.00  0.00     0.022 A 
BRANCH  62  66
ATOM     66  S   UNL A   1      42.773  27.565  25.495  1.00  0.00     0.124 S 
ATOM     67  O   UNL A   1      44.080  27.819  26.095  1.00  0.00    -0.237 OA
ATOM     68  O   UNL A   1      42.671  26.369  24.667  1.00  0.00    -0.237 OA
ATOM     69  O   UNL A   1      42.099  28.750  24.966  1.00  0.00    -0.744 OA
ENDBRANCH  62  66
ENDBRANCH  45  59
BRANCH  46  70
ATOM     70  C   UNL A   1      40.129  34.127  36.852  1.00  0.00     0.023 A 
ATOM     71  C   UNL A   1      39.492  33.682  38.020  1.00  0.00     0.031 A 
ATOM     72  C   UNL A   1      40.586  35.457  36.814  1.00  0.00     0.131 A 
ATOM     73  C   UNL A   1      39.302  34.569  39.092  1.00  0.00     0.055 A 
ATOM     74  C   UNL A   1      40.439  36.320  37.900  1.00  0.00     0.041 A 
ATOM     75  F   UNL A   1      41.203  35.932  35.719  1.00  0.00    -0.206 F 
ATOM     76  C   UNL A   1      39.784  35.880  39.046  1.00  0.00     0.022 A 
BRANCH  73  77
ATOM     77  S   UNL A   1      38.357  34.003  40.533  1.00  0.00     0.124 S 
ATOM     78  O   UNL A   1      37.259  33.281  39.903  1.00  0.00    -0.237 OA
ATOM     79  O   UNL A   1      39.340  33.188  41.240  1.00  0.00    -0.237 OA
ATOM     80  O   UNL A   1      37.984  35.245  41.205  1.00  0.00    -0.744 OA
ENDBRANCH  73  77
ENDBRANCH  46  70
BRANCH  58  81
ATOM     81  C   UNL A   1      44.293  28.690  35.526  1.00  0.00     0.023 A 
ATOM     82  C   UNL A   1      44.074  27.647  36.443  1.00  0.00     0.031 A 
ATOM     83  C   UNL A   1      45.608  29.162  35.361  1.00  0.00     0.131 A 
ATOM     84  C   UNL A   1      45.145  27.146  37.199  1.00  0.00     0.055 A 
ATOM     85  C   UNL A   1      46.678  28.621  36.075  1.00  0.00     0.041 A 
ATOM     86  F   UNL A   1      45.872  30.158  34.500  1.00  0.00    -0.206 F 
ATOM     87  C   UNL A   1      46.448  27.615  37.009  1.00  0.00     0.022 A 
BRANCH  84  88
ATOM     88  S   UNL A   1      44.802  25.926  38.498  1.00  0.00     0.124 S 
ATOM     89  O   UNL A   1      46.143  25.609  38.978  1.00  0.00    -0.237 OA
ATOM     90  O   UNL A   1      43.957  26.679  39.419  1.00  0.00    -0.237 OA
ATOM     91  O   UNL A   1      44.128  24.844  37.783  1.00  0.00    -0.744 OA
ENDBRANCH  84  88
ENDBRANCH  58  81
ENDBRANCH  32  33
ENDBRANCH  25  27
ENDBRANCH  24  25
ENDBRANCH   1  24
TORSDOF 17
ENDMDL
MODEL 3
REMARK VINA RESULT:     -10.9      1.605      1.873
REMARK SMILES CC[C@@H]1SC[C@@H](C(=O)OCCOC(=O)c2ccc(-c3c4nc(c(-c5cc(S(=O)(=O)[O-])ccc5F)c5ccc([nH]5)c(-c5cc(S(=O)(=O)[O-])ccc5F)c5nc(c(-c6cc(S(=O)(=O)[O-])ccc6F)c6ccc3[nH]6)C=C5)C=C4)cc2)N1C(=O)NC1C(C)(C)C1(C)C
REMARK SMILES IDX 11 1 10 2 9 3 7 4 8 5 6 6 3 7 4 8 78 9 5 10 2 11 1 12 79 13
REMARK SMILES IDX 80 14 81 15 82 17 83 18 86 19 84 20 85 21 87 22 88 23 12 24
REMARK SMILES IDX 13 25 14 26 15 27 16 28 77 29 17 30 76 31 18 32 19 33 20 34
REMARK SMILES IDX 70 35 21 36 75 37 69 38 71 39 22 40 74 41 68 42 67 43 23 45
REMARK SMILES IDX 55 46 35 47 54 48 36 49 39 50 53 51 72 52 37 53 38 54 52 56
REMARK SMILES IDX 73 57 40 58 24 59 25 60 33 61 26 62 32 63 34 64 31 65 27 66
REMARK SMILES IDX 28 67 29 68 30 69 56 70 57 71 65 72 58 73 64 74 66 75 63 76
REMARK SMILES IDX 59 77 60 78 61 79 62 80 41 81 42 82 50 83 43 84 49 85 51 86
REMARK SMILES IDX 48 87 44 88 45 89 46 90 47 91
REMARK H PARENT 81 16 71 44 39 55
REMARK Flexibility Score: inf
ROOT
ATOM      1  C   UNL A   1      31.674  30.111  24.991  1.00  0.00     0.275 C 
ENDROOT
BRANCH   1   2
ATOM      2  C   UNL A   1      31.259  28.723  24.511  1.00  0.00     0.274 C 
BRANCH   2   3
ATOM      3  O   UNL A   1      31.797  28.444  23.204  1.00  0.00    -0.461 OA
BRANCH   3   4
ATOM      4  C   UNL A   1      32.884  27.621  23.192  1.00  0.00     0.329 C 
ATOM      5  O   UNL A   1      34.031  27.998  22.963  1.00  0.00    -0.250 OA
BRANCH   4   6
ATOM      6  C   UNL A   1      32.534  26.127  23.322  1.00  0.00     0.208 C 
ATOM      7  C   UNL A   1      31.077  24.736  24.768  1.00  0.00     0.145 C 
ATOM      8  S   UNL A   1      30.278  24.714  23.126  1.00  0.00    -0.134 SA
ATOM      9  N   UNL A   1      32.270  25.583  24.669  1.00  0.00    -0.298 N 
ATOM     10  C   UNL A   1      31.305  25.998  22.432  1.00  0.00     0.109 C 
BRANCH   7  11
ATOM     11  C   UNL A   1      31.304  23.303  25.314  1.00  0.00     0.033 C 
ATOM     12  C   UNL A   1      31.166  23.015  26.805  1.00  0.00     0.007 C 
ENDBRANCH   7  11
BRANCH   9  13
ATOM     13  C   UNL A   1      33.296  25.712  25.569  1.00  0.00     0.319 C 
ATOM     14  O   UNL A   1      33.210  26.510  26.507  1.00  0.00    -0.249 OA
ATOM     15  N   UNL A   1      34.424  24.966  25.525  1.00  0.00    -0.334 N 
ATOM     16  H   UNL A   1      35.122  25.271  26.149  1.00  0.00     0.165 HD
BRANCH  15  17
ATOM     17  C   UNL A   1      34.803  23.832  24.759  1.00  0.00     0.096 C 
ATOM     18  C   UNL A   1      36.181  23.191  24.814  1.00  0.00    -0.007 C 
ATOM     19  C   UNL A   1      34.956  22.453  25.374  1.00  0.00    -0.007 C 
ATOM     20  C   UNL A   1      36.775  22.723  23.498  1.00  0.00     0.014 C 
ATOM     21  C   UNL A   1      37.240  23.715  25.757  1.00  0.00     0.014 C 
ATOM     22  C   UNL A   1      34.821  22.291  26.872  1.00  0.00     0.014 C 
ATOM     23  C   UNL A   1      34.380  21.282  24.611  1.00  0.00     0.014 C 
ENDBRANCH  15  17
ENDBRANCH   9  13
ENDBRANCH   4   6
ENDBRANCH   3   4
ENDBRANCH   2   3
ENDBRANCH   1   2
BRANCH   1  24
ATOM     24  O   UNL A   1      32.646  29.982  26.038  1.00  0.00    -0.458 OA
BRANCH  24  25
ATOM     25  C   UNL A   1      32.774  31.057  26.849  1.00  0.00     0.338 C 
ATOM     26  O   UNL A   1      32.114  32.089  26.807  1.00  0.00    -0.246 OA
BRANCH  25  27
ATOM     27  C   UNL A   1      33.925  30.853  27.746  1.00  0.00     0.060 A 
ATOM     28  C   UNL A   1      34.583  31.937  28.337  1.00  0.00     0.016 A 
ATOM     29  C   UNL A   1      34.394  29.557  27.951  1.00  0.00     0.016 A 
ATOM     30  C   UNL A   1      35.743  31.733  29.083  1.00  0.00     0.010 A 
ATOM     31  C   UNL A   1      35.515  29.347  28.755  1.00  0.00     0.010 A 
ATOM     32  C   UNL A   1      36.220  30.435  29.301  1.00  0.00    -0.014 A 
BRANCH  32  33
ATOM     33  C   UNL A   1      37.496  30.206  30.028  1.00  0.00     0.031 A 
ATOM     34  C   UNL A   1      38.572  29.376  29.384  1.00  0.00     0.074 A 
ATOM     35  C   UNL A   1      37.686  30.724  31.256  1.00  0.00     0.049 A 
ATOM     36  N   UNL A   1      39.681  28.906  29.896  1.00  0.00    -0.248 NA
ATOM     37  C   UNL A   1      38.358  29.010  27.976  1.00  0.00     0.031 C 
ATOM     38  C   UNL A   1      36.736  31.579  31.969  1.00  0.00     0.029 A 
ATOM     39  N   UNL A   1      38.738  30.595  32.127  1.00  0.00    -0.354 N 
ATOM     40  C   UNL A   1      40.280  28.162  28.886  1.00  0.00     0.074 A 
ATOM     41  C   UNL A   1      39.392  28.217  27.743  1.00  0.00     0.031 C 
ATOM     42  C   UNL A   1      37.248  31.900  33.167  1.00  0.00     0.029 A 
ATOM     43  C   UNL A   1      38.530  31.221  33.334  1.00  0.00     0.049 A 
ATOM     44  H   UNL A   1      39.562  30.103  31.909  1.00  0.00     0.167 HD
ATOM     45  C   UNL A   1      41.464  27.500  28.909  1.00  0.00     0.034 A 
ATOM     46  C   UNL A   1      39.266  31.213  34.464  1.00  0.00     0.034 A 
ATOM     47  C   UNL A   1      42.342  27.470  30.055  1.00  0.00     0.049 A 
ATOM     48  C   UNL A   1      40.552  30.428  34.489  1.00  0.00     0.074 A 
ATOM     49  C   UNL A   1      43.565  26.837  30.193  1.00  0.00     0.029 A 
ATOM     50  N   UNL A   1      42.088  28.103  31.267  1.00  0.00    -0.354 N 
ATOM     51  N   UNL A   1      41.091  29.695  33.542  1.00  0.00    -0.248 NA
ATOM     52  C   UNL A   1      41.329  30.471  35.735  1.00  0.00     0.031 C 
ATOM     53  C   UNL A   1      44.022  27.038  31.500  1.00  0.00     0.029 A 
ATOM     54  C   UNL A   1      43.120  27.857  32.161  1.00  0.00     0.049 A 
ATOM     55  H   UNL A   1      41.291  28.647  31.463  1.00  0.00     0.167 HD
ATOM     56  C   UNL A   1      42.280  29.202  34.074  1.00  0.00     0.074 A 
ATOM     57  C   UNL A   1      42.386  29.738  35.416  1.00  0.00     0.031 C 
ATOM     58  C   UNL A   1      43.202  28.384  33.504  1.00  0.00     0.034 A 
BRANCH  45  59
ATOM     59  C   UNL A   1      41.841  26.716  27.673  1.00  0.00     0.023 A 
ATOM     60  C   UNL A   1      41.657  25.324  27.590  1.00  0.00     0.031 A 
ATOM     61  C   UNL A   1      42.442  27.364  26.579  1.00  0.00     0.131 A 
ATOM     62  C   UNL A   1      42.144  24.617  26.480  1.00  0.00     0.055 A 
ATOM     63  C   UNL A   1      42.850  26.665  25.441  1.00  0.00     0.041 A 
ATOM     64  F   UNL A   1      42.665  28.688  26.607  1.00  0.00    -0.206 F 
ATOM     65  C   UNL A   1      42.718  25.281  25.394  1.00  0.00     0.022 A 
BRANCH  62  66
ATOM     66  S   UNL A   1      42.158  22.803  26.543  1.00  0.00     0.124 S 
ATOM     67  O   UNL A   1      43.305  22.546  27.411  1.00  0.00    -0.237 OA
ATOM     68  O   UNL A   1      40.848  22.496  27.107  1.00  0.00    -0.237 OA
ATOM     69  O   UNL A   1      42.343  22.412  25.147  1.00  0.00    -0.744 OA
ENDBRANCH  62  66
ENDBRANCH  45  59
BRANCH  46  70
ATOM     70  C   UNL A   1      38.777  31.923  35.679  1.00  0.00     0.023 A 
ATOM     71  C   UNL A   1      38.150  31.230  36.726  1.00  0.00     0.031 A 
ATOM     72  C   UNL A   1      38.911  33.318  35.798  1.00  0.00     0.131 A 
ATOM     73  C   UNL A   1      37.655  31.937  37.834  1.00  0.00     0.055 A 
ATOM     74  C   UNL A   1      38.462  34.010  36.924  1.00  0.00     0.041 A 
ATOM     75  F   UNL A   1      39.504  34.029  34.824  1.00  0.00    -0.206 F 
ATOM     76  C   UNL A   1      37.820  33.319  37.947  1.00  0.00     0.022 A 
BRANCH  73  77
ATOM     77  S   UNL A   1      36.733  31.028  39.104  1.00  0.00     0.124 S 
ATOM     78  O   UNL A   1      37.659  31.068  40.230  1.00  0.00    -0.237 OA
ATOM     79  O   UNL A   1      35.525  31.834  39.237  1.00  0.00    -0.237 OA
ATOM     80  O   UNL A   1      36.536  29.710  38.505  1.00  0.00    -0.744 OA
ENDBRANCH  73  77
ENDBRANCH  46  70
BRANCH  58  81
ATOM     81  C   UNL A   1      44.423  28.058  34.327  1.00  0.00     0.023 A 
ATOM     82  C   UNL A   1      44.465  26.940  35.179  1.00  0.00     0.031 A 
ATOM     83  C   UNL A   1      45.556  28.888  34.267  1.00  0.00     0.131 A 
ATOM     84  C   UNL A   1      45.596  26.713  35.977  1.00  0.00     0.055 A 
ATOM     85  C   UNL A   1      46.700  28.626  35.022  1.00  0.00     0.041 A 
ATOM     86  F   UNL A   1      45.569  29.970  33.471  1.00  0.00    -0.206 F 
ATOM     87  C   UNL A   1      46.720  27.540  35.893  1.00  0.00     0.022 A 
BRANCH  84  88
ATOM     88  S   UNL A   1      45.551  25.368  37.195  1.00  0.00     0.124 S 
ATOM     89  O   UNL A   1      44.867  26.000  38.318  1.00  0.00    -0.237 OA
ATOM     90  O   UNL A   1      44.801  24.334  36.491  1.00  0.00    -0.237 OA
ATOM     91  O   UNL A   1      46.962  25.063  37.421  1.00  0.00    -0.744 OA
ENDBRANCH  84  88
ENDBRANCH  58  81
ENDBRANCH  32  33
ENDBRANCH  25  27
ENDBRANCH  24  25
ENDBRANCH   1  24
TORSDOF 17
ENDMDL
