MODEL 1
REMARK VINA RESULT:     -12.3      0.000      0.000
REMARK SMILES Cc1cc(-c2cncc(C(=O)OCCOC(=O)c3ccc(-c4c5nc(c(-c6cc(S(=O)(=O)[O-])ccc6F)c6ccc([nH]6)c(-c6cc(S(=O)(=O)[O-])ccc6F)c6nc(c(-c7cc(S(=O)(=O)[O-])ccc7F)c7ccc4[nH]7)C=C6)C=C5)cc3)c2)ccc1F
REMARK SMILES IDX 14 1 13 2 12 3 10 4 11 5 9 6 5 7 6 8 81 9 7 10 8 11 4 12
REMARK SMILES IDX 1 13 2 14 3 15 84 16 83 17 85 18 82 19 15 20 16 21 17 22
REMARK SMILES IDX 18 23 19 24 80 25 20 26 79 27 21 28 22 29 23 30 73 31 24 32
REMARK SMILES IDX 78 33 72 34 74 35 25 36 77 37 71 38 70 39 26 41 58 42 38 43
REMARK SMILES IDX 57 44 39 45 42 46 56 47 75 48 40 49 41 50 55 52 76 53 43 54
REMARK SMILES IDX 27 55 28 56 36 57 29 58 35 59 37 60 34 61 30 62 31 63 32 64
REMARK SMILES IDX 33 65 59 66 60 67 68 68 61 69 67 70 69 71 66 72 62 73 63 74
REMARK SMILES IDX 64 75 65 76 44 77 45 78 53 79 46 80 52 81 54 82 51 83 47 84
REMARK SMILES IDX 48 85 49 86 50 87
REMARK H PARENT 74 40 42 51
REMARK Flexibility Score: inf
ROOT
ATOM      1  C   UNL A   1      34.162  31.863  28.122  1.00  0.00     0.275 C 
ENDROOT
BRANCH   1   2
ATOM      2  C   UNL A   1      33.269  30.930  27.301  1.00  0.00     0.275 C 
BRANCH   2   3
ATOM      3  O   UNL A   1      33.563  29.528  27.486  1.00  0.00    -0.458 OA
BRANCH   3   4
ATOM      4  C   UNL A   1      32.611  28.643  27.079  1.00  0.00     0.339 C 
ATOM      5  O   UNL A   1      31.535  28.456  27.639  1.00  0.00    -0.246 OA
BRANCH   4   6
ATOM      6  C   UNL A   1      33.036  27.881  25.883  1.00  0.00     0.079 A 
ATOM      7  C   UNL A   1      33.867  25.896  24.773  1.00  0.00     0.001 A 
ATOM      8  C   UNL A   1      33.583  26.528  23.563  1.00  0.00     0.119 A 
ATOM      9  C   UNL A   1      33.604  26.610  25.953  1.00  0.00     0.027 A 
ATOM     10  N   UNL A   1      32.970  27.730  23.462  1.00  0.00    -0.263 NA
ATOM     11  C   UNL A   1      32.754  28.396  24.623  1.00  0.00     0.126 A 
BRANCH   7  12
ATOM     12  C   UNL A   1      34.199  24.472  24.819  1.00  0.00    -0.016 A 
ATOM     13  C   UNL A   1      34.271  21.801  27.545  1.00  0.00     0.047 C 
ATOM     14  C   UNL A   1      34.376  22.458  26.206  1.00  0.00    -0.015 A 
ATOM     15  C   UNL A   1      34.150  23.829  26.073  1.00  0.00     0.015 A 
ATOM     16  C   UNL A   1      34.673  21.726  25.058  1.00  0.00     0.126 A 
ATOM     17  C   UNL A   1      34.736  22.337  23.807  1.00  0.00     0.040 A 
ATOM     18  F   UNL A   1      34.889  20.405  25.153  1.00  0.00    -0.207 F 
ATOM     19  C   UNL A   1      34.492  23.710  23.682  1.00  0.00     0.012 A 
ENDBRANCH   7  12
ENDBRANCH   4   6
ENDBRANCH   3   4
ENDBRANCH   2   3
ENDBRANCH   1   2
BRANCH   1  20
ATOM     20  O   UNL A   1      35.440  32.009  27.505  1.00  0.00    -0.458 OA
BRANCH  20  21
ATOM     21  C   UNL A   1      36.430  31.641  28.348  1.00  0.00     0.338 C 
ATOM     22  O   UNL A   1      37.094  32.380  29.060  1.00  0.00    -0.246 OA
BRANCH  21  23
ATOM     23  C   UNL A   1      36.747  30.227  28.182  1.00  0.00     0.060 A 
ATOM     24  C   UNL A   1      36.799  29.510  29.383  1.00  0.00     0.016 A 
ATOM     25  C   UNL A   1      37.657  30.030  27.145  1.00  0.00     0.016 A 
ATOM     26  C   UNL A   1      37.972  28.861  29.706  1.00  0.00     0.010 A 
ATOM     27  C   UNL A   1      38.825  29.401  27.475  1.00  0.00     0.010 A 
ATOM     28  C   UNL A   1      39.004  28.921  28.784  1.00  0.00    -0.014 A 
BRANCH  28  29
ATOM     29  C   UNL A   1      40.325  28.418  29.053  1.00  0.00     0.031 A 
ATOM     30  C   UNL A   1      40.527  26.974  28.866  1.00  0.00     0.074 A 
ATOM     31  C   UNL A   1      41.318  29.333  29.123  1.00  0.00     0.049 A 
ATOM     32  N   UNL A   1      41.631  26.373  29.112  1.00  0.00    -0.248 NA
ATOM     33  C   UNL A   1      39.470  26.070  28.403  1.00  0.00     0.031 C 
ATOM     34  C   UNL A   1      42.708  29.148  28.738  1.00  0.00     0.029 A 
ATOM     35  N   UNL A   1      41.293  30.611  29.699  1.00  0.00    -0.354 N 
ATOM     36  C   UNL A   1      41.541  25.116  28.558  1.00  0.00     0.074 A 
ATOM     37  C   UNL A   1      40.151  24.933  28.223  1.00  0.00     0.031 C 
ATOM     38  C   UNL A   1      43.449  30.123  29.289  1.00  0.00     0.029 A 
ATOM     39  C   UNL A   1      42.584  30.834  30.216  1.00  0.00     0.049 A 
ATOM     40  H   UNL A   1      40.527  31.228  29.734  1.00  0.00     0.167 HD
ATOM     41  C   UNL A   1      42.696  24.447  28.301  1.00  0.00     0.034 A 
ATOM     42  C   UNL A   1      42.863  31.010  31.544  1.00  0.00     0.034 A 
ATOM     43  C   UNL A   1      43.832  25.214  28.806  1.00  0.00     0.049 A 
ATOM     44  C   UNL A   1      43.793  29.935  32.078  1.00  0.00     0.074 A 
ATOM     45  C   UNL A   1      44.657  26.156  28.212  1.00  0.00     0.029 A 
ATOM     46  N   UNL A   1      43.980  25.363  30.175  1.00  0.00    -0.354 N 
ATOM     47  N   UNL A   1      43.978  28.784  31.494  1.00  0.00    -0.248 NA
ATOM     48  C   UNL A   1      44.574  30.060  33.304  1.00  0.00     0.031 C 
ATOM     49  C   UNL A   1      45.275  26.908  29.243  1.00  0.00     0.029 A 
ATOM     50  C   UNL A   1      44.837  26.414  30.460  1.00  0.00     0.049 A 
ATOM     51  H   UNL A   1      43.538  24.802  30.852  1.00  0.00     0.167 HD
ATOM     52  C   UNL A   1      44.845  28.015  32.227  1.00  0.00     0.074 A 
ATOM     53  C   UNL A   1      45.206  28.873  33.340  1.00  0.00     0.031 C 
ATOM     54  C   UNL A   1      45.169  26.742  31.843  1.00  0.00     0.034 A 
BRANCH  41  55
ATOM     55  C   UNL A   1      42.820  23.261  27.378  1.00  0.00     0.023 A 
ATOM     56  C   UNL A   1      43.751  23.153  26.321  1.00  0.00     0.031 A 
ATOM     57  C   UNL A   1      41.980  22.140  27.572  1.00  0.00     0.131 A 
ATOM     58  C   UNL A   1      43.844  21.970  25.555  1.00  0.00     0.055 A 
ATOM     59  C   UNL A   1      42.046  20.989  26.785  1.00  0.00     0.041 A 
ATOM     60  F   UNL A   1      41.089  22.089  28.573  1.00  0.00    -0.206 F 
ATOM     61  C   UNL A   1      42.987  20.894  25.776  1.00  0.00     0.022 A 
BRANCH  58  62
ATOM     62  S   UNL A   1      45.127  21.745  24.288  1.00  0.00     0.124 S 
ATOM     63  O   UNL A   1      44.668  20.542  23.593  1.00  0.00    -0.237 OA
ATOM     64  O   UNL A   1      45.031  22.979  23.514  1.00  0.00    -0.237 OA
ATOM     65  O   UNL A   1      46.356  21.574  25.056  1.00  0.00    -0.744 OA
ENDBRANCH  58  62
ENDBRANCH  41  55
BRANCH  42  66
ATOM     66  C   UNL A   1      41.739  31.605  32.316  1.00  0.00     0.023 A 
ATOM     67  C   UNL A   1      40.806  30.760  32.931  1.00  0.00     0.031 A 
ATOM     68  C   UNL A   1      41.355  32.929  32.010  1.00  0.00     0.131 A 
ATOM     69  C   UNL A   1      39.480  31.194  33.055  1.00  0.00     0.055 A 
ATOM     70  C   UNL A   1      40.031  33.352  32.134  1.00  0.00     0.041 A 
ATOM     71  F   UNL A   1      42.236  33.777  31.452  1.00  0.00    -0.206 F 
ATOM     72  C   UNL A   1      39.078  32.463  32.613  1.00  0.00     0.022 A 
BRANCH  69  73
ATOM     73  S   UNL A   1      38.186  30.049  33.594  1.00  0.00     0.124 S 
ATOM     74  O   UNL A   1      38.181  30.285  35.036  1.00  0.00    -0.237 OA
ATOM     75  O   UNL A   1      37.035  30.552  32.856  1.00  0.00    -0.237 OA
ATOM     76  O   UNL A   1      38.677  28.748  33.159  1.00  0.00    -0.744 OA
ENDBRANCH  69  73
ENDBRANCH  42  66
BRANCH  54  77
ATOM     77  C   UNL A   1      45.874  25.672  32.657  1.00  0.00     0.023 A 
ATOM     78  C   UNL A   1      45.074  24.699  33.319  1.00  0.00     0.031 A 
ATOM     79  C   UNL A   1      47.242  25.632  32.964  1.00  0.00     0.131 A 
ATOM     80  C   UNL A   1      45.606  23.811  34.259  1.00  0.00     0.055 A 
ATOM     81  C   UNL A   1      47.790  24.673  33.828  1.00  0.00     0.041 A 
ATOM     82  F   UNL A   1      48.102  26.547  32.502  1.00  0.00    -0.206 F 
ATOM     83  C   UNL A   1      46.972  23.774  34.498  1.00  0.00     0.022 A 
BRANCH  80  84
ATOM     84  S   UNL A   1      44.509  22.824  35.317  1.00  0.00     0.124 S 
ATOM     85  O   UNL A   1      44.882  21.463  34.943  1.00  0.00    -0.237 OA
ATOM     86  O   UNL A   1      44.921  23.240  36.657  1.00  0.00    -0.237 OA
ATOM     87  O   UNL A   1      43.173  23.249  34.921  1.00  0.00    -0.744 OA
ENDBRANCH  80  84
ENDBRANCH  54  77
ENDBRANCH  28  29
ENDBRANCH  21  23
ENDBRANCH  20  21
ENDBRANCH   1  20
TORSDOF 15
ENDMDL
MODEL 2
REMARK VINA RESULT:     -12.3      3.936      9.652
REMARK SMILES Cc1cc(-c2cncc(C(=O)OCCOC(=O)c3ccc(-c4c5nc(c(-c6cc(S(=O)(=O)[O-])ccc6F)c6ccc([nH]6)c(-c6cc(S(=O)(=O)[O-])ccc6F)c6nc(c(-c7cc(S(=O)(=O)[O-])ccc7F)c7ccc4[nH]7)C=C6)C=C5)cc3)c2)ccc1F
REMARK SMILES IDX 14 1 13 2 12 3 10 4 11 5 9 6 5 7 6 8 81 9 7 10 8 11 4 12
REMARK SMILES IDX 1 13 2 14 3 15 84 16 83 17 85 18 82 19 15 20 16 21 17 22
REMARK SMILES IDX 18 23 19 24 80 25 20 26 79 27 21 28 22 29 23 30 73 31 24 32
REMARK SMILES IDX 78 33 72 34 74 35 25 36 77 37 71 38 70 39 26 41 58 42 38 43
REMARK SMILES IDX 57 44 39 45 42 46 56 47 75 48 40 49 41 50 55 52 76 53 43 54
REMARK SMILES IDX 27 55 28 56 36 57 29 58 35 59 37 60 34 61 30 62 31 63 32 64
REMARK SMILES IDX 33 65 59 66 60 67 68 68 61 69 67 70 69 71 66 72 62 73 63 74
REMARK SMILES IDX 64 75 65 76 44 77 45 78 53 79 46 80 52 81 54 82 51 83 47 84
REMARK SMILES IDX 48 85 49 86 50 87
REMARK H PARENT 74 40 42 51
REMARK Flexibility Score: inf
ROOT
ATOM      1  C   UNL A   1      39.301  21.374  26.290  1.00  0.00     0.275 C 
ENDROOT
BRANCH   1   2
ATOM      2  C   UNL A   1      38.171  21.472  25.262  1.00  0.00     0.275 C 
BRANCH   2   3
ATOM      3  O   UNL A   1      37.112  22.377  25.645  1.00  0.00    -0.458 OA
BRANCH   3   4
ATOM      4  C   UNL A   1      35.836  21.956  25.422  1.00  0.00     0.339 C 
ATOM      5  O   UNL A   1      35.410  20.833  25.672  1.00  0.00    -0.246 OA
BRANCH   4   6
ATOM      6  C   UNL A   1      35.006  23.008  24.794  1.00  0.00     0.079 A 
ATOM      7  C   UNL A   1      33.579  24.964  24.873  1.00  0.00     0.001 A 
ATOM      8  C   UNL A   1      33.684  25.019  23.483  1.00  0.00     0.119 A 
ATOM      9  C   UNL A   1      34.242  23.915  25.529  1.00  0.00     0.027 A 
ATOM     10  N   UNL A   1      34.469  24.199  22.749  1.00  0.00    -0.263 NA
ATOM     11  C   UNL A   1      35.074  23.187  23.417  1.00  0.00     0.126 A 
BRANCH   7  12
ATOM     12  C   UNL A   1      33.007  26.076  25.631  1.00  0.00    -0.016 A 
ATOM     13  C   UNL A   1      34.368  29.316  27.120  1.00  0.00     0.047 C 
ATOM     14  C   UNL A   1      33.418  28.233  26.721  1.00  0.00    -0.015 A 
ATOM     15  C   UNL A   1      33.882  27.096  26.059  1.00  0.00     0.015 A 
ATOM     16  C   UNL A   1      32.051  28.337  26.971  1.00  0.00     0.126 A 
ATOM     17  C   UNL A   1      31.164  27.340  26.567  1.00  0.00     0.040 A 
ATOM     18  F   UNL A   1      31.573  29.421  27.600  1.00  0.00    -0.207 F 
ATOM     19  C   UNL A   1      31.638  26.211  25.889  1.00  0.00     0.012 A 
ENDBRANCH   7  12
ENDBRANCH   4   6
ENDBRANCH   3   4
ENDBRANCH   2   3
ENDBRANCH   1   2
BRANCH   1  20
ATOM     20  O   UNL A   1      40.359  22.274  25.964  1.00  0.00    -0.458 OA
BRANCH  20  21
ATOM     21  C   UNL A   1      40.606  23.121  26.986  1.00  0.00     0.338 C 
ATOM     22  O   UNL A   1      41.270  22.886  27.985  1.00  0.00    -0.246 OA
BRANCH  21  23
ATOM     23  C   UNL A   1      39.819  24.341  26.843  1.00  0.00     0.060 A 
ATOM     24  C   UNL A   1      40.435  25.328  26.063  1.00  0.00     0.016 A 
ATOM     25  C   UNL A   1      39.116  24.631  28.011  1.00  0.00     0.016 A 
ATOM     26  C   UNL A   1      40.670  26.560  26.636  1.00  0.00     0.010 A 
ATOM     27  C   UNL A   1      39.366  25.848  28.583  1.00  0.00     0.010 A 
ATOM     28  C   UNL A   1      40.227  26.751  27.934  1.00  0.00    -0.014 A 
BRANCH  28  29
ATOM     29  C   UNL A   1      40.534  27.929  28.702  1.00  0.00     0.031 A 
ATOM     30  C   UNL A   1      39.553  29.022  28.644  1.00  0.00     0.074 A 
ATOM     31  C   UNL A   1      41.494  27.803  29.646  1.00  0.00     0.049 A 
ATOM     32  N   UNL A   1      39.710  30.149  29.233  1.00  0.00    -0.248 NA
ATOM     33  C   UNL A   1      38.306  28.941  27.880  1.00  0.00     0.031 C 
ATOM     34  C   UNL A   1      41.570  28.504  30.917  1.00  0.00     0.029 A 
ATOM     35  N   UNL A   1      42.699  27.089  29.580  1.00  0.00    -0.354 N 
ATOM     36  C   UNL A   1      38.496  30.796  29.200  1.00  0.00     0.074 A 
ATOM     37  C   UNL A   1      37.684  30.061  28.263  1.00  0.00     0.031 C 
ATOM     38  C   UNL A   1      42.819  28.406  31.398  1.00  0.00     0.029 A 
ATOM     39  C   UNL A   1      43.630  27.819  30.344  1.00  0.00     0.049 A 
ATOM     40  H   UNL A   1      42.861  26.247  29.097  1.00  0.00     0.167 HD
ATOM     41  C   UNL A   1      38.276  31.787  30.104  1.00  0.00     0.034 A 
ATOM     42  C   UNL A   1      44.760  28.398  29.834  1.00  0.00     0.034 A 
ATOM     43  C   UNL A   1      39.492  32.029  30.876  1.00  0.00     0.049 A 
ATOM     44  C   UNL A   1      44.759  29.906  30.013  1.00  0.00     0.074 A 
ATOM     45  C   UNL A   1      39.951  31.514  32.078  1.00  0.00     0.029 A 
ATOM     46  N   UNL A   1      40.591  32.577  30.233  1.00  0.00    -0.354 N 
ATOM     47  N   UNL A   1      43.682  30.606  30.237  1.00  0.00    -0.248 NA
ATOM     48  C   UNL A   1      45.953  30.741  29.944  1.00  0.00     0.031 C 
ATOM     49  C   UNL A   1      41.352  31.719  32.134  1.00  0.00     0.029 A 
ATOM     50  C   UNL A   1      41.741  32.370  30.976  1.00  0.00     0.049 A 
ATOM     51  H   UNL A   1      40.560  33.047  29.369  1.00  0.00     0.167 HD
ATOM     52  C   UNL A   1      43.993  31.939  30.321  1.00  0.00     0.074 A 
ATOM     53  C   UNL A   1      45.434  31.966  30.152  1.00  0.00     0.031 C 
ATOM     54  C   UNL A   1      43.025  32.887  30.510  1.00  0.00     0.034 A 
BRANCH  41  55
ATOM     55  C   UNL A   1      36.920  32.338  30.469  1.00  0.00     0.023 A 
ATOM     56  C   UNL A   1      36.141  33.181  29.646  1.00  0.00     0.031 A 
ATOM     57  C   UNL A   1      36.337  31.981  31.707  1.00  0.00     0.131 A 
ATOM     58  C   UNL A   1      34.847  33.587  30.040  1.00  0.00     0.055 A 
ATOM     59  C   UNL A   1      35.075  32.419  32.113  1.00  0.00     0.041 A 
ATOM     60  F   UNL A   1      36.945  31.144  32.560  1.00  0.00    -0.206 F 
ATOM     61  C   UNL A   1      34.318  33.219  31.275  1.00  0.00     0.022 A 
BRANCH  58  62
ATOM     62  S   UNL A   1      33.765  34.548  28.942  1.00  0.00     0.124 S 
ATOM     63  O   UNL A   1      33.261  33.522  28.028  1.00  0.00    -0.237 OA
ATOM     64  O   UNL A   1      32.774  35.092  29.866  1.00  0.00    -0.237 OA
ATOM     65  O   UNL A   1      34.661  35.524  28.328  1.00  0.00    -0.744 OA
ENDBRANCH  58  62
ENDBRANCH  41  55
BRANCH  42  66
ATOM     66  C   UNL A   1      45.303  27.696  28.640  1.00  0.00     0.023 A 
ATOM     67  C   UNL A   1      46.412  26.852  28.785  1.00  0.00     0.031 A 
ATOM     68  C   UNL A   1      45.037  28.250  27.369  1.00  0.00     0.131 A 
ATOM     69  C   UNL A   1      47.315  26.733  27.720  1.00  0.00     0.055 A 
ATOM     70  C   UNL A   1      45.943  28.129  26.315  1.00  0.00     0.041 A 
ATOM     71  F   UNL A   1      43.961  29.035  27.185  1.00  0.00    -0.206 F 
ATOM     72  C   UNL A   1      47.113  27.407  26.508  1.00  0.00     0.022 A 
BRANCH  69  73
ATOM     73  S   UNL A   1      48.892  25.875  27.946  1.00  0.00     0.124 S 
ATOM     74  O   UNL A   1      48.576  24.554  27.408  1.00  0.00    -0.237 OA
ATOM     75  O   UNL A   1      49.784  26.700  27.142  1.00  0.00    -0.237 OA
ATOM     76  O   UNL A   1      49.117  25.943  29.384  1.00  0.00    -0.744 OA
ENDBRANCH  69  73
ENDBRANCH  42  66
BRANCH  54  77
ATOM     77  C   UNL A   1      43.147  34.392  30.352  1.00  0.00     0.023 A 
ATOM     78  C   UNL A   1      42.913  34.950  29.065  1.00  0.00     0.031 A 
ATOM     79  C   UNL A   1      43.630  35.289  31.315  1.00  0.00     0.131 A 
ATOM     80  C   UNL A   1      43.209  36.284  28.766  1.00  0.00     0.055 A 
ATOM     81  C   UNL A   1      43.828  36.650  31.042  1.00  0.00     0.041 A 
ATOM     82  F   UNL A   1      43.995  34.890  32.539  1.00  0.00    -0.206 F 
ATOM     83  C   UNL A   1      43.641  37.149  29.761  1.00  0.00     0.022 A 
BRANCH  80  84
ATOM     84  S   UNL A   1      43.215  36.863  27.045  1.00  0.00     0.124 S 
ATOM     85  O   UNL A   1      44.318  37.818  27.058  1.00  0.00    -0.237 OA
ATOM     86  O   UNL A   1      43.466  35.627  26.306  1.00  0.00    -0.237 OA
ATOM     87  O   UNL A   1      41.884  37.431  26.867  1.00  0.00    -0.744 OA
ENDBRANCH  80  84
ENDBRANCH  54  77
ENDBRANCH  28  29
ENDBRANCH  21  23
ENDBRANCH  20  21
ENDBRANCH   1  20
TORSDOF 15
ENDMDL
MODEL 3
REMARK VINA RESULT:     -12.2      3.787      9.723
REMARK SMILES Cc1cc(-c2cncc(C(=O)OCCOC(=O)c3ccc(-c4c5nc(c(-c6cc(S(=O)(=O)[O-])ccc6F)c6ccc([nH]6)c(-c6cc(S(=O)(=O)[O-])ccc6F)c6nc(c(-c7cc(S(=O)(=O)[O-])ccc7F)c7ccc4[nH]7)C=C6)C=C5)cc3)c2)ccc1F
REMARK SMILES IDX 14 1 13 2 12 3 10 4 11 5 9 6 5 7 6 8 81 9 7 10 8 11 4 12
REMARK SMILES IDX 1 13 2 14 3 15 84 16 83 17 85 18 82 19 15 20 16 21 17 22
REMARK SMILES IDX 18 23 19 24 80 25 20 26 79 27 21 28 22 29 23 30 73 31 24 32
REMARK SMILES IDX 78 33 72 34 74 35 25 36 77 37 71 38 70 39 26 41 58 42 38 43
REMARK SMILES IDX 57 44 39 45 42 46 56 47 75 48 40 49 41 50 55 52 76 53 43 54
REMARK SMILES IDX 27 55 28 56 36 57 29 58 35 59 37 60 34 61 30 62 31 63 32 64
REMARK SMILES IDX 33 65 59 66 60 67 68 68 61 69 67 70 69 71 66 72 62 73 63 74
REMARK SMILES IDX 64 75 65 76 44 77 45 78 53 79 46 80 52 81 54 82 51 83 47 84
REMARK SMILES IDX 48 85 49 86 50 87
REMARK H PARENT 74 40 42 51
REMARK Flexibility Score: inf
ROOT
ATOM      1  C   UNL A   1      39.991  21.462  26.295  1.00  0.00     0.275 C 
ENDROOT
BRANCH   1   2
ATOM      2  C   UNL A   1      38.632  21.271  25.617  1.00  0.00     0.275 C 
BRANCH   2   3
ATOM      3  O   UNL A   1      37.648  22.260  25.993  1.00  0.00    -0.458 OA
BRANCH   3   4
ATOM      4  C   UNL A   1      36.794  22.677  25.018  1.00  0.00     0.339 C 
ATOM      5  O   UNL A   1      37.057  22.716  23.820  1.00  0.00    -0.246 OA
BRANCH   4   6
ATOM      6  C   UNL A   1      35.497  23.128  25.570  1.00  0.00     0.079 A 
ATOM      7  C   UNL A   1      33.780  24.790  25.964  1.00  0.00     0.001 A 
ATOM      8  C   UNL A   1      32.982  23.758  26.458  1.00  0.00     0.119 A 
ATOM      9  C   UNL A   1      35.075  24.456  25.535  1.00  0.00     0.027 A 
ATOM     10  N   UNL A   1      33.336  22.453  26.443  1.00  0.00    -0.263 NA
ATOM     11  C   UNL A   1      34.600  22.176  26.042  1.00  0.00     0.126 A 
BRANCH   7  12
ATOM     12  C   UNL A   1      33.218  26.111  25.684  1.00  0.00    -0.016 A 
ATOM     13  C   UNL A   1      33.812  28.796  23.038  1.00  0.00     0.047 C 
ATOM     14  C   UNL A   1      33.241  28.073  24.215  1.00  0.00    -0.015 A 
ATOM     15  C   UNL A   1      33.762  26.838  24.606  1.00  0.00     0.015 A 
ATOM     16  C   UNL A   1      32.165  28.590  24.934  1.00  0.00     0.126 A 
ATOM     17  C   UNL A   1      31.613  27.896  26.010  1.00  0.00     0.040 A 
ATOM     18  F   UNL A   1      31.638  29.772  24.579  1.00  0.00    -0.207 F 
ATOM     19  C   UNL A   1      32.132  26.651  26.383  1.00  0.00     0.012 A 
ENDBRANCH   7  12
ENDBRANCH   4   6
ENDBRANCH   3   4
ENDBRANCH   2   3
ENDBRANCH   1   2
BRANCH   1  20
ATOM     20  O   UNL A   1      39.852  22.209  27.502  1.00  0.00    -0.458 OA
BRANCH  20  21
ATOM     21  C   UNL A   1      40.655  23.295  27.494  1.00  0.00     0.338 C 
ATOM     22  O   UNL A   1      41.847  23.323  27.762  1.00  0.00    -0.246 OA
BRANCH  21  23
ATOM     23  C   UNL A   1      39.875  24.510  27.286  1.00  0.00     0.060 A 
ATOM     24  C   UNL A   1      40.508  25.463  26.479  1.00  0.00     0.016 A 
ATOM     25  C   UNL A   1      39.151  24.848  28.428  1.00  0.00     0.016 A 
ATOM     26  C   UNL A   1      40.736  26.717  27.006  1.00  0.00     0.010 A 
ATOM     27  C   UNL A   1      39.393  26.087  28.955  1.00  0.00     0.010 A 
ATOM     28  C   UNL A   1      40.269  26.961  28.287  1.00  0.00    -0.014 A 
BRANCH  28  29
ATOM     29  C   UNL A   1      40.564  28.168  29.012  1.00  0.00     0.031 A 
ATOM     30  C   UNL A   1      39.621  29.282  28.842  1.00  0.00     0.074 A 
ATOM     31  C   UNL A   1      41.464  28.066  30.017  1.00  0.00     0.049 A 
ATOM     32  N   UNL A   1      39.776  30.433  29.383  1.00  0.00    -0.248 NA
ATOM     33  C   UNL A   1      38.418  29.194  28.010  1.00  0.00     0.031 C 
ATOM     34  C   UNL A   1      41.486  28.829  31.254  1.00  0.00     0.029 A 
ATOM     35  N   UNL A   1      42.649  27.319  30.058  1.00  0.00    -0.354 N 
ATOM     36  C   UNL A   1      38.584  31.109  29.245  1.00  0.00     0.074 A 
ATOM     37  C   UNL A   1      37.808  30.349  28.299  1.00  0.00     0.031 C 
ATOM     38  C   UNL A   1      42.702  28.723  31.813  1.00  0.00     0.029 A 
ATOM     39  C   UNL A   1      43.555  28.062  30.839  1.00  0.00     0.049 A 
ATOM     40  H   UNL A   1      42.815  26.449  29.628  1.00  0.00     0.167 HD
ATOM     41  C   UNL A   1      38.341  32.151  30.085  1.00  0.00     0.034 A 
ATOM     42  C   UNL A   1      44.730  28.585  30.369  1.00  0.00     0.034 A 
ATOM     43  C   UNL A   1      39.517  32.400  30.914  1.00  0.00     0.049 A 
ATOM     44  C   UNL A   1      44.761  30.100  30.472  1.00  0.00     0.074 A 
ATOM     45  C   UNL A   1      39.890  31.936  32.166  1.00  0.00     0.029 A 
ATOM     46  N   UNL A   1      40.667  32.885  30.312  1.00  0.00    -0.354 N 
ATOM     47  N   UNL A   1      43.694  30.839  30.598  1.00  0.00    -0.248 NA
ATOM     48  C   UNL A   1      45.981  30.900  30.433  1.00  0.00     0.031 C 
ATOM     49  C   UNL A   1      41.291  32.107  32.295  1.00  0.00     0.029 A 
ATOM     50  C   UNL A   1      41.765  32.687  31.132  1.00  0.00     0.049 A 
ATOM     51  H   UNL A   1      40.699  33.311  29.425  1.00  0.00     0.167 HD
ATOM     52  C   UNL A   1      44.038  32.165  30.633  1.00  0.00     0.074 A 
ATOM     53  C   UNL A   1      45.486  32.146  30.549  1.00  0.00     0.031 C 
ATOM     54  C   UNL A   1      43.088  33.147  30.718  1.00  0.00     0.034 A 
BRANCH  41  55
ATOM     55  C   UNL A   1      36.982  32.754  30.341  1.00  0.00     0.023 A 
ATOM     56  C   UNL A   1      36.362  32.841  31.606  1.00  0.00     0.031 A 
ATOM     57  C   UNL A   1      36.258  33.313  29.262  1.00  0.00     0.131 A 
ATOM     58  C   UNL A   1      35.118  33.492  31.762  1.00  0.00     0.055 A 
ATOM     59  C   UNL A   1      35.008  33.918  29.413  1.00  0.00     0.041 A 
ATOM     60  F   UNL A   1      36.754  33.345  28.018  1.00  0.00    -0.206 F 
ATOM     61  C   UNL A   1      34.435  34.019  30.668  1.00  0.00     0.022 A 
BRANCH  58  62
ATOM     62  S   UNL A   1      34.365  33.750  33.395  1.00  0.00     0.124 S 
ATOM     63  O   UNL A   1      34.317  35.210  33.487  1.00  0.00    -0.237 OA
ATOM     64  O   UNL A   1      33.067  33.097  33.255  1.00  0.00    -0.237 OA
ATOM     65  O   UNL A   1      35.298  33.112  34.319  1.00  0.00    -0.744 OA
ENDBRANCH  58  62
ENDBRANCH  41  55
BRANCH  42  66
ATOM     66  C   UNL A   1      45.320  27.809  29.245  1.00  0.00     0.023 A 
ATOM     67  C   UNL A   1      44.958  28.124  27.929  1.00  0.00     0.031 A 
ATOM     68  C   UNL A   1      45.810  26.514  29.521  1.00  0.00     0.131 A 
ATOM     69  C   UNL A   1      44.919  27.098  26.975  1.00  0.00     0.055 A 
ATOM     70  C   UNL A   1      45.766  25.498  28.566  1.00  0.00     0.041 A 
ATOM     71  F   UNL A   1      46.201  26.190  30.766  1.00  0.00    -0.206 F 
ATOM     72  C   UNL A   1      45.271  25.780  27.300  1.00  0.00     0.022 A 
BRANCH  69  73
ATOM     73  S   UNL A   1      44.206  27.393  25.338  1.00  0.00     0.124 S 
ATOM     74  O   UNL A   1      43.242  28.450  25.635  1.00  0.00    -0.237 OA
ATOM     75  O   UNL A   1      45.385  27.792  24.581  1.00  0.00    -0.237 OA
ATOM     76  O   UNL A   1      43.646  26.100  24.970  1.00  0.00    -0.744 OA
ENDBRANCH  69  73
ENDBRANCH  42  66
BRANCH  54  77
ATOM     77  C   UNL A   1      43.262  34.638  30.493  1.00  0.00     0.023 A 
ATOM     78  C   UNL A   1      42.937  35.163  29.212  1.00  0.00     0.031 A 
ATOM     79  C   UNL A   1      43.872  35.542  31.374  1.00  0.00     0.131 A 
ATOM     80  C   UNL A   1      43.262  36.471  28.837  1.00  0.00     0.055 A 
ATOM     81  C   UNL A   1      44.104  36.883  31.033  1.00  0.00     0.041 A 
ATOM     82  F   UNL A   1      44.330  35.167  32.574  1.00  0.00    -0.206 F 
ATOM     83  C   UNL A   1      43.822  37.347  29.756  1.00  0.00     0.022 A 
BRANCH  80  84
ATOM     84  S   UNL A   1      43.136  36.991  27.103  1.00  0.00     0.124 S 
ATOM     85  O   UNL A   1      42.018  37.928  27.155  1.00  0.00    -0.237 OA
ATOM     86  O   UNL A   1      44.447  37.594  26.867  1.00  0.00    -0.237 OA
ATOM     87  O   UNL A   1      42.890  35.746  26.386  1.00  0.00    -0.744 OA
ENDBRANCH  80  84
ENDBRANCH  54  77
ENDBRANCH  28  29
ENDBRANCH  21  23
ENDBRANCH  20  21
ENDBRANCH   1  20
TORSDOF 15
ENDMDL
