MODEL 1
REMARK VINA RESULT:     -12.4      0.000      0.000
REMARK SMILES Cc1cccc(NC(=O)COc2ccc(N3C[C@@H](C(=O)OCCOC(=O)c4ccc(-c5c6nc(c(-c7cc(S(=O)(=O)[O-])ccc7F)c7ccc([nH]7)c(-c7cc(S(=O)(=O)[O-])ccc7F)c7nc(c(-c8cc(S(=O)(=O)[O-])ccc8F)c8ccc5[nH]8)C=C7)C=C6)cc4)CC3=O)cc2)c1
REMARK SMILES IDX 22 1 21 2 19 3 20 4 18 5 16 6 17 7 91 8 90 9 92 10 15 11
REMARK SMILES IDX 12 12 13 13 94 14 14 15 93 16 11 17 10 18 8 19 7 20 9 22
REMARK SMILES IDX 6 23 1 24 2 25 3 26 95 27 4 28 5 29 23 30 24 31 25 32 26 33
REMARK SMILES IDX 27 34 28 35 89 36 29 37 88 38 30 39 31 40 32 41 82 42 33 43
REMARK SMILES IDX 87 44 81 45 83 46 34 47 86 48 80 49 79 50 35 52 67 53 47 54
REMARK SMILES IDX 66 55 48 56 51 57 65 58 84 59 49 60 50 61 64 63 85 64 52 65
REMARK SMILES IDX 36 66 37 67 45 68 38 69 44 70 46 71 43 72 39 73 40 74 41 75
REMARK SMILES IDX 42 76 68 77 69 78 77 79 70 80 76 81 78 82 75 83 71 84 72 85
REMARK SMILES IDX 73 86 74 87 53 88 54 89 62 90 55 91 61 92 63 93 60 94 56 95
REMARK SMILES IDX 57 96 58 97 59 98
REMARK H PARENT 7 21 83 51 51 62
REMARK Flexibility Score: inf
ROOT
ATOM      1  C   UNL A   1      38.006  21.135  25.166  1.00  0.00     0.274 C 
ENDROOT
BRANCH   1   2
ATOM      2  O   UNL A   1      36.708  21.304  25.733  1.00  0.00    -0.462 OA
BRANCH   2   3
ATOM      3  C   UNL A   1      35.764  20.459  25.232  1.00  0.00     0.311 C 
ATOM      4  O   UNL A   1      35.990  19.392  24.714  1.00  0.00    -0.252 OA
BRANCH   3   5
ATOM      5  C   UNL A   1      34.405  21.073  25.447  1.00  0.00     0.128 C 
ATOM      6  N   UNL A   1      33.173  22.940  24.818  1.00  0.00    -0.312 N 
ATOM      7  C   UNL A   1      33.925  21.854  24.244  1.00  0.00     0.141 C 
ATOM      8  C   UNL A   1      33.496  23.149  26.157  1.00  0.00     0.227 C 
ATOM      9  C   UNL A   1      34.440  22.066  26.591  1.00  0.00     0.117 C 
ATOM     10  O   UNL A   1      33.132  24.058  26.889  1.00  0.00    -0.274 OA
BRANCH   6  11
ATOM     11  C   UNL A   1      32.620  23.915  23.973  1.00  0.00     0.044 A 
ATOM     12  C   UNL A   1      31.483  26.023  22.532  1.00  0.00     0.120 A 
ATOM     13  C   UNL A   1      32.857  25.788  22.462  1.00  0.00     0.048 A 
ATOM     14  C   UNL A   1      30.678  25.172  23.285  1.00  0.00     0.048 A 
ATOM     15  C   UNL A   1      33.434  24.757  23.210  1.00  0.00     0.030 A 
ATOM     16  C   UNL A   1      31.242  24.111  23.984  1.00  0.00     0.030 A 
BRANCH  12  17
ATOM     17  O   UNL A   1      31.005  27.051  21.774  1.00  0.00    -0.484 OA
BRANCH  17  18
ATOM     18  C   UNL A   1      31.312  28.359  22.230  1.00  0.00     0.329 C 
BRANCH  18  19
ATOM     19  C   UNL A   1      30.319  29.143  23.095  1.00  0.00     0.262 C 
ATOM     20  N   UNL A   1      30.568  29.515  24.382  1.00  0.00    -0.323 N 
ATOM     21  H   UNL A   1      29.890  30.133  24.739  1.00  0.00     0.170 HD
ATOM     22  O   UNL A   1      29.236  29.508  22.617  1.00  0.00    -0.271 OA
BRANCH  20  23
ATOM     23  C   UNL A   1      31.575  29.214  25.311  1.00  0.00     0.041 A 
ATOM     24  C   UNL A   1      33.738  31.310  27.668  1.00  0.00     0.044 C 
ATOM     25  C   UNL A   1      33.144  30.135  26.949  1.00  0.00    -0.049 A 
ATOM     26  C   UNL A   1      33.571  28.840  27.253  1.00  0.00     0.003 A 
ATOM     27  C   UNL A   1      32.147  30.310  25.979  1.00  0.00     0.029 A 
ATOM     28  C   UNL A   1      33.002  27.747  26.605  1.00  0.00     0.002 A 
ATOM     29  C   UNL A   1      32.000  27.933  25.648  1.00  0.00     0.026 A 
ENDBRANCH  20  23
ENDBRANCH  18  19
ENDBRANCH  17  18
ENDBRANCH  12  17
ENDBRANCH   6  11
ENDBRANCH   3   5
ENDBRANCH   2   3
ENDBRANCH   1   2
BRANCH   1  30
ATOM     30  C   UNL A   1      39.065  21.742  26.095  1.00  0.00     0.275 C 
BRANCH  30  31
ATOM     31  O   UNL A   1      39.172  23.200  26.169  1.00  0.00    -0.458 OA
BRANCH  31  32
ATOM     32  C   UNL A   1      40.184  23.981  26.646  1.00  0.00     0.338 C 
ATOM     33  O   UNL A   1      41.355  23.697  26.420  1.00  0.00    -0.246 OA
BRANCH  32  34
ATOM     34  C   UNL A   1      39.830  25.266  27.287  1.00  0.00     0.060 A 
ATOM     35  C   UNL A   1      39.296  25.281  28.589  1.00  0.00     0.016 A 
ATOM     36  C   UNL A   1      40.184  26.453  26.672  1.00  0.00     0.016 A 
ATOM     37  C   UNL A   1      39.319  26.457  29.345  1.00  0.00     0.010 A 
ATOM     38  C   UNL A   1      40.349  27.568  27.454  1.00  0.00     0.010 A 
ATOM     39  C   UNL A   1      39.918  27.585  28.791  1.00  0.00    -0.014 A 
BRANCH  39  40
ATOM     40  C   UNL A   1      39.930  28.913  29.396  1.00  0.00     0.031 A 
ATOM     41  C   UNL A   1      38.849  29.909  29.256  1.00  0.00     0.074 A 
ATOM     42  C   UNL A   1      40.979  29.110  30.225  1.00  0.00     0.049 A 
ATOM     43  N   UNL A   1      39.014  31.181  29.393  1.00  0.00    -0.248 NA
ATOM     44  C   UNL A   1      37.467  29.561  28.948  1.00  0.00     0.031 C 
ATOM     45  C   UNL A   1      41.224  30.157  31.196  1.00  0.00     0.029 A 
ATOM     46  N   UNL A   1      42.174  28.384  30.224  1.00  0.00    -0.354 N 
ATOM     47  C   UNL A   1      37.762  31.749  29.553  1.00  0.00     0.074 A 
ATOM     48  C   UNL A   1      36.836  30.730  29.128  1.00  0.00     0.031 C 
ATOM     49  C   UNL A   1      42.552  30.211  31.422  1.00  0.00     0.029 A 
ATOM     50  C   UNL A   1      43.180  29.309  30.462  1.00  0.00     0.049 A 
ATOM     51  H   UNL A   1      42.279  27.416  30.084  1.00  0.00     0.167 HD
ATOM     52  C   UNL A   1      37.647  32.938  30.218  1.00  0.00     0.034 A 
ATOM     53  C   UNL A   1      44.060  29.663  29.476  1.00  0.00     0.034 A 
ATOM     54  C   UNL A   1      38.962  33.400  30.650  1.00  0.00     0.049 A 
ATOM     55  C   UNL A   1      43.992  31.151  29.242  1.00  0.00     0.074 A 
ATOM     56  C   UNL A   1      39.613  33.312  31.869  1.00  0.00     0.029 A 
ATOM     57  N   UNL A   1      39.916  33.755  29.707  1.00  0.00    -0.354 N 
ATOM     58  N   UNL A   1      42.903  31.865  29.350  1.00  0.00    -0.248 NA
ATOM     59  C   UNL A   1      45.174  31.948  28.958  1.00  0.00     0.031 C 
ATOM     60  C   UNL A   1      40.990  33.551  31.638  1.00  0.00     0.029 A 
ATOM     61  C   UNL A   1      41.164  33.809  30.288  1.00  0.00     0.049 A 
ATOM     62  H   UNL A   1      39.728  33.941  28.759  1.00  0.00     0.167 HD
ATOM     63  C   UNL A   1      43.236  33.196  29.280  1.00  0.00     0.074 A 
ATOM     64  C   UNL A   1      44.664  33.189  29.002  1.00  0.00     0.031 C 
ATOM     65  C   UNL A   1      42.331  34.198  29.514  1.00  0.00     0.034 A 
BRANCH  52  66
ATOM     66  C   UNL A   1      36.372  33.535  30.789  1.00  0.00     0.023 A 
ATOM     67  C   UNL A   1      35.467  34.172  29.906  1.00  0.00     0.031 A 
ATOM     68  C   UNL A   1      35.986  33.536  32.139  1.00  0.00     0.131 A 
ATOM     69  C   UNL A   1      34.321  34.847  30.363  1.00  0.00     0.055 A 
ATOM     70  C   UNL A   1      34.850  34.226  32.604  1.00  0.00     0.041 A 
ATOM     71  F   UNL A   1      36.661  32.838  33.063  1.00  0.00    -0.206 F 
ATOM     72  C   UNL A   1      34.019  34.899  31.717  1.00  0.00     0.022 A 
BRANCH  69  73
ATOM     73  S   UNL A   1      33.245  35.666  29.151  1.00  0.00     0.124 S 
ATOM     74  O   UNL A   1      32.427  36.529  29.998  1.00  0.00    -0.237 OA
ATOM     75  O   UNL A   1      34.206  36.337  28.283  1.00  0.00    -0.237 OA
ATOM     76  O   UNL A   1      32.526  34.555  28.529  1.00  0.00    -0.744 OA
ENDBRANCH  69  73
ENDBRANCH  52  66
BRANCH  53  77
ATOM     77  C   UNL A   1      44.282  28.633  28.405  1.00  0.00     0.023 A 
ATOM     78  C   UNL A   1      44.615  27.320  28.811  1.00  0.00     0.031 A 
ATOM     79  C   UNL A   1      43.842  28.804  27.083  1.00  0.00     0.131 A 
ATOM     80  C   UNL A   1      44.340  26.222  27.978  1.00  0.00     0.055 A 
ATOM     81  C   UNL A   1      43.644  27.708  26.227  1.00  0.00     0.041 A 
ATOM     82  F   UNL A   1      43.493  30.015  26.627  1.00  0.00    -0.206 F 
ATOM     83  C   UNL A   1      43.853  26.408  26.685  1.00  0.00     0.022 A 
BRANCH  80  84
ATOM     84  S   UNL A   1      44.340  24.555  28.714  1.00  0.00     0.124 S 
ATOM     85  O   UNL A   1      45.385  24.669  29.724  1.00  0.00    -0.237 OA
ATOM     86  O   UNL A   1      42.973  24.434  29.214  1.00  0.00    -0.237 OA
ATOM     87  O   UNL A   1      44.643  23.687  27.580  1.00  0.00    -0.744 OA
ENDBRANCH  80  84
ENDBRANCH  53  77
BRANCH  65  88
ATOM     88  C   UNL A   1      42.506  35.664  29.180  1.00  0.00     0.023 A 
ATOM     89  C   UNL A   1      43.353  36.510  29.900  1.00  0.00     0.031 A 
ATOM     90  C   UNL A   1      41.872  36.256  28.056  1.00  0.00     0.131 A 
ATOM     91  C   UNL A   1      43.465  37.874  29.588  1.00  0.00     0.055 A 
ATOM     92  C   UNL A   1      42.053  37.594  27.691  1.00  0.00     0.041 A 
ATOM     93  F   UNL A   1      41.066  35.562  27.240  1.00  0.00    -0.206 F 
ATOM     94  C   UNL A   1      42.839  38.421  28.474  1.00  0.00     0.022 A 
BRANCH  91  95
ATOM     95  S   UNL A   1      44.396  38.915  30.735  1.00  0.00     0.124 S 
ATOM     96  O   UNL A   1      44.834  37.942  31.733  1.00  0.00    -0.237 OA
ATOM     97  O   UNL A   1      45.449  39.456  29.880  1.00  0.00    -0.237 OA
ATOM     98  O   UNL A   1      43.409  39.885  31.200  1.00  0.00    -0.744 OA
ENDBRANCH  91  95
ENDBRANCH  65  88
ENDBRANCH  39  40
ENDBRANCH  32  34
ENDBRANCH  31  32
ENDBRANCH  30  31
ENDBRANCH   1  30
TORSDOF 19
ENDMDL
MODEL 2
REMARK VINA RESULT:     -11.9      3.474      6.046
REMARK SMILES Cc1cccc(NC(=O)COc2ccc(N3C[C@@H](C(=O)OCCOC(=O)c4ccc(-c5c6nc(c(-c7cc(S(=O)(=O)[O-])ccc7F)c7ccc([nH]7)c(-c7cc(S(=O)(=O)[O-])ccc7F)c7nc(c(-c8cc(S(=O)(=O)[O-])ccc8F)c8ccc5[nH]8)C=C7)C=C6)cc4)CC3=O)cc2)c1
REMARK SMILES IDX 22 1 21 2 19 3 20 4 18 5 16 6 17 7 91 8 90 9 92 10 15 11
REMARK SMILES IDX 12 12 13 13 94 14 14 15 93 16 11 17 10 18 8 19 7 20 9 22
REMARK SMILES IDX 6 23 1 24 2 25 3 26 95 27 4 28 5 29 23 30 24 31 25 32 26 33
REMARK SMILES IDX 27 34 28 35 89 36 29 37 88 38 30 39 31 40 32 41 82 42 33 43
REMARK SMILES IDX 87 44 81 45 83 46 34 47 86 48 80 49 79 50 35 52 67 53 47 54
REMARK SMILES IDX 66 55 48 56 51 57 65 58 84 59 49 60 50 61 64 63 85 64 52 65
REMARK SMILES IDX 36 66 37 67 45 68 38 69 44 70 46 71 43 72 39 73 40 74 41 75
REMARK SMILES IDX 42 76 68 77 69 78 77 79 70 80 76 81 78 82 75 83 71 84 72 85
REMARK SMILES IDX 73 86 74 87 53 88 54 89 62 90 55 91 61 92 63 93 60 94 56 95
REMARK SMILES IDX 57 96 58 97 59 98
REMARK H PARENT 7 21 83 51 51 62
REMARK Flexibility Score: inf
ROOT
ATOM      1  C   UNL A   1      44.993  19.184  25.306  1.00  0.00     0.274 C 
ENDROOT
BRANCH   1   2
ATOM      2  O   UNL A   1      43.723  19.829  25.380  1.00  0.00    -0.462 OA
BRANCH   2   3
ATOM      3  C   UNL A   1      42.740  19.070  25.939  1.00  0.00     0.311 C 
ATOM      4  O   UNL A   1      42.630  17.873  25.816  1.00  0.00    -0.252 OA
BRANCH   3   5
ATOM      5  C   UNL A   1      41.833  19.968  26.738  1.00  0.00     0.128 C 
ATOM      6  N   UNL A   1      40.065  21.444  26.431  1.00  0.00    -0.312 N 
ATOM      7  C   UNL A   1      40.455  20.092  26.128  1.00  0.00     0.141 C 
ATOM      8  C   UNL A   1      41.161  22.246  26.745  1.00  0.00     0.227 C 
ATOM      9  C   UNL A   1      42.385  21.378  26.790  1.00  0.00     0.117 C 
ATOM     10  O   UNL A   1      41.185  23.455  26.928  1.00  0.00    -0.274 OA
BRANCH   6  11
ATOM     11  C   UNL A   1      38.837  21.930  25.953  1.00  0.00     0.044 A 
ATOM     12  C   UNL A   1      36.548  23.053  24.809  1.00  0.00     0.120 A 
ATOM     13  C   UNL A   1      36.880  21.722  24.550  1.00  0.00     0.048 A 
ATOM     14  C   UNL A   1      37.337  23.800  25.678  1.00  0.00     0.048 A 
ATOM     15  C   UNL A   1      38.045  21.168  25.092  1.00  0.00     0.030 A 
ATOM     16  C   UNL A   1      38.464  23.235  26.265  1.00  0.00     0.030 A 
BRANCH  12  17
ATOM     17  O   UNL A   1      35.399  23.513  24.235  1.00  0.00    -0.484 OA
BRANCH  17  18
ATOM     18  C   UNL A   1      34.436  22.530  23.892  1.00  0.00     0.329 C 
BRANCH  18  19
ATOM     19  C   UNL A   1      33.303  22.169  24.859  1.00  0.00     0.262 C 
ATOM     20  N   UNL A   1      32.778  20.917  24.974  1.00  0.00    -0.323 N 
ATOM     21  H   UNL A   1      32.165  20.828  25.738  1.00  0.00     0.170 HD
ATOM     22  O   UNL A   1      32.842  23.030  25.621  1.00  0.00    -0.271 OA
BRANCH  20  23
ATOM     23  C   UNL A   1      32.918  19.726  24.245  1.00  0.00     0.041 A 
ATOM     24  C   UNL A   1      34.916  16.506  24.758  1.00  0.00     0.044 C 
ATOM     25  C   UNL A   1      33.993  17.528  24.164  1.00  0.00    -0.049 A 
ATOM     26  C   UNL A   1      33.307  17.247  22.981  1.00  0.00     0.003 A 
ATOM     27  C   UNL A   1      33.791  18.768  24.787  1.00  0.00     0.029 A 
ATOM     28  C   UNL A   1      32.431  18.185  22.442  1.00  0.00     0.002 A 
ATOM     29  C   UNL A   1      32.228  19.414  23.078  1.00  0.00     0.026 A 
ENDBRANCH  20  23
ENDBRANCH  18  19
ENDBRANCH  17  18
ENDBRANCH  12  17
ENDBRANCH   6  11
ENDBRANCH   3   5
ENDBRANCH   2   3
ENDBRANCH   1   2
BRANCH   1  30
ATOM     30  C   UNL A   1      46.089  20.218  25.022  1.00  0.00     0.275 C 
BRANCH  30  31
ATOM     31  O   UNL A   1      45.888  21.591  25.488  1.00  0.00    -0.458 OA
BRANCH  31  32
ATOM     32  C   UNL A   1      45.272  22.643  24.875  1.00  0.00     0.338 C 
ATOM     33  O   UNL A   1      44.733  22.504  23.783  1.00  0.00    -0.246 OA
BRANCH  32  34
ATOM     34  C   UNL A   1      45.120  23.902  25.636  1.00  0.00     0.060 A 
ATOM     35  C   UNL A   1      44.855  25.108  24.959  1.00  0.00     0.016 A 
ATOM     36  C   UNL A   1      45.070  23.860  27.017  1.00  0.00     0.016 A 
ATOM     37  C   UNL A   1      44.333  26.203  25.653  1.00  0.00     0.010 A 
ATOM     38  C   UNL A   1      44.420  24.873  27.677  1.00  0.00     0.010 A 
ATOM     39  C   UNL A   1      44.050  26.052  27.008  1.00  0.00    -0.014 A 
BRANCH  39  40
ATOM     40  C   UNL A   1      43.608  27.119  27.899  1.00  0.00     0.031 A 
ATOM     41  C   UNL A   1      42.303  27.803  27.807  1.00  0.00     0.074 A 
ATOM     42  C   UNL A   1      44.461  27.344  28.923  1.00  0.00     0.049 A 
ATOM     43  N   UNL A   1      42.071  28.987  28.264  1.00  0.00    -0.248 NA
ATOM     44  C   UNL A   1      41.123  27.209  27.187  1.00  0.00     0.031 C 
ATOM     45  C   UNL A   1      44.285  28.113  30.139  1.00  0.00     0.029 A 
ATOM     46  N   UNL A   1      45.810  26.980  28.964  1.00  0.00    -0.354 N 
ATOM     47  C   UNL A   1      40.697  29.147  28.329  1.00  0.00     0.074 A 
ATOM     48  C   UNL A   1      40.162  28.081  27.521  1.00  0.00     0.031 C 
ATOM     49  C   UNL A   1      45.508  28.442  30.603  1.00  0.00     0.029 A 
ATOM     50  C   UNL A   1      46.469  28.030  29.584  1.00  0.00     0.049 A 
ATOM     51  H   UNL A   1      46.209  26.147  28.622  1.00  0.00     0.167 HD
ATOM     52  C   UNL A   1      40.169  30.037  29.222  1.00  0.00     0.034 A 
ATOM     53  C   UNL A   1      47.303  28.854  28.880  1.00  0.00     0.034 A 
ATOM     54  C   UNL A   1      41.238  30.686  29.975  1.00  0.00     0.049 A 
ATOM     55  C   UNL A   1      46.825  30.280  28.991  1.00  0.00     0.074 A 
ATOM     56  C   UNL A   1      41.756  30.438  31.235  1.00  0.00     0.029 A 
ATOM     57  N   UNL A   1      42.137  31.517  29.325  1.00  0.00    -0.354 N 
ATOM     58  N   UNL A   1      45.569  30.633  29.070  1.00  0.00    -0.248 NA
ATOM     59  C   UNL A   1      47.743  31.401  29.114  1.00  0.00     0.031 C 
ATOM     60  C   UNL A   1      43.019  31.076  31.313  1.00  0.00     0.029 A 
ATOM     61  C   UNL A   1      43.248  31.730  30.114  1.00  0.00     0.049 A 
ATOM     62  H   UNL A   1      42.002  31.902  28.429  1.00  0.00     0.167 HD
ATOM     63  C   UNL A   1      45.501  31.971  29.373  1.00  0.00     0.074 A 
ATOM     64  C   UNL A   1      46.889  32.407  29.356  1.00  0.00     0.031 C 
ATOM     65  C   UNL A   1      44.322  32.602  29.670  1.00  0.00     0.034 A 
BRANCH  52  66
ATOM     66  C   UNL A   1      38.723  30.106  29.682  1.00  0.00     0.023 A 
ATOM     67  C   UNL A   1      37.982  31.282  29.413  1.00  0.00     0.031 A 
ATOM     68  C   UNL A   1      38.023  29.107  30.378  1.00  0.00     0.131 A 
ATOM     69  C   UNL A   1      36.676  31.474  29.900  1.00  0.00     0.055 A 
ATOM     70  C   UNL A   1      36.724  29.302  30.883  1.00  0.00     0.041 A 
ATOM     71  F   UNL A   1      38.543  27.885  30.564  1.00  0.00    -0.206 F 
ATOM     72  C   UNL A   1      36.049  30.495  30.659  1.00  0.00     0.022 A 
BRANCH  69  73
ATOM     73  S   UNL A   1      35.826  33.036  29.533  1.00  0.00     0.124 S 
ATOM     74  O   UNL A   1      35.267  33.396  30.832  1.00  0.00    -0.237 OA
ATOM     75  O   UNL A   1      36.913  33.876  29.043  1.00  0.00    -0.237 OA
ATOM     76  O   UNL A   1      34.838  32.656  28.523  1.00  0.00    -0.744 OA
ENDBRANCH  69  73
ENDBRANCH  52  66
BRANCH  53  77
ATOM     77  C   UNL A   1      47.928  28.250  27.655  1.00  0.00     0.023 A 
ATOM     78  C   UNL A   1      49.117  27.503  27.821  1.00  0.00     0.031 A 
ATOM     79  C   UNL A   1      47.231  28.087  26.447  1.00  0.00     0.131 A 
ATOM     80  C   UNL A   1      49.475  26.512  26.891  1.00  0.00     0.055 A 
ATOM     81  C   UNL A   1      47.638  27.150  25.484  1.00  0.00     0.041 A 
ATOM     82  F   UNL A   1      46.088  28.749  26.220  1.00  0.00    -0.206 F 
ATOM     83  C   UNL A   1      48.739  26.328  25.721  1.00  0.00     0.022 A 
BRANCH  80  84
ATOM     84  S   UNL A   1      50.723  25.277  27.379  1.00  0.00     0.124 S 
ATOM     85  O   UNL A   1      49.891  24.164  27.822  1.00  0.00    -0.237 OA
ATOM     86  O   UNL A   1      51.463  25.071  26.137  1.00  0.00    -0.237 OA
ATOM     87  O   UNL A   1      51.481  25.960  28.423  1.00  0.00    -0.744 OA
ENDBRANCH  80  84
ENDBRANCH  53  77
BRANCH  65  88
ATOM     88  C   UNL A   1      44.091  34.097  29.724  1.00  0.00     0.023 A 
ATOM     89  C   UNL A   1      43.629  34.834  28.631  1.00  0.00     0.031 A 
ATOM     90  C   UNL A   1      44.260  34.838  30.924  1.00  0.00     0.131 A 
ATOM     91  C   UNL A   1      43.461  36.225  28.702  1.00  0.00     0.055 A 
ATOM     92  C   UNL A   1      44.006  36.209  31.020  1.00  0.00     0.041 A 
ATOM     93  F   UNL A   1      44.653  34.264  32.071  1.00  0.00    -0.206 F 
ATOM     94  C   UNL A   1      43.624  36.919  29.896  1.00  0.00     0.022 A 
BRANCH  91  95
ATOM     95  S   UNL A   1      43.096  37.098  27.163  1.00  0.00     0.124 S 
ATOM     96  O   UNL A   1      42.886  35.990  26.234  1.00  0.00    -0.237 OA
ATOM     97  O   UNL A   1      41.901  37.861  27.513  1.00  0.00    -0.237 OA
ATOM     98  O   UNL A   1      44.297  37.893  26.923  1.00  0.00    -0.744 OA
ENDBRANCH  91  95
ENDBRANCH  65  88
ENDBRANCH  39  40
ENDBRANCH  32  34
ENDBRANCH  31  32
ENDBRANCH  30  31
ENDBRANCH   1  30
TORSDOF 19
ENDMDL
MODEL 3
REMARK VINA RESULT:     -11.8      3.921     10.622
REMARK SMILES Cc1cccc(NC(=O)COc2ccc(N3C[C@@H](C(=O)OCCOC(=O)c4ccc(-c5c6nc(c(-c7cc(S(=O)(=O)[O-])ccc7F)c7ccc([nH]7)c(-c7cc(S(=O)(=O)[O-])ccc7F)c7nc(c(-c8cc(S(=O)(=O)[O-])ccc8F)c8ccc5[nH]8)C=C7)C=C6)cc4)CC3=O)cc2)c1
REMARK SMILES IDX 22 1 21 2 19 3 20 4 18 5 16 6 17 7 91 8 90 9 92 10 15 11
REMARK SMILES IDX 12 12 13 13 94 14 14 15 93 16 11 17 10 18 8 19 7 20 9 22
REMARK SMILES IDX 6 23 1 24 2 25 3 26 95 27 4 28 5 29 23 30 24 31 25 32 26 33
REMARK SMILES IDX 27 34 28 35 89 36 29 37 88 38 30 39 31 40 32 41 82 42 33 43
REMARK SMILES IDX 87 44 81 45 83 46 34 47 86 48 80 49 79 50 35 52 67 53 47 54
REMARK SMILES IDX 66 55 48 56 51 57 65 58 84 59 49 60 50 61 64 63 85 64 52 65
REMARK SMILES IDX 36 66 37 67 45 68 38 69 44 70 46 71 43 72 39 73 40 74 41 75
REMARK SMILES IDX 42 76 68 77 69 78 77 79 70 80 76 81 78 82 75 83 71 84 72 85
REMARK SMILES IDX 73 86 74 87 53 88 54 89 62 90 55 91 61 92 63 93 60 94 56 95
REMARK SMILES IDX 57 96 58 97 59 98
REMARK H PARENT 7 21 83 51 51 62
REMARK Flexibility Score: inf
ROOT
ATOM      1  C   UNL A   1      32.632  35.811  32.294  1.00  0.00     0.274 C 
ENDROOT
BRANCH   1   2
ATOM      2  O   UNL A   1      33.134  34.997  31.236  1.00  0.00    -0.462 OA
BRANCH   2   3
ATOM      3  C   UNL A   1      32.986  35.538  29.994  1.00  0.00     0.311 C 
ATOM      4  O   UNL A   1      32.217  36.425  29.708  1.00  0.00    -0.252 OA
BRANCH   3   5
ATOM      5  C   UNL A   1      33.945  34.857  29.054  1.00  0.00     0.128 C 
ATOM      6  N   UNL A   1      34.459  32.733  28.262  1.00  0.00    -0.312 N 
ATOM      7  C   UNL A   1      33.344  33.635  28.397  1.00  0.00     0.141 C 
ATOM      8  C   UNL A   1      35.509  33.071  29.114  1.00  0.00     0.227 C 
ATOM      9  C   UNL A   1      35.166  34.360  29.801  1.00  0.00     0.117 C 
ATOM     10  O   UNL A   1      36.537  32.445  29.329  1.00  0.00    -0.274 OA
BRANCH   6  11
ATOM     11  C   UNL A   1      34.247  31.451  27.732  1.00  0.00     0.044 A 
ATOM     12  C   UNL A   1      33.817  28.801  26.956  1.00  0.00     0.120 A 
ATOM     13  C   UNL A   1      32.782  29.733  26.869  1.00  0.00     0.048 A 
ATOM     14  C   UNL A   1      35.076  29.211  27.385  1.00  0.00     0.048 A 
ATOM     15  C   UNL A   1      32.984  31.051  27.291  1.00  0.00     0.030 A 
ATOM     16  C   UNL A   1      35.295  30.534  27.751  1.00  0.00     0.030 A 
BRANCH  12  17
ATOM     17  O   UNL A   1      33.532  27.537  26.528  1.00  0.00    -0.484 OA
BRANCH  17  18
ATOM     18  C   UNL A   1      33.910  27.228  25.196  1.00  0.00     0.329 C 
BRANCH  18  19
ATOM     19  C   UNL A   1      33.581  25.863  24.583  1.00  0.00     0.262 C 
ATOM     20  N   UNL A   1      32.416  25.588  23.932  1.00  0.00    -0.323 N 
ATOM     21  H   UNL A   1      32.428  24.716  23.477  1.00  0.00     0.170 HD
ATOM     22  O   UNL A   1      34.414  24.947  24.629  1.00  0.00    -0.271 OA
BRANCH  20  23
ATOM     23  C   UNL A   1      31.202  26.272  23.767  1.00  0.00     0.041 A 
ATOM     24  C   UNL A   1      30.199  29.546  22.064  1.00  0.00     0.044 C 
ATOM     25  C   UNL A   1      30.119  28.253  22.820  1.00  0.00    -0.049 A 
ATOM     26  C   UNL A   1      28.885  27.783  23.273  1.00  0.00     0.003 A 
ATOM     27  C   UNL A   1      31.269  27.491  23.071  1.00  0.00     0.029 A 
ATOM     28  C   UNL A   1      28.806  26.570  23.953  1.00  0.00     0.002 A 
ATOM     29  C   UNL A   1      29.958  25.813  24.187  1.00  0.00     0.026 A 
ENDBRANCH  20  23
ENDBRANCH  18  19
ENDBRANCH  17  18
ENDBRANCH  12  17
ENDBRANCH   6  11
ENDBRANCH   3   5
ENDBRANCH   2   3
ENDBRANCH   1   2
BRANCH   1  30
ATOM     30  C   UNL A   1      33.753  36.697  32.850  1.00  0.00     0.275 C 
BRANCH  30  31
ATOM     31  O   UNL A   1      35.073  36.100  33.059  1.00  0.00    -0.458 OA
BRANCH  31  32
ATOM     32  C   UNL A   1      35.423  34.961  33.724  1.00  0.00     0.338 C 
ATOM     33  O   UNL A   1      34.854  34.640  34.761  1.00  0.00    -0.246 OA
BRANCH  32  34
ATOM     34  C   UNL A   1      36.379  34.039  33.072  1.00  0.00     0.060 A 
ATOM     35  C   UNL A   1      37.446  34.552  32.311  1.00  0.00     0.016 A 
ATOM     36  C   UNL A   1      36.319  32.687  33.353  1.00  0.00     0.016 A 
ATOM     37  C   UNL A   1      38.553  33.749  32.021  1.00  0.00     0.010 A 
ATOM     38  C   UNL A   1      37.460  31.939  33.205  1.00  0.00     0.010 A 
ATOM     39  C   UNL A   1      38.582  32.456  32.537  1.00  0.00    -0.014 A 
BRANCH  39  40
ATOM     40  C   UNL A   1      39.603  31.456  32.242  1.00  0.00     0.031 A 
ATOM     41  C   UNL A   1      39.368  30.220  31.469  1.00  0.00     0.074 A 
ATOM     42  C   UNL A   1      40.842  31.831  32.629  1.00  0.00     0.049 A 
ATOM     43  N   UNL A   1      40.092  29.157  31.565  1.00  0.00    -0.248 NA
ATOM     44  C   UNL A   1      38.285  30.065  30.504  1.00  0.00     0.031 C 
ATOM     45  C   UNL A   1      42.137  31.267  32.306  1.00  0.00     0.029 A 
ATOM     46  N   UNL A   1      41.145  32.805  33.585  1.00  0.00    -0.354 N 
ATOM     47  C   UNL A   1      39.814  28.362  30.467  1.00  0.00     0.074 A 
ATOM     48  C   UNL A   1      38.592  28.898  29.921  1.00  0.00     0.031 C 
ATOM     49  C   UNL A   1      43.007  31.646  33.264  1.00  0.00     0.029 A 
ATOM     50  C   UNL A   1      42.226  32.314  34.300  1.00  0.00     0.049 A 
ATOM     51  H   UNL A   1      40.684  33.664  33.721  1.00  0.00     0.167 HD
ATOM     52  C   UNL A   1      40.755  27.473  30.028  1.00  0.00     0.034 A 
ATOM     53  C   UNL A   1      42.086  31.903  35.597  1.00  0.00     0.034 A 
ATOM     54  C   UNL A   1      41.945  27.547  30.870  1.00  0.00     0.049 A 
ATOM     55  C   UNL A   1      42.504  30.459  35.723  1.00  0.00     0.074 A 
ATOM     56  C   UNL A   1      43.153  28.202  30.700  1.00  0.00     0.029 A 
ATOM     57  N   UNL A   1      41.875  27.169  32.203  1.00  0.00    -0.354 N 
ATOM     58  N   UNL A   1      42.332  29.558  34.793  1.00  0.00    -0.248 NA
ATOM     59  C   UNL A   1      43.231  29.959  36.879  1.00  0.00     0.031 C 
ATOM     60  C   UNL A   1      43.783  28.276  31.967  1.00  0.00     0.029 A 
ATOM     61  C   UNL A   1      42.970  27.644  32.893  1.00  0.00     0.049 A 
ATOM     62  H   UNL A   1      41.147  26.638  32.600  1.00  0.00     0.167 HD
ATOM     63  C   UNL A   1      43.012  28.418  35.147  1.00  0.00     0.074 A 
ATOM     64  C   UNL A   1      43.528  28.713  36.475  1.00  0.00     0.031 C 
ATOM     65  C   UNL A   1      43.149  27.347  34.304  1.00  0.00     0.034 A 
BRANCH  52  66
ATOM     66  C   UNL A   1      40.785  26.782  28.676  1.00  0.00     0.023 A 
ATOM     67  C   UNL A   1      41.828  27.103  27.774  1.00  0.00     0.031 A 
ATOM     68  C   UNL A   1      39.857  25.840  28.202  1.00  0.00     0.131 A 
ATOM     69  C   UNL A   1      41.869  26.595  26.462  1.00  0.00     0.055 A 
ATOM     70  C   UNL A   1      39.884  25.344  26.885  1.00  0.00     0.041 A 
ATOM     71  F   UNL A   1      38.911  25.324  29.000  1.00  0.00    -0.206 F 
ATOM     72  C   UNL A   1      40.884  25.732  26.002  1.00  0.00     0.022 A 
BRANCH  69  73
ATOM     73  S   UNL A   1      43.229  27.102  25.370  1.00  0.00     0.124 S 
ATOM     74  O   UNL A   1      43.544  25.858  24.673  1.00  0.00    -0.237 OA
ATOM     75  O   UNL A   1      42.611  28.152  24.568  1.00  0.00    -0.237 OA
ATOM     76  O   UNL A   1      44.259  27.563  26.301  1.00  0.00    -0.744 OA
ENDBRANCH  69  73
ENDBRANCH  52  66
BRANCH  53  77
ATOM     77  C   UNL A   1      40.961  32.542  36.362  1.00  0.00     0.023 A 
ATOM     78  C   UNL A   1      41.147  33.865  36.827  1.00  0.00     0.031 A 
ATOM     79  C   UNL A   1      39.647  32.050  36.333  1.00  0.00     0.131 A 
ATOM     80  C   UNL A   1      40.043  34.698  37.072  1.00  0.00     0.055 A 
ATOM     81  C   UNL A   1      38.550  32.866  36.656  1.00  0.00     0.041 A 
ATOM     82  F   UNL A   1      39.386  30.812  35.892  1.00  0.00    -0.206 F 
ATOM     83  C   UNL A   1      38.741  34.207  36.986  1.00  0.00     0.022 A 
BRANCH  80  84
ATOM     84  S   UNL A   1      40.326  36.494  37.201  1.00  0.00     0.124 S 
ATOM     85  O   UNL A   1      39.364  36.880  38.227  1.00  0.00    -0.237 OA
ATOM     86  O   UNL A   1      41.734  36.562  37.582  1.00  0.00    -0.237 OA
ATOM     87  O   UNL A   1      40.046  36.976  35.852  1.00  0.00    -0.744 OA
ENDBRANCH  80  84
ENDBRANCH  53  77
BRANCH  65  88
ATOM     88  C   UNL A   1      43.607  25.956  34.685  1.00  0.00     0.023 A 
ATOM     89  C   UNL A   1      44.953  25.589  34.740  1.00  0.00     0.031 A 
ATOM     90  C   UNL A   1      42.689  24.949  35.087  1.00  0.00     0.131 A 
ATOM     91  C   UNL A   1      45.345  24.280  35.061  1.00  0.00     0.055 A 
ATOM     92  C   UNL A   1      43.084  23.672  35.494  1.00  0.00     0.041 A 
ATOM     93  F   UNL A   1      41.367  25.163  35.133  1.00  0.00    -0.206 F 
ATOM     94  C   UNL A   1      44.422  23.321  35.462  1.00  0.00     0.022 A 
BRANCH  91  95
ATOM     95  S   UNL A   1      47.092  23.862  34.862  1.00  0.00     0.124 S 
ATOM     96  O   UNL A   1      47.029  22.421  34.627  1.00  0.00    -0.237 OA
ATOM     97  O   UNL A   1      47.478  24.672  33.710  1.00  0.00    -0.237 OA
ATOM     98  O   UNL A   1      47.689  24.260  36.133  1.00  0.00    -0.744 OA
ENDBRANCH  91  95
ENDBRANCH  65  88
ENDBRANCH  39  40
ENDBRANCH  32  34
ENDBRANCH  31  32
ENDBRANCH  30  31
ENDBRANCH   1  30
TORSDOF 19
ENDMDL
