MODEL 1
REMARK VINA RESULT:     -11.9      0.000      0.000
REMARK SMILES CC[C@@](C)(NC(=O)c1c(C)cc(C)[nH]c1=O)C(=O)OCCOC(=O)c1ccc(-c2c3nc(c(-c4cc(S(=O)(=O)[O-])ccc4F)c4ccc([nH]4)c(-c4cc(S(=O)(=O)[O-])ccc4F)c4nc(c(-c5cc(S(=O)(=O)[O-])ccc5F)c5ccc2[nH]5)C=C4)C=C3)cc1
REMARK SMILES IDX 21 1 20 2 19 3 17 4 18 5 3 6 4 7 2 8 1 9 5 10 6 11 7 13 8 14
REMARK SMILES IDX 9 15 15 16 10 17 11 18 14 19 16 20 12 21 13 23 22 24 23 25
REMARK SMILES IDX 24 26 25 27 26 28 87 29 27 30 86 31 28 32 29 33 30 34 80 35
REMARK SMILES IDX 31 36 85 37 79 38 81 39 32 40 84 41 78 42 77 43 33 45 65 46
REMARK SMILES IDX 45 47 64 48 46 49 49 50 63 51 82 52 47 53 48 54 62 56 83 57
REMARK SMILES IDX 50 58 34 59 35 60 43 61 36 62 42 63 44 64 41 65 37 66 38 67
REMARK SMILES IDX 39 68 40 69 66 70 67 71 75 72 68 73 74 74 76 75 73 76 69 77
REMARK SMILES IDX 70 78 71 79 72 80 51 81 52 82 60 83 53 84 59 85 61 86 58 87
REMARK SMILES IDX 54 88 55 89 56 90 57 91
REMARK H PARENT 5 12 14 22 81 44 49 55
REMARK Flexibility Score: inf
ROOT
ATOM      1  C   UNL A   1      31.426  30.263  25.632  1.00  0.00     0.275 C 
ENDROOT
BRANCH   1   2
ATOM      2  C   UNL A   1      31.368  29.819  24.178  1.00  0.00     0.274 C 
BRANCH   2   3
ATOM      3  O   UNL A   1      30.160  29.063  23.934  1.00  0.00    -0.460 OA
BRANCH   3   4
ATOM      4  C   UNL A   1      30.310  27.900  23.259  1.00  0.00     0.331 C 
ATOM      5  O   UNL A   1      30.528  27.864  22.051  1.00  0.00    -0.249 OA
BRANCH   4   6
ATOM      6  C   UNL A   1      30.021  26.621  24.103  1.00  0.00     0.135 C 
ATOM      7  C   UNL A   1      28.524  26.332  23.879  1.00  0.00     0.047 C 
BRANCH   6   8
ATOM      8  C   UNL A   1      30.874  25.429  23.526  1.00  0.00     0.037 C 
ATOM      9  C   UNL A   1      30.281  24.024  23.481  1.00  0.00     0.007 C 
ENDBRANCH   6   8
BRANCH   6  10
ATOM     10  N   UNL A   1      30.297  26.546  25.586  1.00  0.00    -0.336 N 
ATOM     11  C   UNL A   1      31.417  26.572  26.363  1.00  0.00     0.258 C 
ATOM     12  H   UNL A   1      29.472  26.458  26.118  1.00  0.00     0.165 HD
ATOM     13  O   UNL A   1      31.409  27.287  27.367  1.00  0.00    -0.269 OA
BRANCH  11  14
ATOM     14  C   UNL A   1      32.466  25.553  26.201  1.00  0.00     0.107 A 
ATOM     15  C   UNL A   1      33.577  25.843  25.482  1.00  0.00    -0.031 A 
ATOM     16  C   UNL A   1      32.265  24.162  26.689  1.00  0.00     0.261 A 
ATOM     17  C   UNL A   1      33.879  27.151  24.796  1.00  0.00     0.045 C 
ATOM     18  C   UNL A   1      34.644  24.854  25.379  1.00  0.00     0.025 A 
ATOM     19  N   UNL A   1      33.326  23.295  26.521  1.00  0.00    -0.326 N 
ATOM     20  O   UNL A   1      31.237  23.795  27.249  1.00  0.00    -0.269 OA
ATOM     21  C   UNL A   1      34.514  23.634  25.919  1.00  0.00     0.015 A 
ATOM     22  H   UNL A   1      33.225  22.374  26.853  1.00  0.00     0.169 HD
ATOM     23  C   UNL A   1      35.642  22.652  25.997  1.00  0.00     0.064 C 
ENDBRANCH  11  14
ENDBRANCH   6  10
ENDBRANCH   4   6
ENDBRANCH   3   4
ENDBRANCH   2   3
ENDBRANCH   1   2
BRANCH   1  24
ATOM     24  O   UNL A   1      32.789  30.242  26.066  1.00  0.00    -0.458 OA
BRANCH  24  25
ATOM     25  C   UNL A   1      33.113  31.203  26.960  1.00  0.00     0.338 C 
ATOM     26  O   UNL A   1      32.501  32.209  27.252  1.00  0.00    -0.246 OA
BRANCH  25  27
ATOM     27  C   UNL A   1      34.405  30.856  27.536  1.00  0.00     0.060 A 
ATOM     28  C   UNL A   1      35.289  31.871  27.895  1.00  0.00     0.016 A 
ATOM     29  C   UNL A   1      34.715  29.512  27.717  1.00  0.00     0.016 A 
ATOM     30  C   UNL A   1      36.513  31.541  28.446  1.00  0.00     0.010 A 
ATOM     31  C   UNL A   1      35.905  29.183  28.350  1.00  0.00     0.010 A 
ATOM     32  C   UNL A   1      36.797  30.199  28.730  1.00  0.00    -0.014 A 
BRANCH  32  33
ATOM     33  C   UNL A   1      37.985  29.874  29.537  1.00  0.00     0.031 A 
ATOM     34  C   UNL A   1      39.062  29.010  28.972  1.00  0.00     0.074 A 
ATOM     35  C   UNL A   1      38.050  30.386  30.782  1.00  0.00     0.049 A 
ATOM     36  N   UNL A   1      40.137  28.557  29.555  1.00  0.00    -0.248 NA
ATOM     37  C   UNL A   1      38.905  28.589  27.571  1.00  0.00     0.031 C 
ATOM     38  C   UNL A   1      37.035  31.260  31.383  1.00  0.00     0.029 A 
ATOM     39  N   UNL A   1      39.005  30.274  31.753  1.00  0.00    -0.354 N 
ATOM     40  C   UNL A   1      40.779  27.779  28.602  1.00  0.00     0.074 A 
ATOM     41  C   UNL A   1      39.963  27.808  27.407  1.00  0.00     0.031 C 
ATOM     42  C   UNL A   1      37.451  31.649  32.595  1.00  0.00     0.029 A 
ATOM     43  C   UNL A   1      38.715  30.990  32.891  1.00  0.00     0.049 A 
ATOM     44  H   UNL A   1      39.821  29.733  31.648  1.00  0.00     0.167 HD
ATOM     45  C   UNL A   1      41.944  27.101  28.731  1.00  0.00     0.034 A 
ATOM     46  C   UNL A   1      39.385  31.077  34.054  1.00  0.00     0.034 A 
ATOM     47  C   UNL A   1      42.718  27.100  29.948  1.00  0.00     0.049 A 
ATOM     48  C   UNL A   1      40.649  30.280  34.189  1.00  0.00     0.074 A 
ATOM     49  C   UNL A   1      43.905  26.447  30.218  1.00  0.00     0.029 A 
ATOM     50  N   UNL A   1      42.369  27.791  31.106  1.00  0.00    -0.354 N 
ATOM     51  N   UNL A   1      41.228  29.511  33.295  1.00  0.00    -0.248 NA
ATOM     52  C   UNL A   1      41.336  30.335  35.482  1.00  0.00     0.031 C 
ATOM     53  C   UNL A   1      44.244  26.696  31.553  1.00  0.00     0.029 A 
ATOM     54  C   UNL A   1      43.301  27.556  32.101  1.00  0.00     0.049 A 
ATOM     55  H   UNL A   1      41.574  28.364  31.202  1.00  0.00     0.167 HD
ATOM     56  C   UNL A   1      42.348  28.980  33.919  1.00  0.00     0.074 A 
ATOM     57  C   UNL A   1      42.372  29.536  35.262  1.00  0.00     0.031 C 
ATOM     58  C   UNL A   1      43.271  28.112  33.434  1.00  0.00     0.034 A 
BRANCH  45  59
ATOM     59  C   UNL A   1      42.392  26.265  27.562  1.00  0.00     0.023 A 
ATOM     60  C   UNL A   1      41.996  24.925  27.412  1.00  0.00     0.031 A 
ATOM     61  C   UNL A   1      43.271  26.804  26.606  1.00  0.00     0.131 A 
ATOM     62  C   UNL A   1      42.527  24.151  26.367  1.00  0.00     0.055 A 
ATOM     63  C   UNL A   1      43.744  26.049  25.531  1.00  0.00     0.041 A 
ATOM     64  F   UNL A   1      43.704  28.071  26.714  1.00  0.00    -0.206 F 
ATOM     65  C   UNL A   1      43.381  24.711  25.414  1.00  0.00     0.022 A 
BRANCH  62  66
ATOM     66  S   UNL A   1      42.174  22.373  26.333  1.00  0.00     0.124 S 
ATOM     67  O   UNL A   1      40.722  22.364  26.170  1.00  0.00    -0.237 OA
ATOM     68  O   UNL A   1      42.948  21.918  25.183  1.00  0.00    -0.237 OA
ATOM     69  O   UNL A   1      42.653  21.903  27.631  1.00  0.00    -0.744 OA
ENDBRANCH  62  66
ENDBRANCH  45  59
BRANCH  46  70
ATOM     70  C   UNL A   1      38.834  31.905  35.162  1.00  0.00     0.023 A 
ATOM     71  C   UNL A   1      38.253  31.314  36.292  1.00  0.00     0.031 A 
ATOM     72  C   UNL A   1      38.952  33.308  35.134  1.00  0.00     0.131 A 
ATOM     73  C   UNL A   1      37.813  32.124  37.352  1.00  0.00     0.055 A 
ATOM     74  C   UNL A   1      38.545  34.106  36.204  1.00  0.00     0.041 A 
ATOM     75  F   UNL A   1      39.517  33.920  34.080  1.00  0.00    -0.206 F 
ATOM     76  C   UNL A   1      37.968  33.513  37.322  1.00  0.00     0.022 A 
BRANCH  73  77
ATOM     77  S   UNL A   1      37.028  31.338  38.788  1.00  0.00     0.124 S 
ATOM     78  O   UNL A   1      38.015  31.581  39.834  1.00  0.00    -0.237 OA
ATOM     79  O   UNL A   1      35.777  32.080  38.899  1.00  0.00    -0.237 OA
ATOM     80  O   UNL A   1      36.885  29.943  38.376  1.00  0.00    -0.744 OA
ENDBRANCH  73  77
ENDBRANCH  46  70
BRANCH  58  81
ATOM     81  C   UNL A   1      44.377  27.714  34.367  1.00  0.00     0.023 A 
ATOM     82  C   UNL A   1      44.328  26.499  35.068  1.00  0.00     0.031 A 
ATOM     83  C   UNL A   1      45.511  28.530  34.508  1.00  0.00     0.131 A 
ATOM     84  C   UNL A   1      45.396  26.141  35.902  1.00  0.00     0.055 A 
ATOM     85  C   UNL A   1      46.588  28.148  35.305  1.00  0.00     0.041 A 
ATOM     86  F   UNL A   1      45.597  29.698  33.851  1.00  0.00    -0.206 F 
ATOM     87  C   UNL A   1      46.532  26.948  36.011  1.00  0.00     0.022 A 
BRANCH  84  88
ATOM     88  S   UNL A   1      45.276  24.604  36.858  1.00  0.00     0.124 S 
ATOM     89  O   UNL A   1      46.567  23.981  36.584  1.00  0.00    -0.237 OA
ATOM     90  O   UNL A   1      45.079  25.090  38.219  1.00  0.00    -0.237 OA
ATOM     91  O   UNL A   1      44.122  23.927  36.270  1.00  0.00    -0.744 OA
ENDBRANCH  84  88
ENDBRANCH  58  81
ENDBRANCH  32  33
ENDBRANCH  25  27
ENDBRANCH  24  25
ENDBRANCH   1  24
TORSDOF 17
ENDMDL
MODEL 2
REMARK VINA RESULT:     -11.6      5.121     10.234
REMARK SMILES CC[C@@](C)(NC(=O)c1c(C)cc(C)[nH]c1=O)C(=O)OCCOC(=O)c1ccc(-c2c3nc(c(-c4cc(S(=O)(=O)[O-])ccc4F)c4ccc([nH]4)c(-c4cc(S(=O)(=O)[O-])ccc4F)c4nc(c(-c5cc(S(=O)(=O)[O-])ccc5F)c5ccc2[nH]5)C=C4)C=C3)cc1
REMARK SMILES IDX 21 1 20 2 19 3 17 4 18 5 3 6 4 7 2 8 1 9 5 10 6 11 7 13 8 14
REMARK SMILES IDX 9 15 15 16 10 17 11 18 14 19 16 20 12 21 13 23 22 24 23 25
REMARK SMILES IDX 24 26 25 27 26 28 87 29 27 30 86 31 28 32 29 33 30 34 80 35
REMARK SMILES IDX 31 36 85 37 79 38 81 39 32 40 84 41 78 42 77 43 33 45 65 46
REMARK SMILES IDX 45 47 64 48 46 49 49 50 63 51 82 52 47 53 48 54 62 56 83 57
REMARK SMILES IDX 50 58 34 59 35 60 43 61 36 62 42 63 44 64 41 65 37 66 38 67
REMARK SMILES IDX 39 68 40 69 66 70 67 71 75 72 68 73 74 74 76 75 73 76 69 77
REMARK SMILES IDX 70 78 71 79 72 80 51 81 52 82 60 83 53 84 59 85 61 86 58 87
REMARK SMILES IDX 54 88 55 89 56 90 57 91
REMARK H PARENT 5 12 14 22 81 44 49 55
REMARK Flexibility Score: inf
ROOT
ATOM      1  C   UNL A   1      36.715  20.812  24.924  1.00  0.00     0.275 C 
ENDROOT
BRANCH   1   2
ATOM      2  C   UNL A   1      35.213  20.977  25.106  1.00  0.00     0.274 C 
BRANCH   2   3
ATOM      3  O   UNL A   1      34.684  21.873  24.101  1.00  0.00    -0.460 OA
BRANCH   3   4
ATOM      4  C   UNL A   1      33.336  21.958  24.029  1.00  0.00     0.331 C 
ATOM      5  O   UNL A   1      32.628  20.988  23.770  1.00  0.00    -0.249 OA
BRANCH   4   6
ATOM      6  C   UNL A   1      32.773  23.409  24.136  1.00  0.00     0.135 C 
ATOM      7  C   UNL A   1      31.985  23.622  22.829  1.00  0.00     0.047 C 
BRANCH   6   8
ATOM      8  C   UNL A   1      31.782  23.479  25.358  1.00  0.00     0.037 C 
ATOM      9  C   UNL A   1      32.232  22.983  26.729  1.00  0.00     0.007 C 
ENDBRANCH   6   8
BRANCH   6  10
ATOM     10  N   UNL A   1      33.661  24.611  24.352  1.00  0.00    -0.336 N 
ATOM     11  C   UNL A   1      33.468  25.889  24.785  1.00  0.00     0.258 C 
ATOM     12  H   UNL A   1      34.603  24.428  24.127  1.00  0.00     0.165 HD
ATOM     13  O   UNL A   1      34.261  26.348  25.610  1.00  0.00    -0.269 OA
BRANCH  11  14
ATOM     14  C   UNL A   1      32.558  26.796  24.066  1.00  0.00     0.107 A 
ATOM     15  C   UNL A   1      31.430  27.233  24.676  1.00  0.00    -0.031 A 
ATOM     16  C   UNL A   1      32.778  27.124  22.633  1.00  0.00     0.261 A 
ATOM     17  C   UNL A   1      30.977  26.884  26.070  1.00  0.00     0.045 C 
ATOM     18  C   UNL A   1      30.564  28.182  23.986  1.00  0.00     0.025 A 
ATOM     19  N   UNL A   1      31.887  28.013  22.065  1.00  0.00    -0.326 N 
ATOM     20  O   UNL A   1      33.716  26.673  21.983  1.00  0.00    -0.269 OA
ATOM     21  C   UNL A   1      30.823  28.572  22.730  1.00  0.00     0.015 A 
ATOM     22  H   UNL A   1      32.023  28.261  21.122  1.00  0.00     0.169 HD
ATOM     23  C   UNL A   1      30.073  29.673  22.046  1.00  0.00     0.064 C 
ENDBRANCH  11  14
ENDBRANCH   6  10
ENDBRANCH   4   6
ENDBRANCH   3   4
ENDBRANCH   2   3
ENDBRANCH   1   2
BRANCH   1  24
ATOM     24  O   UNL A   1      37.384  21.458  26.011  1.00  0.00    -0.458 OA
BRANCH  24  25
ATOM     25  C   UNL A   1      38.730  21.331  26.002  1.00  0.00     0.338 C 
ATOM     26  O   UNL A   1      39.403  20.379  25.665  1.00  0.00    -0.246 OA
BRANCH  25  27
ATOM     27  C   UNL A   1      39.297  22.566  26.524  1.00  0.00     0.060 A 
ATOM     28  C   UNL A   1      40.384  22.508  27.393  1.00  0.00     0.016 A 
ATOM     29  C   UNL A   1      38.734  23.776  26.129  1.00  0.00     0.016 A 
ATOM     30  C   UNL A   1      40.923  23.682  27.884  1.00  0.00     0.010 A 
ATOM     31  C   UNL A   1      39.329  24.956  26.552  1.00  0.00     0.010 A 
ATOM     32  C   UNL A   1      40.435  24.909  27.416  1.00  0.00    -0.014 A 
BRANCH  32  33
ATOM     33  C   UNL A   1      41.169  26.143  27.745  1.00  0.00     0.031 A 
ATOM     34  C   UNL A   1      40.537  27.182  28.609  1.00  0.00     0.074 A 
ATOM     35  C   UNL A   1      42.409  26.283  27.240  1.00  0.00     0.049 A 
ATOM     36  N   UNL A   1      40.993  28.357  28.942  1.00  0.00    -0.248 NA
ATOM     37  C   UNL A   1      39.211  26.864  29.163  1.00  0.00     0.031 C 
ATOM     38  C   UNL A   1      43.092  25.286  26.405  1.00  0.00     0.029 A 
ATOM     39  N   UNL A   1      43.325  27.289  27.367  1.00  0.00    -0.354 N 
ATOM     40  C   UNL A   1      40.005  28.934  29.728  1.00  0.00     0.074 A 
ATOM     41  C   UNL A   1      38.917  27.983  29.809  1.00  0.00     0.031 C 
ATOM     42  C   UNL A   1      44.336  25.708  26.144  1.00  0.00     0.029 A 
ATOM     43  C   UNL A   1      44.511  27.034  26.720  1.00  0.00     0.049 A 
ATOM     44  H   UNL A   1      43.152  28.117  27.871  1.00  0.00     0.167 HD
ATOM     45  C   UNL A   1      40.020  30.152  30.318  1.00  0.00     0.034 A 
ATOM     46  C   UNL A   1      45.607  27.802  26.583  1.00  0.00     0.034 A 
ATOM     47  C   UNL A   1      41.130  31.065  30.202  1.00  0.00     0.049 A 
ATOM     48  C   UNL A   1      45.580  29.167  27.207  1.00  0.00     0.074 A 
ATOM     49  C   UNL A   1      41.268  32.332  30.735  1.00  0.00     0.029 A 
ATOM     50  N   UNL A   1      42.298  30.801  29.491  1.00  0.00    -0.354 N 
ATOM     51  N   UNL A   1      44.623  29.722  27.915  1.00  0.00    -0.248 NA
ATOM     52  C   UNL A   1      46.755  30.018  26.999  1.00  0.00     0.031 C 
ATOM     53  C   UNL A   1      42.492  32.854  30.302  1.00  0.00     0.029 A 
ATOM     54  C   UNL A   1      43.148  31.891  29.547  1.00  0.00     0.049 A 
ATOM     55  H   UNL A   1      42.491  29.959  29.017  1.00  0.00     0.167 HD
ATOM     56  C   UNL A   1      45.075  30.995  28.233  1.00  0.00     0.074 A 
ATOM     57  C   UNL A   1      46.402  31.116  27.654  1.00  0.00     0.031 C 
ATOM     58  C   UNL A   1      44.452  31.976  28.934  1.00  0.00     0.034 A 
BRANCH  45  59
ATOM     59  C   UNL A   1      38.782  30.574  31.064  1.00  0.00     0.023 A 
ATOM     60  C   UNL A   1      37.680  31.150  30.409  1.00  0.00     0.031 A 
ATOM     61  C   UNL A   1      38.724  30.443  32.463  1.00  0.00     0.131 A 
ATOM     62  C   UNL A   1      36.593  31.630  31.158  1.00  0.00     0.055 A 
ATOM     63  C   UNL A   1      37.612  30.863  33.196  1.00  0.00     0.041 A 
ATOM     64  F   UNL A   1      39.758  29.926  33.144  1.00  0.00    -0.206 F 
ATOM     65  C   UNL A   1      36.543  31.470  32.545  1.00  0.00     0.022 A 
BRANCH  62  66
ATOM     66  S   UNL A   1      35.294  32.567  30.307  1.00  0.00     0.124 S 
ATOM     67  O   UNL A   1      35.003  31.699  29.169  1.00  0.00    -0.237 OA
ATOM     68  O   UNL A   1      34.252  32.658  31.323  1.00  0.00    -0.237 OA
ATOM     69  O   UNL A   1      35.947  33.830  29.970  1.00  0.00    -0.744 OA
ENDBRANCH  62  66
ENDBRANCH  45  59
BRANCH  46  70
ATOM     70  C   UNL A   1      46.765  27.303  25.793  1.00  0.00     0.023 A 
ATOM     71  C   UNL A   1      46.963  27.700  24.463  1.00  0.00     0.031 A 
ATOM     72  C   UNL A   1      47.735  26.474  26.389  1.00  0.00     0.131 A 
ATOM     73  C   UNL A   1      48.108  27.268  23.771  1.00  0.00     0.055 A 
ATOM     74  C   UNL A   1      48.887  26.076  25.709  1.00  0.00     0.041 A 
ATOM     75  F   UNL A   1      47.598  26.080  27.665  1.00  0.00    -0.206 F 
ATOM     76  C   UNL A   1      49.077  26.473  24.390  1.00  0.00     0.022 A 
BRANCH  73  77
ATOM     77  S   UNL A   1      48.323  27.763  22.038  1.00  0.00     0.124 S 
ATOM     78  O   UNL A   1      48.403  26.469  21.369  1.00  0.00    -0.237 OA
ATOM     79  O   UNL A   1      47.114  28.542  21.789  1.00  0.00    -0.237 OA
ATOM     80  O   UNL A   1      49.563  28.535  22.056  1.00  0.00    -0.744 OA
ENDBRANCH  73  77
ENDBRANCH  46  70
BRANCH  58  81
ATOM     81  C   UNL A   1      45.207  33.262  29.105  1.00  0.00     0.023 A 
ATOM     82  C   UNL A   1      45.107  34.291  28.156  1.00  0.00     0.031 A 
ATOM     83  C   UNL A   1      45.984  33.478  30.255  1.00  0.00     0.131 A 
ATOM     84  C   UNL A   1      45.795  35.494  28.366  1.00  0.00     0.055 A 
ATOM     85  C   UNL A   1      46.631  34.692  30.480  1.00  0.00     0.041 A 
ATOM     86  F   UNL A   1      46.102  32.519  31.189  1.00  0.00    -0.206 F 
ATOM     87  C   UNL A   1      46.540  35.707  29.530  1.00  0.00     0.022 A 
BRANCH  84  88
ATOM     88  S   UNL A   1      45.712  36.778  27.090  1.00  0.00     0.124 S 
ATOM     89  O   UNL A   1      46.317  36.102  25.946  1.00  0.00    -0.237 OA
ATOM     90  O   UNL A   1      44.280  37.039  26.992  1.00  0.00    -0.237 OA
ATOM     91  O   UNL A   1      46.503  37.871  27.654  1.00  0.00    -0.744 OA
ENDBRANCH  84  88
ENDBRANCH  58  81
ENDBRANCH  32  33
ENDBRANCH  25  27
ENDBRANCH  24  25
ENDBRANCH   1  24
TORSDOF 17
ENDMDL
MODEL 3
REMARK VINA RESULT:     -11.5      5.023     10.033
REMARK SMILES CC[C@@](C)(NC(=O)c1c(C)cc(C)[nH]c1=O)C(=O)OCCOC(=O)c1ccc(-c2c3nc(c(-c4cc(S(=O)(=O)[O-])ccc4F)c4ccc([nH]4)c(-c4cc(S(=O)(=O)[O-])ccc4F)c4nc(c(-c5cc(S(=O)(=O)[O-])ccc5F)c5ccc2[nH]5)C=C4)C=C3)cc1
REMARK SMILES IDX 21 1 20 2 19 3 17 4 18 5 3 6 4 7 2 8 1 9 5 10 6 11 7 13 8 14
REMARK SMILES IDX 9 15 15 16 10 17 11 18 14 19 16 20 12 21 13 23 22 24 23 25
REMARK SMILES IDX 24 26 25 27 26 28 87 29 27 30 86 31 28 32 29 33 30 34 80 35
REMARK SMILES IDX 31 36 85 37 79 38 81 39 32 40 84 41 78 42 77 43 33 45 65 46
REMARK SMILES IDX 45 47 64 48 46 49 49 50 63 51 82 52 47 53 48 54 62 56 83 57
REMARK SMILES IDX 50 58 34 59 35 60 43 61 36 62 42 63 44 64 41 65 37 66 38 67
REMARK SMILES IDX 39 68 40 69 66 70 67 71 75 72 68 73 74 74 76 75 73 76 69 77
REMARK SMILES IDX 70 78 71 79 72 80 51 81 52 82 60 83 53 84 59 85 61 86 58 87
REMARK SMILES IDX 54 88 55 89 56 90 57 91
REMARK H PARENT 5 12 14 22 81 44 49 55
REMARK Flexibility Score: inf
ROOT
ATOM      1  C   UNL A   1      37.274  20.234  25.059  1.00  0.00     0.275 C 
ENDROOT
BRANCH   1   2
ATOM      2  C   UNL A   1      35.788  20.559  25.008  1.00  0.00     0.274 C 
BRANCH   2   3
ATOM      3  O   UNL A   1      35.572  21.958  25.300  1.00  0.00    -0.460 OA
BRANCH   3   4
ATOM      4  C   UNL A   1      34.590  22.238  26.187  1.00  0.00     0.331 C 
ATOM      5  O   UNL A   1      34.515  21.684  27.281  1.00  0.00    -0.249 OA
BRANCH   4   6
ATOM      6  C   UNL A   1      33.481  23.191  25.645  1.00  0.00     0.135 C 
ATOM      7  C   UNL A   1      34.242  24.429  25.133  1.00  0.00     0.047 C 
BRANCH   6   8
ATOM      8  C   UNL A   1      32.756  22.489  24.436  1.00  0.00     0.037 C 
ATOM      9  C   UNL A   1      32.174  21.089  24.609  1.00  0.00     0.007 C 
ENDBRANCH   6   8
BRANCH   6  10
ATOM     10  N   UNL A   1      32.329  23.666  26.499  1.00  0.00    -0.336 N 
ATOM     11  C   UNL A   1      31.111  24.226  26.253  1.00  0.00     0.258 C 
ATOM     12  H   UNL A   1      32.499  23.543  27.462  1.00  0.00     0.165 HD
ATOM     13  O   UNL A   1      30.136  23.783  26.864  1.00  0.00    -0.269 OA
BRANCH  11  14
ATOM     14  C   UNL A   1      31.005  25.510  25.542  1.00  0.00     0.107 A 
ATOM     15  C   UNL A   1      30.645  25.524  24.235  1.00  0.00    -0.031 A 
ATOM     16  C   UNL A   1      31.425  26.781  26.189  1.00  0.00     0.261 A 
ATOM     17  C   UNL A   1      30.325  24.321  23.385  1.00  0.00     0.045 C 
ATOM     18  C   UNL A   1      30.477  26.801  23.552  1.00  0.00     0.025 A 
ATOM     19  N   UNL A   1      31.250  27.932  25.448  1.00  0.00    -0.326 N 
ATOM     20  O   UNL A   1      31.870  26.831  27.331  1.00  0.00    -0.269 OA
ATOM     21  C   UNL A   1      30.745  27.961  24.170  1.00  0.00     0.015 A 
ATOM     22  H   UNL A   1      31.503  28.789  25.862  1.00  0.00     0.169 HD
ATOM     23  C   UNL A   1      30.419  29.296  23.577  1.00  0.00     0.064 C 
ENDBRANCH  11  14
ENDBRANCH   6  10
ENDBRANCH   4   6
ENDBRANCH   3   4
ENDBRANCH   2   3
ENDBRANCH   1   2
BRANCH   1  24
ATOM     24  O   UNL A   1      37.987  21.403  25.471  1.00  0.00    -0.458 OA
BRANCH  24  25
ATOM     25  C   UNL A   1      39.194  21.162  26.032  1.00  0.00     0.338 C 
ATOM     26  O   UNL A   1      39.793  20.111  26.127  1.00  0.00    -0.246 OA
BRANCH  25  27
ATOM     27  C   UNL A   1      39.691  22.419  26.575  1.00  0.00     0.060 A 
ATOM     28  C   UNL A   1      40.729  22.400  27.503  1.00  0.00     0.016 A 
ATOM     29  C   UNL A   1      39.111  23.607  26.141  1.00  0.00     0.016 A 
ATOM     30  C   UNL A   1      41.203  23.594  28.014  1.00  0.00     0.010 A 
ATOM     31  C   UNL A   1      39.644  24.808  26.587  1.00  0.00     0.010 A 
ATOM     32  C   UNL A   1      40.702  24.801  27.511  1.00  0.00    -0.014 A 
BRANCH  32  33
ATOM     33  C   UNL A   1      41.376  26.061  27.871  1.00  0.00     0.031 A 
ATOM     34  C   UNL A   1      40.657  27.092  28.674  1.00  0.00     0.074 A 
ATOM     35  C   UNL A   1      42.644  26.230  27.451  1.00  0.00     0.049 A 
ATOM     36  N   UNL A   1      41.056  28.284  29.020  1.00  0.00    -0.248 NA
ATOM     37  C   UNL A   1      39.305  26.743  29.141  1.00  0.00     0.031 C 
ATOM     38  C   UNL A   1      43.410  25.243  26.680  1.00  0.00     0.029 A 
ATOM     39  N   UNL A   1      43.520  27.264  27.625  1.00  0.00    -0.354 N 
ATOM     40  C   UNL A   1      40.000  28.842  29.728  1.00  0.00     0.074 A 
ATOM     41  C   UNL A   1      38.936  27.862  29.748  1.00  0.00     0.031 C 
ATOM     42  C   UNL A   1      44.657  25.698  26.498  1.00  0.00     0.029 A 
ATOM     43  C   UNL A   1      44.755  27.036  27.064  1.00  0.00     0.049 A 
ATOM     44  H   UNL A   1      43.290  28.093  28.103  1.00  0.00     0.167 HD
ATOM     45  C   UNL A   1      39.940  30.068  30.299  1.00  0.00     0.034 A 
ATOM     46  C   UNL A   1      45.835  27.834  26.992  1.00  0.00     0.034 A 
ATOM     47  C   UNL A   1      41.029  31.011  30.245  1.00  0.00     0.049 A 
ATOM     48  C   UNL A   1      45.727  29.205  27.592  1.00  0.00     0.074 A 
ATOM     49  C   UNL A   1      41.094  32.289  30.768  1.00  0.00     0.029 A 
ATOM     50  N   UNL A   1      42.250  30.772  29.621  1.00  0.00    -0.354 N 
ATOM     51  N   UNL A   1      44.708  29.741  28.224  1.00  0.00    -0.248 NA
ATOM     52  C   UNL A   1      46.889  30.087  27.452  1.00  0.00     0.031 C 
ATOM     53  C   UNL A   1      42.330  32.841  30.412  1.00  0.00     0.029 A 
ATOM     54  C   UNL A   1      43.063  31.887  29.718  1.00  0.00     0.049 A 
ATOM     55  H   UNL A   1      42.499  29.930  29.174  1.00  0.00     0.167 HD
ATOM     56  C   UNL A   1      45.101  31.031  28.554  1.00  0.00     0.074 A 
ATOM     57  C   UNL A   1      46.461  31.183  28.065  1.00  0.00     0.031 C 
ATOM     58  C   UNL A   1      44.404  32.002  29.195  1.00  0.00     0.034 A 
BRANCH  45  59
ATOM     59  C   UNL A   1      38.642  30.463  30.952  1.00  0.00     0.023 A 
ATOM     60  C   UNL A   1      37.618  31.110  30.238  1.00  0.00     0.031 A 
ATOM     61  C   UNL A   1      38.445  30.234  32.325  1.00  0.00     0.131 A 
ATOM     62  C   UNL A   1      36.471  31.560  30.913  1.00  0.00     0.055 A 
ATOM     63  C   UNL A   1      37.274  30.625  32.977  1.00  0.00     0.041 A 
ATOM     64  F   UNL A   1      39.400  29.645  33.062  1.00  0.00    -0.206 F 
ATOM     65  C   UNL A   1      36.284  31.302  32.273  1.00  0.00     0.022 A 
BRANCH  62  66
ATOM     66  S   UNL A   1      35.276  32.586  30.013  1.00  0.00     0.124 S 
ATOM     67  O   UNL A   1      36.107  33.718  29.610  1.00  0.00    -0.237 OA
ATOM     68  O   UNL A   1      34.841  31.699  28.940  1.00  0.00    -0.237 OA
ATOM     69  O   UNL A   1      34.261  32.891  31.019  1.00  0.00    -0.744 OA
ENDBRANCH  62  66
ENDBRANCH  45  59
BRANCH  46  70
ATOM     70  C   UNL A   1      47.059  27.358  26.290  1.00  0.00     0.023 A 
ATOM     71  C   UNL A   1      48.074  26.678  26.979  1.00  0.00     0.031 A 
ATOM     72  C   UNL A   1      47.192  27.514  24.897  1.00  0.00     0.131 A 
ATOM     73  C   UNL A   1      49.179  26.177  26.271  1.00  0.00     0.055 A 
ATOM     74  C   UNL A   1      48.274  26.984  24.194  1.00  0.00     0.041 A 
ATOM     75  F   UNL A   1      46.238  28.143  24.192  1.00  0.00    -0.206 F 
ATOM     76  C   UNL A   1      49.278  26.312  24.883  1.00  0.00     0.022 A 
BRANCH  73  77
ATOM     77  S   UNL A   1      50.499  25.335  27.189  1.00  0.00     0.124 S 
ATOM     78  O   UNL A   1      51.420  24.972  26.117  1.00  0.00    -0.237 OA
ATOM     79  O   UNL A   1      50.954  26.380  28.100  1.00  0.00    -0.237 OA
ATOM     80  O   UNL A   1      49.810  24.215  27.826  1.00  0.00    -0.744 OA
ENDBRANCH  73  77
ENDBRANCH  46  70
BRANCH  58  81
ATOM     81  C   UNL A   1      45.109  33.312  29.398  1.00  0.00     0.023 A 
ATOM     82  C   UNL A   1      44.956  34.364  28.483  1.00  0.00     0.031 A 
ATOM     83  C   UNL A   1      45.889  33.524  30.547  1.00  0.00     0.131 A 
ATOM     84  C   UNL A   1      45.598  35.587  28.723  1.00  0.00     0.055 A 
ATOM     85  C   UNL A   1      46.489  34.755  30.802  1.00  0.00     0.041 A 
ATOM     86  F   UNL A   1      46.056  32.543  31.449  1.00  0.00    -0.206 F 
ATOM     87  C   UNL A   1      46.347  35.795  29.885  1.00  0.00     0.022 A 
BRANCH  84  88
ATOM     88  S   UNL A   1      45.450  36.905  27.487  1.00  0.00     0.124 S 
ATOM     89  O   UNL A   1      45.468  38.102  28.323  1.00  0.00    -0.237 OA
ATOM     90  O   UNL A   1      46.627  36.693  26.652  1.00  0.00    -0.237 OA
ATOM     91  O   UNL A   1      44.171  36.622  26.838  1.00  0.00    -0.744 OA
ENDBRANCH  84  88
ENDBRANCH  58  81
ENDBRANCH  32  33
ENDBRANCH  25  27
ENDBRANCH  24  25
ENDBRANCH   1  24
TORSDOF 17
ENDMDL
