MODEL 1
REMARK VINA RESULT:     -11.6      0.000      0.000
REMARK SMILES CCc1noc(C)c1C(=O)Nc1cc(Cl)ccc1C(=O)OCCOC(=O)c1ccc(-c2c3nc(c(-c4cc(S(=O)(=O)[O-])ccc4F)c4ccc([nH]4)c(-c4cc(S(=O)(=O)[O-])ccc4F)c4nc(c(-c5cc(S(=O)(=O)[O-])ccc5F)c5ccc2[nH]5)C=C4)C=C3)cc1
REMARK SMILES IDX 22 1 21 2 19 3 20 4 18 5 12 6 13 7 14 8 17 9 15 10 16 11
REMARK SMILES IDX 11 12 9 13 10 14 8 16 3 17 4 18 5 19 6 20 7 21 2 22 1 23
REMARK SMILES IDX 23 24 24 25 25 26 26 27 27 28 28 29 89 30 29 31 88 32 30 33
REMARK SMILES IDX 31 34 32 35 82 36 33 37 87 38 81 39 83 40 34 41 86 42 80 43
REMARK SMILES IDX 79 44 35 46 67 47 47 48 66 49 48 50 51 51 65 52 84 53 49 54
REMARK SMILES IDX 50 55 64 57 85 58 52 59 36 60 37 61 45 62 38 63 44 64 46 65
REMARK SMILES IDX 43 66 39 67 40 68 41 69 42 70 68 71 69 72 77 73 70 74 76 75
REMARK SMILES IDX 78 76 75 77 71 78 72 79 73 80 74 81 53 82 54 83 62 84 55 85
REMARK SMILES IDX 61 86 63 87 60 88 56 89 57 90 58 91 59 92
REMARK H PARENT 11 15 83 45 51 56
REMARK Flexibility Score: inf
ROOT
ATOM      1  C   UNL A   1      36.884  22.610  23.443  1.00  0.00     0.275 C 
ENDROOT
BRANCH   1   2
ATOM      2  O   UNL A   1      35.991  23.516  24.128  1.00  0.00    -0.458 OA
BRANCH   2   3
ATOM      3  C   UNL A   1      34.861  23.870  23.470  1.00  0.00     0.340 C 
ATOM      4  O   UNL A   1      34.443  23.333  22.454  1.00  0.00    -0.246 OA
BRANCH   3   5
ATOM      5  C   UNL A   1      34.139  25.010  24.128  1.00  0.00     0.083 A 
ATOM      6  C   UNL A   1      33.935  25.157  25.521  1.00  0.00     0.057 A 
ATOM      7  C   UNL A   1      33.307  26.318  25.996  1.00  0.00     0.047 A 
ATOM      8  C   UNL A   1      32.786  27.262  25.105  1.00  0.00     0.043 A 
ATOM      9  C   UNL A   1      33.610  25.977  23.250  1.00  0.00     0.019 A 
ATOM     10  Cl  UNL A   1      31.971  28.649  25.713  1.00  0.00    -0.084 Cl
ATOM     11  C   UNL A   1      32.912  27.083  23.733  1.00  0.00     0.021 A 
BRANCH   6  12
ATOM     12  N   UNL A   1      34.396  24.166  26.406  1.00  0.00    -0.321 N 
ATOM     13  C   UNL A   1      33.867  23.004  26.914  1.00  0.00     0.261 C 
ATOM     14  O   UNL A   1      34.410  22.558  27.929  1.00  0.00    -0.269 OA
ATOM     15  H   UNL A   1      35.305  24.345  26.736  1.00  0.00     0.170 HD
BRANCH  13  16
ATOM     16  C   UNL A   1      32.776  22.287  26.277  1.00  0.00     0.105 A 
ATOM     17  C   UNL A   1      32.891  21.125  25.443  1.00  0.00     0.096 A 
ATOM     18  N   UNL A   1      31.687  20.687  25.054  1.00  0.00    -0.084 NA
ATOM     19  O   UNL A   1      30.787  21.632  25.485  1.00  0.00    -0.361 OA
ATOM     20  C   UNL A   1      31.438  22.620  26.154  1.00  0.00     0.146 A 
ATOM     21  C   UNL A   1      30.578  23.767  26.514  1.00  0.00     0.092 C 
BRANCH  17  22
ATOM     22  C   UNL A   1      34.126  20.414  24.988  1.00  0.00     0.057 C 
ATOM     23  C   UNL A   1      33.924  18.925  24.719  1.00  0.00     0.011 C 
ENDBRANCH  17  22
ENDBRANCH  13  16
ENDBRANCH   6  12
ENDBRANCH   3   5
ENDBRANCH   2   3
ENDBRANCH   1   2
BRANCH   1  24
ATOM     24  C   UNL A   1      37.216  21.381  24.292  1.00  0.00     0.275 C 
BRANCH  24  25
ATOM     25  O   UNL A   1      37.522  21.747  25.650  1.00  0.00    -0.458 OA
BRANCH  25  26
ATOM     26  C   UNL A   1      38.791  21.486  26.039  1.00  0.00     0.338 C 
ATOM     27  O   UNL A   1      39.434  20.469  25.821  1.00  0.00    -0.246 OA
BRANCH  26  28
ATOM     28  C   UNL A   1      39.386  22.694  26.626  1.00  0.00     0.060 A 
ATOM     29  C   UNL A   1      38.893  23.921  26.180  1.00  0.00     0.016 A 
ATOM     30  C   UNL A   1      40.466  22.644  27.509  1.00  0.00     0.016 A 
ATOM     31  C   UNL A   1      39.490  25.106  26.591  1.00  0.00     0.010 A 
ATOM     32  C   UNL A   1      41.056  23.843  27.938  1.00  0.00     0.010 A 
ATOM     33  C   UNL A   1      40.585  25.083  27.465  1.00  0.00    -0.014 A 
BRANCH  33  34
ATOM     34  C   UNL A   1      41.272  26.364  27.793  1.00  0.00     0.031 A 
ATOM     35  C   UNL A   1      42.645  26.641  27.242  1.00  0.00     0.074 A 
ATOM     36  C   UNL A   1      40.635  27.311  28.509  1.00  0.00     0.049 A 
ATOM     37  N   UNL A   1      43.431  27.667  27.448  1.00  0.00    -0.248 NA
ATOM     38  C   UNL A   1      43.209  25.622  26.344  1.00  0.00     0.031 C 
ATOM     39  C   UNL A   1      39.282  27.187  29.054  1.00  0.00     0.029 A 
ATOM     40  N   UNL A   1      41.030  28.571  28.883  1.00  0.00    -0.354 N 
ATOM     41  C   UNL A   1      44.598  27.401  26.737  1.00  0.00     0.074 A 
ATOM     42  C   UNL A   1      44.419  26.108  26.110  1.00  0.00     0.031 C 
ATOM     43  C   UNL A   1      38.948  28.338  29.662  1.00  0.00     0.029 A 
ATOM     44  C   UNL A   1      40.081  29.256  29.607  1.00  0.00     0.049 A 
ATOM     45  H   UNL A   1      41.910  28.950  28.656  1.00  0.00     0.167 HD
ATOM     46  C   UNL A   1      45.715  28.165  26.621  1.00  0.00     0.034 A 
ATOM     47  C   UNL A   1      40.126  30.475  30.182  1.00  0.00     0.034 A 
ATOM     48  C   UNL A   1      45.869  29.466  27.226  1.00  0.00     0.049 A 
ATOM     49  C   UNL A   1      41.387  31.293  30.062  1.00  0.00     0.074 A 
ATOM     50  C   UNL A   1      46.957  30.322  27.172  1.00  0.00     0.029 A 
ATOM     51  N   UNL A   1      44.903  30.107  27.991  1.00  0.00    -0.354 N 
ATOM     52  N   UNL A   1      42.505  31.001  29.439  1.00  0.00    -0.248 NA
ATOM     53  C   UNL A   1      41.392  32.600  30.731  1.00  0.00     0.031 C 
ATOM     54  C   UNL A   1      46.668  31.454  27.944  1.00  0.00     0.029 A 
ATOM     55  C   UNL A   1      45.376  31.337  28.429  1.00  0.00     0.049 A 
ATOM     56  H   UNL A   1      44.011  29.743  28.193  1.00  0.00     0.167 HD
ATOM     57  C   UNL A   1      43.345  32.093  29.637  1.00  0.00     0.074 A 
ATOM     58  C   UNL A   1      42.594  33.060  30.412  1.00  0.00     0.031 C 
ATOM     59  C   UNL A   1      44.623  32.279  29.221  1.00  0.00     0.034 A 
BRANCH  46  60
ATOM     60  C   UNL A   1      46.878  27.575  25.861  1.00  0.00     0.023 A 
ATOM     61  C   UNL A   1      47.174  27.950  24.539  1.00  0.00     0.031 A 
ATOM     62  C   UNL A   1      47.679  26.586  26.461  1.00  0.00     0.131 A 
ATOM     63  C   UNL A   1      48.194  27.288  23.836  1.00  0.00     0.055 A 
ATOM     64  C   UNL A   1      48.742  25.987  25.782  1.00  0.00     0.041 A 
ATOM     65  F   UNL A   1      47.431  26.173  27.712  1.00  0.00    -0.206 F 
ATOM     66  C   UNL A   1      48.996  26.327  24.457  1.00  0.00     0.022 A 
BRANCH  63  67
ATOM     67  S   UNL A   1      48.364  27.599  22.057  1.00  0.00     0.124 S 
ATOM     68  O   UNL A   1      49.520  28.492  22.024  1.00  0.00    -0.237 OA
ATOM     69  O   UNL A   1      48.575  26.259  21.523  1.00  0.00    -0.237 OA
ATOM     70  O   UNL A   1      47.093  28.224  21.697  1.00  0.00    -0.744 OA
ENDBRANCH  63  67
ENDBRANCH  46  60
BRANCH  47  71
ATOM     71  C   UNL A   1      38.968  30.977  30.976  1.00  0.00     0.023 A 
ATOM     72  C   UNL A   1      37.934  31.710  30.375  1.00  0.00     0.031 A 
ATOM     73  C   UNL A   1      38.905  30.761  32.365  1.00  0.00     0.131 A 
ATOM     74  C   UNL A   1      36.897  32.230  31.166  1.00  0.00     0.055 A 
ATOM     75  C   UNL A   1      37.847  31.238  33.139  1.00  0.00     0.041 A 
ATOM     76  F   UNL A   1      39.871  30.068  32.988  1.00  0.00    -0.206 F 
ATOM     77  C   UNL A   1      36.839  31.988  32.540  1.00  0.00     0.022 A 
BRANCH  74  78
ATOM     78  S   UNL A   1      35.652  33.293  30.382  1.00  0.00     0.124 S 
ATOM     79  O   UNL A   1      35.172  34.076  31.516  1.00  0.00    -0.237 OA
ATOM     80  O   UNL A   1      36.449  34.014  29.395  1.00  0.00    -0.237 OA
ATOM     81  O   UNL A   1      34.691  32.341  29.829  1.00  0.00    -0.744 OA
ENDBRANCH  74  78
ENDBRANCH  47  71
BRANCH  59  82
ATOM     82  C   UNL A   1      45.269  33.593  29.583  1.00  0.00     0.023 A 
ATOM     83  C   UNL A   1      45.124  34.733  28.773  1.00  0.00     0.031 A 
ATOM     84  C   UNL A   1      46.063  33.696  30.738  1.00  0.00     0.131 A 
ATOM     85  C   UNL A   1      45.810  35.912  29.097  1.00  0.00     0.055 A 
ATOM     86  C   UNL A   1      46.703  34.888  31.084  1.00  0.00     0.041 A 
ATOM     87  F   UNL A   1      46.237  32.638  31.545  1.00  0.00    -0.206 F 
ATOM     88  C   UNL A   1      46.589  36.001  30.255  1.00  0.00     0.022 A 
BRANCH  85  89
ATOM     89  S   UNL A   1      45.746  37.305  27.937  1.00  0.00     0.124 S 
ATOM     90  O   UNL A   1      47.149  37.452  27.561  1.00  0.00    -0.237 OA
ATOM     91  O   UNL A   1      44.856  36.804  26.895  1.00  0.00    -0.237 OA
ATOM     92  O   UNL A   1      45.203  38.399  28.742  1.00  0.00    -0.744 OA
ENDBRANCH  85  89
ENDBRANCH  59  82
ENDBRANCH  33  34
ENDBRANCH  26  28
ENDBRANCH  25  26
ENDBRANCH  24  25
ENDBRANCH   1  24
TORSDOF 17
ENDMDL
MODEL 2
REMARK VINA RESULT:     -11.6      1.853      8.050
REMARK SMILES CCc1noc(C)c1C(=O)Nc1cc(Cl)ccc1C(=O)OCCOC(=O)c1ccc(-c2c3nc(c(-c4cc(S(=O)(=O)[O-])ccc4F)c4ccc([nH]4)c(-c4cc(S(=O)(=O)[O-])ccc4F)c4nc(c(-c5cc(S(=O)(=O)[O-])ccc5F)c5ccc2[nH]5)C=C4)C=C3)cc1
REMARK SMILES IDX 22 1 21 2 19 3 20 4 18 5 12 6 13 7 14 8 17 9 15 10 16 11
REMARK SMILES IDX 11 12 9 13 10 14 8 16 3 17 4 18 5 19 6 20 7 21 2 22 1 23
REMARK SMILES IDX 23 24 24 25 25 26 26 27 27 28 28 29 89 30 29 31 88 32 30 33
REMARK SMILES IDX 31 34 32 35 82 36 33 37 87 38 81 39 83 40 34 41 86 42 80 43
REMARK SMILES IDX 79 44 35 46 67 47 47 48 66 49 48 50 51 51 65 52 84 53 49 54
REMARK SMILES IDX 50 55 64 57 85 58 52 59 36 60 37 61 45 62 38 63 44 64 46 65
REMARK SMILES IDX 43 66 39 67 40 68 41 69 42 70 68 71 69 72 77 73 70 74 76 75
REMARK SMILES IDX 78 76 75 77 71 78 72 79 73 80 74 81 53 82 54 83 62 84 55 85
REMARK SMILES IDX 61 86 63 87 60 88 56 89 57 90 58 91 59 92
REMARK H PARENT 11 15 83 45 51 56
REMARK Flexibility Score: inf
ROOT
ATOM      1  C   UNL A   1      35.129  21.772  25.915  1.00  0.00     0.275 C 
ENDROOT
BRANCH   1   2
ATOM      2  O   UNL A   1      33.873  21.746  25.204  1.00  0.00    -0.458 OA
BRANCH   2   3
ATOM      3  C   UNL A   1      33.076  22.835  25.335  1.00  0.00     0.340 C 
ATOM      4  O   UNL A   1      32.593  23.227  26.388  1.00  0.00    -0.246 OA
BRANCH   3   5
ATOM      5  C   UNL A   1      32.845  23.545  24.034  1.00  0.00     0.083 A 
ATOM      6  C   UNL A   1      31.868  24.544  23.805  1.00  0.00     0.057 A 
ATOM      7  C   UNL A   1      31.822  25.173  22.552  1.00  0.00     0.047 A 
ATOM      8  C   UNL A   1      32.646  24.743  21.507  1.00  0.00     0.043 A 
ATOM      9  C   UNL A   1      33.668  23.132  22.966  1.00  0.00     0.019 A 
ATOM     10  Cl  UNL A   1      32.529  25.494  19.964  1.00  0.00    -0.084 Cl
ATOM     11  C   UNL A   1      33.550  23.707  21.702  1.00  0.00     0.021 A 
BRANCH   6  12
ATOM     12  N   UNL A   1      30.993  24.918  24.839  1.00  0.00    -0.321 N 
ATOM     13  C   UNL A   1      30.790  26.069  25.563  1.00  0.00     0.261 C 
ATOM     14  O   UNL A   1      30.176  25.941  26.625  1.00  0.00    -0.269 OA
ATOM     15  H   UNL A   1      30.388  24.190  25.108  1.00  0.00     0.170 HD
BRANCH  13  16
ATOM     16  C   UNL A   1      31.203  27.380  25.095  1.00  0.00     0.105 A 
ATOM     17  C   UNL A   1      30.554  28.171  24.089  1.00  0.00     0.096 A 
ATOM     18  N   UNL A   1      31.168  29.350  23.929  1.00  0.00    -0.084 NA
ATOM     19  O   UNL A   1      32.306  29.288  24.697  1.00  0.00    -0.361 OA
ATOM     20  C   UNL A   1      32.366  28.091  25.340  1.00  0.00     0.146 A 
ATOM     21  C   UNL A   1      33.635  27.861  26.061  1.00  0.00     0.092 C 
BRANCH  17  22
ATOM     22  C   UNL A   1      29.358  27.834  23.256  1.00  0.00     0.057 C 
ATOM     23  C   UNL A   1      28.586  29.051  22.754  1.00  0.00     0.011 C 
ENDBRANCH  17  22
ENDBRANCH  13  16
ENDBRANCH   6  12
ENDBRANCH   3   5
ENDBRANCH   2   3
ENDBRANCH   1   2
BRANCH   1  24
ATOM     24  C   UNL A   1      36.141  20.786  25.327  1.00  0.00     0.275 C 
BRANCH  24  25
ATOM     25  O   UNL A   1      37.368  21.444  24.964  1.00  0.00    -0.458 OA
BRANCH  25  26
ATOM     26  C   UNL A   1      38.453  21.061  25.676  1.00  0.00     0.338 C 
ATOM     27  O   UNL A   1      38.925  19.936  25.750  1.00  0.00    -0.246 OA
BRANCH  26  28
ATOM     28  C   UNL A   1      39.125  22.245  26.229  1.00  0.00     0.060 A 
ATOM     29  C   UNL A   1      38.558  23.486  25.935  1.00  0.00     0.016 A 
ATOM     30  C   UNL A   1      40.330  22.164  26.927  1.00  0.00     0.016 A 
ATOM     31  C   UNL A   1      39.204  24.657  26.313  1.00  0.00     0.010 A 
ATOM     32  C   UNL A   1      40.972  23.348  27.324  1.00  0.00     0.010 A 
ATOM     33  C   UNL A   1      40.424  24.604  27.001  1.00  0.00    -0.014 A 
BRANCH  33  34
ATOM     34  C   UNL A   1      41.144  25.876  27.288  1.00  0.00     0.031 A 
ATOM     35  C   UNL A   1      40.517  26.905  28.190  1.00  0.00     0.074 A 
ATOM     36  C   UNL A   1      42.390  26.072  26.814  1.00  0.00     0.049 A 
ATOM     37  N   UNL A   1      40.954  28.093  28.524  1.00  0.00    -0.248 NA
ATOM     38  C   UNL A   1      39.222  26.551  28.788  1.00  0.00     0.031 C 
ATOM     39  C   UNL A   1      43.130  25.129  25.974  1.00  0.00     0.029 A 
ATOM     40  N   UNL A   1      43.263  27.117  26.987  1.00  0.00    -0.354 N 
ATOM     41  C   UNL A   1      39.971  28.644  29.341  1.00  0.00     0.074 A 
ATOM     42  C   UNL A   1      38.910  27.663  29.436  1.00  0.00     0.031 C 
ATOM     43  C   UNL A   1      44.357  25.623  25.736  1.00  0.00     0.029 A 
ATOM     44  C   UNL A   1      44.469  26.943  26.349  1.00  0.00     0.049 A 
ATOM     45  H   UNL A   1      43.046  27.918  27.519  1.00  0.00     0.167 HD
ATOM     46  C   UNL A   1      39.957  29.856  29.954  1.00  0.00     0.034 A 
ATOM     47  C   UNL A   1      45.535  27.762  26.246  1.00  0.00     0.034 A 
ATOM     48  C   UNL A   1      41.035  30.812  29.877  1.00  0.00     0.049 A 
ATOM     49  C   UNL A   1      45.484  29.113  26.913  1.00  0.00     0.074 A 
ATOM     50  C   UNL A   1      41.122  32.067  30.458  1.00  0.00     0.029 A 
ATOM     51  N   UNL A   1      42.222  30.618  29.182  1.00  0.00    -0.354 N 
ATOM     52  N   UNL A   1      44.522  29.645  27.631  1.00  0.00    -0.248 NA
ATOM     53  C   UNL A   1      46.661  29.977  26.748  1.00  0.00     0.031 C 
ATOM     54  C   UNL A   1      42.335  32.649  30.073  1.00  0.00     0.029 A 
ATOM     55  C   UNL A   1      43.036  31.735  29.304  1.00  0.00     0.049 A 
ATOM     56  H   UNL A   1      42.452  29.806  28.676  1.00  0.00     0.167 HD
ATOM     57  C   UNL A   1      44.982  30.904  28.007  1.00  0.00     0.074 A 
ATOM     58  C   UNL A   1      46.317  31.039  27.461  1.00  0.00     0.031 C 
ATOM     59  C   UNL A   1      44.355  31.864  28.734  1.00  0.00     0.034 A 
BRANCH  46  60
ATOM     60  C   UNL A   1      38.703  30.233  30.706  1.00  0.00     0.023 A 
ATOM     61  C   UNL A   1      37.644  30.925  30.095  1.00  0.00     0.031 A 
ATOM     62  C   UNL A   1      38.587  29.927  32.075  1.00  0.00     0.131 A 
ATOM     63  C   UNL A   1      36.551  31.354  30.865  1.00  0.00     0.055 A 
ATOM     64  C   UNL A   1      37.462  30.288  32.818  1.00  0.00     0.041 A 
ATOM     65  F   UNL A   1      39.575  29.287  32.717  1.00  0.00    -0.206 F 
ATOM     66  C   UNL A   1      36.441  31.019  32.217  1.00  0.00     0.022 A 
BRANCH  63  67
ATOM     67  S   UNL A   1      35.345  32.479  30.110  1.00  0.00     0.124 S 
ATOM     68  O   UNL A   1      34.853  31.675  28.993  1.00  0.00    -0.237 OA
ATOM     69  O   UNL A   1      34.403  32.707  31.198  1.00  0.00    -0.237 OA
ATOM     70  O   UNL A   1      36.152  33.636  29.726  1.00  0.00    -0.744 OA
ENDBRANCH  63  67
ENDBRANCH  46  60
BRANCH  47  71
ATOM     71  C   UNL A   1      46.720  27.360  25.435  1.00  0.00     0.023 A 
ATOM     72  C   UNL A   1      46.901  27.830  24.125  1.00  0.00     0.031 A 
ATOM     73  C   UNL A   1      47.671  26.462  25.953  1.00  0.00     0.131 A 
ATOM     74  C   UNL A   1      47.989  27.372  23.365  1.00  0.00     0.055 A 
ATOM     75  C   UNL A   1      48.777  26.049  25.211  1.00  0.00     0.041 A 
ATOM     76  F   UNL A   1      47.541  25.982  27.201  1.00  0.00    -0.206 F 
ATOM     77  C   UNL A   1      48.935  26.496  23.904  1.00  0.00     0.022 A 
BRANCH  74  78
ATOM     78  S   UNL A   1      48.116  27.886  21.629  1.00  0.00     0.124 S 
ATOM     79  O   UNL A   1      48.302  26.606  20.953  1.00  0.00    -0.237 OA
ATOM     80  O   UNL A   1      46.834  28.546  21.414  1.00  0.00    -0.237 OA
ATOM     81  O   UNL A   1      49.280  28.771  21.620  1.00  0.00    -0.744 OA
ENDBRANCH  74  78
ENDBRANCH  47  71
BRANCH  59  82
ATOM     82  C   UNL A   1      45.131  33.131  28.992  1.00  0.00     0.023 A 
ATOM     83  C   UNL A   1      45.096  34.212  28.093  1.00  0.00     0.031 A 
ATOM     84  C   UNL A   1      45.939  33.246  30.136  1.00  0.00     0.131 A 
ATOM     85  C   UNL A   1      45.899  35.339  28.324  1.00  0.00     0.055 A 
ATOM     86  C   UNL A   1      46.698  34.391  30.387  1.00  0.00     0.041 A 
ATOM     87  F   UNL A   1      46.011  32.242  31.026  1.00  0.00    -0.206 F 
ATOM     88  C   UNL A   1      46.690  35.440  29.472  1.00  0.00     0.022 A 
BRANCH  85  89
ATOM     89  S   UNL A   1      45.968  36.634  27.057  1.00  0.00     0.124 S 
ATOM     90  O   UNL A   1      44.586  37.102  27.024  1.00  0.00    -0.237 OA
ATOM     91  O   UNL A   1      46.943  37.566  27.615  1.00  0.00    -0.237 OA
ATOM     92  O   UNL A   1      46.410  35.921  25.859  1.00  0.00    -0.744 OA
ENDBRANCH  85  89
ENDBRANCH  59  82
ENDBRANCH  33  34
ENDBRANCH  26  28
ENDBRANCH  25  26
ENDBRANCH  24  25
ENDBRANCH   1  24
TORSDOF 17
ENDMDL
MODEL 3
REMARK VINA RESULT:     -11.4      4.943      7.334
REMARK SMILES CCc1noc(C)c1C(=O)Nc1cc(Cl)ccc1C(=O)OCCOC(=O)c1ccc(-c2c3nc(c(-c4cc(S(=O)(=O)[O-])ccc4F)c4ccc([nH]4)c(-c4cc(S(=O)(=O)[O-])ccc4F)c4nc(c(-c5cc(S(=O)(=O)[O-])ccc5F)c5ccc2[nH]5)C=C4)C=C3)cc1
REMARK SMILES IDX 22 1 21 2 19 3 20 4 18 5 12 6 13 7 14 8 17 9 15 10 16 11
REMARK SMILES IDX 11 12 9 13 10 14 8 16 3 17 4 18 5 19 6 20 7 21 2 22 1 23
REMARK SMILES IDX 23 24 24 25 25 26 26 27 27 28 28 29 89 30 29 31 88 32 30 33
REMARK SMILES IDX 31 34 32 35 82 36 33 37 87 38 81 39 83 40 34 41 86 42 80 43
REMARK SMILES IDX 79 44 35 46 67 47 47 48 66 49 48 50 51 51 65 52 84 53 49 54
REMARK SMILES IDX 50 55 64 57 85 58 52 59 36 60 37 61 45 62 38 63 44 64 46 65
REMARK SMILES IDX 43 66 39 67 40 68 41 69 42 70 68 71 69 72 77 73 70 74 76 75
REMARK SMILES IDX 78 76 75 77 71 78 72 79 73 80 74 81 53 82 54 83 62 84 55 85
REMARK SMILES IDX 61 86 63 87 60 88 56 89 57 90 58 91 59 92
REMARK H PARENT 11 15 83 45 51 56
REMARK Flexibility Score: inf
ROOT
ATOM      1  C   UNL A   1      31.618  28.734  27.552  1.00  0.00     0.275 C 
ENDROOT
BRANCH   1   2
ATOM      2  O   UNL A   1      32.408  27.746  26.855  1.00  0.00    -0.458 OA
BRANCH   2   3
ATOM      3  C   UNL A   1      31.776  26.600  26.502  1.00  0.00     0.340 C 
ATOM      4  O   UNL A   1      30.574  26.401  26.607  1.00  0.00    -0.246 OA
BRANCH   3   5
ATOM      5  C   UNL A   1      32.713  25.571  25.941  1.00  0.00     0.083 A 
ATOM      6  C   UNL A   1      33.801  25.835  25.074  1.00  0.00     0.057 A 
ATOM      7  C   UNL A   1      34.638  24.776  24.693  1.00  0.00     0.047 A 
ATOM      8  C   UNL A   1      34.338  23.462  25.064  1.00  0.00     0.043 A 
ATOM      9  C   UNL A   1      32.434  24.237  26.306  1.00  0.00     0.019 A 
ATOM     10  Cl  UNL A   1      35.350  22.175  24.535  1.00  0.00    -0.084 Cl
ATOM     11  C   UNL A   1      33.225  23.185  25.847  1.00  0.00     0.021 A 
BRANCH   6  12
ATOM     12  N   UNL A   1      34.050  27.151  24.645  1.00  0.00    -0.321 N 
ATOM     13  C   UNL A   1      33.651  27.907  23.570  1.00  0.00     0.261 C 
ATOM     14  O   UNL A   1      34.333  28.906  23.325  1.00  0.00    -0.269 OA
ATOM     15  H   UNL A   1      34.647  27.643  25.254  1.00  0.00     0.170 HD
BRANCH  13  16
ATOM     16  C   UNL A   1      32.462  27.609  22.791  1.00  0.00     0.105 A 
ATOM     17  C   UNL A   1      31.186  28.254  22.898  1.00  0.00     0.096 A 
ATOM     18  N   UNL A   1      30.319  27.768  22.001  1.00  0.00    -0.084 NA
ATOM     19  O   UNL A   1      30.951  26.702  21.409  1.00  0.00    -0.361 OA
ATOM     20  C   UNL A   1      32.202  26.560  21.923  1.00  0.00     0.146 A 
ATOM     21  C   UNL A   1      32.902  25.340  21.471  1.00  0.00     0.092 C 
BRANCH  17  22
ATOM     22  C   UNL A   1      30.754  29.328  23.848  1.00  0.00     0.057 C 
ATOM     23  C   UNL A   1      29.499  30.077  23.411  1.00  0.00     0.011 C 
ENDBRANCH  17  22
ENDBRANCH  13  16
ENDBRANCH   6  12
ENDBRANCH   3   5
ENDBRANCH   2   3
ENDBRANCH   1   2
BRANCH   1  24
ATOM     24  C   UNL A   1      31.723  30.115  26.902  1.00  0.00     0.275 C 
BRANCH  24  25
ATOM     25  O   UNL A   1      33.085  30.434  26.562  1.00  0.00    -0.458 OA
BRANCH  25  26
ATOM     26  C   UNL A   1      33.609  31.485  27.234  1.00  0.00     0.338 C 
ATOM     27  O   UNL A   1      33.052  32.539  27.503  1.00  0.00    -0.246 OA
BRANCH  26  28
ATOM     28  C   UNL A   1      34.925  31.118  27.776  1.00  0.00     0.060 A 
ATOM     29  C   UNL A   1      35.100  29.788  28.159  1.00  0.00     0.016 A 
ATOM     30  C   UNL A   1      35.930  32.059  28.005  1.00  0.00     0.016 A 
ATOM     31  C   UNL A   1      36.269  29.392  28.797  1.00  0.00     0.010 A 
ATOM     32  C   UNL A   1      37.117  31.653  28.633  1.00  0.00     0.010 A 
ATOM     33  C   UNL A   1      37.287  30.320  29.053  1.00  0.00    -0.014 A 
BRANCH  33  34
ATOM     34  C   UNL A   1      38.475  29.887  29.841  1.00  0.00     0.031 A 
ATOM     35  C   UNL A   1      39.467  28.931  29.235  1.00  0.00     0.074 A 
ATOM     36  C   UNL A   1      38.710  30.413  31.058  1.00  0.00     0.049 A 
ATOM     37  N   UNL A   1      40.535  28.394  29.769  1.00  0.00    -0.248 NA
ATOM     38  C   UNL A   1      39.219  28.521  27.845  1.00  0.00     0.031 C 
ATOM     39  C   UNL A   1      37.854  31.390  31.735  1.00  0.00     0.029 A 
ATOM     40  N   UNL A   1      39.748  30.219  31.935  1.00  0.00    -0.354 N 
ATOM     41  C   UNL A   1      41.066  27.553  28.794  1.00  0.00     0.074 A 
ATOM     42  C   UNL A   1      40.190  27.642  27.645  1.00  0.00     0.031 C 
ATOM     43  C   UNL A   1      38.421  31.734  32.903  1.00  0.00     0.029 A 
ATOM     44  C   UNL A   1      39.643  30.959  33.091  1.00  0.00     0.049 A 
ATOM     45  H   UNL A   1      40.498  29.606  31.755  1.00  0.00     0.167 HD
ATOM     46  C   UNL A   1      42.180  26.779  28.855  1.00  0.00     0.034 A 
ATOM     47  C   UNL A   1      40.427  30.991  34.187  1.00  0.00     0.034 A 
ATOM     48  C   UNL A   1      43.062  26.723  29.996  1.00  0.00     0.049 A 
ATOM     49  C   UNL A   1      41.643  30.103  34.242  1.00  0.00     0.074 A 
ATOM     50  C   UNL A   1      44.216  25.973  30.161  1.00  0.00     0.029 A 
ATOM     51  N   UNL A   1      42.897  27.453  31.166  1.00  0.00    -0.354 N 
ATOM     52  N   UNL A   1      42.098  29.266  33.337  1.00  0.00    -0.248 NA
ATOM     53  C   UNL A   1      42.447  30.157  35.470  1.00  0.00     0.031 C 
ATOM     54  C   UNL A   1      44.716  26.210  31.447  1.00  0.00     0.029 A 
ATOM     55  C   UNL A   1      43.914  27.156  32.063  1.00  0.00     0.049 A 
ATOM     56  H   UNL A   1      42.164  28.088  31.335  1.00  0.00     0.167 HD
ATOM     57  C   UNL A   1      43.244  28.700  33.887  1.00  0.00     0.074 A 
ATOM     58  C   UNL A   1      43.427  29.311  35.188  1.00  0.00     0.031 C 
ATOM     59  C   UNL A   1      44.069  27.757  33.366  1.00  0.00     0.034 A 
BRANCH  46  60
ATOM     60  C   UNL A   1      42.462  25.884  27.673  1.00  0.00     0.023 A 
ATOM     61  C   UNL A   1      41.914  24.594  27.563  1.00  0.00     0.031 A 
ATOM     62  C   UNL A   1      43.332  26.318  26.655  1.00  0.00     0.131 A 
ATOM     63  C   UNL A   1      42.299  23.758  26.503  1.00  0.00     0.055 A 
ATOM     64  C   UNL A   1      43.650  25.510  25.562  1.00  0.00     0.041 A 
ATOM     65  F   UNL A   1      43.902  27.531  26.717  1.00  0.00    -0.206 F 
ATOM     66  C   UNL A   1      43.144  24.216  25.489  1.00  0.00     0.022 A 
BRANCH  63  67
ATOM     67  S   UNL A   1      41.794  22.016  26.545  1.00  0.00     0.124 S 
ATOM     68  O   UNL A   1      40.340  22.130  26.454  1.00  0.00    -0.237 OA
ATOM     69  O   UNL A   1      42.468  21.465  25.375  1.00  0.00    -0.237 OA
ATOM     70  O   UNL A   1      42.296  21.546  27.835  1.00  0.00    -0.744 OA
ENDBRANCH  63  67
ENDBRANCH  46  60
BRANCH  47  71
ATOM     71  C   UNL A   1      40.061  31.849  35.351  1.00  0.00     0.023 A 
ATOM     72  C   UNL A   1      39.112  31.430  36.296  1.00  0.00     0.031 A 
ATOM     73  C   UNL A   1      40.632  33.125  35.508  1.00  0.00     0.131 A 
ATOM     74  C   UNL A   1      38.737  32.294  37.338  1.00  0.00     0.055 A 
ATOM     75  C   UNL A   1      40.292  33.960  36.572  1.00  0.00     0.041 A 
ATOM     76  F   UNL A   1      41.542  33.573  34.629  1.00  0.00    -0.206 F 
ATOM     77  C   UNL A   1      39.331  33.549  37.490  1.00  0.00     0.022 A 
BRANCH  74  78
ATOM     78  S   UNL A   1      37.406  31.780  38.459  1.00  0.00     0.124 S 
ATOM     79  O   UNL A   1      37.175  30.403  38.036  1.00  0.00    -0.237 OA
ATOM     80  O   UNL A   1      38.028  31.955  39.767  1.00  0.00    -0.237 OA
ATOM     81  O   UNL A   1      36.325  32.716  38.155  1.00  0.00    -0.744 OA
ENDBRANCH  74  78
ENDBRANCH  47  71
BRANCH  59  82
ATOM     82  C   UNL A   1      45.254  27.355  34.207  1.00  0.00     0.023 A 
ATOM     83  C   UNL A   1      46.493  28.011  34.095  1.00  0.00     0.031 A 
ATOM     84  C   UNL A   1      45.150  26.283  35.110  1.00  0.00     0.131 A 
ATOM     85  C   UNL A   1      47.595  27.552  34.832  1.00  0.00     0.055 A 
ATOM     86  C   UNL A   1      46.238  25.863  35.879  1.00  0.00     0.041 A 
ATOM     87  F   UNL A   1      43.991  25.620  35.255  1.00  0.00    -0.206 F 
ATOM     88  C   UNL A   1      47.472  26.490  35.732  1.00  0.00     0.022 A 
BRANCH  85  89
ATOM     89  S   UNL A   1      49.218  28.303  34.530  1.00  0.00     0.124 S 
ATOM     90  O   UNL A   1      49.529  28.889  35.831  1.00  0.00    -0.237 OA
ATOM     91  O   UNL A   1      50.027  27.153  34.139  1.00  0.00    -0.237 OA
ATOM     92  O   UNL A   1      48.958  29.268  33.463  1.00  0.00    -0.744 OA
ENDBRANCH  85  89
ENDBRANCH  59  82
ENDBRANCH  33  34
ENDBRANCH  26  28
ENDBRANCH  25  26
ENDBRANCH  24  25
ENDBRANCH   1  24
TORSDOF 17
ENDMDL
