MODEL 1
REMARK VINA RESULT:     -11.6      0.000      0.000
REMARK SMILES O=C1C[C@@H]([N@@H+]2CCO[C@@H](CC(=O)OCCOC(=O)c3ccc(-c4c5nc(c(-c6cc(S(=O)(=O)[O-])ccc6F)c6ccc([nH]6)c(-c6cc(S(=O)(=O)[O-])ccc6F)c6nc(c(-c7cc(S(=O)(=O)[O-])ccc7F)c7ccc4[nH]7)C=C6)C=C5)cc3)C2)C(=O)N1
REMARK SMILES IDX 15 1 14 2 13 3 11 4 12 5 10 6 9 7 5 8 6 9 82 10 7 12 8 13
REMARK SMILES IDX 4 14 1 15 2 16 3 17 85 18 83 19 84 21 16 22 17 23 18 24
REMARK SMILES IDX 19 25 20 26 81 27 21 28 80 29 22 30 23 31 24 32 74 33 25 34
REMARK SMILES IDX 79 35 73 36 75 37 26 38 78 39 72 40 71 41 27 43 59 44 39 45
REMARK SMILES IDX 58 46 40 47 43 48 57 49 76 50 41 51 42 52 56 54 77 55 44 56
REMARK SMILES IDX 28 57 29 58 37 59 30 60 36 61 38 62 35 63 31 64 32 65 33 66
REMARK SMILES IDX 34 67 60 68 61 69 69 70 62 71 68 72 70 73 67 74 63 75 64 76
REMARK SMILES IDX 65 77 66 78 45 79 46 80 54 81 47 82 53 83 55 84 52 85 48 86
REMARK SMILES IDX 49 87 50 88 51 89
REMARK H PARENT 5 11 85 20 75 42 43 53
REMARK Flexibility Score: inf
ROOT
ATOM      1  C   UNL A   1      36.611  20.464  25.002  1.00  0.00     0.275 C 
ENDROOT
BRANCH   1   2
ATOM      2  C   UNL A   1      35.116  20.782  24.904  1.00  0.00     0.274 C 
BRANCH   2   3
ATOM      3  O   UNL A   1      34.871  22.198  24.786  1.00  0.00    -0.462 OA
BRANCH   3   4
ATOM      4  C   UNL A   1      34.753  22.692  23.526  1.00  0.00     0.308 C 
ATOM      5  O   UNL A   1      35.691  23.080  22.843  1.00  0.00    -0.252 OA
BRANCH   4   6
ATOM      6  C   UNL A   1      33.316  22.783  23.086  1.00  0.00     0.160 C 
BRANCH   6   7
ATOM      7  C   UNL A   1      32.805  24.192  22.779  1.00  0.00     0.184 C 
ATOM      8  N   UNL A   1      33.137  26.665  23.338  1.00  0.00    -0.320 N 
ATOM      9  C   UNL A   1      33.350  26.859  21.897  1.00  0.00     0.291 C 
ATOM     10  C   UNL A   1      33.396  25.267  23.723  1.00  0.00     0.295 C 
ATOM     11  H   UNL A   1      33.846  27.258  23.771  1.00  0.00     0.348 HD
ATOM     12  C   UNL A   1      32.769  25.763  20.995  1.00  0.00     0.222 C 
ATOM     13  O   UNL A   1      33.200  24.465  21.416  1.00  0.00    -0.366 OA
BRANCH   8  14
ATOM     14  C   UNL A   1      31.930  27.253  23.948  1.00  0.00     0.284 C 
ATOM     15  O   UNL A   1      29.538  28.948  21.921  1.00  0.00    -0.274 OA
ATOM     16  C   UNL A   1      30.377  28.591  22.731  1.00  0.00     0.233 C 
ATOM     17  C   UNL A   1      30.595  27.189  23.207  1.00  0.00     0.176 C 
ATOM     18  N   UNL A   1      31.231  29.418  23.375  1.00  0.00    -0.291 N 
ATOM     19  C   UNL A   1      32.128  28.758  24.151  1.00  0.00     0.285 C 
ATOM     20  H   UNL A   1      31.205  30.398  23.289  1.00  0.00     0.173 HD
ATOM     21  O   UNL A   1      32.970  29.302  24.851  1.00  0.00    -0.268 OA
ENDBRANCH   8  14
ENDBRANCH   6   7
ENDBRANCH   4   6
ENDBRANCH   3   4
ENDBRANCH   2   3
ENDBRANCH   1   2
BRANCH   1  22
ATOM     22  O   UNL A   1      37.327  21.465  25.748  1.00  0.00    -0.458 OA
BRANCH  22  23
ATOM     23  C   UNL A   1      38.636  21.195  25.964  1.00  0.00     0.338 C 
ATOM     24  O   UNL A   1      39.213  20.151  25.713  1.00  0.00    -0.246 OA
BRANCH  23  25
ATOM     25  C   UNL A   1      39.327  22.407  26.439  1.00  0.00     0.060 A 
ATOM     26  C   UNL A   1      38.858  23.651  26.006  1.00  0.00     0.016 A 
ATOM     27  C   UNL A   1      40.460  22.320  27.249  1.00  0.00     0.016 A 
ATOM     28  C   UNL A   1      39.524  24.816  26.379  1.00  0.00     0.010 A 
ATOM     29  C   UNL A   1      41.124  23.493  27.628  1.00  0.00     0.010 A 
ATOM     30  C   UNL A   1      40.664  24.749  27.190  1.00  0.00    -0.014 A 
BRANCH  30  31
ATOM     31  C   UNL A   1      41.391  25.992  27.551  1.00  0.00     0.031 A 
ATOM     32  C   UNL A   1      40.708  27.046  28.378  1.00  0.00     0.074 A 
ATOM     33  C   UNL A   1      42.663  26.167  27.146  1.00  0.00     0.049 A 
ATOM     34  N   UNL A   1      41.140  28.228  28.736  1.00  0.00    -0.248 NA
ATOM     35  C   UNL A   1      39.357  26.726  28.862  1.00  0.00     0.031 C 
ATOM     36  C   UNL A   1      43.442  25.196  26.375  1.00  0.00     0.029 A 
ATOM     37  N   UNL A   1      43.525  27.221  27.322  1.00  0.00    -0.354 N 
ATOM     38  C   UNL A   1      40.112  28.800  29.477  1.00  0.00     0.074 A 
ATOM     39  C   UNL A   1      39.024  27.844  29.490  1.00  0.00     0.031 C 
ATOM     40  C   UNL A   1      44.665  25.701  26.144  1.00  0.00     0.029 A 
ATOM     41  C   UNL A   1      44.742  27.048  26.703  1.00  0.00     0.049 A 
ATOM     42  H   UNL A   1      43.294  28.025  27.841  1.00  0.00     0.167 HD
ATOM     43  C   UNL A   1      40.084  30.009  30.092  1.00  0.00     0.034 A 
ATOM     44  C   UNL A   1      45.787  27.890  26.575  1.00  0.00     0.034 A 
ATOM     45  C   UNL A   1      41.179  30.950  30.067  1.00  0.00     0.049 A 
ATOM     46  C   UNL A   1      45.700  29.259  27.203  1.00  0.00     0.074 A 
ATOM     47  C   UNL A   1      41.262  32.194  30.671  1.00  0.00     0.029 A 
ATOM     48  N   UNL A   1      42.381  30.757  29.398  1.00  0.00    -0.354 N 
ATOM     49  N   UNL A   1      44.721  29.790  27.899  1.00  0.00    -0.248 NA
ATOM     50  C   UNL A   1      46.861  30.142  27.032  1.00  0.00     0.031 C 
ATOM     51  C   UNL A   1      42.479  32.780  30.309  1.00  0.00     0.029 A 
ATOM     52  C   UNL A   1      43.195  31.872  29.545  1.00  0.00     0.049 A 
ATOM     53  H   UNL A   1      42.621  29.948  28.891  1.00  0.00     0.167 HD
ATOM     54  C   UNL A   1      45.164  31.056  28.274  1.00  0.00     0.074 A 
ATOM     55  C   UNL A   1      46.501  31.202  27.739  1.00  0.00     0.031 C 
ATOM     56  C   UNL A   1      44.524  32.010  28.997  1.00  0.00     0.034 A 
BRANCH  43  57
ATOM     57  C   UNL A   1      38.807  30.405  30.794  1.00  0.00     0.023 A 
ATOM     58  C   UNL A   1      37.763  31.065  30.123  1.00  0.00     0.031 A 
ATOM     59  C   UNL A   1      38.638  30.126  32.162  1.00  0.00     0.131 A 
ATOM     60  C   UNL A   1      36.624  31.477  30.834  1.00  0.00     0.055 A 
ATOM     61  C   UNL A   1      37.472  30.473  32.847  1.00  0.00     0.041 A 
ATOM     62  F   UNL A   1      39.609  29.517  32.860  1.00  0.00    -0.206 F 
ATOM     63  C   UNL A   1      36.461  31.164  32.185  1.00  0.00     0.022 A 
BRANCH  60  64
ATOM     64  S   UNL A   1      35.415  32.541  29.999  1.00  0.00     0.124 S 
ATOM     65  O   UNL A   1      35.042  31.717  28.852  1.00  0.00    -0.237 OA
ATOM     66  O   UNL A   1      34.391  32.717  31.022  1.00  0.00    -0.237 OA
ATOM     67  O   UNL A   1      36.183  33.741  29.671  1.00  0.00    -0.744 OA
ENDBRANCH  60  64
ENDBRANCH  43  57
BRANCH  44  68
ATOM     68  C   UNL A   1      46.987  27.494  25.783  1.00  0.00     0.023 A 
ATOM     69  C   UNL A   1      47.130  27.873  24.439  1.00  0.00     0.031 A 
ATOM     70  C   UNL A   1      47.983  26.673  26.345  1.00  0.00     0.131 A 
ATOM     71  C   UNL A   1      48.216  27.394  23.689  1.00  0.00     0.055 A 
ATOM     72  C   UNL A   1      49.091  26.248  25.611  1.00  0.00     0.041 A 
ATOM     73  F   UNL A   1      47.894  26.277  27.625  1.00  0.00    -0.206 F 
ATOM     74  C   UNL A   1      49.204  26.596  24.269  1.00  0.00     0.022 A 
BRANCH  71  75
ATOM     75  S   UNL A   1      48.266  27.748  21.910  1.00  0.00     0.124 S 
ATOM     76  O   UNL A   1      49.382  28.683  21.825  1.00  0.00    -0.237 OA
ATOM     77  O   UNL A   1      48.494  26.423  21.345  1.00  0.00    -0.237 OA
ATOM     78  O   UNL A   1      46.949  28.321  21.640  1.00  0.00    -0.744 OA
ENDBRANCH  71  75
ENDBRANCH  44  68
BRANCH  56  79
ATOM     79  C   UNL A   1      45.292  33.276  29.292  1.00  0.00     0.023 A 
ATOM     80  C   UNL A   1      45.290  34.369  28.407  1.00  0.00     0.031 A 
ATOM     81  C   UNL A   1      46.050  33.382  30.472  1.00  0.00     0.131 A 
ATOM     82  C   UNL A   1      46.075  35.497  28.688  1.00  0.00     0.055 A 
ATOM     83  C   UNL A   1      46.782  34.531  30.776  1.00  0.00     0.041 A 
ATOM     84  F   UNL A   1      46.090  32.368  31.352  1.00  0.00    -0.206 F 
ATOM     85  C   UNL A   1      46.808  35.592  29.875  1.00  0.00     0.022 A 
BRANCH  82  86
ATOM     86  S   UNL A   1      46.201  36.807  27.440  1.00  0.00     0.124 S 
ATOM     87  O   UNL A   1      46.234  36.041  26.198  1.00  0.00    -0.237 OA
ATOM     88  O   UNL A   1      44.987  37.583  27.678  1.00  0.00    -0.237 OA
ATOM     89  O   UNL A   1      47.447  37.490  27.781  1.00  0.00    -0.744 OA
ENDBRANCH  82  86
ENDBRANCH  56  79
ENDBRANCH  30  31
ENDBRANCH  23  25
ENDBRANCH  22  23
ENDBRANCH   1  22
TORSDOF 16
ENDMDL
MODEL 2
REMARK VINA RESULT:     -11.4      1.498      1.850
REMARK SMILES O=C1C[C@@H]([N@@H+]2CCO[C@@H](CC(=O)OCCOC(=O)c3ccc(-c4c5nc(c(-c6cc(S(=O)(=O)[O-])ccc6F)c6ccc([nH]6)c(-c6cc(S(=O)(=O)[O-])ccc6F)c6nc(c(-c7cc(S(=O)(=O)[O-])ccc7F)c7ccc4[nH]7)C=C6)C=C5)cc3)C2)C(=O)N1
REMARK SMILES IDX 15 1 14 2 13 3 11 4 12 5 10 6 9 7 5 8 6 9 82 10 7 12 8 13
REMARK SMILES IDX 4 14 1 15 2 16 3 17 85 18 83 19 84 21 16 22 17 23 18 24
REMARK SMILES IDX 19 25 20 26 81 27 21 28 80 29 22 30 23 31 24 32 74 33 25 34
REMARK SMILES IDX 79 35 73 36 75 37 26 38 78 39 72 40 71 41 27 43 59 44 39 45
REMARK SMILES IDX 58 46 40 47 43 48 57 49 76 50 41 51 42 52 56 54 77 55 44 56
REMARK SMILES IDX 28 57 29 58 37 59 30 60 36 61 38 62 35 63 31 64 32 65 33 66
REMARK SMILES IDX 34 67 60 68 61 69 69 70 62 71 68 72 70 73 67 74 63 75 64 76
REMARK SMILES IDX 65 77 66 78 45 79 46 80 54 81 47 82 53 83 55 84 52 85 48 86
REMARK SMILES IDX 49 87 50 88 51 89
REMARK H PARENT 5 11 85 20 75 42 43 53
REMARK Flexibility Score: inf
ROOT
ATOM      1  C   UNL A   1      36.050  20.544  25.168  1.00  0.00     0.275 C 
ENDROOT
BRANCH   1   2
ATOM      2  C   UNL A   1      34.625  21.066  25.376  1.00  0.00     0.274 C 
BRANCH   2   3
ATOM      3  O   UNL A   1      34.584  22.178  26.292  1.00  0.00    -0.462 OA
BRANCH   3   4
ATOM      4  C   UNL A   1      33.819  23.240  25.928  1.00  0.00     0.308 C 
ATOM      5  O   UNL A   1      32.682  23.445  26.330  1.00  0.00    -0.252 OA
BRANCH   4   6
ATOM      6  C   UNL A   1      34.504  24.106  24.905  1.00  0.00     0.160 C 
BRANCH   6   7
ATOM      7  C   UNL A   1      33.584  25.008  24.079  1.00  0.00     0.184 C 
ATOM      8  N   UNL A   1      32.930  27.445  23.662  1.00  0.00    -0.320 N 
ATOM      9  C   UNL A   1      33.286  27.196  22.259  1.00  0.00     0.291 C 
ATOM     10  C   UNL A   1      33.601  26.482  24.553  1.00  0.00     0.295 C 
ATOM     11  H   UNL A   1      33.306  28.375  23.847  1.00  0.00     0.348 HD
ATOM     12  C   UNL A   1      33.279  25.722  21.832  1.00  0.00     0.222 C 
ATOM     13  O   UNL A   1      34.067  24.924  22.720  1.00  0.00    -0.366 OA
BRANCH   8  14
ATOM     14  C   UNL A   1      31.512  27.692  23.987  1.00  0.00     0.284 C 
ATOM     15  O   UNL A   1      29.420  29.428  21.683  1.00  0.00    -0.274 OA
ATOM     16  C   UNL A   1      30.079  29.025  22.626  1.00  0.00     0.233 C 
ATOM     17  C   UNL A   1      30.453  27.601  22.889  1.00  0.00     0.176 C 
ATOM     18  N   UNL A   1      30.552  29.802  23.628  1.00  0.00    -0.291 N 
ATOM     19  C   UNL A   1      31.338  29.123  24.502  1.00  0.00     0.285 C 
ATOM     20  H   UNL A   1      30.347  30.761  23.713  1.00  0.00     0.173 HD
ATOM     21  O   UNL A   1      31.842  29.613  25.503  1.00  0.00    -0.268 OA
ENDBRANCH   8  14
ENDBRANCH   6   7
ENDBRANCH   4   6
ENDBRANCH   3   4
ENDBRANCH   2   3
ENDBRANCH   1   2
BRANCH   1  22
ATOM     22  O   UNL A   1      37.022  21.604  25.208  1.00  0.00    -0.458 OA
BRANCH  22  23
ATOM     23  C   UNL A   1      38.255  21.239  25.634  1.00  0.00     0.338 C 
ATOM     24  O   UNL A   1      38.756  20.132  25.540  1.00  0.00    -0.246 OA
BRANCH  23  25
ATOM     25  C   UNL A   1      38.987  22.419  26.125  1.00  0.00     0.060 A 
ATOM     26  C   UNL A   1      38.467  23.687  25.845  1.00  0.00     0.016 A 
ATOM     27  C   UNL A   1      40.201  22.285  26.800  1.00  0.00     0.016 A 
ATOM     28  C   UNL A   1      39.164  24.829  26.235  1.00  0.00     0.010 A 
ATOM     29  C   UNL A   1      40.896  23.434  27.197  1.00  0.00     0.010 A 
ATOM     30  C   UNL A   1      40.385  24.714  26.911  1.00  0.00    -0.014 A 
BRANCH  30  31
ATOM     31  C   UNL A   1      41.141  25.935  27.289  1.00  0.00     0.031 A 
ATOM     32  C   UNL A   1      40.487  26.985  28.145  1.00  0.00     0.074 A 
ATOM     33  C   UNL A   1      42.411  26.093  26.873  1.00  0.00     0.049 A 
ATOM     34  N   UNL A   1      40.947  28.150  28.522  1.00  0.00    -0.248 NA
ATOM     35  C   UNL A   1      39.136  26.681  28.637  1.00  0.00     0.031 C 
ATOM     36  C   UNL A   1      43.162  25.123  26.074  1.00  0.00     0.029 A 
ATOM     37  N   UNL A   1      43.295  27.126  27.061  1.00  0.00    -0.354 N 
ATOM     38  C   UNL A   1      39.938  28.728  29.286  1.00  0.00     0.074 A 
ATOM     39  C   UNL A   1      38.832  27.792  29.291  1.00  0.00     0.031 C 
ATOM     40  C   UNL A   1      44.393  25.609  25.839  1.00  0.00     0.029 A 
ATOM     41  C   UNL A   1      44.502  26.942  26.424  1.00  0.00     0.049 A 
ATOM     42  H   UNL A   1      43.086  27.923  27.598  1.00  0.00     0.167 HD
ATOM     43  C   UNL A   1      39.941  29.924  29.925  1.00  0.00     0.034 A 
ATOM     44  C   UNL A   1      45.562  27.766  26.301  1.00  0.00     0.034 A 
ATOM     45  C   UNL A   1      41.054  30.844  29.907  1.00  0.00     0.049 A 
ATOM     46  C   UNL A   1      45.509  29.124  26.958  1.00  0.00     0.074 A 
ATOM     47  C   UNL A   1      41.168  32.073  30.535  1.00  0.00     0.029 A 
ATOM     48  N   UNL A   1      42.245  30.641  29.220  1.00  0.00    -0.354 N 
ATOM     49  N   UNL A   1      44.548  29.659  27.676  1.00  0.00    -0.248 NA
ATOM     50  C   UNL A   1      46.686  29.987  26.792  1.00  0.00     0.031 C 
ATOM     51  C   UNL A   1      42.393  32.642  30.171  1.00  0.00     0.029 A 
ATOM     52  C   UNL A   1      43.082  31.736  29.381  1.00  0.00     0.049 A 
ATOM     53  H   UNL A   1      42.463  29.838  28.695  1.00  0.00     0.167 HD
ATOM     54  C   UNL A   1      45.020  30.908  28.071  1.00  0.00     0.074 A 
ATOM     55  C   UNL A   1      46.354  31.039  27.524  1.00  0.00     0.031 C 
ATOM     56  C   UNL A   1      44.407  31.860  28.821  1.00  0.00     0.034 A 
BRANCH  43  57
ATOM     57  C   UNL A   1      38.680  30.330  30.650  1.00  0.00     0.023 A 
ATOM     58  C   UNL A   1      37.659  31.059  30.015  1.00  0.00     0.031 A 
ATOM     59  C   UNL A   1      38.502  29.991  32.002  1.00  0.00     0.131 A 
ATOM     60  C   UNL A   1      36.537  31.476  30.748  1.00  0.00     0.055 A 
ATOM     61  C   UNL A   1      37.350  30.345  32.707  1.00  0.00     0.041 A 
ATOM     62  F   UNL A   1      39.452  29.314  32.668  1.00  0.00    -0.206 F 
ATOM     63  C   UNL A   1      36.365  31.103  32.083  1.00  0.00     0.022 A 
BRANCH  60  64
ATOM     64  S   UNL A   1      35.366  32.623  29.970  1.00  0.00     0.124 S 
ATOM     65  O   UNL A   1      36.243  33.728  29.594  1.00  0.00    -0.237 OA
ATOM     66  O   UNL A   1      34.830  31.827  28.872  1.00  0.00    -0.237 OA
ATOM     67  O   UNL A   1      34.419  32.926  31.042  1.00  0.00    -0.744 OA
ENDBRANCH  60  64
ENDBRANCH  43  57
BRANCH  44  68
ATOM     68  C   UNL A   1      46.745  27.363  25.488  1.00  0.00     0.023 A 
ATOM     69  C   UNL A   1      46.923  27.834  24.178  1.00  0.00     0.031 A 
ATOM     70  C   UNL A   1      47.687  26.446  25.991  1.00  0.00     0.131 A 
ATOM     71  C   UNL A   1      47.986  27.351  23.399  1.00  0.00     0.055 A 
ATOM     72  C   UNL A   1      48.776  26.015  25.233  1.00  0.00     0.041 A 
ATOM     73  F   UNL A   1      47.564  25.960  27.237  1.00  0.00    -0.206 F 
ATOM     74  C   UNL A   1      48.922  26.456  23.922  1.00  0.00     0.022 A 
BRANCH  71  75
ATOM     75  S   UNL A   1      48.074  27.836  21.653  1.00  0.00     0.124 S 
ATOM     76  O   UNL A   1      46.766  28.446  21.448  1.00  0.00    -0.237 OA
ATOM     77  O   UNL A   1      49.214  28.745  21.648  1.00  0.00    -0.237 OA
ATOM     78  O   UNL A   1      48.287  26.568  20.959  1.00  0.00    -0.744 OA
ENDBRANCH  71  75
ENDBRANCH  44  68
BRANCH  56  79
ATOM     79  C   UNL A   1      45.203  33.104  29.133  1.00  0.00     0.023 A 
ATOM     80  C   UNL A   1      46.032  33.190  30.265  1.00  0.00     0.031 A 
ATOM     81  C   UNL A   1      45.118  34.225  28.288  1.00  0.00     0.131 A 
ATOM     82  C   UNL A   1      46.698  34.391  30.554  1.00  0.00     0.055 A 
ATOM     83  C   UNL A   1      45.830  35.398  28.548  1.00  0.00     0.041 A 
ATOM     84  F   UNL A   1      44.340  34.200  27.194  1.00  0.00    -0.206 F 
ATOM     85  C   UNL A   1      46.616  35.490  29.694  1.00  0.00     0.022 A 
BRANCH  82  86
ATOM     86  S   UNL A   1      47.605  34.533  32.119  1.00  0.00     0.124 S 
ATOM     87  O   UNL A   1      47.369  33.227  32.726  1.00  0.00    -0.237 OA
ATOM     88  O   UNL A   1      48.970  34.789  31.667  1.00  0.00    -0.237 OA
ATOM     89  O   UNL A   1      46.956  35.656  32.792  1.00  0.00    -0.744 OA
ENDBRANCH  82  86
ENDBRANCH  56  79
ENDBRANCH  30  31
ENDBRANCH  23  25
ENDBRANCH  22  23
ENDBRANCH   1  22
TORSDOF 16
ENDMDL
MODEL 3
REMARK VINA RESULT:     -11.3      5.333     10.335
REMARK SMILES O=C1C[C@@H]([N@@H+]2CCO[C@@H](CC(=O)OCCOC(=O)c3ccc(-c4c5nc(c(-c6cc(S(=O)(=O)[O-])ccc6F)c6ccc([nH]6)c(-c6cc(S(=O)(=O)[O-])ccc6F)c6nc(c(-c7cc(S(=O)(=O)[O-])ccc7F)c7ccc4[nH]7)C=C6)C=C5)cc3)C2)C(=O)N1
REMARK SMILES IDX 15 1 14 2 13 3 11 4 12 5 10 6 9 7 5 8 6 9 82 10 7 12 8 13
REMARK SMILES IDX 4 14 1 15 2 16 3 17 85 18 83 19 84 21 16 22 17 23 18 24
REMARK SMILES IDX 19 25 20 26 81 27 21 28 80 29 22 30 23 31 24 32 74 33 25 34
REMARK SMILES IDX 79 35 73 36 75 37 26 38 78 39 72 40 71 41 27 43 59 44 39 45
REMARK SMILES IDX 58 46 40 47 43 48 57 49 76 50 41 51 42 52 56 54 77 55 44 56
REMARK SMILES IDX 28 57 29 58 37 59 30 60 36 61 38 62 35 63 31 64 32 65 33 66
REMARK SMILES IDX 34 67 60 68 61 69 69 70 62 71 68 72 70 73 67 74 63 75 64 76
REMARK SMILES IDX 65 77 66 78 45 79 46 80 54 81 47 82 53 83 55 84 52 85 48 86
REMARK SMILES IDX 49 87 50 88 51 89
REMARK H PARENT 5 11 85 20 75 42 43 53
REMARK Flexibility Score: inf
ROOT
ATOM      1  C   UNL A   1      31.667  30.449  25.622  1.00  0.00     0.275 C 
ENDROOT
BRANCH   1   2
ATOM      2  C   UNL A   1      31.375  29.178  24.818  1.00  0.00     0.274 C 
BRANCH   2   3
ATOM      3  O   UNL A   1      31.982  28.012  25.410  1.00  0.00    -0.462 OA
BRANCH   3   4
ATOM      4  C   UNL A   1      32.912  27.363  24.662  1.00  0.00     0.308 C 
ATOM      5  O   UNL A   1      33.089  27.545  23.465  1.00  0.00    -0.252 OA
BRANCH   4   6
ATOM      6  C   UNL A   1      33.660  26.329  25.461  1.00  0.00     0.160 C 
BRANCH   6   7
ATOM      7  C   UNL A   1      33.057  24.923  25.453  1.00  0.00     0.184 C 
ATOM      8  N   UNL A   1      33.510  22.490  26.095  1.00  0.00    -0.320 N 
ATOM      9  C   UNL A   1      32.285  22.579  26.901  1.00  0.00     0.291 C 
ATOM     10  C   UNL A   1      34.076  23.828  25.850  1.00  0.00     0.295 C 
ATOM     11  H   UNL A   1      34.155  21.968  26.689  1.00  0.00     0.348 HD
ATOM     12  C   UNL A   1      31.310  23.690  26.491  1.00  0.00     0.222 C 
ATOM     13  O   UNL A   1      31.973  24.955  26.408  1.00  0.00    -0.366 OA
BRANCH   8  14
ATOM     14  C   UNL A   1      33.504  21.604  24.915  1.00  0.00     0.284 C 
ATOM     15  O   UNL A   1      32.162  18.311  25.151  1.00  0.00    -0.274 OA
ATOM     16  C   UNL A   1      32.834  19.318  25.008  1.00  0.00     0.233 C 
ATOM     17  C   UNL A   1      32.314  20.678  24.666  1.00  0.00     0.176 C 
ATOM     18  N   UNL A   1      34.183  19.366  25.094  1.00  0.00    -0.291 N 
ATOM     19  C   UNL A   1      34.679  20.626  24.991  1.00  0.00     0.285 C 
ATOM     20  H   UNL A   1      34.747  18.569  25.218  1.00  0.00     0.173 HD
ATOM     21  O   UNL A   1      35.869  20.903  25.003  1.00  0.00    -0.268 OA
ENDBRANCH   8  14
ENDBRANCH   6   7
ENDBRANCH   4   6
ENDBRANCH   3   4
ENDBRANCH   2   3
ENDBRANCH   1   2
BRANCH   1  22
ATOM     22  O   UNL A   1      32.668  30.228  26.632  1.00  0.00    -0.458 OA
BRANCH  22  23
ATOM     23  C   UNL A   1      33.198  31.351  27.171  1.00  0.00     0.338 C 
ATOM     24  O   UNL A   1      32.662  32.443  27.247  1.00  0.00    -0.246 OA
BRANCH  23  25
ATOM     25  C   UNL A   1      34.500  31.045  27.790  1.00  0.00     0.060 A 
ATOM     26  C   UNL A   1      34.745  29.733  28.208  1.00  0.00     0.016 A 
ATOM     27  C   UNL A   1      35.446  32.047  28.013  1.00  0.00     0.016 A 
ATOM     28  C   UNL A   1      35.936  29.418  28.857  1.00  0.00     0.010 A 
ATOM     29  C   UNL A   1      36.646  31.726  28.659  1.00  0.00     0.010 A 
ATOM     30  C   UNL A   1      36.896  30.411  29.092  1.00  0.00    -0.014 A 
BRANCH  30  31
ATOM     31  C   UNL A   1      38.147  30.075  29.818  1.00  0.00     0.031 A 
ATOM     32  C   UNL A   1      39.125  29.104  29.217  1.00  0.00     0.074 A 
ATOM     33  C   UNL A   1      38.406  30.650  31.008  1.00  0.00     0.049 A 
ATOM     34  N   UNL A   1      40.232  28.624  29.721  1.00  0.00    -0.248 NA
ATOM     35  C   UNL A   1      38.809  28.606  27.870  1.00  0.00     0.031 C 
ATOM     36  C   UNL A   1      37.552  31.637  31.669  1.00  0.00     0.029 A 
ATOM     37  N   UNL A   1      39.459  30.486  31.873  1.00  0.00    -0.354 N 
ATOM     38  C   UNL A   1      40.743  27.757  28.761  1.00  0.00     0.074 A 
ATOM     39  C   UNL A   1      39.804  27.757  27.657  1.00  0.00     0.031 C 
ATOM     40  C   UNL A   1      38.114  31.990  32.837  1.00  0.00     0.029 A 
ATOM     41  C   UNL A   1      39.339  31.219  33.032  1.00  0.00     0.049 A 
ATOM     42  H   UNL A   1      40.226  29.900  31.684  1.00  0.00     0.167 HD
ATOM     43  C   UNL A   1      41.890  27.034  28.798  1.00  0.00     0.034 A 
ATOM     44  C   UNL A   1      40.111  31.242  34.138  1.00  0.00     0.034 A 
ATOM     45  C   UNL A   1      42.813  27.046  29.909  1.00  0.00     0.049 A 
ATOM     46  C   UNL A   1      41.341  30.370  34.186  1.00  0.00     0.074 A 
ATOM     47  C   UNL A   1      44.012  26.366  30.042  1.00  0.00     0.029 A 
ATOM     48  N   UNL A   1      42.639  27.770  31.083  1.00  0.00    -0.354 N 
ATOM     49  N   UNL A   1      41.811  29.552  33.271  1.00  0.00    -0.248 NA
ATOM     50  C   UNL A   1      42.147  30.427  35.412  1.00  0.00     0.031 C 
ATOM     51  C   UNL A   1      44.524  26.620  31.318  1.00  0.00     0.029 A 
ATOM     52  C   UNL A   1      43.689  27.524  31.956  1.00  0.00     0.049 A 
ATOM     53  H   UNL A   1      41.881  28.369  31.268  1.00  0.00     0.167 HD
ATOM     54  C   UNL A   1      42.984  29.022  33.804  1.00  0.00     0.074 A 
ATOM     55  C   UNL A   1      43.156  29.624  35.109  1.00  0.00     0.031 C 
ATOM     56  C   UNL A   1      43.844  28.122  33.261  1.00  0.00     0.034 A 
BRANCH  43  57
ATOM     57  C   UNL A   1      42.180  26.125  27.628  1.00  0.00     0.023 A 
ATOM     58  C   UNL A   1      41.697  24.806  27.572  1.00  0.00     0.031 A 
ATOM     59  C   UNL A   1      42.963  26.584  26.555  1.00  0.00     0.131 A 
ATOM     60  C   UNL A   1      42.052  23.975  26.498  1.00  0.00     0.055 A 
ATOM     61  C   UNL A   1      43.252  25.777  25.453  1.00  0.00     0.041 A 
ATOM     62  F   UNL A   1      43.470  27.827  26.561  1.00  0.00    -0.206 F 
ATOM     63  C   UNL A   1      42.806  24.459  25.426  1.00  0.00     0.022 A 
BRANCH  60  64
ATOM     64  S   UNL A   1      41.623  22.215  26.581  1.00  0.00     0.124 S 
ATOM     65  O   UNL A   1      42.273  21.697  25.380  1.00  0.00    -0.237 OA
ATOM     66  O   UNL A   1      42.208  21.807  27.853  1.00  0.00    -0.237 OA
ATOM     67  O   UNL A   1      40.161  22.215  26.538  1.00  0.00    -0.744 OA
ENDBRANCH  60  64
ENDBRANCH  43  57
BRANCH  44  68
ATOM     68  C   UNL A   1      39.728  32.078  35.312  1.00  0.00     0.023 A 
ATOM     69  C   UNL A   1      38.934  31.559  36.347  1.00  0.00     0.031 A 
ATOM     70  C   UNL A   1      40.101  33.433  35.385  1.00  0.00     0.131 A 
ATOM     71  C   UNL A   1      38.499  32.400  37.383  1.00  0.00     0.055 A 
ATOM     72  C   UNL A   1      39.715  34.250  36.448  1.00  0.00     0.041 A 
ATOM     73  F   UNL A   1      40.857  33.983  34.420  1.00  0.00    -0.206 F 
ATOM     74  C   UNL A   1      38.895  33.738  37.449  1.00  0.00     0.022 A 
BRANCH  71  75
ATOM     75  S   UNL A   1      37.321  31.744  38.598  1.00  0.00     0.124 S 
ATOM     76  O   UNL A   1      38.104  31.793  39.827  1.00  0.00    -0.237 OA
ATOM     77  O   UNL A   1      36.222  32.698  38.499  1.00  0.00    -0.237 OA
ATOM     78  O   UNL A   1      37.028  30.403  38.097  1.00  0.00    -0.744 OA
ENDBRANCH  71  75
ENDBRANCH  44  68
BRANCH  56  79
ATOM     79  C   UNL A   1      45.074  27.779  34.065  1.00  0.00     0.023 A 
ATOM     80  C   UNL A   1      45.096  26.695  34.961  1.00  0.00     0.031 A 
ATOM     81  C   UNL A   1      46.238  28.559  33.943  1.00  0.00     0.131 A 
ATOM     82  C   UNL A   1      46.239  26.456  35.741  1.00  0.00     0.055 A 
ATOM     83  C   UNL A   1      47.391  28.281  34.677  1.00  0.00     0.041 A 
ATOM     84  F   UNL A   1      46.272  29.608  33.104  1.00  0.00    -0.206 F 
ATOM     85  C   UNL A   1      47.392  27.231  35.592  1.00  0.00     0.022 A 
BRANCH  82  86
ATOM     86  S   UNL A   1      46.170  25.172  37.020  1.00  0.00     0.124 S 
ATOM     87  O   UNL A   1      47.194  24.236  36.567  1.00  0.00    -0.237 OA
ATOM     88  O   UNL A   1      46.483  25.923  38.233  1.00  0.00    -0.237 OA
ATOM     89  O   UNL A   1      44.797  24.677  36.938  1.00  0.00    -0.744 OA
ENDBRANCH  82  86
ENDBRANCH  56  79
ENDBRANCH  30  31
ENDBRANCH  23  25
ENDBRANCH  22  23
ENDBRANCH   1  22
TORSDOF 16
ENDMDL
