MODEL 1
REMARK VINA RESULT:     -14.3      0.000      0.000
REMARK SMILES Cc1ccc(NC(=O)c2ccccc2NC(=O)[C@H]2CCCC[C@H]2C(=O)OCCOC(=O)c2ccc(-c3c4nc(c(-c5cc(S(=O)(=O)[O-])ccc5F)c5ccc([nH]5)c(-c5cc(S(=O)(=O)[O-])ccc5F)c5nc(c(-c6cc(S(=O)(=O)[O-])ccc6F)c6ccc3[nH]6)C=C5)C=C4)cc2)cc1
REMARK SMILES IDX 27 1 26 2 24 3 25 4 23 5 18 6 19 7 20 8 22 9 21 10 16 11
REMARK SMILES IDX 15 12 17 14 14 15 9 16 10 17 11 18 13 19 12 20 7 21 6 22
REMARK SMILES IDX 8 24 5 25 1 26 2 27 3 28 96 29 4 30 95 31 28 32 29 33 30 34
REMARK SMILES IDX 31 35 32 36 33 37 94 38 34 39 93 40 35 41 36 42 37 43 87 44
REMARK SMILES IDX 38 45 92 46 86 47 88 48 39 49 91 50 85 51 84 52 40 54 72 55
REMARK SMILES IDX 52 56 71 57 53 58 56 59 70 60 89 61 54 62 55 63 69 65 90 66
REMARK SMILES IDX 57 67 41 68 42 69 50 70 43 71 49 72 51 73 48 74 44 75 45 76
REMARK SMILES IDX 46 77 47 78 73 79 74 80 82 81 75 82 81 83 83 84 80 85 76 86
REMARK SMILES IDX 77 87 78 88 79 89 58 90 59 91 67 92 60 93 66 94 68 95 65 96
REMARK SMILES IDX 61 97 62 98 63 99 64 100
REMARK H PARENT 15 13 6 23 88 53 56 64
REMARK Flexibility Score: inf
ROOT
ATOM      1  C   UNL A   1      34.311  31.514  27.379  1.00  0.00     0.274 C 
ENDROOT
BRANCH   1   2
ATOM      2  O   UNL A   1      33.177  30.631  27.359  1.00  0.00    -0.462 OA
BRANCH   2   3
ATOM      3  C   UNL A   1      33.392  29.316  26.767  1.00  0.00     0.309 C 
ATOM      4  O   UNL A   1      34.128  28.727  27.604  1.00  0.00    -0.252 OA
BRANCH   3   5
ATOM      5  C   UNL A   1      32.556  28.663  24.836  1.00  0.00     0.111 C 
ATOM      6  C   UNL A   1      32.644  27.110  23.968  1.00  0.00     0.093 C 
ATOM      7  C   UNL A   1      32.088  27.013  22.531  1.00  0.00     0.014 C 
ATOM      8  C   UNL A   1      30.654  27.461  22.388  1.00  0.00     0.001 C 
ATOM      9  C   UNL A   1      31.061  29.319  24.006  1.00  0.00     0.016 C 
ATOM     10  C   UNL A   1      30.651  28.943  22.590  1.00  0.00     0.001 C 
BRANCH   6  11
ATOM     11  C   UNL A   1      32.096  25.873  24.653  1.00  0.00     0.228 C 
ATOM     12  N   UNL A   1      32.896  24.800  24.917  1.00  0.00    -0.325 N 
ATOM     13  H   UNL A   1      32.441  24.167  25.518  1.00  0.00     0.169 HD
ATOM     14  O   UNL A   1      30.949  25.860  25.111  1.00  0.00    -0.274 OA
BRANCH  12  15
ATOM     15  C   UNL A   1      34.185  24.330  24.581  1.00  0.00     0.054 A 
ATOM     16  C   UNL A   1      34.367  23.630  23.360  1.00  0.00     0.063 A 
ATOM     17  C   UNL A   1      35.590  22.954  23.138  1.00  0.00     0.016 A 
ATOM     18  C   UNL A   1      36.628  23.003  24.063  1.00  0.00     0.001 A 
ATOM     19  C   UNL A   1      35.295  24.478  25.424  1.00  0.00     0.027 A 
ATOM     20  C   UNL A   1      36.490  23.789  25.191  1.00  0.00     0.002 A 
BRANCH  16  21
ATOM     21  C   UNL A   1      33.326  23.375  22.309  1.00  0.00     0.257 C 
ATOM     22  N   UNL A   1      32.572  22.226  22.176  1.00  0.00    -0.322 N 
ATOM     23  H   UNL A   1      32.129  22.158  21.299  1.00  0.00     0.170 HD
ATOM     24  O   UNL A   1      33.177  24.229  21.428  1.00  0.00    -0.269 OA
BRANCH  22  25
ATOM     25  C   UNL A   1      32.297  21.132  23.013  1.00  0.00     0.041 A 
ATOM     26  C   UNL A   1      32.927  17.512  25.218  1.00  0.00     0.044 C 
ATOM     27  C   UNL A   1      32.529  18.755  24.477  1.00  0.00    -0.051 A 
ATOM     28  C   UNL A   1      32.529  19.995  25.131  1.00  0.00     0.005 A 
ATOM     29  C   UNL A   1      32.289  18.712  23.100  1.00  0.00     0.005 A 
ATOM     30  C   UNL A   1      32.393  21.184  24.403  1.00  0.00     0.026 A 
ATOM     31  C   UNL A   1      32.149  19.896  22.373  1.00  0.00     0.026 A 
ENDBRANCH  22  25
ENDBRANCH  16  21
ENDBRANCH  12  15
ENDBRANCH   6  11
ENDBRANCH   3   5
ENDBRANCH   2   3
ENDBRANCH   1   2
BRANCH   1  32
ATOM     32  C   UNL A   1      34.406  32.172  28.760  1.00  0.00     0.275 C 
BRANCH  32  33
ATOM     33  O   UNL A   1      35.451  31.759  29.709  1.00  0.00    -0.458 OA
BRANCH  33  34
ATOM     34  C   UNL A   1      36.773  31.468  29.608  1.00  0.00     0.338 C 
ATOM     35  O   UNL A   1      37.665  32.271  29.856  1.00  0.00    -0.246 OA
BRANCH  34  36
ATOM     36  C   UNL A   1      37.186  30.134  29.135  1.00  0.00     0.060 A 
ATOM     37  C   UNL A   1      37.249  28.844  30.379  1.00  0.00     0.016 A 
ATOM     38  C   UNL A   1      38.316  30.123  27.757  1.00  0.00     0.016 A 
ATOM     39  C   UNL A   1      38.611  27.637  30.314  1.00  0.00     0.010 A 
ATOM     40  C   UNL A   1      39.611  28.887  27.630  1.00  0.00     0.010 A 
ATOM     41  C   UNL A   1      39.848  27.746  28.990  1.00  0.00    -0.014 A 
BRANCH  41  42
ATOM     42  C   UNL A   1      41.244  27.372  29.118  1.00  0.00     0.031 A 
ATOM     43  C   UNL A   1      41.693  26.130  28.467  1.00  0.00     0.074 A 
ATOM     44  C   UNL A   1      42.076  28.284  29.667  1.00  0.00     0.049 A 
ATOM     45  N   UNL A   1      42.554  25.330  28.986  1.00  0.00    -0.248 NA
ATOM     46  C   UNL A   1      41.104  25.590  27.235  1.00  0.00     0.031 C 
ATOM     47  C   UNL A   1      43.530  28.284  29.706  1.00  0.00     0.029 A 
ATOM     48  N   UNL A   1      41.756  29.392  30.444  1.00  0.00    -0.354 N 
ATOM     49  C   UNL A   1      42.883  24.420  28.001  1.00  0.00     0.074 A 
ATOM     50  C   UNL A   1      41.787  24.456  27.083  1.00  0.00     0.031 C 
ATOM     51  C   UNL A   1      43.927  29.089  30.715  1.00  0.00     0.029 A 
ATOM     52  C   UNL A   1      42.733  29.555  31.410  1.00  0.00     0.049 A 
ATOM     53  H   UNL A   1      40.963  29.966  30.327  1.00  0.00     0.167 HD
ATOM     54  C   UNL A   1      44.157  23.944  27.936  1.00  0.00     0.034 A 
ATOM     55  C   UNL A   1      42.430  29.391  32.731  1.00  0.00     0.034 A 
ATOM     56  C   UNL A   1      44.941  24.510  29.038  1.00  0.00     0.049 A 
ATOM     57  C   UNL A   1      43.090  28.124  33.242  1.00  0.00     0.074 A 
ATOM     58  C   UNL A   1      45.845  25.558  29.102  1.00  0.00     0.029 A 
ATOM     59  N   UNL A   1      44.539  24.263  30.345  1.00  0.00    -0.354 N 
ATOM     60  N   UNL A   1      43.535  27.171  32.463  1.00  0.00    -0.248 NA
ATOM     61  C   UNL A   1      43.350  27.856  34.648  1.00  0.00     0.031 C 
ATOM     62  C   UNL A   1      45.904  25.996  30.457  1.00  0.00     0.029 A 
ATOM     63  C   UNL A   1      45.067  25.195  31.217  1.00  0.00     0.049 A 
ATOM     64  H   UNL A   1      43.954  23.519  30.615  1.00  0.00     0.167 HD
ATOM     65  C   UNL A   1      44.169  26.214  33.207  1.00  0.00     0.074 A 
ATOM     66  C   UNL A   1      44.026  26.696  34.573  1.00  0.00     0.031 C 
ATOM     67  C   UNL A   1      44.762  25.114  32.640  1.00  0.00     0.034 A 
BRANCH  54  68
ATOM     68  C   UNL A   1      44.782  23.268  26.728  1.00  0.00     0.023 A 
ATOM     69  C   UNL A   1      44.379  21.952  26.419  1.00  0.00     0.031 A 
ATOM     70  C   UNL A   1      45.765  23.800  25.865  1.00  0.00     0.131 A 
ATOM     71  C   UNL A   1      44.971  21.220  25.371  1.00  0.00     0.055 A 
ATOM     72  C   UNL A   1      46.380  23.062  24.843  1.00  0.00     0.041 A 
ATOM     73  F   UNL A   1      46.157  25.077  25.917  1.00  0.00    -0.206 F 
ATOM     74  C   UNL A   1      45.986  21.762  24.591  1.00  0.00     0.022 A 
BRANCH  71  75
ATOM     75  S   UNL A   1      44.380  19.542  25.033  1.00  0.00     0.124 S 
ATOM     76  O   UNL A   1      44.155  19.583  23.592  1.00  0.00    -0.237 OA
ATOM     77  O   UNL A   1      45.496  18.723  25.492  1.00  0.00    -0.237 OA
ATOM     78  O   UNL A   1      43.167  19.440  25.844  1.00  0.00    -0.744 OA
ENDBRANCH  71  75
ENDBRANCH  54  68
BRANCH  55  79
ATOM     79  C   UNL A   1      41.106  29.959  33.164  1.00  0.00     0.023 A 
ATOM     80  C   UNL A   1      40.969  31.369  33.142  1.00  0.00     0.031 A 
ATOM     81  C   UNL A   1      39.925  29.212  33.283  1.00  0.00     0.131 A 
ATOM     82  C   UNL A   1      39.704  31.978  33.084  1.00  0.00     0.055 A 
ATOM     83  C   UNL A   1      38.657  29.826  33.271  1.00  0.00     0.041 A 
ATOM     84  F   UNL A   1      39.958  27.871  33.264  1.00  0.00    -0.206 F 
ATOM     85  C   UNL A   1      38.542  31.210  33.133  1.00  0.00     0.022 A 
BRANCH  82  86
ATOM     86  S   UNL A   1      39.586  33.756  32.698  1.00  0.00     0.124 S 
ATOM     87  O   UNL A   1      40.405  34.343  33.754  1.00  0.00    -0.237 OA
ATOM     88  O   UNL A   1      40.137  33.853  31.350  1.00  0.00    -0.237 OA
ATOM     89  O   UNL A   1      38.154  34.026  32.800  1.00  0.00    -0.744 OA
ENDBRANCH  82  86
ENDBRANCH  55  79
BRANCH  67  90
ATOM     90  C   UNL A   1      45.177  23.869  33.395  1.00  0.00     0.023 A 
ATOM     91  C   UNL A   1      46.441  23.729  33.976  1.00  0.00     0.031 A 
ATOM     92  C   UNL A   1      44.281  22.796  33.633  1.00  0.00     0.131 A 
ATOM     93  C   UNL A   1      46.819  22.545  34.623  1.00  0.00     0.055 A 
ATOM     94  C   UNL A   1      44.616  21.674  34.394  1.00  0.00     0.041 A 
ATOM     95  F   UNL A   1      43.032  22.783  33.148  1.00  0.00    -0.206 F 
ATOM     96  C   UNL A   1      45.907  21.526  34.870  1.00  0.00     0.022 A 
BRANCH  93  97
ATOM     97  S   UNL A   1      48.572  22.335  35.009  1.00  0.00     0.124 S 
ATOM     98  O   UNL A   1      48.527  22.042  36.439  1.00  0.00    -0.237 OA
ATOM     99  O   UNL A   1      48.952  21.220  34.147  1.00  0.00    -0.237 OA
ATOM    100  O   UNL A   1      49.157  23.626  34.657  1.00  0.00    -0.744 OA
ENDBRANCH  93  97
ENDBRANCH  67  90
ENDBRANCH  41  42
ENDBRANCH  34  36
ENDBRANCH  33  34
ENDBRANCH  32  33
ENDBRANCH   1  32
TORSDOF 18
ENDMDL
MODEL 2
REMARK VINA RESULT:     -13.6      2.059      2.567
REMARK SMILES Cc1ccc(NC(=O)c2ccccc2NC(=O)[C@H]2CCCC[C@H]2C(=O)OCCOC(=O)c2ccc(-c3c4nc(c(-c5cc(S(=O)(=O)[O-])ccc5F)c5ccc([nH]5)c(-c5cc(S(=O)(=O)[O-])ccc5F)c5nc(c(-c6cc(S(=O)(=O)[O-])ccc6F)c6ccc3[nH]6)C=C5)C=C4)cc2)cc1
REMARK SMILES IDX 27 1 26 2 24 3 25 4 23 5 18 6 19 7 20 8 22 9 21 10 16 11
REMARK SMILES IDX 15 12 17 14 14 15 9 16 10 17 11 18 13 19 12 20 7 21 6 22
REMARK SMILES IDX 8 24 5 25 1 26 2 27 3 28 96 29 4 30 95 31 28 32 29 33 30 34
REMARK SMILES IDX 31 35 32 36 33 37 94 38 34 39 93 40 35 41 36 42 37 43 87 44
REMARK SMILES IDX 38 45 92 46 86 47 88 48 39 49 91 50 85 51 84 52 40 54 72 55
REMARK SMILES IDX 52 56 71 57 53 58 56 59 70 60 89 61 54 62 55 63 69 65 90 66
REMARK SMILES IDX 57 67 41 68 42 69 50 70 43 71 49 72 51 73 48 74 44 75 45 76
REMARK SMILES IDX 46 77 47 78 73 79 74 80 82 81 75 82 81 83 83 84 80 85 76 86
REMARK SMILES IDX 77 87 78 88 79 89 58 90 59 91 67 92 60 93 66 94 68 95 65 96
REMARK SMILES IDX 61 97 62 98 63 99 64 100
REMARK H PARENT 15 13 6 23 88 53 56 64
REMARK Flexibility Score: inf
ROOT
ATOM      1  C   UNL A   1      33.054  31.699  27.030  1.00  0.00     0.274 C 
ENDROOT
BRANCH   1   2
ATOM      2  O   UNL A   1      32.774  30.432  27.649  1.00  0.00    -0.462 OA
BRANCH   2   3
ATOM      3  C   UNL A   1      33.147  29.245  26.887  1.00  0.00     0.309 C 
ATOM      4  O   UNL A   1      34.002  28.677  27.619  1.00  0.00    -0.252 OA
BRANCH   3   5
ATOM      5  C   UNL A   1      32.316  28.712  24.918  1.00  0.00     0.111 C 
ATOM      6  C   UNL A   1      32.397  27.211  23.962  1.00  0.00     0.093 C 
ATOM      7  C   UNL A   1      31.848  27.202  22.519  1.00  0.00     0.014 C 
ATOM      8  C   UNL A   1      30.418  27.668  22.395  1.00  0.00     0.001 C 
ATOM      9  C   UNL A   1      30.830  29.426  24.121  1.00  0.00     0.016 C 
ATOM     10  C   UNL A   1      30.425  29.136  22.683  1.00  0.00     0.001 C 
BRANCH   6  11
ATOM     11  C   UNL A   1      31.837  25.940  24.571  1.00  0.00     0.228 C 
ATOM     12  N   UNL A   1      32.646  24.881  24.861  1.00  0.00    -0.325 N 
ATOM     13  H   UNL A   1      32.168  24.219  25.412  1.00  0.00     0.169 HD
ATOM     14  O   UNL A   1      30.661  25.884  24.946  1.00  0.00    -0.274 OA
BRANCH  12  15
ATOM     15  C   UNL A   1      33.968  24.455  24.606  1.00  0.00     0.054 A 
ATOM     16  C   UNL A   1      34.247  23.756  23.403  1.00  0.00     0.063 A 
ATOM     17  C   UNL A   1      35.503  23.121  23.259  1.00  0.00     0.016 A 
ATOM     18  C   UNL A   1      36.482  23.211  24.242  1.00  0.00     0.001 A 
ATOM     19  C   UNL A   1      35.020  24.646  25.512  1.00  0.00     0.027 A 
ATOM     20  C   UNL A   1      36.250  23.998  25.355  1.00  0.00     0.002 A 
BRANCH  16  21
ATOM     21  C   UNL A   1      33.279  23.459  22.293  1.00  0.00     0.257 C 
ATOM     22  N   UNL A   1      32.571  22.286  22.127  1.00  0.00    -0.322 N 
ATOM     23  H   UNL A   1      32.183  22.197  21.227  1.00  0.00     0.170 HD
ATOM     24  O   UNL A   1      33.158  24.301  21.396  1.00  0.00    -0.269 OA
BRANCH  22  25
ATOM     25  C   UNL A   1      32.279  21.192  22.958  1.00  0.00     0.041 A 
ATOM     26  C   UNL A   1      32.871  17.581  25.190  1.00  0.00     0.044 C 
ATOM     27  C   UNL A   1      32.486  18.820  24.434  1.00  0.00    -0.051 A 
ATOM     28  C   UNL A   1      32.454  20.061  25.085  1.00  0.00     0.005 A 
ATOM     29  C   UNL A   1      32.289  18.772  23.050  1.00  0.00     0.005 A 
ATOM     30  C   UNL A   1      32.331  21.247  24.350  1.00  0.00     0.026 A 
ATOM     31  C   UNL A   1      32.162  19.953  22.316  1.00  0.00     0.026 A 
ENDBRANCH  22  25
ENDBRANCH  16  21
ENDBRANCH  12  15
ENDBRANCH   6  11
ENDBRANCH   3   5
ENDBRANCH   2   3
ENDBRANCH   1   2
BRANCH   1  32
ATOM     32  C   UNL A   1      33.243  32.756  28.124  1.00  0.00     0.275 C 
BRANCH  32  33
ATOM     33  O   UNL A   1      34.594  33.147  28.554  1.00  0.00    -0.458 OA
BRANCH  33  34
ATOM     34  C   UNL A   1      35.500  32.643  29.430  1.00  0.00     0.338 C 
ATOM     35  O   UNL A   1      36.072  33.319  30.277  1.00  0.00    -0.246 OA
BRANCH  34  36
ATOM     36  C   UNL A   1      35.868  31.218  29.351  1.00  0.00     0.060 A 
ATOM     37  C   UNL A   1      36.417  30.462  30.882  1.00  0.00     0.016 A 
ATOM     38  C   UNL A   1      36.529  30.680  27.785  1.00  0.00     0.016 A 
ATOM     39  C   UNL A   1      37.797  29.276  30.823  1.00  0.00     0.010 A 
ATOM     40  C   UNL A   1      37.829  29.446  27.703  1.00  0.00     0.010 A 
ATOM     41  C   UNL A   1      38.564  28.866  29.229  1.00  0.00    -0.014 A 
BRANCH  41  42
ATOM     42  C   UNL A   1      39.961  28.526  29.038  1.00  0.00     0.031 A 
ATOM     43  C   UNL A   1      40.293  27.144  28.653  1.00  0.00     0.074 A 
ATOM     44  C   UNL A   1      40.848  29.545  29.043  1.00  0.00     0.049 A 
ATOM     45  N   UNL A   1      41.323  26.513  29.094  1.00  0.00    -0.248 NA
ATOM     46  C   UNL A   1      39.417  26.284  27.848  1.00  0.00     0.031 C 
ATOM     47  C   UNL A   1      42.248  29.537  28.650  1.00  0.00     0.029 A 
ATOM     48  N   UNL A   1      40.685  30.833  29.543  1.00  0.00    -0.354 N 
ATOM     49  C   UNL A   1      41.420  25.356  28.347  1.00  0.00     0.074 A 
ATOM     50  C   UNL A   1      40.107  25.144  27.821  1.00  0.00     0.031 C 
ATOM     51  C   UNL A   1      42.859  30.590  29.234  1.00  0.00     0.029 A 
ATOM     52  C   UNL A   1      41.884  31.251  30.094  1.00  0.00     0.049 A 
ATOM     53  H   UNL A   1      39.854  31.360  29.512  1.00  0.00     0.167 HD
ATOM     54  C   UNL A   1      42.652  24.864  28.043  1.00  0.00     0.034 A 
ATOM     55  C   UNL A   1      41.985  31.474  31.437  1.00  0.00     0.034 A 
ATOM     56  C   UNL A   1      43.676  25.711  28.664  1.00  0.00     0.049 A 
ATOM     57  C   UNL A   1      42.852  30.396  32.058  1.00  0.00     0.074 A 
ATOM     58  C   UNL A   1      44.483  26.721  28.166  1.00  0.00     0.029 A 
ATOM     59  N   UNL A   1      43.684  25.851  30.046  1.00  0.00    -0.354 N 
ATOM     60  N   UNL A   1      43.123  29.255  31.478  1.00  0.00    -0.248 NA
ATOM     61  C   UNL A   1      43.523  30.537  33.342  1.00  0.00     0.031 C 
ATOM     62  C   UNL A   1      44.896  27.527  29.268  1.00  0.00     0.029 A 
ATOM     63  C   UNL A   1      44.372  26.986  30.430  1.00  0.00     0.049 A 
ATOM     64  H   UNL A   1      43.256  25.223  30.671  1.00  0.00     0.167 HD
ATOM     65  C   UNL A   1      44.011  28.541  32.235  1.00  0.00     0.074 A 
ATOM     66  C   UNL A   1      44.231  29.394  33.394  1.00  0.00     0.031 C 
ATOM     67  C   UNL A   1      44.494  27.317  31.845  1.00  0.00     0.034 A 
BRANCH  54  68
ATOM     68  C   UNL A   1      42.952  23.864  26.940  1.00  0.00     0.023 A 
ATOM     69  C   UNL A   1      42.404  22.569  27.049  1.00  0.00     0.031 A 
ATOM     70  C   UNL A   1      43.756  24.069  25.796  1.00  0.00     0.131 A 
ATOM     71  C   UNL A   1      42.703  21.555  26.118  1.00  0.00     0.055 A 
ATOM     72  C   UNL A   1      44.082  23.053  24.887  1.00  0.00     0.041 A 
ATOM     73  F   UNL A   1      44.234  25.270  25.455  1.00  0.00    -0.206 F 
ATOM     74  C   UNL A   1      43.558  21.784  25.045  1.00  0.00     0.022 A 
BRANCH  71  75
ATOM     75  S   UNL A   1      41.943  19.925  26.326  1.00  0.00     0.124 S 
ATOM     76  O   UNL A   1      40.522  20.233  26.204  1.00  0.00    -0.237 OA
ATOM     77  O   UNL A   1      42.537  19.164  25.234  1.00  0.00    -0.237 OA
ATOM     78  O   UNL A   1      42.373  19.519  27.664  1.00  0.00    -0.744 OA
ENDBRANCH  71  75
ENDBRANCH  54  68
BRANCH  55  79
ATOM     79  C   UNL A   1      40.803  32.159  32.066  1.00  0.00     0.023 A 
ATOM     80  C   UNL A   1      40.182  31.504  33.158  1.00  0.00     0.031 A 
ATOM     81  C   UNL A   1      40.469  33.507  31.866  1.00  0.00     0.131 A 
ATOM     82  C   UNL A   1      39.396  32.212  34.083  1.00  0.00     0.055 A 
ATOM     83  C   UNL A   1      39.644  34.206  32.769  1.00  0.00     0.041 A 
ATOM     84  F   UNL A   1      41.047  34.216  30.885  1.00  0.00    -0.206 F 
ATOM     85  C   UNL A   1      39.136  33.570  33.902  1.00  0.00     0.022 A 
BRANCH  82  86
ATOM     86  S   UNL A   1      38.920  31.412  35.650  1.00  0.00     0.124 S 
ATOM     87  O   UNL A   1      39.707  32.168  36.619  1.00  0.00    -0.237 OA
ATOM     88  O   UNL A   1      37.476  31.617  35.718  1.00  0.00    -0.237 OA
ATOM     89  O   UNL A   1      39.337  30.025  35.457  1.00  0.00    -0.744 OA
ENDBRANCH  82  86
ENDBRANCH  55  79
BRANCH  67  90
ATOM     90  C   UNL A   1      45.197  26.333  32.756  1.00  0.00     0.023 A 
ATOM     91  C   UNL A   1      44.508  25.541  33.679  1.00  0.00     0.031 A 
ATOM     92  C   UNL A   1      46.592  26.092  32.674  1.00  0.00     0.131 A 
ATOM     93  C   UNL A   1      45.189  24.676  34.548  1.00  0.00     0.055 A 
ATOM     94  C   UNL A   1      47.249  25.133  33.448  1.00  0.00     0.041 A 
ATOM     95  F   UNL A   1      47.388  26.767  31.834  1.00  0.00    -0.206 F 
ATOM     96  C   UNL A   1      46.552  24.437  34.418  1.00  0.00     0.022 A 
BRANCH  93  97
ATOM     97  S   UNL A   1      44.252  23.984  35.929  1.00  0.00     0.124 S 
ATOM     98  O   UNL A   1      45.309  23.729  36.905  1.00  0.00    -0.237 OA
ATOM     99  O   UNL A   1      43.334  25.068  36.261  1.00  0.00    -0.237 OA
ATOM    100  O   UNL A   1      43.632  22.791  35.359  1.00  0.00    -0.744 OA
ENDBRANCH  93  97
ENDBRANCH  67  90
ENDBRANCH  41  42
ENDBRANCH  34  36
ENDBRANCH  33  34
ENDBRANCH  32  33
ENDBRANCH   1  32
TORSDOF 18
ENDMDL
MODEL 3
REMARK VINA RESULT:     -13.6      4.279      7.205
REMARK SMILES Cc1ccc(NC(=O)c2ccccc2NC(=O)[C@H]2CCCC[C@H]2C(=O)OCCOC(=O)c2ccc(-c3c4nc(c(-c5cc(S(=O)(=O)[O-])ccc5F)c5ccc([nH]5)c(-c5cc(S(=O)(=O)[O-])ccc5F)c5nc(c(-c6cc(S(=O)(=O)[O-])ccc6F)c6ccc3[nH]6)C=C5)C=C4)cc2)cc1
REMARK SMILES IDX 27 1 26 2 24 3 25 4 23 5 18 6 19 7 20 8 22 9 21 10 16 11
REMARK SMILES IDX 15 12 17 14 14 15 9 16 10 17 11 18 13 19 12 20 7 21 6 22
REMARK SMILES IDX 8 24 5 25 1 26 2 27 3 28 96 29 4 30 95 31 28 32 29 33 30 34
REMARK SMILES IDX 31 35 32 36 33 37 94 38 34 39 93 40 35 41 36 42 37 43 87 44
REMARK SMILES IDX 38 45 92 46 86 47 88 48 39 49 91 50 85 51 84 52 40 54 72 55
REMARK SMILES IDX 52 56 71 57 53 58 56 59 70 60 89 61 54 62 55 63 69 65 90 66
REMARK SMILES IDX 57 67 41 68 42 69 50 70 43 71 49 72 51 73 48 74 44 75 45 76
REMARK SMILES IDX 46 77 47 78 73 79 74 80 82 81 75 82 81 83 83 84 80 85 76 86
REMARK SMILES IDX 77 87 78 88 79 89 58 90 59 91 67 92 60 93 66 94 68 95 65 96
REMARK SMILES IDX 61 97 62 98 63 99 64 100
REMARK H PARENT 15 13 6 23 88 53 56 64
REMARK Flexibility Score: inf
ROOT
ATOM      1  C   UNL A   1      38.183  22.317  25.837  1.00  0.00     0.274 C 
ENDROOT
BRANCH   1   2
ATOM      2  O   UNL A   1      37.349  21.527  24.972  1.00  0.00    -0.462 OA
BRANCH   2   3
ATOM      3  C   UNL A   1      35.946  21.413  25.354  1.00  0.00     0.309 C 
ATOM      4  O   UNL A   1      35.700  22.513  25.919  1.00  0.00    -0.252 OA
BRANCH   3   5
ATOM      5  C   UNL A   1      34.683  19.650  24.966  1.00  0.00     0.111 C 
ATOM      6  C   UNL A   1      32.937  19.486  24.653  1.00  0.00     0.093 C 
ATOM      7  C   UNL A   1      32.310  18.077  24.584  1.00  0.00     0.014 C 
ATOM      8  C   UNL A   1      32.974  17.148  23.598  1.00  0.00     0.001 C 
ATOM      9  C   UNL A   1      35.212  18.059  24.228  1.00  0.00     0.016 C 
ATOM     10  C   UNL A   1      34.323  16.827  24.160  1.00  0.00     0.001 C 
BRANCH   6  11
ATOM     11  C   UNL A   1      32.353  20.201  23.451  1.00  0.00     0.228 C 
ATOM     12  N   UNL A   1      32.119  21.545  23.474  1.00  0.00    -0.325 N 
ATOM     13  H   UNL A   1      31.915  21.878  22.570  1.00  0.00     0.169 HD
ATOM     14  O   UNL A   1      32.203  19.611  22.375  1.00  0.00    -0.274 OA
BRANCH  12  15
ATOM     15  C   UNL A   1      32.082  22.599  24.413  1.00  0.00     0.054 A 
ATOM     16  C   UNL A   1      32.857  23.763  24.173  1.00  0.00     0.063 A 
ATOM     17  C   UNL A   1      33.012  24.706  25.216  1.00  0.00     0.016 A 
ATOM     18  C   UNL A   1      32.384  24.542  26.446  1.00  0.00     0.001 A 
ATOM     19  C   UNL A   1      31.351  22.533  25.606  1.00  0.00     0.027 A 
ATOM     20  C   UNL A   1      31.530  23.470  26.630  1.00  0.00     0.002 A 
BRANCH  16  21
ATOM     21  C   UNL A   1      33.695  24.048  22.960  1.00  0.00     0.257 C 
ATOM     22  N   UNL A   1      33.572  25.142  22.127  1.00  0.00    -0.322 N 
ATOM     23  H   UNL A   1      34.042  25.025  21.270  1.00  0.00     0.170 HD
ATOM     24  O   UNL A   1      34.521  23.193  22.618  1.00  0.00    -0.269 OA
BRANCH  22  25
ATOM     25  C   UNL A   1      32.927  26.385  22.231  1.00  0.00     0.041 A 
ATOM     26  C   UNL A   1      30.477  29.507  23.849  1.00  0.00     0.044 C 
ATOM     27  C   UNL A   1      31.334  28.508  23.127  1.00  0.00    -0.051 A 
ATOM     28  C   UNL A   1      32.731  28.575  23.229  1.00  0.00     0.005 A 
ATOM     29  C   UNL A   1      30.752  27.425  22.462  1.00  0.00     0.005 A 
ATOM     30  C   UNL A   1      33.530  27.523  22.764  1.00  0.00     0.026 A 
ATOM     31  C   UNL A   1      31.547  26.377  21.994  1.00  0.00     0.026 A 
ENDBRANCH  22  25
ENDBRANCH  16  21
ENDBRANCH  12  15
ENDBRANCH   6  11
ENDBRANCH   3   5
ENDBRANCH   2   3
ENDBRANCH   1   2
BRANCH   1  32
ATOM     32  C   UNL A   1      39.437  21.511  26.191  1.00  0.00     0.275 C 
BRANCH  32  33
ATOM     33  O   UNL A   1      40.373  22.004  27.214  1.00  0.00    -0.458 OA
BRANCH  33  34
ATOM     34  C   UNL A   1      41.461  22.814  27.200  1.00  0.00     0.338 C 
ATOM     35  O   UNL A   1      42.162  22.991  26.211  1.00  0.00    -0.246 OA
BRANCH  34  36
ATOM     36  C   UNL A   1      41.871  23.497  28.441  1.00  0.00     0.060 A 
ATOM     37  C   UNL A   1      41.798  25.289  28.412  1.00  0.00     0.016 A 
ATOM     38  C   UNL A   1      43.105  22.654  29.411  1.00  0.00     0.016 A 
ATOM     39  C   UNL A   1      43.124  26.229  29.233  1.00  0.00     0.010 A 
ATOM     40  C   UNL A   1      44.369  23.568  30.300  1.00  0.00     0.010 A 
ATOM     41  C   UNL A   1      44.464  25.343  30.078  1.00  0.00    -0.014 A 
BRANCH  41  42
ATOM     42  C   UNL A   1      45.834  25.808  30.187  1.00  0.00     0.031 A 
ATOM     43  C   UNL A   1      46.770  25.471  29.102  1.00  0.00     0.074 A 
ATOM     44  C   UNL A   1      46.110  26.677  31.184  1.00  0.00     0.049 A 
ATOM     45  N   UNL A   1      48.003  25.166  29.299  1.00  0.00    -0.248 NA
ATOM     46  C   UNL A   1      46.372  25.299  27.699  1.00  0.00     0.031 C 
ATOM     47  C   UNL A   1      47.307  27.476  31.391  1.00  0.00     0.029 A 
ATOM     48  N   UNL A   1      45.374  26.937  32.336  1.00  0.00    -0.354 N 
ATOM     49  C   UNL A   1      48.602  25.141  28.055  1.00  0.00     0.074 A 
ATOM     50  C   UNL A   1      47.526  24.952  27.131  1.00  0.00     0.031 C 
ATOM     51  C   UNL A   1      47.365  27.825  32.694  1.00  0.00     0.029 A 
ATOM     52  C   UNL A   1      46.251  27.179  33.379  1.00  0.00     0.049 A 
ATOM     53  H   UNL A   1      44.392  26.946  32.399  1.00  0.00     0.167 HD
ATOM     54  C   UNL A   1      49.894  25.550  27.932  1.00  0.00     0.034 A 
ATOM     55  C   UNL A   1      46.320  26.317  34.435  1.00  0.00     0.034 A 
ATOM     56  C   UNL A   1      50.415  25.907  29.255  1.00  0.00     0.049 A 
ATOM     57  C   UNL A   1      47.642  25.574  34.389  1.00  0.00     0.074 A 
ATOM     58  C   UNL A   1      50.593  27.125  29.894  1.00  0.00     0.029 A 
ATOM     59  N   UNL A   1      50.446  24.938  30.250  1.00  0.00    -0.354 N 
ATOM     60  N   UNL A   1      48.395  25.494  33.321  1.00  0.00    -0.248 NA
ATOM     61  C   UNL A   1      48.243  24.918  35.541  1.00  0.00     0.031 C 
ATOM     62  C   UNL A   1      50.634  26.874  31.297  1.00  0.00     0.029 A 
ATOM     63  C   UNL A   1      50.517  25.509  31.505  1.00  0.00     0.049 A 
ATOM     64  H   UNL A   1      50.421  23.969  30.081  1.00  0.00     0.167 HD
ATOM     65  C   UNL A   1      49.566  24.853  33.619  1.00  0.00     0.074 A 
ATOM     66  C   UNL A   1      49.420  24.515  35.027  1.00  0.00     0.031 C 
ATOM     67  C   UNL A   1      50.557  24.660  32.690  1.00  0.00     0.034 A 
BRANCH  54  68
ATOM     68  C   UNL A   1      50.569  25.954  26.633  1.00  0.00     0.023 A 
ATOM     69  C   UNL A   1      49.760  26.447  25.587  1.00  0.00     0.031 A 
ATOM     70  C   UNL A   1      51.945  25.871  26.323  1.00  0.00     0.131 A 
ATOM     71  C   UNL A   1      50.291  26.760  24.321  1.00  0.00     0.055 A 
ATOM     72  C   UNL A   1      52.471  26.151  25.054  1.00  0.00     0.041 A 
ATOM     73  F   UNL A   1      52.874  25.568  27.235  1.00  0.00    -0.206 F 
ATOM     74  C   UNL A   1      51.643  26.596  24.040  1.00  0.00     0.022 A 
BRANCH  71  75
ATOM     75  S   UNL A   1      49.182  27.403  23.042  1.00  0.00     0.124 S 
ATOM     76  O   UNL A   1      50.073  28.262  22.270  1.00  0.00    -0.237 OA
ATOM     77  O   UNL A   1      48.728  26.183  22.385  1.00  0.00    -0.237 OA
ATOM     78  O   UNL A   1      48.155  28.108  23.808  1.00  0.00    -0.744 OA
ENDBRANCH  71  75
ENDBRANCH  54  68
BRANCH  55  79
ATOM     79  C   UNL A   1      44.999  25.783  34.918  1.00  0.00     0.023 A 
ATOM     80  C   UNL A   1      44.141  26.691  35.588  1.00  0.00     0.031 A 
ATOM     81  C   UNL A   1      44.430  24.574  34.493  1.00  0.00     0.131 A 
ATOM     82  C   UNL A   1      42.759  26.455  35.680  1.00  0.00     0.055 A 
ATOM     83  C   UNL A   1      43.051  24.318  34.626  1.00  0.00     0.041 A 
ATOM     84  F   UNL A   1      45.158  23.678  33.810  1.00  0.00    -0.206 F 
ATOM     85  C   UNL A   1      42.204  25.276  35.186  1.00  0.00     0.022 A 
BRANCH  82  86
ATOM     86  S   UNL A   1      41.658  27.802  36.224  1.00  0.00     0.124 S 
ATOM     87  O   UNL A   1      40.988  28.159  34.978  1.00  0.00    -0.237 OA
ATOM     88  O   UNL A   1      40.811  27.169  37.232  1.00  0.00    -0.237 OA
ATOM     89  O   UNL A   1      42.586  28.805  36.740  1.00  0.00    -0.744 OA
ENDBRANCH  82  86
ENDBRANCH  55  79
BRANCH  67  90
ATOM     90  C   UNL A   1      51.708  23.689  32.840  1.00  0.00     0.023 A 
ATOM     91  C   UNL A   1      51.520  22.348  33.186  1.00  0.00     0.031 A 
ATOM     92  C   UNL A   1      53.049  24.058  32.558  1.00  0.00     0.131 A 
ATOM     93  C   UNL A   1      52.608  21.482  33.371  1.00  0.00     0.055 A 
ATOM     94  C   UNL A   1      54.117  23.160  32.613  1.00  0.00     0.041 A 
ATOM     95  F   UNL A   1      53.391  25.305  32.208  1.00  0.00    -0.206 F 
ATOM     96  C   UNL A   1      53.905  21.866  33.053  1.00  0.00     0.022 A 
BRANCH  93  97
ATOM     97  S   UNL A   1      52.277  19.893  34.164  1.00  0.00     0.124 S 
ATOM     98  O   UNL A   1      52.628  20.177  35.553  1.00  0.00    -0.237 OA
ATOM     99  O   UNL A   1      50.855  19.700  33.899  1.00  0.00    -0.237 OA
ATOM    100  O   UNL A   1      53.174  18.971  33.471  1.00  0.00    -0.744 OA
ENDBRANCH  93  97
ENDBRANCH  67  90
ENDBRANCH  41  42
ENDBRANCH  34  36
ENDBRANCH  33  34
ENDBRANCH  32  33
ENDBRANCH   1  32
TORSDOF 18
ENDMDL
