MODEL 1
REMARK VINA RESULT:     -12.3      0.000      0.000
REMARK SMILES COc1cccc([C@H]2C=C(C(=O)OCCOC(=O)c3ccc(-c4c5nc(c(-c6cc(S(=O)(=O)[O-])ccc6F)c6ccc([nH]6)c(-c6cc(S(=O)(=O)[O-])ccc6F)c6nc(c(-c7cc(S(=O)(=O)[O-])ccc7F)c7ccc4[nH]7)C=C6)C=C5)cc3)Nc3nnnn32)c1OC
REMARK SMILES IDX 15 1 14 2 13 3 11 4 12 5 10 6 8 7 9 8 87 9 83 10 86 11 82 12
REMARK SMILES IDX 84 13 85 14 7 16 3 17 4 18 88 19 5 20 6 21 2 22 1 23 89 24
REMARK SMILES IDX 90 25 16 26 17 27 18 28 19 29 20 30 81 31 21 32 80 33 22 34
REMARK SMILES IDX 23 35 24 36 74 37 25 38 79 39 73 40 75 41 26 42 78 43 72 44
REMARK SMILES IDX 71 45 27 47 59 48 39 49 58 50 40 51 43 52 57 53 76 54 41 55
REMARK SMILES IDX 42 56 56 58 77 59 44 60 28 61 29 62 37 63 30 64 36 65 38 66
REMARK SMILES IDX 35 67 31 68 32 69 33 70 34 71 60 72 61 73 69 74 62 75 68 76
REMARK SMILES IDX 70 77 67 78 63 79 64 80 65 81 66 82 45 83 46 84 54 85 47 86
REMARK SMILES IDX 53 87 55 88 52 89 48 90 49 91 50 92 51 93
REMARK H PARENT 82 15 75 46 43 57
REMARK Flexibility Score: inf
ROOT
ATOM      1  C   UNL A   1      37.537  20.032  24.952  1.00  0.00     0.275 C 
ENDROOT
BRANCH   1   2
ATOM      2  C   UNL A   1      36.038  20.319  25.035  1.00  0.00     0.275 C 
BRANCH   2   3
ATOM      3  O   UNL A   1      35.758  21.426  25.913  1.00  0.00    -0.457 OA
BRANCH   3   4
ATOM      4  C   UNL A   1      34.451  21.788  25.986  1.00  0.00     0.354 C 
ATOM      5  O   UNL A   1      33.611  21.300  26.728  1.00  0.00    -0.244 OA
BRANCH   4   6
ATOM      6  C   UNL A   1      34.113  22.925  25.067  1.00  0.00     0.126 C 
ATOM      7  C   UNL A   1      34.067  25.342  24.394  1.00  0.00     0.172 C 
ATOM      8  C   UNL A   1      34.346  24.213  25.389  1.00  0.00     0.039 C 
ATOM      9  N   UNL A   1      33.672  24.814  23.088  1.00  0.00    -0.200 N 
ATOM     10  C   UNL A   1      33.427  23.492  22.834  1.00  0.00     0.248 A 
ATOM     11  N   UNL A   1      33.695  25.506  21.935  1.00  0.00    -0.043 NA
ATOM     12  N   UNL A   1      33.616  22.589  23.813  1.00  0.00    -0.317 N 
ATOM     13  N   UNL A   1      33.116  23.372  21.567  1.00  0.00    -0.090 NA
ATOM     14  N   UNL A   1      33.273  24.634  21.023  1.00  0.00    -0.022 NA
ATOM     15  H   UNL A   1      33.392  21.647  23.634  1.00  0.00     0.170 HD
BRANCH   7  16
ATOM     16  C   UNL A   1      33.141  26.416  24.985  1.00  0.00     0.027 A 
ATOM     17  C   UNL A   1      32.476  28.697  25.525  1.00  0.00     0.161 A 
ATOM     18  C   UNL A   1      31.421  28.211  26.307  1.00  0.00     0.050 A 
ATOM     19  C   UNL A   1      33.318  27.813  24.824  1.00  0.00     0.166 A 
ATOM     20  C   UNL A   1      31.193  26.844  26.403  1.00  0.00     0.004 A 
ATOM     21  C   UNL A   1      32.056  25.956  25.768  1.00  0.00     0.010 A 
BRANCH  17  22
ATOM     22  O   UNL A   1      32.741  30.040  25.580  1.00  0.00    -0.493 OA
ATOM     23  C   UNL A   1      33.210  30.453  26.862  1.00  0.00     0.278 C 
ENDBRANCH  17  22
BRANCH  19  24
ATOM     24  O   UNL A   1      34.291  28.170  23.937  1.00  0.00    -0.492 OA
ATOM     25  C   UNL A   1      33.966  28.794  22.704  1.00  0.00     0.278 C 
ENDBRANCH  19  24
ENDBRANCH   7  16
ENDBRANCH   4   6
ENDBRANCH   3   4
ENDBRANCH   2   3
ENDBRANCH   1   2
BRANCH   1  26
ATOM     26  O   UNL A   1      38.293  21.217  25.263  1.00  0.00    -0.458 OA
BRANCH  26  27
ATOM     27  C   UNL A   1      39.363  21.031  26.067  1.00  0.00     0.338 C 
ATOM     28  O   UNL A   1      39.980  19.985  26.244  1.00  0.00    -0.246 OA
BRANCH  27  29
ATOM     29  C   UNL A   1      39.765  22.303  26.680  1.00  0.00     0.060 A 
ATOM     30  C   UNL A   1      39.209  23.479  26.186  1.00  0.00     0.016 A 
ATOM     31  C   UNL A   1      40.804  22.359  27.609  1.00  0.00     0.016 A 
ATOM     32  C   UNL A   1      39.731  24.714  26.555  1.00  0.00     0.010 A 
ATOM     33  C   UNL A   1      41.278  23.608  28.040  1.00  0.00     0.010 A 
ATOM     34  C   UNL A   1      40.777  24.802  27.486  1.00  0.00    -0.014 A 
BRANCH  34  35
ATOM     35  C   UNL A   1      41.377  26.138  27.788  1.00  0.00     0.031 A 
ATOM     36  C   UNL A   1      42.708  26.533  27.195  1.00  0.00     0.074 A 
ATOM     37  C   UNL A   1      40.703  27.029  28.543  1.00  0.00     0.049 A 
ATOM     38  N   UNL A   1      43.418  27.616  27.393  1.00  0.00    -0.248 NA
ATOM     39  C   UNL A   1      43.334  25.569  26.281  1.00  0.00     0.031 C 
ATOM     40  C   UNL A   1      39.403  26.789  29.172  1.00  0.00     0.029 A 
ATOM     41  N   UNL A   1      41.002  28.324  28.891  1.00  0.00    -0.354 N 
ATOM     42  C   UNL A   1      44.602  27.436  26.680  1.00  0.00     0.074 A 
ATOM     43  C   UNL A   1      44.516  26.127  26.066  1.00  0.00     0.031 C 
ATOM     44  C   UNL A   1      38.990  27.913  29.774  1.00  0.00     0.029 A 
ATOM     45  C   UNL A   1      40.027  28.932  29.649  1.00  0.00     0.049 A 
ATOM     46  H   UNL A   1      41.834  28.776  28.622  1.00  0.00     0.167 HD
ATOM     47  C   UNL A   1      45.656  28.282  26.549  1.00  0.00     0.034 A 
ATOM     48  C   UNL A   1      39.978  30.157  30.210  1.00  0.00     0.034 A 
ATOM     49  C   UNL A   1      45.700  29.611  27.117  1.00  0.00     0.049 A 
ATOM     50  C   UNL A   1      41.139  31.094  30.019  1.00  0.00     0.074 A 
ATOM     51  C   UNL A   1      46.702  30.563  27.012  1.00  0.00     0.029 A 
ATOM     52  N   UNL A   1      44.695  30.186  27.888  1.00  0.00    -0.354 N 
ATOM     53  N   UNL A   1      42.267  30.892  29.379  1.00  0.00    -0.248 NA
ATOM     54  C   UNL A   1      41.019  32.424  30.630  1.00  0.00     0.031 C 
ATOM     55  C   UNL A   1      46.330  31.683  27.766  1.00  0.00     0.029 A 
ATOM     56  C   UNL A   1      45.063  31.465  28.282  1.00  0.00     0.049 A 
ATOM     57  H   UNL A   1      43.844  29.747  28.121  1.00  0.00     0.167 HD
ATOM     58  C   UNL A   1      42.994  32.071  29.512  1.00  0.00     0.074 A 
ATOM     59  C   UNL A   1      42.160  32.989  30.261  1.00  0.00     0.031 C 
ATOM     60  C   UNL A   1      44.241  32.364  29.060  1.00  0.00     0.034 A 
BRANCH  47  61
ATOM     61  C   UNL A   1      46.875  27.763  25.816  1.00  0.00     0.023 A 
ATOM     62  C   UNL A   1      47.150  28.096  24.477  1.00  0.00     0.031 A 
ATOM     63  C   UNL A   1      47.750  26.866  26.458  1.00  0.00     0.131 A 
ATOM     64  C   UNL A   1      48.208  27.468  23.800  1.00  0.00     0.055 A 
ATOM     65  C   UNL A   1      48.855  26.315  25.806  1.00  0.00     0.041 A 
ATOM     66  F   UNL A   1      47.534  26.492  27.729  1.00  0.00    -0.206 F 
ATOM     67  C   UNL A   1      49.078  26.599  24.463  1.00  0.00     0.022 A 
BRANCH  64  68
ATOM     68  S   UNL A   1      48.324  27.663  21.999  1.00  0.00     0.124 S 
ATOM     69  O   UNL A   1      48.584  26.293  21.566  1.00  0.00    -0.237 OA
ATOM     70  O   UNL A   1      47.014  28.203  21.655  1.00  0.00    -0.237 OA
ATOM     71  O   UNL A   1      49.446  28.585  21.825  1.00  0.00    -0.744 OA
ENDBRANCH  64  68
ENDBRANCH  47  61
BRANCH  48  72
ATOM     72  C   UNL A   1      38.810  30.538  31.055  1.00  0.00     0.023 A 
ATOM     73  C   UNL A   1      37.711  31.233  30.525  1.00  0.00     0.031 A 
ATOM     74  C   UNL A   1      38.782  30.202  32.421  1.00  0.00     0.131 A 
ATOM     75  C   UNL A   1      36.641  31.588  31.363  1.00  0.00     0.055 A 
ATOM     76  C   UNL A   1      37.694  30.510  33.236  1.00  0.00     0.041 A 
ATOM     77  F   UNL A   1      39.809  29.537  32.977  1.00  0.00    -0.206 F 
ATOM     78  C   UNL A   1      36.617  31.214  32.710  1.00  0.00     0.022 A 
BRANCH  75  79
ATOM     79  S   UNL A   1      35.291  32.592  30.685  1.00  0.00     0.124 S 
ATOM     80  O   UNL A   1      34.900  31.815  29.514  1.00  0.00    -0.237 OA
ATOM     81  O   UNL A   1      34.338  32.611  31.790  1.00  0.00    -0.237 OA
ATOM     82  O   UNL A   1      35.931  33.874  30.397  1.00  0.00    -0.744 OA
ENDBRANCH  75  79
ENDBRANCH  48  72
BRANCH  60  83
ATOM     83  C   UNL A   1      44.759  33.750  29.359  1.00  0.00     0.023 A 
ATOM     84  C   UNL A   1      44.457  34.846  28.529  1.00  0.00     0.031 A 
ATOM     85  C   UNL A   1      45.604  33.970  30.460  1.00  0.00     0.131 A 
ATOM     86  C   UNL A   1      45.053  36.093  28.773  1.00  0.00     0.055 A 
ATOM     87  C   UNL A   1      46.146  35.228  30.732  1.00  0.00     0.041 A 
ATOM     88  F   UNL A   1      45.929  32.962  31.286  1.00  0.00    -0.206 F 
ATOM     89  C   UNL A   1      45.885  36.294  29.876  1.00  0.00     0.022 A 
BRANCH  86  90
ATOM     90  S   UNL A   1      44.822  37.421  27.557  1.00  0.00     0.124 S 
ATOM     91  O   UNL A   1      44.837  38.612  28.399  1.00  0.00    -0.237 OA
ATOM     92  O   UNL A   1      45.973  37.244  26.679  1.00  0.00    -0.237 OA
ATOM     93  O   UNL A   1      43.527  37.109  26.951  1.00  0.00    -0.744 OA
ENDBRANCH  86  90
ENDBRANCH  60  83
ENDBRANCH  34  35
ENDBRANCH  27  29
ENDBRANCH  26  27
ENDBRANCH   1  26
TORSDOF 17
ENDMDL
MODEL 2
REMARK VINA RESULT:     -12.2      1.940      2.315
REMARK SMILES COc1cccc([C@H]2C=C(C(=O)OCCOC(=O)c3ccc(-c4c5nc(c(-c6cc(S(=O)(=O)[O-])ccc6F)c6ccc([nH]6)c(-c6cc(S(=O)(=O)[O-])ccc6F)c6nc(c(-c7cc(S(=O)(=O)[O-])ccc7F)c7ccc4[nH]7)C=C6)C=C5)cc3)Nc3nnnn32)c1OC
REMARK SMILES IDX 15 1 14 2 13 3 11 4 12 5 10 6 8 7 9 8 87 9 83 10 86 11 82 12
REMARK SMILES IDX 84 13 85 14 7 16 3 17 4 18 88 19 5 20 6 21 2 22 1 23 89 24
REMARK SMILES IDX 90 25 16 26 17 27 18 28 19 29 20 30 81 31 21 32 80 33 22 34
REMARK SMILES IDX 23 35 24 36 74 37 25 38 79 39 73 40 75 41 26 42 78 43 72 44
REMARK SMILES IDX 71 45 27 47 59 48 39 49 58 50 40 51 43 52 57 53 76 54 41 55
REMARK SMILES IDX 42 56 56 58 77 59 44 60 28 61 29 62 37 63 30 64 36 65 38 66
REMARK SMILES IDX 35 67 31 68 32 69 33 70 34 71 60 72 61 73 69 74 62 75 68 76
REMARK SMILES IDX 70 77 67 78 63 79 64 80 65 81 66 82 45 83 46 84 54 85 47 86
REMARK SMILES IDX 53 87 55 88 52 89 48 90 49 91 50 92 51 93
REMARK H PARENT 82 15 75 46 43 57
REMARK Flexibility Score: inf
ROOT
ATOM      1  C   UNL A   1      37.077  20.121  24.998  1.00  0.00     0.275 C 
ENDROOT
BRANCH   1   2
ATOM      2  C   UNL A   1      35.702  20.790  25.023  1.00  0.00     0.275 C 
BRANCH   2   3
ATOM      3  O   UNL A   1      35.732  22.038  25.744  1.00  0.00    -0.457 OA
BRANCH   3   4
ATOM      4  C   UNL A   1      35.463  23.140  24.999  1.00  0.00     0.354 C 
ATOM      5  O   UNL A   1      36.125  23.549  24.055  1.00  0.00    -0.244 OA
BRANCH   4   6
ATOM      6  C   UNL A   1      34.197  23.828  25.419  1.00  0.00     0.126 C 
ATOM      7  C   UNL A   1      32.444  25.616  25.260  1.00  0.00     0.172 C 
ATOM      8  C   UNL A   1      33.783  24.986  24.868  1.00  0.00     0.039 C 
ATOM      9  N   UNL A   1      31.687  24.742  26.156  1.00  0.00    -0.200 N 
ATOM     10  C   UNL A   1      32.178  23.586  26.701  1.00  0.00     0.248 A 
ATOM     11  N   UNL A   1      30.367  24.838  26.398  1.00  0.00    -0.043 NA
ATOM     12  N   UNL A   1      33.411  23.171  26.358  1.00  0.00    -0.317 N 
ATOM     13  N   UNL A   1      31.234  23.049  27.434  1.00  0.00    -0.090 NA
ATOM     14  N   UNL A   1      30.119  23.845  27.248  1.00  0.00    -0.022 NA
ATOM     15  H   UNL A   1      33.773  22.364  26.791  1.00  0.00     0.170 HD
BRANCH   7  16
ATOM     16  C   UNL A   1      32.606  27.069  25.729  1.00  0.00     0.027 A 
ATOM     17  C   UNL A   1      32.032  29.436  25.810  1.00  0.00     0.161 A 
ATOM     18  C   UNL A   1      33.194  29.700  26.545  1.00  0.00     0.050 A 
ATOM     19  C   UNL A   1      31.704  28.121  25.432  1.00  0.00     0.166 A 
ATOM     20  C   UNL A   1      34.042  28.661  26.911  1.00  0.00     0.004 A 
ATOM     21  C   UNL A   1      33.764  27.365  26.488  1.00  0.00     0.010 A 
BRANCH  17  22
ATOM     22  O   UNL A   1      31.310  30.509  25.358  1.00  0.00    -0.493 OA
ATOM     23  C   UNL A   1      31.339  31.610  26.263  1.00  0.00     0.278 C 
ENDBRANCH  17  22
BRANCH  19  24
ATOM     24  O   UNL A   1      30.544  27.728  24.830  1.00  0.00    -0.492 OA
ATOM     25  C   UNL A   1      30.358  27.877  23.430  1.00  0.00     0.278 C 
ENDBRANCH  19  24
ENDBRANCH   7  16
ENDBRANCH   4   6
ENDBRANCH   3   4
ENDBRANCH   2   3
ENDBRANCH   1   2
BRANCH   1  26
ATOM     26  O   UNL A   1      38.119  21.112  25.056  1.00  0.00    -0.458 OA
BRANCH  26  27
ATOM     27  C   UNL A   1      39.126  20.849  25.916  1.00  0.00     0.338 C 
ATOM     28  O   UNL A   1      39.660  19.763  26.119  1.00  0.00    -0.246 OA
BRANCH  27  29
ATOM     29  C   UNL A   1      39.580  22.088  26.562  1.00  0.00     0.060 A 
ATOM     30  C   UNL A   1      39.032  23.293  26.135  1.00  0.00     0.016 A 
ATOM     31  C   UNL A   1      40.654  22.085  27.452  1.00  0.00     0.016 A 
ATOM     32  C   UNL A   1      39.595  24.502  26.531  1.00  0.00     0.010 A 
ATOM     33  C   UNL A   1      41.171  23.306  27.912  1.00  0.00     0.010 A 
ATOM     34  C   UNL A   1      40.677  24.531  27.424  1.00  0.00    -0.014 A 
BRANCH  34  35
ATOM     35  C   UNL A   1      41.318  25.841  27.755  1.00  0.00     0.031 A 
ATOM     36  C   UNL A   1      42.698  26.172  27.238  1.00  0.00     0.074 A 
ATOM     37  C   UNL A   1      40.642  26.767  28.464  1.00  0.00     0.049 A 
ATOM     38  N   UNL A   1      43.443  27.224  27.472  1.00  0.00    -0.248 NA
ATOM     39  C   UNL A   1      43.332  25.175  26.367  1.00  0.00     0.031 C 
ATOM     40  C   UNL A   1      39.298  26.590  29.017  1.00  0.00     0.029 A 
ATOM     41  N   UNL A   1      40.978  28.051  28.823  1.00  0.00    -0.354 N 
ATOM     42  C   UNL A   1      44.656  26.987  26.830  1.00  0.00     0.074 A 
ATOM     43  C   UNL A   1      44.548  25.678  26.218  1.00  0.00     0.031 C 
ATOM     44  C   UNL A   1      38.901  27.736  29.589  1.00  0.00     0.029 A 
ATOM     45  C   UNL A   1      39.989  28.706  29.520  1.00  0.00     0.049 A 
ATOM     46  H   UNL A   1      41.844  28.462  28.601  1.00  0.00     0.167 HD
ATOM     47  C   UNL A   1      45.754  27.783  26.756  1.00  0.00     0.034 A 
ATOM     48  C   UNL A   1      39.962  29.937  30.071  1.00  0.00     0.034 A 
ATOM     49  C   UNL A   1      45.824  29.114  27.320  1.00  0.00     0.049 A 
ATOM     50  C   UNL A   1      41.173  30.820  29.944  1.00  0.00     0.074 A 
ATOM     51  C   UNL A   1      46.872  30.019  27.269  1.00  0.00     0.029 A 
ATOM     52  N   UNL A   1      44.803  29.738  28.028  1.00  0.00    -0.354 N 
ATOM     53  N   UNL A   1      42.326  30.562  29.371  1.00  0.00    -0.248 NA
ATOM     54  C   UNL A   1      41.078  32.158  30.539  1.00  0.00     0.031 C 
ATOM     55  C   UNL A   1      46.508  31.161  27.994  1.00  0.00     0.029 A 
ATOM     56  C   UNL A   1      45.204  31.003  28.436  1.00  0.00     0.049 A 
ATOM     57  H   UNL A   1      43.921  29.340  28.213  1.00  0.00     0.167 HD
ATOM     58  C   UNL A   1      43.097  31.710  29.541  1.00  0.00     0.074 A 
ATOM     59  C   UNL A   1      42.263  32.669  30.236  1.00  0.00     0.031 C 
ATOM     60  C   UNL A   1      44.380  31.943  29.161  1.00  0.00     0.034 A 
BRANCH  47  61
ATOM     61  C   UNL A   1      46.988  27.205  26.098  1.00  0.00     0.023 A 
ATOM     62  C   UNL A   1      47.930  26.434  26.804  1.00  0.00     0.031 A 
ATOM     63  C   UNL A   1      47.256  27.484  24.744  1.00  0.00     0.131 A 
ATOM     64  C   UNL A   1      49.130  26.051  26.183  1.00  0.00     0.055 A 
ATOM     65  C   UNL A   1      48.409  27.022  24.107  1.00  0.00     0.041 A 
ATOM     66  F   UNL A   1      46.407  28.230  24.019  1.00  0.00    -0.206 F 
ATOM     67  C   UNL A   1      49.365  26.319  24.832  1.00  0.00     0.022 A 
BRANCH  64  68
ATOM     68  S   UNL A   1      50.456  25.357  27.211  1.00  0.00     0.124 S 
ATOM     69  O   UNL A   1      49.783  24.223  27.839  1.00  0.00    -0.237 OA
ATOM     70  O   UNL A   1      51.479  25.027  26.227  1.00  0.00    -0.237 OA
ATOM     71  O   UNL A   1      50.793  26.451  28.121  1.00  0.00    -0.744 OA
ENDBRANCH  64  68
ENDBRANCH  47  61
BRANCH  48  72
ATOM     72  C   UNL A   1      38.765  30.376  30.845  1.00  0.00     0.023 A 
ATOM     73  C   UNL A   1      37.703  31.063  30.235  1.00  0.00     0.031 A 
ATOM     74  C   UNL A   1      38.672  30.105  32.222  1.00  0.00     0.131 A 
ATOM     75  C   UNL A   1      36.604  31.473  31.007  1.00  0.00     0.055 A 
ATOM     76  C   UNL A   1      37.555  30.467  32.973  1.00  0.00     0.041 A 
ATOM     77  F   UNL A   1      39.661  29.450  32.853  1.00  0.00    -0.206 F 
ATOM     78  C   UNL A   1      36.515  31.163  32.367  1.00  0.00     0.022 A 
BRANCH  75  79
ATOM     79  S   UNL A   1      35.303  32.467  30.223  1.00  0.00     0.124 S 
ATOM     80  O   UNL A   1      34.881  31.597  29.131  1.00  0.00    -0.237 OA
ATOM     81  O   UNL A   1      34.350  32.636  31.314  1.00  0.00    -0.237 OA
ATOM     82  O   UNL A   1      36.003  33.684  29.816  1.00  0.00    -0.744 OA
ENDBRANCH  75  79
ENDBRANCH  48  72
BRANCH  60  83
ATOM     83  C   UNL A   1      44.941  33.307  29.482  1.00  0.00     0.023 A 
ATOM     84  C   UNL A   1      44.759  34.403  28.618  1.00  0.00     0.031 A 
ATOM     85  C   UNL A   1      45.708  33.503  30.644  1.00  0.00     0.131 A 
ATOM     86  C   UNL A   1      45.396  35.623  28.892  1.00  0.00     0.055 A 
ATOM     87  C   UNL A   1      46.289  34.737  30.942  1.00  0.00     0.041 A 
ATOM     88  F   UNL A   1      45.917  32.494  31.504  1.00  0.00    -0.206 F 
ATOM     89  C   UNL A   1      46.149  35.801  30.055  1.00  0.00     0.022 A 
BRANCH  86  90
ATOM     90  S   UNL A   1      45.326  36.941  27.646  1.00  0.00     0.124 S 
ATOM     91  O   UNL A   1      45.416  38.144  28.468  1.00  0.00    -0.237 OA
ATOM     92  O   UNL A   1      46.488  36.646  26.816  1.00  0.00    -0.237 OA
ATOM     93  O   UNL A   1      44.032  36.731  26.997  1.00  0.00    -0.744 OA
ENDBRANCH  86  90
ENDBRANCH  60  83
ENDBRANCH  34  35
ENDBRANCH  27  29
ENDBRANCH  26  27
ENDBRANCH   1  26
TORSDOF 17
ENDMDL
MODEL 3
REMARK VINA RESULT:     -12.0      1.831      2.332
REMARK SMILES COc1cccc([C@H]2C=C(C(=O)OCCOC(=O)c3ccc(-c4c5nc(c(-c6cc(S(=O)(=O)[O-])ccc6F)c6ccc([nH]6)c(-c6cc(S(=O)(=O)[O-])ccc6F)c6nc(c(-c7cc(S(=O)(=O)[O-])ccc7F)c7ccc4[nH]7)C=C6)C=C5)cc3)Nc3nnnn32)c1OC
REMARK SMILES IDX 15 1 14 2 13 3 11 4 12 5 10 6 8 7 9 8 87 9 83 10 86 11 82 12
REMARK SMILES IDX 84 13 85 14 7 16 3 17 4 18 88 19 5 20 6 21 2 22 1 23 89 24
REMARK SMILES IDX 90 25 16 26 17 27 18 28 19 29 20 30 81 31 21 32 80 33 22 34
REMARK SMILES IDX 23 35 24 36 74 37 25 38 79 39 73 40 75 41 26 42 78 43 72 44
REMARK SMILES IDX 71 45 27 47 59 48 39 49 58 50 40 51 43 52 57 53 76 54 41 55
REMARK SMILES IDX 42 56 56 58 77 59 44 60 28 61 29 62 37 63 30 64 36 65 38 66
REMARK SMILES IDX 35 67 31 68 32 69 33 70 34 71 60 72 61 73 69 74 62 75 68 76
REMARK SMILES IDX 70 77 67 78 63 79 64 80 65 81 66 82 45 83 46 84 54 85 47 86
REMARK SMILES IDX 53 87 55 88 52 89 48 90 49 91 50 92 51 93
REMARK H PARENT 82 15 75 46 43 57
REMARK Flexibility Score: inf
ROOT
ATOM      1  C   UNL A   1      37.273  20.388  24.961  1.00  0.00     0.275 C 
ENDROOT
BRANCH   1   2
ATOM      2  C   UNL A   1      35.855  20.941  25.102  1.00  0.00     0.275 C 
BRANCH   2   3
ATOM      3  O   UNL A   1      35.863  22.344  25.428  1.00  0.00    -0.457 OA
BRANCH   3   4
ATOM      4  C   UNL A   1      35.247  23.149  24.524  1.00  0.00     0.354 C 
ATOM      5  O   UNL A   1      35.592  23.323  23.364  1.00  0.00    -0.244 OA
BRANCH   4   6
ATOM      6  C   UNL A   1      34.018  23.808  25.078  1.00  0.00     0.126 C 
ATOM      7  C   UNL A   1      32.250  25.588  25.145  1.00  0.00     0.172 C 
ATOM      8  C   UNL A   1      33.554  24.985  24.615  1.00  0.00     0.039 C 
ATOM      9  N   UNL A   1      31.575  24.670  26.063  1.00  0.00    -0.200 N 
ATOM     10  C   UNL A   1      32.115  23.496  26.514  1.00  0.00     0.248 A 
ATOM     11  N   UNL A   1      30.280  24.745  26.419  1.00  0.00    -0.043 NA
ATOM     12  N   UNL A   1      33.317  23.105  26.051  1.00  0.00    -0.317 N 
ATOM     13  N   UNL A   1      31.239  22.921  27.300  1.00  0.00    -0.090 NA
ATOM     14  N   UNL A   1      30.108  23.715  27.243  1.00  0.00    -0.022 NA
ATOM     15  H   UNL A   1      33.717  22.283  26.416  1.00  0.00     0.170 HD
BRANCH   7  16
ATOM     16  C   UNL A   1      32.445  27.021  25.662  1.00  0.00     0.027 A 
ATOM     17  C   UNL A   1      31.938  29.399  25.805  1.00  0.00     0.161 A 
ATOM     18  C   UNL A   1      33.093  29.607  26.568  1.00  0.00     0.050 A 
ATOM     19  C   UNL A   1      31.579  28.107  25.381  1.00  0.00     0.166 A 
ATOM     20  C   UNL A   1      33.904  28.533  26.917  1.00  0.00     0.004 A 
ATOM     21  C   UNL A   1      33.596  27.259  26.450  1.00  0.00     0.010 A 
BRANCH  17  22
ATOM     22  O   UNL A   1      31.256  30.506  25.372  1.00  0.00    -0.493 OA
ATOM     23  C   UNL A   1      31.344  31.596  26.287  1.00  0.00     0.278 C 
ENDBRANCH  17  22
BRANCH  19  24
ATOM     24  O   UNL A   1      30.420  27.767  24.746  1.00  0.00    -0.492 OA
ATOM     25  C   UNL A   1      30.263  27.968  23.349  1.00  0.00     0.278 C 
ENDBRANCH  19  24
ENDBRANCH   7  16
ENDBRANCH   4   6
ENDBRANCH   3   4
ENDBRANCH   2   3
ENDBRANCH   1   2
BRANCH   1  26
ATOM     26  O   UNL A   1      38.241  21.440  25.122  1.00  0.00    -0.458 OA
BRANCH  26  27
ATOM     27  C   UNL A   1      39.224  21.197  26.017  1.00  0.00     0.338 C 
ATOM     28  O   UNL A   1      39.753  20.117  26.256  1.00  0.00    -0.246 OA
BRANCH  27  29
ATOM     29  C   UNL A   1      39.655  22.449  26.652  1.00  0.00     0.060 A 
ATOM     30  C   UNL A   1      39.054  23.636  26.244  1.00  0.00     0.016 A 
ATOM     31  C   UNL A   1      40.755  22.482  27.508  1.00  0.00     0.016 A 
ATOM     32  C   UNL A   1      39.589  24.863  26.625  1.00  0.00     0.010 A 
ATOM     33  C   UNL A   1      41.246  23.719  27.955  1.00  0.00     0.010 A 
ATOM     34  C   UNL A   1      40.695  24.927  27.485  1.00  0.00    -0.014 A 
BRANCH  34  35
ATOM     35  C   UNL A   1      41.302  26.257  27.798  1.00  0.00     0.031 A 
ATOM     36  C   UNL A   1      42.658  26.632  27.248  1.00  0.00     0.074 A 
ATOM     37  C   UNL A   1      40.615  27.163  28.524  1.00  0.00     0.049 A 
ATOM     38  N   UNL A   1      43.374  27.708  27.463  1.00  0.00    -0.248 NA
ATOM     39  C   UNL A   1      43.302  25.654  26.363  1.00  0.00     0.031 C 
ATOM     40  C   UNL A   1      39.290  26.944  29.109  1.00  0.00     0.029 A 
ATOM     41  N   UNL A   1      40.918  28.457  28.872  1.00  0.00    -0.354 N 
ATOM     42  C   UNL A   1      44.579  27.508  26.792  1.00  0.00     0.074 A 
ATOM     43  C   UNL A   1      44.498  26.195  26.184  1.00  0.00     0.031 C 
ATOM     44  C   UNL A   1      38.872  28.077  29.690  1.00  0.00     0.029 A 
ATOM     45  C   UNL A   1      39.926  29.082  29.593  1.00  0.00     0.049 A 
ATOM     46  H   UNL A   1      41.764  28.895  28.629  1.00  0.00     0.167 HD
ATOM     47  C   UNL A   1      45.648  28.339  26.691  1.00  0.00     0.034 A 
ATOM     48  C   UNL A   1      39.873  30.312  30.144  1.00  0.00     0.034 A 
ATOM     49  C   UNL A   1      45.689  29.672  27.251  1.00  0.00     0.049 A 
ATOM     50  C   UNL A   1      41.051  31.233  29.986  1.00  0.00     0.074 A 
ATOM     51  C   UNL A   1      46.706  30.610  27.174  1.00  0.00     0.029 A 
ATOM     52  N   UNL A   1      44.666  30.264  27.983  1.00  0.00    -0.354 N 
ATOM     53  N   UNL A   1      42.198  31.011  29.386  1.00  0.00    -0.248 NA
ATOM     54  C   UNL A   1      40.928  32.568  30.583  1.00  0.00     0.031 C 
ATOM     55  C   UNL A   1      46.324  31.740  27.907  1.00  0.00     0.029 A 
ATOM     56  C   UNL A   1      45.037  31.542  28.381  1.00  0.00     0.049 A 
ATOM     57  H   UNL A   1      43.803  29.838  28.190  1.00  0.00     0.167 HD
ATOM     58  C   UNL A   1      42.936  32.183  29.536  1.00  0.00     0.074 A 
ATOM     59  C   UNL A   1      42.088  33.116  30.250  1.00  0.00     0.031 C 
ATOM     60  C   UNL A   1      44.201  32.457  29.124  1.00  0.00     0.034 A 
BRANCH  47  61
ATOM     61  C   UNL A   1      46.884  27.799  26.003  1.00  0.00     0.023 A 
ATOM     62  C   UNL A   1      47.181  28.077  24.656  1.00  0.00     0.031 A 
ATOM     63  C   UNL A   1      47.754  26.938  26.699  1.00  0.00     0.131 A 
ATOM     64  C   UNL A   1      48.257  27.429  24.027  1.00  0.00     0.055 A 
ATOM     65  C   UNL A   1      48.875  26.370  26.092  1.00  0.00     0.041 A 
ATOM     66  F   UNL A   1      47.517  26.618  27.981  1.00  0.00    -0.206 F 
ATOM     67  C   UNL A   1      49.120  26.597  24.742  1.00  0.00     0.022 A 
BRANCH  64  68
ATOM     68  S   UNL A   1      48.405  27.548  22.221  1.00  0.00     0.124 S 
ATOM     69  O   UNL A   1      49.610  28.361  22.074  1.00  0.00    -0.237 OA
ATOM     70  O   UNL A   1      48.524  26.152  21.821  1.00  0.00    -0.237 OA
ATOM     71  O   UNL A   1      47.165  28.211  21.818  1.00  0.00    -0.744 OA
ENDBRANCH  64  68
ENDBRANCH  47  61
BRANCH  48  72
ATOM     72  C   UNL A   1      38.682  30.713  30.946  1.00  0.00     0.023 A 
ATOM     73  C   UNL A   1      37.576  31.348  30.358  1.00  0.00     0.031 A 
ATOM     74  C   UNL A   1      38.639  30.459  32.329  1.00  0.00     0.131 A 
ATOM     75  C   UNL A   1      36.484  31.725  31.156  1.00  0.00     0.055 A 
ATOM     76  C   UNL A   1      37.529  30.787  33.107  1.00  0.00     0.041 A 
ATOM     77  F   UNL A   1      39.671  29.853  32.940  1.00  0.00    -0.206 F 
ATOM     78  C   UNL A   1      36.445  31.432  32.522  1.00  0.00     0.022 A 
BRANCH  75  79
ATOM     79  S   UNL A   1      35.122  32.655  30.397  1.00  0.00     0.124 S 
ATOM     80  O   UNL A   1      34.152  32.706  31.486  1.00  0.00    -0.237 OA
ATOM     81  O   UNL A   1      35.768  33.917  30.053  1.00  0.00    -0.237 OA
ATOM     82  O   UNL A   1      34.737  31.825  29.258  1.00  0.00    -0.744 OA
ENDBRANCH  75  79
ENDBRANCH  48  72
BRANCH  60  83
ATOM     83  C   UNL A   1      44.726  33.838  29.431  1.00  0.00     0.023 A 
ATOM     84  C   UNL A   1      45.418  34.116  30.625  1.00  0.00     0.031 A 
ATOM     85  C   UNL A   1      44.491  34.901  28.542  1.00  0.00     0.131 A 
ATOM     86  C   UNL A   1      45.787  35.436  30.929  1.00  0.00     0.055 A 
ATOM     87  C   UNL A   1      44.913  36.202  28.823  1.00  0.00     0.041 A 
ATOM     88  F   UNL A   1      43.833  34.696  27.390  1.00  0.00    -0.206 F 
ATOM     89  C   UNL A   1      45.550  36.478  30.030  1.00  0.00     0.022 A 
BRANCH  86  90
ATOM     90  S   UNL A   1      46.472  35.792  32.571  1.00  0.00     0.124 S 
ATOM     91  O   UNL A   1      46.717  37.229  32.495  1.00  0.00    -0.237 OA
ATOM     92  O   UNL A   1      45.392  35.374  33.457  1.00  0.00    -0.237 OA
ATOM     93  O   UNL A   1      47.676  34.962  32.627  1.00  0.00    -0.744 OA
ENDBRANCH  86  90
ENDBRANCH  60  83
ENDBRANCH  34  35
ENDBRANCH  27  29
ENDBRANCH  26  27
ENDBRANCH   1  26
TORSDOF 17
ENDMDL
