MODEL 1
REMARK VINA RESULT:     -12.8      0.000      0.000
REMARK SMILES O=C(OCCOC(=O)[C@@H](Cc1ccccc1)NC(=O)c1ccccc1[N+](=O)[O-])c1ccc(-c2c3nc(c(-c4cc(S(=O)(=O)[O-])ccc4F)c4ccc([nH]4)c(-c4cc(S(=O)(=O)[O-])ccc4F)c4nc(c(-c5cc(S(=O)(=O)[O-])ccc5F)c5ccc2[nH]5)C=C4)C=C3)cc1
REMARK SMILES IDX 4 1 3 2 2 3 1 4 29 5 30 6 91 7 31 8 90 9 32 10 33 11 34 12
REMARK SMILES IDX 84 13 35 14 89 15 83 16 85 17 36 18 88 19 82 20 81 21 37 23
REMARK SMILES IDX 69 24 49 25 68 26 50 27 53 28 67 29 86 30 51 31 52 32 66 34
REMARK SMILES IDX 87 35 54 36 38 37 39 38 47 39 40 40 46 41 48 42 45 43 41 44
REMARK SMILES IDX 42 45 43 46 44 47 70 48 71 49 79 50 72 51 78 52 80 53 77 54
REMARK SMILES IDX 73 55 74 56 75 57 76 58 55 59 56 60 64 61 57 62 63 63 65 64
REMARK SMILES IDX 62 65 58 66 59 67 60 68 61 69 5 70 6 71 7 72 8 73 9 74 10 75
REMARK SMILES IDX 11 76 12 77 16 78 13 79 15 80 14 81 17 82 18 83 19 85 20 86
REMARK SMILES IDX 21 87 25 88 22 89 24 90 23 91 26 92 27 93 28 94
REMARK H PARENT 85 22 53 33 17 84
REMARK Flexibility Score: inf
ROOT
ATOM      1  C   UNL A   1      35.396  22.083  24.701  1.00  0.00     0.275 C 
ENDROOT
BRANCH   1   2
ATOM      2  O   UNL A   1      36.166  21.260  25.574  1.00  0.00    -0.458 OA
BRANCH   2   3
ATOM      3  C   UNL A   1      37.492  21.085  25.483  1.00  0.00     0.338 C 
ATOM      4  O   UNL A   1      37.938  20.094  24.909  1.00  0.00    -0.246 OA
BRANCH   3   5
ATOM      5  C   UNL A   1      38.485  21.990  26.126  1.00  0.00     0.060 A 
ATOM      6  C   UNL A   1      40.026  21.599  27.048  1.00  0.00     0.016 A 
ATOM      7  C   UNL A   1      38.145  23.730  25.678  1.00  0.00     0.016 A 
ATOM      8  C   UNL A   1      41.295  22.895  27.295  1.00  0.00     0.010 A 
ATOM      9  C   UNL A   1      39.351  25.004  26.032  1.00  0.00     0.010 A 
ATOM     10  C   UNL A   1      40.904  24.649  26.862  1.00  0.00    -0.014 A 
BRANCH  10  11
ATOM     11  C   UNL A   1      41.672  25.777  27.509  1.00  0.00     0.031 A 
ATOM     12  C   UNL A   1      43.035  26.192  26.958  1.00  0.00     0.074 A 
ATOM     13  C   UNL A   1      40.967  26.612  28.296  1.00  0.00     0.049 A 
ATOM     14  N   UNL A   1      43.710  27.297  27.176  1.00  0.00    -0.248 NA
ATOM     15  C   UNL A   1      43.718  25.299  26.007  1.00  0.00     0.031 C 
ATOM     16  C   UNL A   1      39.622  26.336  28.790  1.00  0.00     0.029 A 
ATOM     17  N   UNL A   1      41.206  27.894  28.716  1.00  0.00    -0.354 N 
ATOM     18  C   UNL A   1      44.873  27.203  26.406  1.00  0.00     0.074 A 
ATOM     19  C   UNL A   1      44.838  25.941  25.729  1.00  0.00     0.031 C 
ATOM     20  C   UNL A   1      39.089  27.451  29.296  1.00  0.00     0.029 A 
ATOM     21  C   UNL A   1      40.112  28.486  29.314  1.00  0.00     0.049 A 
ATOM     22  H   UNL A   1      42.072  28.348  28.603  1.00  0.00     0.167 HD
ATOM     23  C   UNL A   1      45.881  28.095  26.259  1.00  0.00     0.034 A 
ATOM     24  C   UNL A   1      39.958  29.713  29.852  1.00  0.00     0.034 A 
ATOM     25  C   UNL A   1      45.895  29.361  26.937  1.00  0.00     0.049 A 
ATOM     26  C   UNL A   1      41.147  30.631  29.787  1.00  0.00     0.074 A 
ATOM     27  C   UNL A   1      46.900  30.306  26.984  1.00  0.00     0.029 A 
ATOM     28  N   UNL A   1      44.839  29.851  27.695  1.00  0.00    -0.354 N 
ATOM     29  N   UNL A   1      42.280  30.467  29.139  1.00  0.00    -0.248 NA
ATOM     30  C   UNL A   1      41.059  31.879  30.549  1.00  0.00     0.031 C 
ATOM     31  C   UNL A   1      46.483  31.330  27.840  1.00  0.00     0.029 A 
ATOM     32  C   UNL A   1      45.185  31.066  28.253  1.00  0.00     0.049 A 
ATOM     33  H   UNL A   1      43.973  29.400  27.815  1.00  0.00     0.167 HD
ATOM     34  C   UNL A   1      43.051  31.583  29.439  1.00  0.00     0.074 A 
ATOM     35  C   UNL A   1      42.225  32.440  30.269  1.00  0.00     0.031 C 
ATOM     36  C   UNL A   1      44.332  31.869  29.093  1.00  0.00     0.034 A 
BRANCH  23  37
ATOM     37  C   UNL A   1      47.089  27.666  25.454  1.00  0.00     0.023 A 
ATOM     38  C   UNL A   1      47.241  27.943  24.081  1.00  0.00     0.031 A 
ATOM     39  C   UNL A   1      48.097  26.915  26.088  1.00  0.00     0.131 A 
ATOM     40  C   UNL A   1      48.357  27.441  23.385  1.00  0.00     0.055 A 
ATOM     41  C   UNL A   1      49.230  26.471  25.405  1.00  0.00     0.041 A 
ATOM     42  F   UNL A   1      47.988  26.587  27.384  1.00  0.00    -0.206 F 
ATOM     43  C   UNL A   1      49.362  26.727  24.045  1.00  0.00     0.022 A 
BRANCH  40  44
ATOM     44  S   UNL A   1      48.445  27.638  21.580  1.00  0.00     0.124 S 
ATOM     45  O   UNL A   1      49.571  28.554  21.432  1.00  0.00    -0.237 OA
ATOM     46  O   UNL A   1      48.668  26.271  21.122  1.00  0.00    -0.237 OA
ATOM     47  O   UNL A   1      47.142  28.203  21.231  1.00  0.00    -0.744 OA
ENDBRANCH  40  44
ENDBRANCH  23  37
BRANCH  24  48
ATOM     48  C   UNL A   1      38.703  30.080  30.586  1.00  0.00     0.023 A 
ATOM     49  C   UNL A   1      37.661  30.803  29.983  1.00  0.00     0.031 A 
ATOM     50  C   UNL A   1      38.553  29.751  31.950  1.00  0.00     0.131 A 
ATOM     51  C   UNL A   1      36.541  31.189  30.745  1.00  0.00     0.055 A 
ATOM     52  C   UNL A   1      37.400  30.052  32.674  1.00  0.00     0.041 A 
ATOM     53  F   UNL A   1      39.533  29.112  32.611  1.00  0.00    -0.206 F 
ATOM     54  C   UNL A   1      36.390  30.790  32.074  1.00  0.00     0.022 A 
BRANCH  51  55
ATOM     55  S   UNL A   1      35.342  32.348  30.025  1.00  0.00     0.124 S 
ATOM     56  O   UNL A   1      34.847  31.593  28.880  1.00  0.00    -0.237 OA
ATOM     57  O   UNL A   1      34.403  32.538  31.125  1.00  0.00    -0.237 OA
ATOM     58  O   UNL A   1      36.156  33.517  29.694  1.00  0.00    -0.744 OA
ENDBRANCH  51  55
ENDBRANCH  24  48
BRANCH  36  59
ATOM     59  C   UNL A   1      44.891  33.158  29.626  1.00  0.00     0.023 A 
ATOM     60  C   UNL A   1      44.789  34.348  28.888  1.00  0.00     0.031 A 
ATOM     61  C   UNL A   1      45.548  33.191  30.866  1.00  0.00     0.131 A 
ATOM     62  C   UNL A   1      45.405  35.510  29.362  1.00  0.00     0.055 A 
ATOM     63  C   UNL A   1      46.094  34.369  31.369  1.00  0.00     0.041 A 
ATOM     64  F   UNL A   1      45.669  32.077  31.607  1.00  0.00    -0.206 F 
ATOM     65  C   UNL A   1      46.040  35.535  30.607  1.00  0.00     0.022 A 
BRANCH  62  66
ATOM     66  S   UNL A   1      45.470  36.956  28.271  1.00  0.00     0.124 S 
ATOM     67  O   UNL A   1      46.899  37.248  28.244  1.00  0.00    -0.237 OA
ATOM     68  O   UNL A   1      44.901  36.438  27.031  1.00  0.00    -0.237 OA
ATOM     69  O   UNL A   1      44.647  37.944  28.966  1.00  0.00    -0.744 OA
ENDBRANCH  62  66
ENDBRANCH  36  59
ENDBRANCH  10  11
ENDBRANCH   3   5
ENDBRANCH   2   3
ENDBRANCH   1   2
BRANCH   1  70
ATOM     70  C   UNL A   1      34.802  23.288  25.458  1.00  0.00     0.274 C 
BRANCH  70  71
ATOM     71  O   UNL A   1      34.523  23.045  26.865  1.00  0.00    -0.461 OA
BRANCH  71  72
ATOM     72  C   UNL A   1      33.235  22.788  27.244  1.00  0.00     0.329 C 
ATOM     73  O   UNL A   1      32.910  22.584  28.407  1.00  0.00    -0.250 OA
BRANCH  72  74
ATOM     74  C   UNL A   1      32.196  22.930  26.056  1.00  0.00     0.197 C 
BRANCH  74  75
ATOM     75  C   UNL A   1      31.714  21.523  24.954  1.00  0.00     0.072 C 
BRANCH  75  76
ATOM     76  C   UNL A   1      32.685  19.815  24.075  1.00  0.00    -0.045 A 
ATOM     77  C   UNL A   1      32.256  18.982  22.814  1.00  0.00     0.004 A 
ATOM     78  C   UNL A   1      33.752  18.893  24.624  1.00  0.00     0.004 A 
ATOM     79  C   UNL A   1      32.593  17.680  22.384  1.00  0.00     0.000 A 
ATOM     80  C   UNL A   1      34.055  17.549  24.213  1.00  0.00     0.000 A 
ATOM     81  C   UNL A   1      33.451  16.935  23.133  1.00  0.00     0.000 A 
ENDBRANCH  75  76
ENDBRANCH  74  75
BRANCH  74  82
ATOM     82  N   UNL A   1      31.044  23.793  26.388  1.00  0.00    -0.338 N 
ATOM     83  C   UNL A   1      30.789  25.113  26.118  1.00  0.00     0.258 C 
ATOM     84  H   UNL A   1      30.332  23.340  26.894  1.00  0.00     0.164 HD
ATOM     85  O   UNL A   1      29.724  25.602  26.482  1.00  0.00    -0.269 OA
BRANCH  83  86
ATOM     86  C   UNL A   1      31.810  26.017  25.554  1.00  0.00     0.117 A 
ATOM     87  C   UNL A   1      32.620  26.660  26.503  1.00  0.00     0.021 A 
ATOM     88  C   UNL A   1      31.992  26.342  24.209  1.00  0.00     0.282 A 
ATOM     89  C   UNL A   1      33.621  27.551  26.103  1.00  0.00     0.001 A 
ATOM     90  C   UNL A   1      33.014  27.212  23.795  1.00  0.00     0.086 A 
ATOM     91  C   UNL A   1      33.832  27.811  24.751  1.00  0.00     0.007 A 
BRANCH  88  92
ATOM     92  N   UNL A   1      31.096  25.872  23.183  1.00  0.00     0.063 N 
ATOM     93  O   UNL A   1      30.904  24.650  23.131  1.00  0.00    -0.258 OA
ATOM     94  O   UNL A   1      30.634  26.711  22.407  1.00  0.00    -0.258 OA
ENDBRANCH  88  92
ENDBRANCH  83  86
ENDBRANCH  74  82
ENDBRANCH  72  74
ENDBRANCH  71  72
ENDBRANCH  70  71
ENDBRANCH   1  70
TORSDOF 19
ENDMDL
MODEL 2
REMARK VINA RESULT:     -12.8      1.607      3.375
REMARK SMILES O=C(OCCOC(=O)[C@@H](Cc1ccccc1)NC(=O)c1ccccc1[N+](=O)[O-])c1ccc(-c2c3nc(c(-c4cc(S(=O)(=O)[O-])ccc4F)c4ccc([nH]4)c(-c4cc(S(=O)(=O)[O-])ccc4F)c4nc(c(-c5cc(S(=O)(=O)[O-])ccc5F)c5ccc2[nH]5)C=C4)C=C3)cc1
REMARK SMILES IDX 4 1 3 2 2 3 1 4 29 5 30 6 91 7 31 8 90 9 32 10 33 11 34 12
REMARK SMILES IDX 84 13 35 14 89 15 83 16 85 17 36 18 88 19 82 20 81 21 37 23
REMARK SMILES IDX 69 24 49 25 68 26 50 27 53 28 67 29 86 30 51 31 52 32 66 34
REMARK SMILES IDX 87 35 54 36 38 37 39 38 47 39 40 40 46 41 48 42 45 43 41 44
REMARK SMILES IDX 42 45 43 46 44 47 70 48 71 49 79 50 72 51 78 52 80 53 77 54
REMARK SMILES IDX 73 55 74 56 75 57 76 58 55 59 56 60 64 61 57 62 63 63 65 64
REMARK SMILES IDX 62 65 58 66 59 67 60 68 61 69 5 70 6 71 7 72 8 73 9 74 10 75
REMARK SMILES IDX 11 76 12 77 16 78 13 79 15 80 14 81 17 82 18 83 19 85 20 86
REMARK SMILES IDX 21 87 25 88 22 89 24 90 23 91 26 92 27 93 28 94
REMARK H PARENT 85 22 53 33 17 84
REMARK Flexibility Score: inf
ROOT
ATOM      1  C   UNL A   1      36.372  20.937  25.389  1.00  0.00     0.275 C 
ENDROOT
BRANCH   1   2
ATOM      2  O   UNL A   1      37.639  20.469  24.934  1.00  0.00    -0.458 OA
BRANCH   2   3
ATOM      3  C   UNL A   1      38.798  20.658  25.582  1.00  0.00     0.338 C 
ATOM      4  O   UNL A   1      39.486  19.689  25.895  1.00  0.00    -0.246 OA
BRANCH   3   5
ATOM      5  C   UNL A   1      39.275  21.993  26.037  1.00  0.00     0.060 A 
ATOM      6  C   UNL A   1      38.555  23.664  25.777  1.00  0.00     0.016 A 
ATOM      7  C   UNL A   1      40.667  21.808  27.209  1.00  0.00     0.016 A 
ATOM      8  C   UNL A   1      39.070  25.056  26.849  1.00  0.00     0.010 A 
ATOM      9  C   UNL A   1      41.232  23.209  28.167  1.00  0.00     0.010 A 
ATOM     10  C   UNL A   1      40.501  24.842  27.999  1.00  0.00    -0.014 A 
BRANCH  10  11
ATOM     11  C   UNL A   1      41.267  26.049  28.486  1.00  0.00     0.031 A 
ATOM     12  C   UNL A   1      42.644  26.370  27.905  1.00  0.00     0.074 A 
ATOM     13  C   UNL A   1      40.555  26.996  29.126  1.00  0.00     0.049 A 
ATOM     14  N   UNL A   1      43.323  27.491  27.970  1.00  0.00    -0.248 NA
ATOM     15  C   UNL A   1      43.336  25.342  27.111  1.00  0.00     0.031 C 
ATOM     16  C   UNL A   1      39.199  26.803  29.630  1.00  0.00     0.029 A 
ATOM     17  N   UNL A   1      40.798  28.325  29.357  1.00  0.00    -0.354 N 
ATOM     18  C   UNL A   1      44.500  27.277  27.245  1.00  0.00     0.074 A 
ATOM     19  C   UNL A   1      44.466  25.928  26.761  1.00  0.00     0.031 C 
ATOM     20  C   UNL A   1      38.667  27.985  29.956  1.00  0.00     0.029 A 
ATOM     21  C   UNL A   1      39.698  29.005  29.839  1.00  0.00     0.049 A 
ATOM     22  H   UNL A   1      41.670  28.751  29.194  1.00  0.00     0.167 HD
ATOM     23  C   UNL A   1      45.518  28.131  26.986  1.00  0.00     0.034 A 
ATOM     24  C   UNL A   1      39.545  30.299  30.186  1.00  0.00     0.034 A 
ATOM     25  C   UNL A   1      45.530  29.483  27.469  1.00  0.00     0.049 A 
ATOM     26  C   UNL A   1      40.743  31.190  30.009  1.00  0.00     0.074 A 
ATOM     27  C   UNL A   1      46.543  30.419  27.395  1.00  0.00     0.029 A 
ATOM     28  N   UNL A   1      44.465  30.087  28.125  1.00  0.00    -0.354 N 
ATOM     29  N   UNL A   1      41.886  30.925  29.414  1.00  0.00    -0.248 NA
ATOM     30  C   UNL A   1      40.652  32.538  30.575  1.00  0.00     0.031 C 
ATOM     31  C   UNL A   1      46.120  31.562  28.081  1.00  0.00     0.029 A 
ATOM     32  C   UNL A   1      44.812  31.370  28.504  1.00  0.00     0.049 A 
ATOM     33  H   UNL A   1      43.593  29.664  28.295  1.00  0.00     0.167 HD
ATOM     34  C   UNL A   1      42.661  32.069  29.559  1.00  0.00     0.074 A 
ATOM     35  C   UNL A   1      41.827  33.045  30.237  1.00  0.00     0.031 C 
ATOM     36  C   UNL A   1      43.950  32.293  29.199  1.00  0.00     0.034 A 
BRANCH  23  37
ATOM     37  C   UNL A   1      46.737  27.580  26.277  1.00  0.00     0.023 A 
ATOM     38  C   UNL A   1      47.042  27.865  24.931  1.00  0.00     0.031 A 
ATOM     39  C   UNL A   1      47.591  26.705  26.973  1.00  0.00     0.131 A 
ATOM     40  C   UNL A   1      48.151  27.249  24.320  1.00  0.00     0.055 A 
ATOM     41  C   UNL A   1      48.722  26.145  26.378  1.00  0.00     0.041 A 
ATOM     42  F   UNL A   1      47.329  26.367  28.245  1.00  0.00    -0.206 F 
ATOM     43  C   UNL A   1      49.004  26.410  25.043  1.00  0.00     0.022 A 
BRANCH  40  44
ATOM     44  S   UNL A   1      48.422  27.470  22.536  1.00  0.00     0.124 S 
ATOM     45  O   UNL A   1      47.236  28.224  22.143  1.00  0.00    -0.237 OA
ATOM     46  O   UNL A   1      49.686  28.198  22.495  1.00  0.00    -0.237 OA
ATOM     47  O   UNL A   1      48.479  26.102  22.024  1.00  0.00    -0.744 OA
ENDBRANCH  40  44
ENDBRANCH  23  37
BRANCH  24  48
ATOM     48  C   UNL A   1      38.280  30.778  30.834  1.00  0.00     0.023 A 
ATOM     49  C   UNL A   1      37.254  31.406  30.110  1.00  0.00     0.031 A 
ATOM     50  C   UNL A   1      38.105  30.660  32.229  1.00  0.00     0.131 A 
ATOM     51  C   UNL A   1      36.124  31.908  30.784  1.00  0.00     0.055 A 
ATOM     52  C   UNL A   1      36.942  31.072  32.878  1.00  0.00     0.041 A 
ATOM     53  F   UNL A   1      39.070  30.125  32.996  1.00  0.00    -0.206 F 
ATOM     54  C   UNL A   1      35.947  31.715  32.156  1.00  0.00     0.022 A 
BRANCH  51  55
ATOM     55  S   UNL A   1      34.946  32.950  29.876  1.00  0.00     0.124 S 
ATOM     56  O   UNL A   1      34.388  32.003  28.916  1.00  0.00    -0.237 OA
ATOM     57  O   UNL A   1      34.048  33.392  30.937  1.00  0.00    -0.237 OA
ATOM     58  O   UNL A   1      35.790  33.995  29.300  1.00  0.00    -0.744 OA
ENDBRANCH  51  55
ENDBRANCH  24  48
BRANCH  36  59
ATOM     59  C   UNL A   1      44.511  33.643  29.546  1.00  0.00     0.023 A 
ATOM     60  C   UNL A   1      44.372  34.729  28.666  1.00  0.00     0.031 A 
ATOM     61  C   UNL A   1      45.207  33.838  30.750  1.00  0.00     0.131 A 
ATOM     62  C   UNL A   1      44.989  35.947  28.968  1.00  0.00     0.055 A 
ATOM     63  C   UNL A   1      45.754  35.076  31.080  1.00  0.00     0.041 A 
ATOM     64  F   UNL A   1      45.364  32.829  31.622  1.00  0.00    -0.206 F 
ATOM     65  C   UNL A   1      45.663  36.134  30.179  1.00  0.00     0.022 A 
BRANCH  62  66
ATOM     66  S   UNL A   1      45.003  37.242  27.702  1.00  0.00     0.124 S 
ATOM     67  O   UNL A   1      43.829  36.898  26.907  1.00  0.00    -0.237 OA
ATOM     68  O   UNL A   1      44.900  38.460  28.499  1.00  0.00    -0.237 OA
ATOM     69  O   UNL A   1      46.287  37.047  27.030  1.00  0.00    -0.744 OA
ENDBRANCH  62  66
ENDBRANCH  36  59
ENDBRANCH  10  11
ENDBRANCH   3   5
ENDBRANCH   2   3
ENDBRANCH   1   2
BRANCH   1  70
ATOM     70  C   UNL A   1      35.254  19.932  25.040  1.00  0.00     0.274 C 
BRANCH  70  71
ATOM     71  O   UNL A   1      33.916  20.501  25.004  1.00  0.00    -0.461 OA
BRANCH  71  72
ATOM     72  C   UNL A   1      33.614  21.523  25.860  1.00  0.00     0.329 C 
ATOM     73  O   UNL A   1      33.639  21.402  27.079  1.00  0.00    -0.250 OA
BRANCH  72  74
ATOM     74  C   UNL A   1      33.379  22.906  25.123  1.00  0.00     0.197 C 
BRANCH  74  75
ATOM     75  C   UNL A   1      34.018  24.521  25.762  1.00  0.00     0.072 C 
BRANCH  75  76
ATOM     76  C   UNL A   1      33.242  26.505  26.067  1.00  0.00    -0.045 A 
ATOM     77  C   UNL A   1      34.022  27.869  26.113  1.00  0.00     0.004 A 
ATOM     78  C   UNL A   1      31.902  26.974  26.593  1.00  0.00     0.004 A 
ATOM     79  C   UNL A   1      33.684  29.131  26.649  1.00  0.00     0.000 A 
ATOM     80  C   UNL A   1      31.580  28.244  27.184  1.00  0.00     0.000 A 
ATOM     81  C   UNL A   1      32.474  29.295  27.250  1.00  0.00     0.000 A 
ENDBRANCH  75  76
ENDBRANCH  74  75
BRANCH  74  82
ATOM     82  N   UNL A   1      33.489  22.809  23.653  1.00  0.00    -0.338 N 
ATOM     83  C   UNL A   1      33.016  23.616  22.650  1.00  0.00     0.258 C 
ATOM     84  H   UNL A   1      33.992  22.025  23.336  1.00  0.00     0.164 HD
ATOM     85  O   UNL A   1      33.272  23.332  21.484  1.00  0.00    -0.269 OA
BRANCH  83  86
ATOM     86  C   UNL A   1      32.072  24.722  22.904  1.00  0.00     0.117 A 
ATOM     87  C   UNL A   1      30.900  24.355  23.583  1.00  0.00     0.021 A 
ATOM     88  C   UNL A   1      32.195  26.044  22.477  1.00  0.00     0.282 A 
ATOM     89  C   UNL A   1      29.917  25.304  23.878  1.00  0.00     0.001 A 
ATOM     90  C   UNL A   1      31.228  27.012  22.794  1.00  0.00     0.086 A 
ATOM     91  C   UNL A   1      30.090  26.635  23.504  1.00  0.00     0.007 A 
BRANCH  88  92
ATOM     92  N   UNL A   1      33.273  26.473  21.621  1.00  0.00     0.063 N 
ATOM     93  O   UNL A   1      34.084  27.271  22.109  1.00  0.00    -0.258 OA
ATOM     94  O   UNL A   1      33.274  26.059  20.461  1.00  0.00    -0.258 OA
ENDBRANCH  88  92
ENDBRANCH  83  86
ENDBRANCH  74  82
ENDBRANCH  72  74
ENDBRANCH  71  72
ENDBRANCH  70  71
ENDBRANCH   1  70
TORSDOF 19
ENDMDL
MODEL 3
REMARK VINA RESULT:     -12.7      2.066      3.674
REMARK SMILES O=C(OCCOC(=O)[C@@H](Cc1ccccc1)NC(=O)c1ccccc1[N+](=O)[O-])c1ccc(-c2c3nc(c(-c4cc(S(=O)(=O)[O-])ccc4F)c4ccc([nH]4)c(-c4cc(S(=O)(=O)[O-])ccc4F)c4nc(c(-c5cc(S(=O)(=O)[O-])ccc5F)c5ccc2[nH]5)C=C4)C=C3)cc1
REMARK SMILES IDX 4 1 3 2 2 3 1 4 29 5 30 6 91 7 31 8 90 9 32 10 33 11 34 12
REMARK SMILES IDX 84 13 35 14 89 15 83 16 85 17 36 18 88 19 82 20 81 21 37 23
REMARK SMILES IDX 69 24 49 25 68 26 50 27 53 28 67 29 86 30 51 31 52 32 66 34
REMARK SMILES IDX 87 35 54 36 38 37 39 38 47 39 40 40 46 41 48 42 45 43 41 44
REMARK SMILES IDX 42 45 43 46 44 47 70 48 71 49 79 50 72 51 78 52 80 53 77 54
REMARK SMILES IDX 73 55 74 56 75 57 76 58 55 59 56 60 64 61 57 62 63 63 65 64
REMARK SMILES IDX 62 65 58 66 59 67 60 68 61 69 5 70 6 71 7 72 8 73 9 74 10 75
REMARK SMILES IDX 11 76 12 77 16 78 13 79 15 80 14 81 17 82 18 83 19 85 20 86
REMARK SMILES IDX 21 87 25 88 22 89 24 90 23 91 26 92 27 93 28 94
REMARK H PARENT 85 22 53 33 17 84
REMARK Flexibility Score: inf
ROOT
ATOM      1  C   UNL A   1      36.217  21.143  25.281  1.00  0.00     0.275 C 
ENDROOT
BRANCH   1   2
ATOM      2  O   UNL A   1      37.277  20.217  25.052  1.00  0.00    -0.458 OA
BRANCH   2   3
ATOM      3  C   UNL A   1      38.547  20.403  25.438  1.00  0.00     0.338 C 
ATOM      4  O   UNL A   1      39.317  19.446  25.483  1.00  0.00    -0.246 OA
BRANCH   3   5
ATOM      5  C   UNL A   1      39.078  21.712  25.911  1.00  0.00     0.060 A 
ATOM      6  C   UNL A   1      38.433  23.415  25.663  1.00  0.00     0.016 A 
ATOM      7  C   UNL A   1      40.449  21.454  27.094  1.00  0.00     0.016 A 
ATOM      8  C   UNL A   1      38.997  24.772  26.754  1.00  0.00     0.010 A 
ATOM      9  C   UNL A   1      41.065  22.820  28.071  1.00  0.00     0.010 A 
ATOM     10  C   UNL A   1      40.407  24.484  27.914  1.00  0.00    -0.014 A 
BRANCH  10  11
ATOM     11  C   UNL A   1      41.220  25.652  28.421  1.00  0.00     0.031 A 
ATOM     12  C   UNL A   1      42.617  25.916  27.859  1.00  0.00     0.074 A 
ATOM     13  C   UNL A   1      40.543  26.624  29.061  1.00  0.00     0.049 A 
ATOM     14  N   UNL A   1      43.345  27.005  27.941  1.00  0.00    -0.248 NA
ATOM     15  C   UNL A   1      43.272  24.864  27.064  1.00  0.00     0.031 C 
ATOM     16  C   UNL A   1      39.174  26.489  29.547  1.00  0.00     0.029 A 
ATOM     17  N   UNL A   1      40.842  27.939  29.306  1.00  0.00    -0.354 N 
ATOM     18  C   UNL A   1      44.519  26.745  27.229  1.00  0.00     0.074 A 
ATOM     19  C   UNL A   1      44.431  25.403  26.733  1.00  0.00     0.031 C 
ATOM     20  C   UNL A   1      38.691  27.690  29.876  1.00  0.00     0.029 A 
ATOM     21  C   UNL A   1      39.768  28.664  29.781  1.00  0.00     0.049 A 
ATOM     22  H   UNL A   1      41.734  28.328  29.157  1.00  0.00     0.167 HD
ATOM     23  C   UNL A   1      45.577  27.554  26.989  1.00  0.00     0.034 A 
ATOM     24  C   UNL A   1      39.669  29.960  30.138  1.00  0.00     0.034 A 
ATOM     25  C   UNL A   1      45.644  28.901  27.484  1.00  0.00     0.049 A 
ATOM     26  C   UNL A   1      40.907  30.799  29.982  1.00  0.00     0.074 A 
ATOM     27  C   UNL A   1      46.698  29.791  27.430  1.00  0.00     0.029 A 
ATOM     28  N   UNL A   1      44.599  29.546  28.133  1.00  0.00    -0.354 N 
ATOM     29  N   UNL A   1      42.044  30.488  29.398  1.00  0.00    -0.248 NA
ATOM     30  C   UNL A   1      40.869  32.145  30.559  1.00  0.00     0.031 C 
ATOM     31  C   UNL A   1      46.318  30.946  28.121  1.00  0.00     0.029 A 
ATOM     32  C   UNL A   1      44.998  30.809  28.527  1.00  0.00     0.049 A 
ATOM     33  H   UNL A   1      43.707  29.161  28.289  1.00  0.00     0.167 HD
ATOM     34  C   UNL A   1      42.868  31.595  29.563  1.00  0.00     0.074 A 
ATOM     35  C   UNL A   1      42.070  32.601  30.240  1.00  0.00     0.031 C 
ATOM     36  C   UNL A   1      44.170  31.764  29.220  1.00  0.00     0.034 A 
BRANCH  23  37
ATOM     37  C   UNL A   1      46.779  26.956  26.290  1.00  0.00     0.023 A 
ATOM     38  C   UNL A   1      47.859  26.367  26.976  1.00  0.00     0.031 A 
ATOM     39  C   UNL A   1      46.852  27.025  24.886  1.00  0.00     0.131 A 
ATOM     40  C   UNL A   1      48.977  25.906  26.256  1.00  0.00     0.055 A 
ATOM     41  C   UNL A   1      47.938  26.512  24.175  1.00  0.00     0.041 A 
ATOM     42  F   UNL A   1      45.871  27.610  24.181  1.00  0.00    -0.206 F 
ATOM     43  C   UNL A   1      49.011  25.954  24.859  1.00  0.00     0.022 A 
BRANCH  40  44
ATOM     44  S   UNL A   1      50.444  25.327  27.162  1.00  0.00     0.124 S 
ATOM     45  O   UNL A   1      49.903  24.208  27.927  1.00  0.00    -0.237 OA
ATOM     46  O   UNL A   1      51.365  24.980  26.085  1.00  0.00    -0.237 OA
ATOM     47  O   UNL A   1      50.835  26.487  27.962  1.00  0.00    -0.744 OA
ENDBRANCH  40  44
ENDBRANCH  23  37
BRANCH  24  48
ATOM     48  C   UNL A   1      38.419  30.490  30.774  1.00  0.00     0.023 A 
ATOM     49  C   UNL A   1      37.418  31.147  30.040  1.00  0.00     0.031 A 
ATOM     50  C   UNL A   1      38.232  30.392  32.170  1.00  0.00     0.131 A 
ATOM     51  C   UNL A   1      36.303  31.695  30.703  1.00  0.00     0.055 A 
ATOM     52  C   UNL A   1      37.082  30.851  32.809  1.00  0.00     0.041 A 
ATOM     53  F   UNL A   1      39.174  29.830  32.947  1.00  0.00    -0.206 F 
ATOM     54  C   UNL A   1      36.114  31.522  32.076  1.00  0.00     0.022 A 
BRANCH  51  55
ATOM     55  S   UNL A   1      35.167  32.770  29.780  1.00  0.00     0.124 S 
ATOM     56  O   UNL A   1      36.079  33.772  29.238  1.00  0.00    -0.237 OA
ATOM     57  O   UNL A   1      34.586  31.842  28.816  1.00  0.00    -0.237 OA
ATOM     58  O   UNL A   1      34.248  33.256  30.807  1.00  0.00    -0.744 OA
ENDBRANCH  51  55
ENDBRANCH  24  48
BRANCH  36  59
ATOM     59  C   UNL A   1      44.786  33.085  29.585  1.00  0.00     0.023 A 
ATOM     60  C   UNL A   1      44.704  34.183  28.714  1.00  0.00     0.031 A 
ATOM     61  C   UNL A   1      45.476  33.239  30.798  1.00  0.00     0.131 A 
ATOM     62  C   UNL A   1      45.371  35.370  29.034  1.00  0.00     0.055 A 
ATOM     63  C   UNL A   1      46.074  34.447  31.146  1.00  0.00     0.041 A 
ATOM     64  F   UNL A   1      45.579  32.216  31.662  1.00  0.00    -0.206 F 
ATOM     65  C   UNL A   1      46.040  35.517  30.254  1.00  0.00     0.022 A 
BRANCH  62  66
ATOM     66  S   UNL A   1      45.456  36.675  27.780  1.00  0.00     0.124 S 
ATOM     67  O   UNL A   1      44.590  36.143  26.734  1.00  0.00    -0.237 OA
ATOM     68  O   UNL A   1      44.947  37.837  28.501  1.00  0.00    -0.237 OA
ATOM     69  O   UNL A   1      46.878  36.729  27.441  1.00  0.00    -0.744 OA
ENDBRANCH  62  66
ENDBRANCH  36  59
ENDBRANCH  10  11
ENDBRANCH   3   5
ENDBRANCH   2   3
ENDBRANCH   1   2
BRANCH   1  70
ATOM     70  C   UNL A   1      34.848  20.505  24.970  1.00  0.00     0.274 C 
BRANCH  70  71
ATOM     71  O   UNL A   1      33.810  20.786  25.951  1.00  0.00    -0.461 OA
BRANCH  71  72
ATOM     72  C   UNL A   1      33.751  22.035  26.503  1.00  0.00     0.329 C 
ATOM     73  O   UNL A   1      34.100  22.274  27.653  1.00  0.00    -0.250 OA
BRANCH  72  74
ATOM     74  C   UNL A   1      33.330  23.156  25.465  1.00  0.00     0.197 C 
BRANCH  74  75
ATOM     75  C   UNL A   1      34.099  24.840  25.420  1.00  0.00     0.072 C 
BRANCH  75  76
ATOM     76  C   UNL A   1      33.450  26.869  25.721  1.00  0.00    -0.045 A 
ATOM     77  C   UNL A   1      32.248  27.399  26.584  1.00  0.00     0.004 A 
ATOM     78  C   UNL A   1      33.783  28.138  24.965  1.00  0.00     0.004 A 
ATOM     79  C   UNL A   1      31.536  28.618  26.561  1.00  0.00     0.000 A 
ATOM     80  C   UNL A   1      33.025  29.357  24.908  1.00  0.00     0.000 A 
ATOM     81  C   UNL A   1      31.890  29.578  25.664  1.00  0.00     0.000 A 
ENDBRANCH  75  76
ENDBRANCH  74  75
BRANCH  74  82
ATOM     82  N   UNL A   1      33.070  22.629  24.110  1.00  0.00    -0.338 N 
ATOM     83  C   UNL A   1      32.461  23.191  23.017  1.00  0.00     0.258 C 
ATOM     84  H   UNL A   1      33.391  21.710  23.966  1.00  0.00     0.164 HD
ATOM     85  O   UNL A   1      32.394  22.547  21.975  1.00  0.00    -0.269 OA
BRANCH  83  86
ATOM     86  C   UNL A   1      31.735  24.474  23.088  1.00  0.00     0.117 A 
ATOM     87  C   UNL A   1      30.547  24.441  23.835  1.00  0.00     0.021 A 
ATOM     88  C   UNL A   1      32.068  25.662  22.439  1.00  0.00     0.282 A 
ATOM     89  C   UNL A   1      29.758  25.586  23.974  1.00  0.00     0.001 A 
ATOM     90  C   UNL A   1      31.298  26.826  22.596  1.00  0.00     0.086 A 
ATOM     91  C   UNL A   1      30.143  26.783  23.374  1.00  0.00     0.007 A 
BRANCH  88  92
ATOM     92  N   UNL A   1      33.167  25.743  21.509  1.00  0.00     0.063 N 
ATOM     93  O   UNL A   1      33.093  25.027  20.501  1.00  0.00    -0.258 OA
ATOM     94  O   UNL A   1      34.113  26.471  21.811  1.00  0.00    -0.258 OA
ENDBRANCH  88  92
ENDBRANCH  83  86
ENDBRANCH  74  82
ENDBRANCH  72  74
ENDBRANCH  71  72
ENDBRANCH  70  71
ENDBRANCH   1  70
TORSDOF 19
ENDMDL
