MODEL 1
REMARK VINA RESULT:     -11.8      0.000      0.000
REMARK SMILES O=C(OCCOC(=O)[C@@H]1CCC(=O)N(CCCOC2CCCCC2)[C@H]1c1ccco1)c1ccc(-c2c3nc(c(-c4cc(S(=O)(=O)[O-])ccc4F)c4ccc([nH]4)c(-c4cc(S(=O)(=O)[O-])ccc4F)c4nc(c(-c5cc(S(=O)(=O)[O-])ccc5F)c5ccc2[nH]5)C=C4)C=C3)cc1
REMARK SMILES IDX 5 1 4 2 3 3 2 4 1 5 31 6 32 7 93 8 33 9 92 10 34 11 35 12
REMARK SMILES IDX 36 13 86 14 37 15 91 16 85 17 87 18 38 19 90 20 84 21 83 22
REMARK SMILES IDX 39 24 71 25 51 26 70 27 52 28 55 29 69 30 88 31 53 32 54 33
REMARK SMILES IDX 68 35 89 36 56 37 40 38 41 39 49 40 42 41 48 42 50 43 47 44
REMARK SMILES IDX 43 45 44 46 45 47 46 48 72 49 73 50 81 51 74 52 80 53 82 54
REMARK SMILES IDX 79 55 75 56 76 57 77 58 78 59 57 60 58 61 66 62 59 63 65 64
REMARK SMILES IDX 67 65 64 66 60 67 61 68 62 69 63 70 6 71 7 72 8 73 9 74
REMARK SMILES IDX 10 75 25 76 11 77 14 78 12 79 13 80 26 81 27 82 30 83 28 84
REMARK SMILES IDX 29 85 15 86 16 87 17 88 18 89 19 90 20 91 24 92 21 93 23 94
REMARK SMILES IDX 22 95
REMARK H PARENT 87 23 55 34
REMARK Flexibility Score: inf
ROOT
ATOM      1  C   UNL A   1      37.263  20.776  24.695  1.00  0.00     0.274 C 
ENDROOT
BRANCH   1   2
ATOM      2  C   UNL A   1      38.446  19.892  25.106  1.00  0.00     0.275 C 
BRANCH   2   3
ATOM      3  O   UNL A   1      39.073  20.225  26.354  1.00  0.00    -0.458 OA
BRANCH   3   4
ATOM      4  C   UNL A   1      40.322  20.688  26.600  1.00  0.00     0.338 C 
ATOM      5  O   UNL A   1      41.265  19.912  26.450  1.00  0.00    -0.246 OA
BRANCH   4   6
ATOM      6  C   UNL A   1      40.610  22.053  27.153  1.00  0.00     0.060 A 
ATOM      7  C   UNL A   1      41.499  22.356  28.191  1.00  0.00     0.016 A 
ATOM      8  C   UNL A   1      39.998  23.128  26.487  1.00  0.00     0.016 A 
ATOM      9  C   UNL A   1      41.905  23.675  28.444  1.00  0.00     0.010 A 
ATOM     10  C   UNL A   1      40.428  24.443  26.712  1.00  0.00     0.010 A 
ATOM     11  C   UNL A   1      41.407  24.730  27.680  1.00  0.00    -0.014 A 
BRANCH  11  12
ATOM     12  C   UNL A   1      41.725  26.145  28.025  1.00  0.00     0.031 A 
ATOM     13  C   UNL A   1      43.100  26.629  27.647  1.00  0.00     0.074 A 
ATOM     14  C   UNL A   1      40.854  26.972  28.646  1.00  0.00     0.049 A 
ATOM     15  N   UNL A   1      43.700  27.749  27.938  1.00  0.00    -0.248 NA
ATOM     16  C   UNL A   1      43.929  25.687  26.873  1.00  0.00     0.031 C 
ATOM     17  C   UNL A   1      39.485  26.638  29.042  1.00  0.00     0.029 A 
ATOM     18  N   UNL A   1      40.992  28.278  29.060  1.00  0.00    -0.354 N 
ATOM     19  C   UNL A   1      44.983  27.618  27.419  1.00  0.00     0.074 A 
ATOM     20  C   UNL A   1      45.108  26.276  26.908  1.00  0.00     0.031 C 
ATOM     21  C   UNL A   1      38.918  27.700  29.646  1.00  0.00     0.029 A 
ATOM     22  C   UNL A   1      39.879  28.797  29.693  1.00  0.00     0.049 A 
ATOM     23  H   UNL A   1      41.815  28.800  28.917  1.00  0.00     0.167 HD
ATOM     24  C   UNL A   1      45.953  28.555  27.307  1.00  0.00     0.034 A 
ATOM     25  C   UNL A   1      39.670  30.017  30.239  1.00  0.00     0.034 A 
ATOM     26  C   UNL A   1      45.779  29.912  27.731  1.00  0.00     0.049 A 
ATOM     27  C   UNL A   1      40.790  31.036  30.148  1.00  0.00     0.074 A 
ATOM     28  C   UNL A   1      46.651  30.974  27.601  1.00  0.00     0.029 A 
ATOM     29  N   UNL A   1      44.640  30.394  28.362  1.00  0.00    -0.354 N 
ATOM     30  N   UNL A   1      41.971  30.914  29.583  1.00  0.00    -0.248 NA
ATOM     31  C   UNL A   1      40.550  32.354  30.754  1.00  0.00     0.031 C 
ATOM     32  C   UNL A   1      46.061  32.088  28.203  1.00  0.00     0.029 A 
ATOM     33  C   UNL A   1      44.799  31.734  28.657  1.00  0.00     0.049 A 
ATOM     34  H   UNL A   1      43.839  29.859  28.569  1.00  0.00     0.167 HD
ATOM     35  C   UNL A   1      42.590  32.154  29.724  1.00  0.00     0.074 A 
ATOM     36  C   UNL A   1      41.651  33.010  30.417  1.00  0.00     0.031 C 
ATOM     37  C   UNL A   1      43.821  32.557  29.322  1.00  0.00     0.034 A 
BRANCH  24  38
ATOM     38  C   UNL A   1      47.258  28.112  26.703  1.00  0.00     0.023 A 
ATOM     39  C   UNL A   1      47.457  28.113  25.310  1.00  0.00     0.031 A 
ATOM     40  C   UNL A   1      48.268  27.577  27.517  1.00  0.00     0.131 A 
ATOM     41  C   UNL A   1      48.585  27.483  24.769  1.00  0.00     0.055 A 
ATOM     42  C   UNL A   1      49.436  27.039  26.974  1.00  0.00     0.041 A 
ATOM     43  F   UNL A   1      48.119  27.530  28.850  1.00  0.00    -0.206 F 
ATOM     44  C   UNL A   1      49.589  26.969  25.591  1.00  0.00     0.022 A 
BRANCH  41  45
ATOM     45  S   UNL A   1      48.628  27.186  22.979  1.00  0.00     0.124 S 
ATOM     46  O   UNL A   1      48.247  25.777  22.909  1.00  0.00    -0.237 OA
ATOM     47  O   UNL A   1      47.643  28.136  22.475  1.00  0.00    -0.237 OA
ATOM     48  O   UNL A   1      50.014  27.472  22.618  1.00  0.00    -0.744 OA
ENDBRANCH  41  45
ENDBRANCH  24  38
BRANCH  25  49
ATOM     49  C   UNL A   1      38.398  30.375  30.953  1.00  0.00     0.023 A 
ATOM     50  C   UNL A   1      37.363  31.083  30.316  1.00  0.00     0.031 A 
ATOM     51  C   UNL A   1      38.261  30.142  32.333  1.00  0.00     0.131 A 
ATOM     52  C   UNL A   1      36.288  31.595  31.068  1.00  0.00     0.055 A 
ATOM     53  C   UNL A   1      37.162  30.598  33.066  1.00  0.00     0.041 A 
ATOM     54  F   UNL A   1      39.220  29.487  33.000  1.00  0.00    -0.206 F 
ATOM     55  C   UNL A   1      36.176  31.349  32.437  1.00  0.00     0.022 A 
BRANCH  52  56
ATOM     56  S   UNL A   1      35.110  32.717  30.257  1.00  0.00     0.124 S 
ATOM     57  O   UNL A   1      34.173  32.992  31.339  1.00  0.00    -0.237 OA
ATOM     58  O   UNL A   1      35.975  33.820  29.857  1.00  0.00    -0.237 OA
ATOM     59  O   UNL A   1      34.577  31.913  29.159  1.00  0.00    -0.744 OA
ENDBRANCH  52  56
ENDBRANCH  25  49
BRANCH  37  60
ATOM     60  C   UNL A   1      44.197  33.991  29.577  1.00  0.00     0.023 A 
ATOM     61  C   UNL A   1      43.818  35.013  28.695  1.00  0.00     0.031 A 
ATOM     62  C   UNL A   1      44.887  34.341  30.752  1.00  0.00     0.131 A 
ATOM     63  C   UNL A   1      44.155  36.342  28.986  1.00  0.00     0.055 A 
ATOM     64  C   UNL A   1      45.168  35.670  31.065  1.00  0.00     0.041 A 
ATOM     65  F   UNL A   1      45.267  33.397  31.627  1.00  0.00    -0.206 F 
ATOM     66  C   UNL A   1      44.807  36.678  30.176  1.00  0.00     0.022 A 
BRANCH  63  67
ATOM     67  S   UNL A   1      43.767  37.621  27.764  1.00  0.00     0.124 S 
ATOM     68  O   UNL A   1      42.922  36.894  26.822  1.00  0.00    -0.237 OA
ATOM     69  O   UNL A   1      43.094  38.634  28.571  1.00  0.00    -0.237 OA
ATOM     70  O   UNL A   1      45.079  38.011  27.249  1.00  0.00    -0.744 OA
ENDBRANCH  63  67
ENDBRANCH  37  60
ENDBRANCH  11  12
ENDBRANCH   4   6
ENDBRANCH   3   4
ENDBRANCH   2   3
ENDBRANCH   1   2
BRANCH   1  71
ATOM     71  O   UNL A   1      37.577  22.176  24.571  1.00  0.00    -0.462 OA
BRANCH  71  72
ATOM     72  C   UNL A   1      36.691  22.894  23.817  1.00  0.00     0.311 C 
ATOM     73  O   UNL A   1      36.674  22.848  22.599  1.00  0.00    -0.252 OA
BRANCH  72  74
ATOM     74  C   UNL A   1      35.848  23.895  24.612  1.00  0.00     0.130 C 
ATOM     75  C   UNL A   1      35.907  23.821  26.110  1.00  0.00     0.028 C 
ATOM     76  C   UNL A   1      34.393  24.002  24.167  1.00  0.00     0.166 C 
ATOM     77  C   UNL A   1      34.896  22.955  26.817  1.00  0.00     0.101 C 
ATOM     78  N   UNL A   1      33.486  23.019  24.772  1.00  0.00    -0.332 N 
ATOM     79  C   UNL A   1      33.732  22.448  26.011  1.00  0.00     0.223 C 
ATOM     80  O   UNL A   1      33.014  21.565  26.486  1.00  0.00    -0.275 OA
BRANCH  76  81
ATOM     81  C   UNL A   1      33.884  25.396  24.393  1.00  0.00     0.127 A 
ATOM     82  C   UNL A   1      33.700  26.138  25.543  1.00  0.00     0.048 A 
ATOM     83  O   UNL A   1      33.480  26.117  23.306  1.00  0.00    -0.467 OA
ATOM     84  C   UNL A   1      33.159  27.377  25.132  1.00  0.00     0.042 A 
ATOM     85  C   UNL A   1      33.047  27.317  23.766  1.00  0.00     0.195 A 
ENDBRANCH  76  81
BRANCH  78  86
ATOM     86  C   UNL A   1      32.192  22.672  24.163  1.00  0.00     0.122 C 
BRANCH  86  87
ATOM     87  C   UNL A   1      32.070  21.724  22.967  1.00  0.00     0.050 C 
BRANCH  87  88
ATOM     88  C   UNL A   1      32.424  20.234  23.040  1.00  0.00     0.162 C 
BRANCH  88  89
ATOM     89  O   UNL A   1      32.008  19.553  24.222  1.00  0.00    -0.378 OA
BRANCH  89  90
ATOM     90  C   UNL A   1      32.288  18.145  24.274  1.00  0.00     0.118 C 
ATOM     91  C   UNL A   1      33.306  17.826  23.182  1.00  0.00     0.032 C 
ATOM     92  C   UNL A   1      32.816  17.789  25.668  1.00  0.00     0.032 C 
ATOM     93  C   UNL A   1      34.060  16.518  23.302  1.00  0.00     0.003 C 
ATOM     94  C   UNL A   1      33.427  16.388  25.715  1.00  0.00     0.003 C 
ATOM     95  C   UNL A   1      34.559  16.256  24.706  1.00  0.00     0.000 C 
ENDBRANCH  89  90
ENDBRANCH  88  89
ENDBRANCH  87  88
ENDBRANCH  86  87
ENDBRANCH  78  86
ENDBRANCH  72  74
ENDBRANCH  71  72
ENDBRANCH   1  71
TORSDOF 20
ENDMDL
MODEL 2
REMARK VINA RESULT:     -11.5      4.637      9.946
REMARK SMILES O=C(OCCOC(=O)[C@@H]1CCC(=O)N(CCCOC2CCCCC2)[C@H]1c1ccco1)c1ccc(-c2c3nc(c(-c4cc(S(=O)(=O)[O-])ccc4F)c4ccc([nH]4)c(-c4cc(S(=O)(=O)[O-])ccc4F)c4nc(c(-c5cc(S(=O)(=O)[O-])ccc5F)c5ccc2[nH]5)C=C4)C=C3)cc1
REMARK SMILES IDX 5 1 4 2 3 3 2 4 1 5 31 6 32 7 93 8 33 9 92 10 34 11 35 12
REMARK SMILES IDX 36 13 86 14 37 15 91 16 85 17 87 18 38 19 90 20 84 21 83 22
REMARK SMILES IDX 39 24 71 25 51 26 70 27 52 28 55 29 69 30 88 31 53 32 54 33
REMARK SMILES IDX 68 35 89 36 56 37 40 38 41 39 49 40 42 41 48 42 50 43 47 44
REMARK SMILES IDX 43 45 44 46 45 47 46 48 72 49 73 50 81 51 74 52 80 53 82 54
REMARK SMILES IDX 79 55 75 56 76 57 77 58 78 59 57 60 58 61 66 62 59 63 65 64
REMARK SMILES IDX 67 65 64 66 60 67 61 68 62 69 63 70 6 71 7 72 8 73 9 74
REMARK SMILES IDX 10 75 25 76 11 77 14 78 12 79 13 80 26 81 27 82 30 83 28 84
REMARK SMILES IDX 29 85 15 86 16 87 17 88 18 89 19 90 20 91 24 92 21 93 23 94
REMARK SMILES IDX 22 95
REMARK H PARENT 87 23 55 34
REMARK Flexibility Score: inf
ROOT
ATOM      1  C   UNL A   1      32.091  28.999  26.329  1.00  0.00     0.274 C 
ENDROOT
BRANCH   1   2
ATOM      2  C   UNL A   1      32.073  30.420  26.902  1.00  0.00     0.275 C 
BRANCH   2   3
ATOM      3  O   UNL A   1      33.262  31.195  26.693  1.00  0.00    -0.458 OA
BRANCH   3   4
ATOM      4  C   UNL A   1      34.095  31.766  27.596  1.00  0.00     0.338 C 
ATOM      5  O   UNL A   1      33.768  32.850  28.078  1.00  0.00    -0.246 OA
BRANCH   4   6
ATOM      6  C   UNL A   1      35.443  31.210  27.953  1.00  0.00     0.060 A 
ATOM      7  C   UNL A   1      36.626  31.941  28.113  1.00  0.00     0.016 A 
ATOM      8  C   UNL A   1      35.482  29.838  28.252  1.00  0.00     0.016 A 
ATOM      9  C   UNL A   1      37.759  31.376  28.716  1.00  0.00     0.010 A 
ATOM     10  C   UNL A   1      36.599  29.280  28.889  1.00  0.00     0.010 A 
ATOM     11  C   UNL A   1      37.746  30.051  29.150  1.00  0.00    -0.014 A 
BRANCH  11  12
ATOM     12  C   UNL A   1      38.983  29.400  29.667  1.00  0.00     0.031 A 
ATOM     13  C   UNL A   1      39.463  29.862  31.018  1.00  0.00     0.074 A 
ATOM     14  C   UNL A   1      39.663  28.450  28.987  1.00  0.00     0.049 A 
ATOM     15  N   UNL A   1      40.567  29.582  31.652  1.00  0.00    -0.248 NA
ATOM     16  C   UNL A   1      38.589  30.815  31.725  1.00  0.00     0.031 C 
ATOM     17  C   UNL A   1      39.292  27.894  27.684  1.00  0.00     0.029 A 
ATOM     18  N   UNL A   1      40.822  27.775  29.298  1.00  0.00    -0.354 N 
ATOM     19  C   UNL A   1      40.530  30.361  32.803  1.00  0.00     0.074 A 
ATOM     20  C   UNL A   1      39.364  31.204  32.718  1.00  0.00     0.031 C 
ATOM     21  C   UNL A   1      40.205  26.978  27.307  1.00  0.00     0.029 A 
ATOM     22  C   UNL A   1      41.238  26.878  28.333  1.00  0.00     0.049 A 
ATOM     23  H   UNL A   1      41.314  27.918  30.139  1.00  0.00     0.167 HD
ATOM     24  C   UNL A   1      41.353  30.327  33.877  1.00  0.00     0.034 A 
ATOM     25  C   UNL A   1      42.325  26.074  28.294  1.00  0.00     0.034 A 
ATOM     26  C   UNL A   1      42.451  29.414  33.989  1.00  0.00     0.049 A 
ATOM     27  C   UNL A   1      43.263  26.090  29.486  1.00  0.00     0.074 A 
ATOM     28  C   UNL A   1      43.308  29.225  35.055  1.00  0.00     0.029 A 
ATOM     29  N   UNL A   1      42.835  28.525  32.994  1.00  0.00    -0.354 N 
ATOM     30  N   UNL A   1      43.166  26.780  30.601  1.00  0.00    -0.248 NA
ATOM     31  C   UNL A   1      44.443  25.217  29.424  1.00  0.00     0.031 C 
ATOM     32  C   UNL A   1      44.246  28.258  34.683  1.00  0.00     0.029 A 
ATOM     33  C   UNL A   1      43.938  27.805  33.408  1.00  0.00     0.049 A 
ATOM     34  H   UNL A   1      42.386  28.425  32.123  1.00  0.00     0.167 HD
ATOM     35  C   UNL A   1      44.246  26.385  31.387  1.00  0.00     0.074 A 
ATOM     36  C   UNL A   1      44.973  25.392  30.626  1.00  0.00     0.031 C 
ATOM     37  C   UNL A   1      44.612  26.800  32.626  1.00  0.00     0.034 A 
BRANCH  24  38
ATOM     38  C   UNL A   1      41.067  31.307  34.983  1.00  0.00     0.023 A 
ATOM     39  C   UNL A   1      39.983  31.124  35.860  1.00  0.00     0.031 A 
ATOM     40  C   UNL A   1      41.813  32.491  35.088  1.00  0.00     0.131 A 
ATOM     41  C   UNL A   1      39.604  32.161  36.724  1.00  0.00     0.055 A 
ATOM     42  C   UNL A   1      41.489  33.479  36.020  1.00  0.00     0.041 A 
ATOM     43  F   UNL A   1      42.842  32.726  34.259  1.00  0.00    -0.206 F 
ATOM     44  C   UNL A   1      40.365  33.326  36.828  1.00  0.00     0.022 A 
BRANCH  41  45
ATOM     45  S   UNL A   1      38.004  32.034  37.569  1.00  0.00     0.124 S 
ATOM     46  O   UNL A   1      38.381  32.328  38.950  1.00  0.00    -0.237 OA
ATOM     47  O   UNL A   1      37.207  33.054  36.897  1.00  0.00    -0.237 OA
ATOM     48  O   UNL A   1      37.594  30.655  37.319  1.00  0.00    -0.744 OA
ENDBRANCH  41  45
ENDBRANCH  24  38
BRANCH  25  49
ATOM     49  C   UNL A   1      42.646  25.208  27.109  1.00  0.00     0.023 A 
ATOM     50  C   UNL A   1      42.227  23.867  27.034  1.00  0.00     0.031 A 
ATOM     51  C   UNL A   1      43.507  25.667  26.098  1.00  0.00     0.131 A 
ATOM     52  C   UNL A   1      42.728  23.023  26.026  1.00  0.00     0.055 A 
ATOM     53  C   UNL A   1      43.956  24.844  25.061  1.00  0.00     0.041 A 
ATOM     54  F   UNL A   1      43.954  26.929  26.121  1.00  0.00    -0.206 F 
ATOM     55  C   UNL A   1      43.583  23.504  25.033  1.00  0.00     0.022 A 
BRANCH  52  56
ATOM     56  S   UNL A   1      42.366  21.244  26.113  1.00  0.00     0.124 S 
ATOM     57  O   UNL A   1      41.044  21.182  25.501  1.00  0.00    -0.237 OA
ATOM     58  O   UNL A   1      43.462  20.677  25.338  1.00  0.00    -0.237 OA
ATOM     59  O   UNL A   1      42.403  20.960  27.546  1.00  0.00    -0.744 OA
ENDBRANCH  52  56
ENDBRANCH  25  49
BRANCH  37  60
ATOM     60  C   UNL A   1      45.816  26.146  33.246  1.00  0.00     0.023 A 
ATOM     61  C   UNL A   1      45.707  24.944  33.961  1.00  0.00     0.031 A 
ATOM     62  C   UNL A   1      47.094  26.704  33.064  1.00  0.00     0.131 A 
ATOM     63  C   UNL A   1      46.857  24.347  34.492  1.00  0.00     0.055 A 
ATOM     64  C   UNL A   1      48.241  26.075  33.545  1.00  0.00     0.041 A 
ATOM     65  F   UNL A   1      47.247  27.852  32.385  1.00  0.00    -0.206 F 
ATOM     66  C   UNL A   1      48.124  24.892  34.270  1.00  0.00     0.022 A 
BRANCH  63  67
ATOM     67  S   UNL A   1      46.668  22.867  35.519  1.00  0.00     0.124 S 
ATOM     68  O   UNL A   1      45.716  22.079  34.743  1.00  0.00    -0.237 OA
ATOM     69  O   UNL A   1      48.030  22.345  35.575  1.00  0.00    -0.237 OA
ATOM     70  O   UNL A   1      46.155  23.392  36.784  1.00  0.00    -0.744 OA
ENDBRANCH  63  67
ENDBRANCH  37  60
ENDBRANCH  11  12
ENDBRANCH   4   6
ENDBRANCH   3   4
ENDBRANCH   2   3
ENDBRANCH   1   2
BRANCH   1  71
ATOM     71  O   UNL A   1      31.482  28.870  25.029  1.00  0.00    -0.462 OA
BRANCH  71  72
ATOM     72  C   UNL A   1      32.305  28.363  24.064  1.00  0.00     0.311 C 
ATOM     73  O   UNL A   1      33.189  29.020  23.539  1.00  0.00    -0.252 OA
BRANCH  72  74
ATOM     74  C   UNL A   1      31.913  26.970  23.564  1.00  0.00     0.130 C 
ATOM     75  C   UNL A   1      30.477  26.742  23.193  1.00  0.00     0.028 C 
ATOM     76  C   UNL A   1      32.400  25.816  24.435  1.00  0.00     0.166 C 
ATOM     77  C   UNL A   1      29.542  26.230  24.258  1.00  0.00     0.101 C 
ATOM     78  N   UNL A   1      31.520  25.474  25.558  1.00  0.00    -0.332 N 
ATOM     79  C   UNL A   1      30.156  25.720  25.533  1.00  0.00     0.223 C 
ATOM     80  O   UNL A   1      29.427  25.505  26.504  1.00  0.00    -0.275 OA
BRANCH  76  81
ATOM     81  C   UNL A   1      32.668  24.606  23.588  1.00  0.00     0.127 A 
ATOM     82  C   UNL A   1      31.890  23.511  23.267  1.00  0.00     0.048 A 
ATOM     83  O   UNL A   1      33.903  24.480  23.019  1.00  0.00    -0.467 OA
ATOM     84  C   UNL A   1      32.693  22.677  22.458  1.00  0.00     0.042 A 
ATOM     85  C   UNL A   1      33.905  23.310  22.333  1.00  0.00     0.195 A 
ENDBRANCH  76  81
BRANCH  78  86
ATOM     86  C   UNL A   1      32.005  24.730  26.732  1.00  0.00     0.122 C 
BRANCH  86  87
ATOM     87  C   UNL A   1      31.696  23.248  26.956  1.00  0.00     0.050 C 
BRANCH  87  88
ATOM     88  C   UNL A   1      32.782  22.168  27.025  1.00  0.00     0.162 C 
BRANCH  88  89
ATOM     89  O   UNL A   1      33.546  21.977  25.837  1.00  0.00    -0.378 OA
BRANCH  89  90
ATOM     90  C   UNL A   1      34.973  22.066  25.979  1.00  0.00     0.118 C 
ATOM     91  C   UNL A   1      35.611  21.269  24.843  1.00  0.00     0.032 C 
ATOM     92  C   UNL A   1      35.391  23.540  25.947  1.00  0.00     0.032 C 
ATOM     93  C   UNL A   1      37.066  21.550  24.536  1.00  0.00     0.003 C 
ATOM     94  C   UNL A   1      36.900  23.711  25.779  1.00  0.00     0.003 C 
ATOM     95  C   UNL A   1      37.385  23.029  24.507  1.00  0.00     0.000 C 
ENDBRANCH  89  90
ENDBRANCH  88  89
ENDBRANCH  87  88
ENDBRANCH  86  87
ENDBRANCH  78  86
ENDBRANCH  72  74
ENDBRANCH  71  72
ENDBRANCH   1  71
TORSDOF 20
ENDMDL
MODEL 3
REMARK VINA RESULT:     -11.4      1.903      3.896
REMARK SMILES O=C(OCCOC(=O)[C@@H]1CCC(=O)N(CCCOC2CCCCC2)[C@H]1c1ccco1)c1ccc(-c2c3nc(c(-c4cc(S(=O)(=O)[O-])ccc4F)c4ccc([nH]4)c(-c4cc(S(=O)(=O)[O-])ccc4F)c4nc(c(-c5cc(S(=O)(=O)[O-])ccc5F)c5ccc2[nH]5)C=C4)C=C3)cc1
REMARK SMILES IDX 5 1 4 2 3 3 2 4 1 5 31 6 32 7 93 8 33 9 92 10 34 11 35 12
REMARK SMILES IDX 36 13 86 14 37 15 91 16 85 17 87 18 38 19 90 20 84 21 83 22
REMARK SMILES IDX 39 24 71 25 51 26 70 27 52 28 55 29 69 30 88 31 53 32 54 33
REMARK SMILES IDX 68 35 89 36 56 37 40 38 41 39 49 40 42 41 48 42 50 43 47 44
REMARK SMILES IDX 43 45 44 46 45 47 46 48 72 49 73 50 81 51 74 52 80 53 82 54
REMARK SMILES IDX 79 55 75 56 76 57 77 58 78 59 57 60 58 61 66 62 59 63 65 64
REMARK SMILES IDX 67 65 64 66 60 67 61 68 62 69 63 70 6 71 7 72 8 73 9 74
REMARK SMILES IDX 10 75 25 76 11 77 14 78 12 79 13 80 26 81 27 82 30 83 28 84
REMARK SMILES IDX 29 85 15 86 16 87 17 88 18 89 19 90 20 91 24 92 21 93 23 94
REMARK SMILES IDX 22 95
REMARK H PARENT 87 23 55 34
REMARK Flexibility Score: inf
ROOT
ATOM      1  C   UNL A   1      36.451  21.768  25.720  1.00  0.00     0.274 C 
ENDROOT
BRANCH   1   2
ATOM      2  C   UNL A   1      37.621  20.837  25.380  1.00  0.00     0.275 C 
BRANCH   2   3
ATOM      3  O   UNL A   1      38.923  21.439  25.385  1.00  0.00    -0.458 OA
BRANCH   3   4
ATOM      4  C   UNL A   1      39.778  21.646  26.415  1.00  0.00     0.338 C 
ATOM      5  O   UNL A   1      40.289  20.661  26.947  1.00  0.00    -0.246 OA
BRANCH   4   6
ATOM      6  C   UNL A   1      40.048  22.994  27.016  1.00  0.00     0.060 A 
ATOM      7  C   UNL A   1      40.853  23.260  28.130  1.00  0.00     0.016 A 
ATOM      8  C   UNL A   1      39.516  24.094  26.322  1.00  0.00     0.016 A 
ATOM      9  C   UNL A   1      41.264  24.565  28.440  1.00  0.00     0.010 A 
ATOM     10  C   UNL A   1      39.953  25.395  26.606  1.00  0.00     0.010 A 
ATOM     11  C   UNL A   1      40.854  25.644  27.657  1.00  0.00    -0.014 A 
BRANCH  11  12
ATOM     12  C   UNL A   1      41.171  27.045  28.054  1.00  0.00     0.031 A 
ATOM     13  C   UNL A   1      42.580  27.508  27.791  1.00  0.00     0.074 A 
ATOM     14  C   UNL A   1      40.272  27.877  28.625  1.00  0.00     0.049 A 
ATOM     15  N   UNL A   1      43.177  28.611  28.148  1.00  0.00    -0.248 NA
ATOM     16  C   UNL A   1      43.446  26.565  27.061  1.00  0.00     0.031 C 
ATOM     17  C   UNL A   1      38.870  27.564  28.910  1.00  0.00     0.029 A 
ATOM     18  N   UNL A   1      40.402  29.173  29.075  1.00  0.00    -0.354 N 
ATOM     19  C   UNL A   1      44.493  28.463  27.725  1.00  0.00     0.074 A 
ATOM     20  C   UNL A   1      44.631  27.129  27.197  1.00  0.00     0.031 C 
ATOM     21  C   UNL A   1      38.279  28.626  29.491  1.00  0.00     0.029 A 
ATOM     22  C   UNL A   1      39.254  29.702  29.633  1.00  0.00     0.049 A 
ATOM     23  H   UNL A   1      41.243  29.680  29.004  1.00  0.00     0.167 HD
ATOM     24  C   UNL A   1      45.485  29.382  27.705  1.00  0.00     0.034 A 
ATOM     25  C   UNL A   1      39.028  30.915  30.186  1.00  0.00     0.034 A 
ATOM     26  C   UNL A   1      45.305  30.735  28.142  1.00  0.00     0.049 A 
ATOM     27  C   UNL A   1      40.171  31.913  30.201  1.00  0.00     0.074 A 
ATOM     28  C   UNL A   1      46.205  31.781  28.099  1.00  0.00     0.029 A 
ATOM     29  N   UNL A   1      44.132  31.228  28.696  1.00  0.00    -0.354 N 
ATOM     30  N   UNL A   1      41.388  31.778  29.723  1.00  0.00    -0.248 NA
ATOM     31  C   UNL A   1      39.911  33.224  30.813  1.00  0.00     0.031 C 
ATOM     32  C   UNL A   1      45.592  32.895  28.678  1.00  0.00     0.029 A 
ATOM     33  C   UNL A   1      44.293  32.558  29.029  1.00  0.00     0.049 A 
ATOM     34  H   UNL A   1      43.307  30.705  28.830  1.00  0.00     0.167 HD
ATOM     35  C   UNL A   1      42.018  33.002  29.935  1.00  0.00     0.074 A 
ATOM     36  C   UNL A   1      41.046  33.864  30.573  1.00  0.00     0.031 C 
ATOM     37  C   UNL A   1      43.283  33.388  29.636  1.00  0.00     0.034 A 
BRANCH  24  38
ATOM     38  C   UNL A   1      46.824  28.925  27.191  1.00  0.00     0.023 A 
ATOM     39  C   UNL A   1      47.034  28.666  25.825  1.00  0.00     0.031 A 
ATOM     40  C   UNL A   1      47.864  28.635  28.088  1.00  0.00     0.131 A 
ATOM     41  C   UNL A   1      48.209  28.025  25.410  1.00  0.00     0.055 A 
ATOM     42  C   UNL A   1      49.072  28.086  27.655  1.00  0.00     0.041 A 
ATOM     43  F   UNL A   1      47.707  28.840  29.405  1.00  0.00    -0.206 F 
ATOM     44  C   UNL A   1      49.241  27.756  26.312  1.00  0.00     0.022 A 
BRANCH  41  45
ATOM     45  S   UNL A   1      48.287  27.385  23.714  1.00  0.00     0.124 S 
ATOM     46  O   UNL A   1      48.419  25.949  23.951  1.00  0.00    -0.237 OA
ATOM     47  O   UNL A   1      47.015  27.822  23.150  1.00  0.00    -0.237 OA
ATOM     48  O   UNL A   1      49.472  28.033  23.159  1.00  0.00    -0.744 OA
ENDBRANCH  41  45
ENDBRANCH  24  38
BRANCH  25  49
ATOM     49  C   UNL A   1      37.713  31.285  30.810  1.00  0.00     0.023 A 
ATOM     50  C   UNL A   1      36.729  31.999  30.101  1.00  0.00     0.031 A 
ATOM     51  C   UNL A   1      37.479  31.058  32.177  1.00  0.00     0.131 A 
ATOM     52  C   UNL A   1      35.609  32.522  30.775  1.00  0.00     0.055 A 
ATOM     53  C   UNL A   1      36.336  31.525  32.833  1.00  0.00     0.041 A 
ATOM     54  F   UNL A   1      38.385  30.398  32.911  1.00  0.00    -0.206 F 
ATOM     55  C   UNL A   1      35.401  32.282  32.134  1.00  0.00     0.022 A 
BRANCH  52  56
ATOM     56  S   UNL A   1      34.499  33.649  29.882  1.00  0.00     0.124 S 
ATOM     57  O   UNL A   1      33.809  34.315  30.980  1.00  0.00    -0.237 OA
ATOM     58  O   UNL A   1      35.443  34.463  29.126  1.00  0.00    -0.237 OA
ATOM     59  O   UNL A   1      33.673  32.748  29.081  1.00  0.00    -0.744 OA
ENDBRANCH  52  56
ENDBRANCH  25  49
BRANCH  37  60
ATOM     60  C   UNL A   1      43.665  34.809  29.947  1.00  0.00     0.023 A 
ATOM     61  C   UNL A   1      43.400  35.851  29.046  1.00  0.00     0.031 A 
ATOM     62  C   UNL A   1      44.244  35.128  31.189  1.00  0.00     0.131 A 
ATOM     63  C   UNL A   1      43.738  37.167  29.389  1.00  0.00     0.055 A 
ATOM     64  C   UNL A   1      44.524  36.445  31.548  1.00  0.00     0.041 A 
ATOM     65  F   UNL A   1      44.513  34.164  32.084  1.00  0.00    -0.206 F 
ATOM     66  C   UNL A   1      44.276  37.472  30.642  1.00  0.00     0.022 A 
BRANCH  63  67
ATOM     67  S   UNL A   1      43.503  38.470  28.153  1.00  0.00     0.124 S 
ATOM     68  O   UNL A   1      44.442  39.490  28.606  1.00  0.00    -0.237 OA
ATOM     69  O   UNL A   1      43.852  37.790  26.909  1.00  0.00    -0.237 OA
ATOM     70  O   UNL A   1      42.090  38.821  28.291  1.00  0.00    -0.744 OA
ENDBRANCH  63  67
ENDBRANCH  37  60
ENDBRANCH  11  12
ENDBRANCH   4   6
ENDBRANCH   3   4
ENDBRANCH   2   3
ENDBRANCH   1   2
BRANCH   1  71
ATOM     71  O   UNL A   1      36.450  23.015  24.999  1.00  0.00    -0.462 OA
BRANCH  71  72
ATOM     72  C   UNL A   1      35.754  22.992  23.823  1.00  0.00     0.311 C 
ATOM     73  O   UNL A   1      36.301  22.958  22.734  1.00  0.00    -0.252 OA
BRANCH  72  74
ATOM     74  C   UNL A   1      34.244  23.198  23.976  1.00  0.00     0.130 C 
ATOM     75  C   UNL A   1      33.338  22.373  23.110  1.00  0.00     0.028 C 
ATOM     76  C   UNL A   1      33.790  24.654  23.942  1.00  0.00     0.166 C 
ATOM     77  C   UNL A   1      32.918  22.942  21.779  1.00  0.00     0.101 C 
ATOM     78  N   UNL A   1      33.556  25.199  22.600  1.00  0.00    -0.332 N 
ATOM     79  C   UNL A   1      33.201  24.397  21.525  1.00  0.00     0.223 C 
ATOM     80  O   UNL A   1      33.080  24.840  20.381  1.00  0.00    -0.275 OA
BRANCH  76  81
ATOM     81  C   UNL A   1      32.575  24.837  24.804  1.00  0.00     0.127 A 
ATOM     82  C   UNL A   1      31.346  25.417  24.558  1.00  0.00     0.048 A 
ATOM     83  O   UNL A   1      32.631  24.399  26.096  1.00  0.00    -0.467 OA
ATOM     84  C   UNL A   1      30.616  25.324  25.764  1.00  0.00     0.042 A 
ATOM     85  C   UNL A   1      31.436  24.696  26.666  1.00  0.00     0.195 A 
ENDBRANCH  76  81
BRANCH  78  86
ATOM     86  C   UNL A   1      33.555  26.646  22.333  1.00  0.00     0.122 C 
BRANCH  86  87
ATOM     87  C   UNL A   1      32.269  27.474  22.275  1.00  0.00     0.050 C 
BRANCH  87  88
ATOM     88  C   UNL A   1      32.092  28.797  23.029  1.00  0.00     0.162 C 
BRANCH  88  89
ATOM     89  O   UNL A   1      33.271  29.342  23.617  1.00  0.00    -0.378 OA
BRANCH  89  90
ATOM     90  C   UNL A   1      33.246  29.517  25.043  1.00  0.00     0.118 C 
ATOM     91  C   UNL A   1      31.820  29.880  25.449  1.00  0.00     0.032 C 
ATOM     92  C   UNL A   1      33.720  28.224  25.716  1.00  0.00     0.032 C 
ATOM     93  C   UNL A   1      31.453  29.707  26.908  1.00  0.00     0.003 C 
ATOM     94  C   UNL A   1      33.432  28.214  27.217  1.00  0.00     0.003 C 
ATOM     95  C   UNL A   1      31.944  28.398  27.485  1.00  0.00     0.000 C 
ENDBRANCH  89  90
ENDBRANCH  88  89
ENDBRANCH  87  88
ENDBRANCH  86  87
ENDBRANCH  78  86
ENDBRANCH  72  74
ENDBRANCH  71  72
ENDBRANCH   1  71
TORSDOF 20
ENDMDL
