MODEL 1
REMARK VINA RESULT:     -11.0      0.000      0.000
REMARK SMILES C[C@@](O)(c1ccc(Cl)cc1Cl)[C@@H](F)C(=O)OCCOC(=O)c1ccc(-c2c3nc(c(-c4cc(S(=O)(=O)[O-])ccc4F)c4ccc([nH]4)c(-c4cc(S(=O)(=O)[O-])ccc4F)c4nc(c(-c5cc(S(=O)(=O)[O-])ccc5F)c5ccc2[nH]5)C=C4)C=C3)cc1
REMARK SMILES IDX 18 1 17 2 16 3 14 4 15 5 12 6 13 7 2 8 1 9 3 10 4 12 5 13
REMARK SMILES IDX 10 14 6 15 9 16 11 17 7 18 8 19 19 20 20 21 21 22 22 23
REMARK SMILES IDX 23 24 84 25 24 26 83 27 25 28 26 29 27 30 77 31 28 32 82 33
REMARK SMILES IDX 76 34 78 35 29 36 81 37 75 38 74 39 30 41 62 42 42 43 61 44
REMARK SMILES IDX 43 45 46 46 60 47 79 48 44 49 45 50 59 52 80 53 47 54 31 55
REMARK SMILES IDX 32 56 40 57 33 58 39 59 41 60 38 61 34 62 35 63 36 64 37 65
REMARK SMILES IDX 63 66 64 67 72 68 65 69 71 70 73 71 70 72 66 73 67 74 68 75
REMARK SMILES IDX 69 76 48 77 49 78 57 79 50 80 56 81 58 82 55 83 51 84 52 85
REMARK SMILES IDX 53 86 54 87
REMARK H PARENT 3 11 78 40 46 51
REMARK Flexibility Score: inf
ROOT
ATOM      1  C   UNL A   1      31.526  30.430  25.729  1.00  0.00     0.275 C 
ENDROOT
BRANCH   1   2
ATOM      2  C   UNL A   1      31.237  29.282  24.757  1.00  0.00     0.274 C 
BRANCH   2   3
ATOM      3  O   UNL A   1      31.926  28.066  25.117  1.00  0.00    -0.460 OA
BRANCH   3   4
ATOM      4  C   UNL A   1      31.163  27.082  25.664  1.00  0.00     0.344 C 
ATOM      5  O   UNL A   1      31.025  26.927  26.875  1.00  0.00    -0.249 OA
BRANCH   4   6
ATOM      6  C   UNL A   1      30.589  26.104  24.645  1.00  0.00     0.311 C 
ATOM      7  F   UNL A   1      29.223  26.203  24.606  1.00  0.00    -0.231 F 
BRANCH   6   8
ATOM      8  C   UNL A   1      31.000  24.605  24.772  1.00  0.00     0.130 C 
ATOM      9  C   UNL A   1      30.652  23.854  23.473  1.00  0.00     0.051 C 
BRANCH   8  10
ATOM     10  O   UNL A   1      30.312  24.069  25.900  1.00  0.00    -0.382 OA
ATOM     11  H   UNL A   1      30.411  23.104  25.911  1.00  0.00     0.212 HD
ENDBRANCH   8  10
BRANCH   8  12
ATOM     12  C   UNL A   1      32.495  24.390  25.123  1.00  0.00     0.006 A 
ATOM     13  C   UNL A   1      32.876  23.706  26.299  1.00  0.00     0.010 A 
ATOM     14  C   UNL A   1      33.549  24.810  24.268  1.00  0.00     0.048 A 
ATOM     15  C   UNL A   1      34.217  23.440  26.599  1.00  0.00     0.021 A 
ATOM     16  C   UNL A   1      34.893  24.557  24.582  1.00  0.00     0.041 A 
ATOM     17  Cl  UNL A   1      33.299  25.659  22.774  1.00  0.00    -0.084 Cl
ATOM     18  C   UNL A   1      35.219  23.871  25.742  1.00  0.00     0.042 A 
ATOM     19  Cl  UNL A   1      36.867  23.563  26.125  1.00  0.00    -0.084 Cl
ENDBRANCH   8  12
ENDBRANCH   6   8
ENDBRANCH   4   6
ENDBRANCH   3   4
ENDBRANCH   2   3
ENDBRANCH   1   2
BRANCH   1  20
ATOM     20  O   UNL A   1      32.908  30.463  26.123  1.00  0.00    -0.458 OA
BRANCH  20  21
ATOM     21  C   UNL A   1      33.228  31.466  26.978  1.00  0.00     0.338 C 
ATOM     22  O   UNL A   1      32.529  32.428  27.253  1.00  0.00    -0.246 OA
BRANCH  21  23
ATOM     23  C   UNL A   1      34.508  31.158  27.642  1.00  0.00     0.060 A 
ATOM     24  C   UNL A   1      34.777  29.835  28.000  1.00  0.00     0.016 A 
ATOM     25  C   UNL A   1      35.405  32.173  27.975  1.00  0.00     0.016 A 
ATOM     26  C   UNL A   1      35.933  29.519  28.709  1.00  0.00     0.010 A 
ATOM     27  C   UNL A   1      36.575  31.853  28.674  1.00  0.00     0.010 A 
ATOM     28  C   UNL A   1      36.840  30.525  29.057  1.00  0.00    -0.014 A 
BRANCH  28  29
ATOM     29  C   UNL A   1      38.043  30.188  29.858  1.00  0.00     0.031 A 
ATOM     30  C   UNL A   1      39.060  29.229  29.310  1.00  0.00     0.074 A 
ATOM     31  C   UNL A   1      38.225  30.754  31.067  1.00  0.00     0.049 A 
ATOM     32  N   UNL A   1      40.122  28.727  29.887  1.00  0.00    -0.248 NA
ATOM     33  C   UNL A   1      38.849  28.770  27.930  1.00  0.00     0.031 C 
ATOM     34  C   UNL A   1      37.332  31.736  31.680  1.00  0.00     0.029 A 
ATOM     35  N   UNL A   1      39.220  30.579  31.995  1.00  0.00    -0.354 N 
ATOM     36  C   UNL A   1      40.698  27.878  28.949  1.00  0.00     0.074 A 
ATOM     37  C   UNL A   1      39.851  27.916  27.775  1.00  0.00     0.031 C 
ATOM     38  C   UNL A   1      37.814  32.072  32.888  1.00  0.00     0.029 A 
ATOM     39  C   UNL A   1      39.020  31.293  33.155  1.00  0.00     0.049 A 
ATOM     40  H   UNL A   1      40.001  29.999  31.847  1.00  0.00     0.167 HD
ATOM     41  C   UNL A   1      41.828  27.135  29.061  1.00  0.00     0.034 A 
ATOM     42  C   UNL A   1      39.708  31.289  34.313  1.00  0.00     0.034 A 
ATOM     43  C   UNL A   1      42.664  27.112  30.239  1.00  0.00     0.049 A 
ATOM     44  C   UNL A   1      40.925  30.407  34.438  1.00  0.00     0.074 A 
ATOM     45  C   UNL A   1      43.835  26.408  30.453  1.00  0.00     0.029 A 
ATOM     46  N   UNL A   1      42.412  27.824  31.407  1.00  0.00    -0.354 N 
ATOM     47  N   UNL A   1      41.447  29.590  33.552  1.00  0.00    -0.248 NA
ATOM     48  C   UNL A   1      41.644  30.450  35.717  1.00  0.00     0.031 C 
ATOM     49  C   UNL A   1      44.258  26.642  31.766  1.00  0.00     0.029 A 
ATOM     50  C   UNL A   1      43.390  27.549  32.352  1.00  0.00     0.049 A 
ATOM     51  H   UNL A   1      41.651  28.432  31.544  1.00  0.00     0.167 HD
ATOM     52  C   UNL A   1      42.570  29.038  34.162  1.00  0.00     0.074 A 
ATOM     53  C   UNL A   1      42.657  29.627  35.483  1.00  0.00     0.031 C 
ATOM     54  C   UNL A   1      43.453  28.130  33.673  1.00  0.00     0.034 A 
BRANCH  41  55
ATOM     55  C   UNL A   1      42.188  26.243  27.898  1.00  0.00     0.023 A 
ATOM     56  C   UNL A   1      41.690  24.934  27.780  1.00  0.00     0.031 A 
ATOM     57  C   UNL A   1      43.069  26.705  26.903  1.00  0.00     0.131 A 
ATOM     58  C   UNL A   1      42.126  24.111  26.729  1.00  0.00     0.055 A 
ATOM     59  C   UNL A   1      43.442  25.906  25.820  1.00  0.00     0.041 A 
ATOM     60  F   UNL A   1      43.593  27.939  26.974  1.00  0.00    -0.206 F 
ATOM     61  C   UNL A   1      42.981  24.596  25.736  1.00  0.00     0.022 A 
BRANCH  58  62
ATOM     62  S   UNL A   1      41.666  22.357  26.749  1.00  0.00     0.124 S 
ATOM     63  O   UNL A   1      40.259  22.424  27.135  1.00  0.00    -0.237 OA
ATOM     64  O   UNL A   1      41.935  21.945  25.376  1.00  0.00    -0.237 OA
ATOM     65  O   UNL A   1      42.554  21.781  27.758  1.00  0.00    -0.744 OA
ENDBRANCH  58  62
ENDBRANCH  41  55
BRANCH  42  66
ATOM     66  C   UNL A   1      39.237  32.102  35.471  1.00  0.00     0.023 A 
ATOM     67  C   UNL A   1      39.680  33.418  35.667  1.00  0.00     0.031 A 
ATOM     68  C   UNL A   1      38.361  31.550  36.423  1.00  0.00     0.131 A 
ATOM     69  C   UNL A   1      39.278  34.126  36.810  1.00  0.00     0.055 A 
ATOM     70  C   UNL A   1      37.925  32.275  37.532  1.00  0.00     0.041 A 
ATOM     71  F   UNL A   1      37.907  30.293  36.281  1.00  0.00    -0.206 F 
ATOM     72  C   UNL A   1      38.394  33.568  37.737  1.00  0.00     0.022 A 
BRANCH  69  73
ATOM     73  S   UNL A   1      39.988  35.768  37.110  1.00  0.00     0.124 S 
ATOM     74  O   UNL A   1      41.398  35.452  37.307  1.00  0.00    -0.237 OA
ATOM     75  O   UNL A   1      39.654  36.473  35.877  1.00  0.00    -0.237 OA
ATOM     76  O   UNL A   1      39.280  36.233  38.302  1.00  0.00    -0.744 OA
ENDBRANCH  69  73
ENDBRANCH  42  66
BRANCH  54  77
ATOM     77  C   UNL A   1      44.610  27.756  34.567  1.00  0.00     0.023 A 
ATOM     78  C   UNL A   1      44.546  26.655  35.439  1.00  0.00     0.031 A 
ATOM     79  C   UNL A   1      45.786  28.527  34.558  1.00  0.00     0.131 A 
ATOM     80  C   UNL A   1      45.617  26.387  36.304  1.00  0.00     0.055 A 
ATOM     81  C   UNL A   1      46.870  28.222  35.382  1.00  0.00     0.041 A 
ATOM     82  F   UNL A   1      45.900  29.590  33.746  1.00  0.00    -0.206 F 
ATOM     83  C   UNL A   1      46.784  27.154  36.271  1.00  0.00     0.022 A 
BRANCH  80  84
ATOM     84  S   UNL A   1      45.433  25.071  37.539  1.00  0.00     0.124 S 
ATOM     85  O   UNL A   1      46.804  24.904  38.012  1.00  0.00    -0.237 OA
ATOM     86  O   UNL A   1      44.498  25.662  38.491  1.00  0.00    -0.237 OA
ATOM     87  O   UNL A   1      44.902  23.947  36.768  1.00  0.00    -0.744 OA
ENDBRANCH  80  84
ENDBRANCH  54  77
ENDBRANCH  28  29
ENDBRANCH  21  23
ENDBRANCH  20  21
ENDBRANCH   1  20
TORSDOF 17
ENDMDL
MODEL 2
REMARK VINA RESULT:     -10.9      4.455     10.025
REMARK SMILES C[C@@](O)(c1ccc(Cl)cc1Cl)[C@@H](F)C(=O)OCCOC(=O)c1ccc(-c2c3nc(c(-c4cc(S(=O)(=O)[O-])ccc4F)c4ccc([nH]4)c(-c4cc(S(=O)(=O)[O-])ccc4F)c4nc(c(-c5cc(S(=O)(=O)[O-])ccc5F)c5ccc2[nH]5)C=C4)C=C3)cc1
REMARK SMILES IDX 18 1 17 2 16 3 14 4 15 5 12 6 13 7 2 8 1 9 3 10 4 12 5 13
REMARK SMILES IDX 10 14 6 15 9 16 11 17 7 18 8 19 19 20 20 21 21 22 22 23
REMARK SMILES IDX 23 24 84 25 24 26 83 27 25 28 26 29 27 30 77 31 28 32 82 33
REMARK SMILES IDX 76 34 78 35 29 36 81 37 75 38 74 39 30 41 62 42 42 43 61 44
REMARK SMILES IDX 43 45 46 46 60 47 79 48 44 49 45 50 59 52 80 53 47 54 31 55
REMARK SMILES IDX 32 56 40 57 33 58 39 59 41 60 38 61 34 62 35 63 36 64 37 65
REMARK SMILES IDX 63 66 64 67 72 68 65 69 71 70 73 71 70 72 66 73 67 74 68 75
REMARK SMILES IDX 69 76 48 77 49 78 57 79 50 80 56 81 58 82 55 83 51 84 52 85
REMARK SMILES IDX 53 86 54 87
REMARK H PARENT 3 11 78 40 46 51
REMARK Flexibility Score: inf
ROOT
ATOM      1  C   UNL A   1      33.654  33.424  28.088  1.00  0.00     0.275 C 
ENDROOT
BRANCH   1   2
ATOM      2  C   UNL A   1      34.098  34.885  28.200  1.00  0.00     0.274 C 
BRANCH   2   3
ATOM      3  O   UNL A   1      34.628  35.204  29.503  1.00  0.00    -0.460 OA
BRANCH   3   4
ATOM      4  C   UNL A   1      34.121  34.497  30.548  1.00  0.00     0.344 C 
ATOM      5  O   UNL A   1      33.054  34.765  31.093  1.00  0.00    -0.249 OA
BRANCH   4   6
ATOM      6  C   UNL A   1      35.055  33.411  31.071  1.00  0.00     0.311 C 
ATOM      7  F   UNL A   1      34.331  32.362  31.576  1.00  0.00    -0.231 F 
BRANCH   6   8
ATOM      8  C   UNL A   1      36.148  33.833  32.101  1.00  0.00     0.130 C 
ATOM      9  C   UNL A   1      36.090  32.912  33.333  1.00  0.00     0.051 C 
BRANCH   8  10
ATOM     10  O   UNL A   1      35.909  35.197  32.440  1.00  0.00    -0.382 OA
ATOM     11  H   UNL A   1      35.596  35.676  31.656  1.00  0.00     0.212 HD
ENDBRANCH   8  10
BRANCH   8  12
ATOM     12  C   UNL A   1      37.585  33.850  31.520  1.00  0.00     0.006 A 
ATOM     13  C   UNL A   1      37.831  33.504  30.173  1.00  0.00     0.010 A 
ATOM     14  C   UNL A   1      38.712  34.263  32.281  1.00  0.00     0.048 A 
ATOM     15  C   UNL A   1      39.110  33.580  29.611  1.00  0.00     0.021 A 
ATOM     16  C   UNL A   1      39.996  34.321  31.717  1.00  0.00     0.041 A 
ATOM     17  Cl  UNL A   1      38.629  34.736  33.949  1.00  0.00    -0.084 Cl
ATOM     18  C   UNL A   1      40.187  33.984  30.386  1.00  0.00     0.042 A 
ATOM     19  Cl  UNL A   1      41.762  34.054  29.698  1.00  0.00    -0.084 Cl
ENDBRANCH   8  12
ENDBRANCH   6   8
ENDBRANCH   4   6
ENDBRANCH   3   4
ENDBRANCH   2   3
ENDBRANCH   1   2
BRANCH   1  20
ATOM     20  O   UNL A   1      34.735  32.564  27.686  1.00  0.00    -0.458 OA
BRANCH  20  21
ATOM     21  C   UNL A   1      34.496  31.240  27.854  1.00  0.00     0.338 C 
ATOM     22  O   UNL A   1      33.454  30.658  27.600  1.00  0.00    -0.246 OA
BRANCH  21  23
ATOM     23  C   UNL A   1      35.739  30.564  28.268  1.00  0.00     0.060 A 
ATOM     24  C   UNL A   1      35.745  29.845  29.466  1.00  0.00     0.016 A 
ATOM     25  C   UNL A   1      36.910  30.696  27.521  1.00  0.00     0.016 A 
ATOM     26  C   UNL A   1      36.923  29.270  29.936  1.00  0.00     0.010 A 
ATOM     27  C   UNL A   1      38.091  30.104  27.987  1.00  0.00     0.010 A 
ATOM     28  C   UNL A   1      38.107  29.398  29.203  1.00  0.00    -0.014 A 
BRANCH  28  29
ATOM     29  C   UNL A   1      39.369  28.827  29.737  1.00  0.00     0.031 A 
ATOM     30  C   UNL A   1      39.992  29.416  30.970  1.00  0.00     0.074 A 
ATOM     31  C   UNL A   1      39.942  27.774  29.124  1.00  0.00     0.049 A 
ATOM     32  N   UNL A   1      41.136  29.132  31.537  1.00  0.00    -0.248 NA
ATOM     33  C   UNL A   1      39.225  30.470  31.650  1.00  0.00     0.031 C 
ATOM     34  C   UNL A   1      39.403  27.086  27.950  1.00  0.00     0.029 A 
ATOM     35  N   UNL A   1      41.106  27.103  29.399  1.00  0.00    -0.354 N 
ATOM     36  C   UNL A   1      41.239  29.984  32.631  1.00  0.00     0.074 A 
ATOM     37  C   UNL A   1      40.050  30.811  32.630  1.00  0.00     0.031 C 
ATOM     38  C   UNL A   1      40.239  26.096  27.601  1.00  0.00     0.029 A 
ATOM     39  C   UNL A   1      41.396  26.110  28.492  1.00  0.00     0.049 A 
ATOM     40  H   UNL A   1      41.680  27.311  30.172  1.00  0.00     0.167 HD
ATOM     41  C   UNL A   1      42.236  30.067  33.548  1.00  0.00     0.034 A 
ATOM     42  C   UNL A   1      42.486  25.328  28.370  1.00  0.00     0.034 A 
ATOM     43  C   UNL A   1      43.414  29.232  33.535  1.00  0.00     0.049 A 
ATOM     44  C   UNL A   1      43.611  25.481  29.363  1.00  0.00     0.074 A 
ATOM     45  C   UNL A   1      44.476  29.223  34.422  1.00  0.00     0.029 A 
ATOM     46  N   UNL A   1      43.689  28.258  32.582  1.00  0.00    -0.354 N 
ATOM     47  N   UNL A   1      43.708  26.306  30.380  1.00  0.00    -0.248 NA
ATOM     48  C   UNL A   1      44.770  24.597  29.191  1.00  0.00     0.031 C 
ATOM     49  C   UNL A   1      45.419  28.292  33.973  1.00  0.00     0.029 A 
ATOM     50  C   UNL A   1      44.916  27.667  32.843  1.00  0.00     0.049 A 
ATOM     51  H   UNL A   1      43.099  28.023  31.829  1.00  0.00     0.167 HD
ATOM     52  C   UNL A   1      44.930  26.024  30.982  1.00  0.00     0.074 A 
ATOM     53  C   UNL A   1      45.527  24.943  30.223  1.00  0.00     0.031 C 
ATOM     54  C   UNL A   1      45.507  26.601  32.067  1.00  0.00     0.034 A 
BRANCH  41  55
ATOM     55  C   UNL A   1      42.117  31.139  34.604  1.00  0.00     0.023 A 
ATOM     56  C   UNL A   1      42.501  32.470  34.362  1.00  0.00     0.031 A 
ATOM     57  C   UNL A   1      41.636  30.815  35.885  1.00  0.00     0.131 A 
ATOM     58  C   UNL A   1      42.459  33.410  35.403  1.00  0.00     0.055 A 
ATOM     59  C   UNL A   1      41.528  31.772  36.896  1.00  0.00     0.041 A 
ATOM     60  F   UNL A   1      41.275  29.556  36.181  1.00  0.00    -0.206 F 
ATOM     61  C   UNL A   1      41.953  33.076  36.662  1.00  0.00     0.022 A 
BRANCH  58  62
ATOM     62  S   UNL A   1      43.197  35.045  35.129  1.00  0.00     0.124 S 
ATOM     63  O   UNL A   1      42.234  35.655  34.216  1.00  0.00    -0.237 OA
ATOM     64  O   UNL A   1      43.241  35.600  36.477  1.00  0.00    -0.237 OA
ATOM     65  O   UNL A   1      44.498  34.739  34.538  1.00  0.00    -0.744 OA
ENDBRANCH  58  62
ENDBRANCH  41  55
BRANCH  42  66
ATOM     66  C   UNL A   1      42.600  24.367  27.235  1.00  0.00     0.023 A 
ATOM     67  C   UNL A   1      42.052  23.079  27.313  1.00  0.00     0.031 A 
ATOM     68  C   UNL A   1      43.301  24.720  26.067  1.00  0.00     0.131 A 
ATOM     69  C   UNL A   1      42.248  22.174  26.257  1.00  0.00     0.055 A 
ATOM     70  C   UNL A   1      43.450  23.833  25.001  1.00  0.00     0.041 A 
ATOM     71  F   UNL A   1      43.845  25.942  25.944  1.00  0.00    -0.206 F 
ATOM     72  C   UNL A   1      42.931  22.547  25.097  1.00  0.00     0.022 A 
BRANCH  69  73
ATOM     73  S   UNL A   1      41.657  20.470  26.453  1.00  0.00     0.124 S 
ATOM     74  O   UNL A   1      42.402  19.774  25.410  1.00  0.00    -0.237 OA
ATOM     75  O   UNL A   1      42.045  20.170  27.828  1.00  0.00    -0.237 OA
ATOM     76  O   UNL A   1      40.217  20.580  26.224  1.00  0.00    -0.744 OA
ENDBRANCH  69  73
ENDBRANCH  42  66
BRANCH  54  77
ATOM     77  C   UNL A   1      46.834  26.040  32.513  1.00  0.00     0.023 A 
ATOM     78  C   UNL A   1      48.044  26.430  31.913  1.00  0.00     0.031 A 
ATOM     79  C   UNL A   1      46.884  25.082  33.542  1.00  0.00     0.131 A 
ATOM     80  C   UNL A   1      49.247  25.828  32.310  1.00  0.00     0.055 A 
ATOM     81  C   UNL A   1      48.091  24.527  33.971  1.00  0.00     0.041 A 
ATOM     82  F   UNL A   1      45.759  24.672  34.149  1.00  0.00    -0.206 F 
ATOM     83  C   UNL A   1      49.280  24.890  33.345  1.00  0.00     0.022 A 
BRANCH  80  84
ATOM     84  S   UNL A   1      50.764  26.223  31.396  1.00  0.00     0.124 S 
ATOM     85  O   UNL A   1      50.356  25.989  30.015  1.00  0.00    -0.237 OA
ATOM     86  O   UNL A   1      50.998  27.615  31.765  1.00  0.00    -0.237 OA
ATOM     87  O   UNL A   1      51.741  25.272  31.923  1.00  0.00    -0.744 OA
ENDBRANCH  80  84
ENDBRANCH  54  77
ENDBRANCH  28  29
ENDBRANCH  21  23
ENDBRANCH  20  21
ENDBRANCH   1  20
TORSDOF 17
ENDMDL
MODEL 3
REMARK VINA RESULT:     -10.8      1.959      2.947
REMARK SMILES C[C@@](O)(c1ccc(Cl)cc1Cl)[C@@H](F)C(=O)OCCOC(=O)c1ccc(-c2c3nc(c(-c4cc(S(=O)(=O)[O-])ccc4F)c4ccc([nH]4)c(-c4cc(S(=O)(=O)[O-])ccc4F)c4nc(c(-c5cc(S(=O)(=O)[O-])ccc5F)c5ccc2[nH]5)C=C4)C=C3)cc1
REMARK SMILES IDX 18 1 17 2 16 3 14 4 15 5 12 6 13 7 2 8 1 9 3 10 4 12 5 13
REMARK SMILES IDX 10 14 6 15 9 16 11 17 7 18 8 19 19 20 20 21 21 22 22 23
REMARK SMILES IDX 23 24 84 25 24 26 83 27 25 28 26 29 27 30 77 31 28 32 82 33
REMARK SMILES IDX 76 34 78 35 29 36 81 37 75 38 74 39 30 41 62 42 42 43 61 44
REMARK SMILES IDX 43 45 46 46 60 47 79 48 44 49 45 50 59 52 80 53 47 54 31 55
REMARK SMILES IDX 32 56 40 57 33 58 39 59 41 60 38 61 34 62 35 63 36 64 37 65
REMARK SMILES IDX 63 66 64 67 72 68 65 69 71 70 73 71 70 72 66 73 67 74 68 75
REMARK SMILES IDX 69 76 48 77 49 78 57 79 50 80 56 81 58 82 55 83 51 84 52 85
REMARK SMILES IDX 53 86 54 87
REMARK H PARENT 3 11 78 40 46 51
REMARK Flexibility Score: inf
ROOT
ATOM      1  C   UNL A   1      31.756  30.331  26.563  1.00  0.00     0.275 C 
ENDROOT
BRANCH   1   2
ATOM      2  C   UNL A   1      31.636  28.993  27.297  1.00  0.00     0.274 C 
BRANCH   2   3
ATOM      3  O   UNL A   1      32.617  28.030  26.858  1.00  0.00    -0.460 OA
BRANCH   3   4
ATOM      4  C   UNL A   1      32.133  26.852  26.383  1.00  0.00     0.344 C 
ATOM      5  O   UNL A   1      31.166  26.272  26.871  1.00  0.00    -0.249 OA
BRANCH   4   6
ATOM      6  C   UNL A   1      32.972  26.243  25.266  1.00  0.00     0.311 C 
ATOM      7  F   UNL A   1      34.285  26.153  25.649  1.00  0.00    -0.231 F 
BRANCH   6   8
ATOM      8  C   UNL A   1      32.884  26.904  23.855  1.00  0.00     0.130 C 
ATOM      9  C   UNL A   1      33.211  25.864  22.768  1.00  0.00     0.051 C 
BRANCH   8  10
ATOM     10  O   UNL A   1      33.798  27.999  23.841  1.00  0.00    -0.382 OA
ATOM     11  H   UNL A   1      34.572  27.767  23.304  1.00  0.00     0.212 HD
ENDBRANCH   8  10
BRANCH   8  12
ATOM     12  C   UNL A   1      31.517  27.570  23.556  1.00  0.00     0.006 A 
ATOM     13  C   UNL A   1      31.424  28.953  23.281  1.00  0.00     0.010 A 
ATOM     14  C   UNL A   1      30.305  26.831  23.487  1.00  0.00     0.048 A 
ATOM     15  C   UNL A   1      30.210  29.560  22.941  1.00  0.00     0.021 A 
ATOM     16  C   UNL A   1      29.088  27.447  23.162  1.00  0.00     0.041 A 
ATOM     17  Cl  UNL A   1      30.199  25.123  23.783  1.00  0.00    -0.084 Cl
ATOM     18  C   UNL A   1      29.047  28.806  22.887  1.00  0.00     0.042 A 
ATOM     19  Cl  UNL A   1      27.552  29.559  22.491  1.00  0.00    -0.084 Cl
ENDBRANCH   8  12
ENDBRANCH   6   8
ENDBRANCH   4   6
ENDBRANCH   3   4
ENDBRANCH   2   3
ENDBRANCH   1   2
BRANCH   1  20
ATOM     20  O   UNL A   1      33.127  30.734  26.403  1.00  0.00    -0.458 OA
BRANCH  20  21
ATOM     21  C   UNL A   1      33.531  31.711  27.251  1.00  0.00     0.338 C 
ATOM     22  O   UNL A   1      32.893  32.704  27.563  1.00  0.00    -0.246 OA
BRANCH  21  23
ATOM     23  C   UNL A   1      34.820  31.333  27.859  1.00  0.00     0.060 A 
ATOM     24  C   UNL A   1      34.971  30.040  28.364  1.00  0.00     0.016 A 
ATOM     25  C   UNL A   1      35.849  32.266  27.996  1.00  0.00     0.016 A 
ATOM     26  C   UNL A   1      36.140  29.674  29.027  1.00  0.00     0.010 A 
ATOM     27  C   UNL A   1      37.031  31.893  28.648  1.00  0.00     0.010 A 
ATOM     28  C   UNL A   1      37.179  30.599  29.179  1.00  0.00    -0.014 A 
BRANCH  28  29
ATOM     29  C   UNL A   1      38.400  30.218  29.931  1.00  0.00     0.031 A 
ATOM     30  C   UNL A   1      39.367  29.235  29.337  1.00  0.00     0.074 A 
ATOM     31  C   UNL A   1      38.644  30.765  31.137  1.00  0.00     0.049 A 
ATOM     32  N   UNL A   1      40.435  28.697  29.868  1.00  0.00    -0.248 NA
ATOM     33  C   UNL A   1      39.091  28.797  27.960  1.00  0.00     0.031 C 
ATOM     34  C   UNL A   1      37.803  31.767  31.793  1.00  0.00     0.029 A 
ATOM     35  N   UNL A   1      39.666  30.552  32.027  1.00  0.00    -0.354 N 
ATOM     36  C   UNL A   1      40.949  27.840  28.902  1.00  0.00     0.074 A 
ATOM     37  C   UNL A   1      40.061  27.916  27.760  1.00  0.00     0.031 C 
ATOM     38  C   UNL A   1      38.339  32.075  32.985  1.00  0.00     0.029 A 
ATOM     39  C   UNL A   1      39.531  31.258  33.199  1.00  0.00     0.049 A 
ATOM     40  H   UNL A   1      40.424  29.950  31.844  1.00  0.00     0.167 HD
ATOM     41  C   UNL A   1      42.061  27.064  28.964  1.00  0.00     0.034 A 
ATOM     42  C   UNL A   1      40.261  31.222  34.331  1.00  0.00     0.034 A 
ATOM     43  C   UNL A   1      42.938  27.004  30.110  1.00  0.00     0.049 A 
ATOM     44  C   UNL A   1      41.455  30.303  34.402  1.00  0.00     0.074 A 
ATOM     45  C   UNL A   1      44.095  26.263  30.274  1.00  0.00     0.029 A 
ATOM     46  N   UNL A   1      42.751  27.709  31.293  1.00  0.00    -0.354 N 
ATOM     47  N   UNL A   1      41.919  29.481  33.490  1.00  0.00    -0.248 NA
ATOM     48  C   UNL A   1      42.221  30.311  35.654  1.00  0.00     0.031 C 
ATOM     49  C   UNL A   1      44.573  26.471  31.572  1.00  0.00     0.029 A 
ATOM     50  C   UNL A   1      43.754  27.396  32.199  1.00  0.00     0.049 A 
ATOM     51  H   UNL A   1      42.014  28.339  31.464  1.00  0.00     0.167 HD
ATOM     52  C   UNL A   1      43.047  28.890  34.052  1.00  0.00     0.074 A 
ATOM     53  C   UNL A   1      43.200  29.461  35.375  1.00  0.00     0.031 C 
ATOM     54  C   UNL A   1      43.884  27.961  33.522  1.00  0.00     0.034 A 
BRANCH  41  55
ATOM     55  C   UNL A   1      42.350  26.174  27.780  1.00  0.00     0.023 A 
ATOM     56  C   UNL A   1      41.826  24.874  27.678  1.00  0.00     0.031 A 
ATOM     57  C   UNL A   1      43.190  26.629  26.747  1.00  0.00     0.131 A 
ATOM     58  C   UNL A   1      42.199  24.051  26.603  1.00  0.00     0.055 A 
ATOM     59  C   UNL A   1      43.499  25.831  25.643  1.00  0.00     0.041 A 
ATOM     60  F   UNL A   1      43.736  27.854  26.800  1.00  0.00    -0.206 F 
ATOM     61  C   UNL A   1      43.013  24.530  25.573  1.00  0.00     0.022 A 
BRANCH  58  62
ATOM     62  S   UNL A   1      41.712  22.304  26.634  1.00  0.00     0.124 S 
ATOM     63  O   UNL A   1      42.238  21.874  27.927  1.00  0.00    -0.237 OA
ATOM     64  O   UNL A   1      40.260  22.380  26.526  1.00  0.00    -0.237 OA
ATOM     65  O   UNL A   1      42.396  21.737  25.473  1.00  0.00    -0.744 OA
ENDBRANCH  58  62
ENDBRANCH  41  55
BRANCH  42  66
ATOM     66  C   UNL A   1      39.857  32.035  35.513  1.00  0.00     0.023 A 
ATOM     67  C   UNL A   1      38.963  31.535  36.472  1.00  0.00     0.031 A 
ATOM     68  C   UNL A   1      40.334  33.349  35.675  1.00  0.00     0.131 A 
ATOM     69  C   UNL A   1      38.543  32.357  37.529  1.00  0.00     0.055 A 
ATOM     70  C   UNL A   1      39.951  34.145  36.755  1.00  0.00     0.041 A 
ATOM     71  F   UNL A   1      41.191  33.875  34.785  1.00  0.00    -0.206 F 
ATOM     72  C   UNL A   1      39.040  33.653  37.684  1.00  0.00     0.022 A 
BRANCH  69  73
ATOM     73  S   UNL A   1      37.273  31.732  38.664  1.00  0.00     0.124 S 
ATOM     74  O   UNL A   1      37.024  30.398  38.128  1.00  0.00    -0.237 OA
ATOM     75  O   UNL A   1      37.962  31.788  39.950  1.00  0.00    -0.237 OA
ATOM     76  O   UNL A   1      36.176  32.684  38.505  1.00  0.00    -0.744 OA
ENDBRANCH  69  73
ENDBRANCH  42  66
BRANCH  54  77
ATOM     77  C   UNL A   1      45.061  27.543  34.368  1.00  0.00     0.023 A 
ATOM     78  C   UNL A   1      45.002  26.428  35.220  1.00  0.00     0.031 A 
ATOM     79  C   UNL A   1      46.254  28.288  34.333  1.00  0.00     0.131 A 
ATOM     80  C   UNL A   1      46.095  26.118  36.043  1.00  0.00     0.055 A 
ATOM     81  C   UNL A   1      47.358  27.943  35.114  1.00  0.00     0.041 A 
ATOM     82  F   UNL A   1      46.364  29.364  33.539  1.00  0.00    -0.206 F 
ATOM     83  C   UNL A   1      47.278  26.860  35.985  1.00  0.00     0.022 A 
BRANCH  80  84
ATOM     84  S   UNL A   1      45.922  24.782  37.259  1.00  0.00     0.124 S 
ATOM     85  O   UNL A   1      44.499  24.843  37.577  1.00  0.00    -0.237 OA
ATOM     86  O   UNL A   1      46.357  23.613  36.502  1.00  0.00    -0.237 OA
ATOM     87  O   UNL A   1      46.817  25.185  38.342  1.00  0.00    -0.744 OA
ENDBRANCH  80  84
ENDBRANCH  54  77
ENDBRANCH  28  29
ENDBRANCH  21  23
ENDBRANCH  20  21
ENDBRANCH   1  20
TORSDOF 17
ENDMDL
