MODEL 1
REMARK VINA RESULT:     -11.3      0.000      0.000
REMARK SMILES CCCN1C(=O)C[C@H](C(=O)OCCOC(=O)c2ccc(-c3c4nc(c(-c5cc(S(=O)(=O)[O-])ccc5F)c5ccc([nH]5)c(-c5cc(S(=O)(=O)[O-])ccc5F)c5nc(c(-c6cc(S(=O)(=O)[O-])ccc6F)c6ccc3[nH]6)C=C5)C=C4)cc2)[C@@H]1c1cncn1C1CC1
REMARK SMILES IDX 13 1 12 2 11 3 9 4 10 5 8 6 4 7 5 8 80 9 6 10 7 11 3 12 2 13
REMARK SMILES IDX 1 14 81 15 82 16 85 17 83 18 84 19 86 20 87 21 88 22 14 23
REMARK SMILES IDX 15 24 16 25 17 26 18 27 79 28 19 29 78 30 20 31 21 32 22 33
REMARK SMILES IDX 72 34 23 35 77 36 71 37 73 38 24 39 76 40 70 41 69 42 25 44
REMARK SMILES IDX 57 45 37 46 56 47 38 48 41 49 55 50 74 51 39 52 40 53 54 55
REMARK SMILES IDX 75 56 42 57 26 58 27 59 35 60 28 61 34 62 36 63 33 64 29 65
REMARK SMILES IDX 30 66 31 67 32 68 58 69 59 70 67 71 60 72 66 73 68 74 65 75
REMARK SMILES IDX 61 76 62 77 63 78 64 79 43 80 44 81 52 82 45 83 51 84 53 85
REMARK SMILES IDX 50 86 46 87 47 88 48 89 49 90
REMARK H PARENT 73 43 41 54
REMARK Flexibility Score: inf
ROOT
ATOM      1  C   UNL A   1      36.521  20.545  25.001  1.00  0.00     0.275 C 
ENDROOT
BRANCH   1   2
ATOM      2  C   UNL A   1      35.056  20.990  25.053  1.00  0.00     0.274 C 
BRANCH   2   3
ATOM      3  O   UNL A   1      34.927  22.409  25.277  1.00  0.00    -0.462 OA
BRANCH   3   4
ATOM      4  C   UNL A   1      34.209  23.078  24.344  1.00  0.00     0.312 C 
ATOM      5  O   UNL A   1      33.525  22.548  23.474  1.00  0.00    -0.252 OA
BRANCH   4   6
ATOM      6  C   UNL A   1      34.331  24.570  24.430  1.00  0.00     0.137 C 
ATOM      7  N   UNL A   1      33.665  26.595  25.287  1.00  0.00    -0.333 N 
ATOM      8  C   UNL A   1      33.869  26.793  23.915  1.00  0.00     0.224 C 
ATOM      9  C   UNL A   1      33.601  25.200  25.607  1.00  0.00     0.148 C 
ATOM     10  O   UNL A   1      33.930  27.863  23.342  1.00  0.00    -0.275 OA
ATOM     11  C   UNL A   1      33.955  25.437  23.246  1.00  0.00     0.118 C 
BRANCH   7  12
ATOM     12  C   UNL A   1      33.651  27.674  26.274  1.00  0.00     0.120 C 
BRANCH  12  13
ATOM     13  C   UNL A   1      32.404  27.764  27.159  1.00  0.00     0.018 C 
ATOM     14  C   UNL A   1      31.782  29.151  27.201  1.00  0.00     0.006 C 
ENDBRANCH  12  13
ENDBRANCH   7  12
BRANCH   9  15
ATOM     15  C   UNL A   1      32.256  24.638  25.948  1.00  0.00     0.061 A 
ATOM     16  C   UNL A   1      32.087  23.814  27.065  1.00  0.00     0.136 A 
ATOM     17  N   UNL A   1      30.963  24.767  25.464  1.00  0.00    -0.330 N 
ATOM     18  N   UNL A   1      30.804  23.419  27.251  1.00  0.00    -0.245 NA
ATOM     19  C   UNL A   1      30.153  24.010  26.285  1.00  0.00     0.199 A 
BRANCH  17  20
ATOM     20  C   UNL A   1      30.296  25.442  24.362  1.00  0.00     0.088 C 
ATOM     21  C   UNL A   1      28.999  26.190  24.255  1.00  0.00     0.027 C 
ATOM     22  C   UNL A   1      30.280  26.953  24.250  1.00  0.00     0.027 C 
ENDBRANCH  17  20
ENDBRANCH   9  15
ENDBRANCH   4   6
ENDBRANCH   3   4
ENDBRANCH   2   3
ENDBRANCH   1   2
BRANCH   1  23
ATOM     23  O   UNL A   1      37.438  21.629  25.243  1.00  0.00    -0.458 OA
BRANCH  23  24
ATOM     24  C   UNL A   1      38.609  21.257  25.811  1.00  0.00     0.338 C 
ATOM     25  O   UNL A   1      39.150  20.165  25.723  1.00  0.00    -0.246 OA
BRANCH  24  26
ATOM     26  C   UNL A   1      39.265  22.414  26.436  1.00  0.00     0.060 A 
ATOM     27  C   UNL A   1      38.812  23.681  26.068  1.00  0.00     0.016 A 
ATOM     28  C   UNL A   1      40.373  22.277  27.271  1.00  0.00     0.016 A 
ATOM     29  C   UNL A   1      39.458  24.824  26.519  1.00  0.00     0.010 A 
ATOM     30  C   UNL A   1      41.026  23.428  27.728  1.00  0.00     0.010 A 
ATOM     31  C   UNL A   1      40.580  24.707  27.344  1.00  0.00    -0.014 A 
BRANCH  31  32
ATOM     32  C   UNL A   1      41.323  25.933  27.725  1.00  0.00     0.031 A 
ATOM     33  C   UNL A   1      40.632  26.997  28.526  1.00  0.00     0.074 A 
ATOM     34  C   UNL A   1      42.619  26.063  27.389  1.00  0.00     0.049 A 
ATOM     35  N   UNL A   1      41.053  28.186  28.864  1.00  0.00    -0.248 NA
ATOM     36  C   UNL A   1      39.278  26.677  29.003  1.00  0.00     0.031 C 
ATOM     37  C   UNL A   1      43.409  25.059  26.673  1.00  0.00     0.029 A 
ATOM     38  N   UNL A   1      43.500  27.093  27.600  1.00  0.00    -0.354 N 
ATOM     39  C   UNL A   1      40.004  28.776  29.561  1.00  0.00     0.074 A 
ATOM     40  C   UNL A   1      38.923  27.812  29.583  1.00  0.00     0.031 C 
ATOM     41  C   UNL A   1      44.654  25.528  26.495  1.00  0.00     0.029 A 
ATOM     42  C   UNL A   1      44.733  26.885  27.026  1.00  0.00     0.049 A 
ATOM     43  H   UNL A   1      43.272  27.902  28.112  1.00  0.00     0.167 HD
ATOM     44  C   UNL A   1      39.953  30.010  30.123  1.00  0.00     0.034 A 
ATOM     45  C   UNL A   1      45.787  27.714  26.899  1.00  0.00     0.034 A 
ATOM     46  C   UNL A   1      41.054  30.943  30.098  1.00  0.00     0.049 A 
ATOM     47  C   UNL A   1      45.690  29.102  27.478  1.00  0.00     0.074 A 
ATOM     48  C   UNL A   1      41.128  32.209  30.652  1.00  0.00     0.029 A 
ATOM     49  N   UNL A   1      42.278  30.713  29.478  1.00  0.00    -0.354 N 
ATOM     50  N   UNL A   1      44.684  29.663  28.109  1.00  0.00    -0.248 NA
ATOM     51  C   UNL A   1      46.865  29.967  27.324  1.00  0.00     0.031 C 
ATOM     52  C   UNL A   1      42.364  32.768  30.307  1.00  0.00     0.029 A 
ATOM     53  C   UNL A   1      43.097  31.825  29.604  1.00  0.00     0.049 A 
ATOM     54  H   UNL A   1      42.527  29.881  29.015  1.00  0.00     0.167 HD
ATOM     55  C   UNL A   1      45.113  30.944  28.442  1.00  0.00     0.074 A 
ATOM     56  C   UNL A   1      46.473  31.063  27.957  1.00  0.00     0.031 C 
ATOM     57  C   UNL A   1      44.444  31.932  29.092  1.00  0.00     0.034 A 
BRANCH  44  58
ATOM     58  C   UNL A   1      38.639  30.438  30.734  1.00  0.00     0.023 A 
ATOM     59  C   UNL A   1      37.623  31.050  29.979  1.00  0.00     0.031 A 
ATOM     60  C   UNL A   1      38.423  30.278  32.115  1.00  0.00     0.131 A 
ATOM     61  C   UNL A   1      36.480  31.554  30.620  1.00  0.00     0.055 A 
ATOM     62  C   UNL A   1      37.247  30.706  32.734  1.00  0.00     0.041 A 
ATOM     63  F   UNL A   1      39.365  29.722  32.894  1.00  0.00    -0.206 F 
ATOM     64  C   UNL A   1      36.274  31.365  31.988  1.00  0.00     0.022 A 
BRANCH  61  65
ATOM     65  S   UNL A   1      35.342  32.602  29.672  1.00  0.00     0.124 S 
ATOM     66  O   UNL A   1      34.399  33.025  30.704  1.00  0.00    -0.237 OA
ATOM     67  O   UNL A   1      36.228  33.638  29.151  1.00  0.00    -0.237 OA
ATOM     68  O   UNL A   1      34.790  31.692  28.670  1.00  0.00    -0.744 OA
ENDBRANCH  61  65
ENDBRANCH  44  58
BRANCH  45  69
ATOM     69  C   UNL A   1      46.987  27.280  26.129  1.00  0.00     0.023 A 
ATOM     70  C   UNL A   1      47.170  27.648  24.787  1.00  0.00     0.031 A 
ATOM     71  C   UNL A   1      47.968  26.471  26.732  1.00  0.00     0.131 A 
ATOM     72  C   UNL A   1      48.296  27.187  24.085  1.00  0.00     0.055 A 
ATOM     73  C   UNL A   1      49.108  26.056  26.044  1.00  0.00     0.041 A 
ATOM     74  F   UNL A   1      47.841  26.092  28.013  1.00  0.00    -0.206 F 
ATOM     75  C   UNL A   1      49.272  26.406  24.709  1.00  0.00     0.022 A 
BRANCH  72  76
ATOM     76  S   UNL A   1      48.440  27.575  22.319  1.00  0.00     0.124 S 
ATOM     77  O   UNL A   1      48.649  26.254  21.739  1.00  0.00    -0.237 OA
ATOM     78  O   UNL A   1      47.152  28.203  22.041  1.00  0.00    -0.237 OA
ATOM     79  O   UNL A   1      49.592  28.473  22.261  1.00  0.00    -0.744 OA
ENDBRANCH  72  76
ENDBRANCH  45  69
BRANCH  57  80
ATOM     80  C   UNL A   1      45.200  33.214  29.340  1.00  0.00     0.023 A 
ATOM     81  C   UNL A   1      45.188  34.271  28.412  1.00  0.00     0.031 A 
ATOM     82  C   UNL A   1      45.955  33.373  30.516  1.00  0.00     0.131 A 
ATOM     83  C   UNL A   1      45.959  35.418  28.653  1.00  0.00     0.055 A 
ATOM     84  C   UNL A   1      46.674  34.540  30.775  1.00  0.00     0.041 A 
ATOM     85  F   UNL A   1      46.005  32.394  31.433  1.00  0.00    -0.206 F 
ATOM     86  C   UNL A   1      46.688  35.567  29.834  1.00  0.00     0.022 A 
BRANCH  83  87
ATOM     87  S   UNL A   1      46.070  36.681  27.355  1.00  0.00     0.124 S 
ATOM     88  O   UNL A   1      45.016  37.612  27.747  1.00  0.00    -0.237 OA
ATOM     89  O   UNL A   1      47.438  37.166  27.507  1.00  0.00    -0.237 OA
ATOM     90  O   UNL A   1      45.810  35.934  26.126  1.00  0.00    -0.744 OA
ENDBRANCH  83  87
ENDBRANCH  57  80
ENDBRANCH  31  32
ENDBRANCH  24  26
ENDBRANCH  23  24
ENDBRANCH   1  23
TORSDOF 18
ENDMDL
MODEL 2
REMARK VINA RESULT:     -11.1      1.554      1.923
REMARK SMILES CCCN1C(=O)C[C@H](C(=O)OCCOC(=O)c2ccc(-c3c4nc(c(-c5cc(S(=O)(=O)[O-])ccc5F)c5ccc([nH]5)c(-c5cc(S(=O)(=O)[O-])ccc5F)c5nc(c(-c6cc(S(=O)(=O)[O-])ccc6F)c6ccc3[nH]6)C=C5)C=C4)cc2)[C@@H]1c1cncn1C1CC1
REMARK SMILES IDX 13 1 12 2 11 3 9 4 10 5 8 6 4 7 5 8 80 9 6 10 7 11 3 12 2 13
REMARK SMILES IDX 1 14 81 15 82 16 85 17 83 18 84 19 86 20 87 21 88 22 14 23
REMARK SMILES IDX 15 24 16 25 17 26 18 27 79 28 19 29 78 30 20 31 21 32 22 33
REMARK SMILES IDX 72 34 23 35 77 36 71 37 73 38 24 39 76 40 70 41 69 42 25 44
REMARK SMILES IDX 57 45 37 46 56 47 38 48 41 49 55 50 74 51 39 52 40 53 54 55
REMARK SMILES IDX 75 56 42 57 26 58 27 59 35 60 28 61 34 62 36 63 33 64 29 65
REMARK SMILES IDX 30 66 31 67 32 68 58 69 59 70 67 71 60 72 66 73 68 74 65 75
REMARK SMILES IDX 61 76 62 77 63 78 64 79 43 80 44 81 52 82 45 83 51 84 53 85
REMARK SMILES IDX 50 86 46 87 47 88 48 89 49 90
REMARK H PARENT 73 43 41 54
REMARK Flexibility Score: inf
ROOT
ATOM      1  C   UNL A   1      36.377  20.820  25.196  1.00  0.00     0.275 C 
ENDROOT
BRANCH   1   2
ATOM      2  C   UNL A   1      35.301  21.681  25.867  1.00  0.00     0.274 C 
BRANCH   2   3
ATOM      3  O   UNL A   1      35.038  22.891  25.127  1.00  0.00    -0.462 OA
BRANCH   3   4
ATOM      4  C   UNL A   1      33.996  22.825  24.264  1.00  0.00     0.312 C 
ATOM      5  O   UNL A   1      33.154  21.933  24.251  1.00  0.00    -0.252 OA
BRANCH   4   6
ATOM      6  C   UNL A   1      33.953  23.944  23.268  1.00  0.00     0.137 C 
ATOM      7  N   UNL A   1      33.277  26.047  22.634  1.00  0.00    -0.333 N 
ATOM      8  C   UNL A   1      33.112  25.223  21.513  1.00  0.00     0.224 C 
ATOM      9  C   UNL A   1      33.464  25.273  23.826  1.00  0.00     0.148 C 
ATOM     10  O   UNL A   1      32.901  25.589  20.374  1.00  0.00    -0.275 OA
ATOM     11  C   UNL A   1      33.195  23.780  21.967  1.00  0.00     0.118 C 
BRANCH   7  12
ATOM     12  C   UNL A   1      33.375  27.504  22.569  1.00  0.00     0.120 C 
BRANCH  12  13
ATOM     13  C   UNL A   1      34.008  28.195  23.780  1.00  0.00     0.018 C 
ATOM     14  C   UNL A   1      33.036  29.050  24.576  1.00  0.00     0.006 C 
ENDBRANCH  12  13
ENDBRANCH   7  12
BRANCH   9  15
ATOM     15  C   UNL A   1      32.322  25.221  24.793  1.00  0.00     0.061 A 
ATOM     16  C   UNL A   1      32.535  24.884  26.133  1.00  0.00     0.136 A 
ATOM     17  N   UNL A   1      30.966  25.511  24.760  1.00  0.00    -0.330 N 
ATOM     18  N   UNL A   1      31.404  24.917  26.880  1.00  0.00    -0.245 NA
ATOM     19  C   UNL A   1      30.485  25.302  26.036  1.00  0.00     0.199 A 
BRANCH  17  20
ATOM     20  C   UNL A   1      29.986  25.931  23.772  1.00  0.00     0.088 C 
ATOM     21  C   UNL A   1      28.669  26.642  23.876  1.00  0.00     0.027 C 
ATOM     22  C   UNL A   1      29.854  27.381  23.353  1.00  0.00     0.027 C 
ENDBRANCH  17  20
ENDBRANCH   9  15
ENDBRANCH   4   6
ENDBRANCH   3   4
ENDBRANCH   2   3
ENDBRANCH   1   2
BRANCH   1  23
ATOM     23  O   UNL A   1      37.604  21.539  24.973  1.00  0.00    -0.458 OA
BRANCH  23  24
ATOM     24  C   UNL A   1      38.638  21.138  25.750  1.00  0.00     0.338 C 
ATOM     25  O   UNL A   1      39.093  20.006  25.834  1.00  0.00    -0.246 OA
BRANCH  24  26
ATOM     26  C   UNL A   1      39.285  22.297  26.380  1.00  0.00     0.060 A 
ATOM     27  C   UNL A   1      38.823  23.563  26.016  1.00  0.00     0.016 A 
ATOM     28  C   UNL A   1      40.393  22.166  27.216  1.00  0.00     0.016 A 
ATOM     29  C   UNL A   1      39.460  24.708  26.473  1.00  0.00     0.010 A 
ATOM     30  C   UNL A   1      41.037  23.319  27.678  1.00  0.00     0.010 A 
ATOM     31  C   UNL A   1      40.582  24.596  27.298  1.00  0.00    -0.014 A 
BRANCH  31  32
ATOM     32  C   UNL A   1      41.316  25.826  27.685  1.00  0.00     0.031 A 
ATOM     33  C   UNL A   1      40.613  26.885  28.483  1.00  0.00     0.074 A 
ATOM     34  C   UNL A   1      42.613  25.963  27.358  1.00  0.00     0.049 A 
ATOM     35  N   UNL A   1      41.026  28.077  28.824  1.00  0.00    -0.248 NA
ATOM     36  C   UNL A   1      39.258  26.558  28.949  1.00  0.00     0.031 C 
ATOM     37  C   UNL A   1      43.413  24.965  26.647  1.00  0.00     0.029 A 
ATOM     38  N   UNL A   1      43.487  26.998  27.576  1.00  0.00    -0.354 N 
ATOM     39  C   UNL A   1      39.968  28.660  29.514  1.00  0.00     0.074 A 
ATOM     40  C   UNL A   1      38.892  27.691  29.528  1.00  0.00     0.031 C 
ATOM     41  C   UNL A   1      44.657  25.441  26.478  1.00  0.00     0.029 A 
ATOM     42  C   UNL A   1      44.725  26.798  27.010  1.00  0.00     0.049 A 
ATOM     43  H   UNL A   1      43.251  27.805  28.087  1.00  0.00     0.167 HD
ATOM     44  C   UNL A   1      39.907  29.894  30.076  1.00  0.00     0.034 A 
ATOM     45  C   UNL A   1      45.775  27.633  26.891  1.00  0.00     0.034 A 
ATOM     46  C   UNL A   1      41.003  30.833  30.059  1.00  0.00     0.049 A 
ATOM     47  C   UNL A   1      45.666  29.020  27.469  1.00  0.00     0.074 A 
ATOM     48  C   UNL A   1      41.066  32.099  30.614  1.00  0.00     0.029 A 
ATOM     49  N   UNL A   1      42.231  30.610  29.447  1.00  0.00    -0.354 N 
ATOM     50  N   UNL A   1      44.653  29.575  28.094  1.00  0.00    -0.248 NA
ATOM     51  C   UNL A   1      46.838  29.891  27.324  1.00  0.00     0.031 C 
ATOM     52  C   UNL A   1      42.300  32.666  30.278  1.00  0.00     0.029 A 
ATOM     53  C   UNL A   1      43.043  31.727  29.579  1.00  0.00     0.049 A 
ATOM     54  H   UNL A   1      42.489  29.780  28.985  1.00  0.00     0.167 HD
ATOM     55  C   UNL A   1      45.072  30.858  28.431  1.00  0.00     0.074 A 
ATOM     56  C   UNL A   1      46.435  30.985  27.956  1.00  0.00     0.031 C 
ATOM     57  C   UNL A   1      44.393  31.842  29.077  1.00  0.00     0.034 A 
BRANCH  44  58
ATOM     58  C   UNL A   1      38.586  30.314  30.678  1.00  0.00     0.023 A 
ATOM     59  C   UNL A   1      37.586  30.955  29.924  1.00  0.00     0.031 A 
ATOM     60  C   UNL A   1      38.347  30.118  32.051  1.00  0.00     0.131 A 
ATOM     61  C   UNL A   1      36.436  31.448  30.562  1.00  0.00     0.055 A 
ATOM     62  C   UNL A   1      37.165  30.537  32.663  1.00  0.00     0.041 A 
ATOM     63  F   UNL A   1      39.273  29.533  32.828  1.00  0.00    -0.206 F 
ATOM     64  C   UNL A   1      36.208  31.223  31.920  1.00  0.00     0.022 A 
BRANCH  61  65
ATOM     65  S   UNL A   1      35.321  32.530  29.625  1.00  0.00     0.124 S 
ATOM     66  O   UNL A   1      34.760  31.601  28.647  1.00  0.00    -0.237 OA
ATOM     67  O   UNL A   1      34.404  33.006  30.656  1.00  0.00    -0.237 OA
ATOM     68  O   UNL A   1      36.213  33.544  29.068  1.00  0.00    -0.744 OA
ENDBRANCH  61  65
ENDBRANCH  44  58
BRANCH  45  69
ATOM     69  C   UNL A   1      46.982  27.206  26.128  1.00  0.00     0.023 A 
ATOM     70  C   UNL A   1      48.072  26.592  26.764  1.00  0.00     0.031 A 
ATOM     71  C   UNL A   1      47.064  27.424  24.740  1.00  0.00     0.131 A 
ATOM     72  C   UNL A   1      49.208  26.239  26.015  1.00  0.00     0.055 A 
ATOM     73  C   UNL A   1      48.173  27.028  23.994  1.00  0.00     0.041 A 
ATOM     74  F   UNL A   1      46.048  28.008  24.084  1.00  0.00    -0.206 F 
ATOM     75  C   UNL A   1      49.259  26.440  24.634  1.00  0.00     0.022 A 
BRANCH  72  76
ATOM     76  S   UNL A   1      50.648  25.563  26.885  1.00  0.00     0.124 S 
ATOM     77  O   UNL A   1      50.057  24.452  27.622  1.00  0.00    -0.237 OA
ATOM     78  O   UNL A   1      51.530  25.203  25.779  1.00  0.00    -0.237 OA
ATOM     79  O   UNL A   1      51.108  26.682  27.705  1.00  0.00    -0.744 OA
ENDBRANCH  72  76
ENDBRANCH  45  69
BRANCH  57  80
ATOM     80  C   UNL A   1      45.141  33.128  29.330  1.00  0.00     0.023 A 
ATOM     81  C   UNL A   1      45.106  34.196  28.416  1.00  0.00     0.031 A 
ATOM     82  C   UNL A   1      45.910  33.280  30.498  1.00  0.00     0.131 A 
ATOM     83  C   UNL A   1      45.869  35.348  28.661  1.00  0.00     0.055 A 
ATOM     84  C   UNL A   1      46.621  34.450  30.762  1.00  0.00     0.041 A 
ATOM     85  F   UNL A   1      45.981  32.289  31.402  1.00  0.00    -0.206 F 
ATOM     86  C   UNL A   1      46.613  35.488  29.834  1.00  0.00     0.022 A 
BRANCH  83  87
ATOM     87  S   UNL A   1      45.951  36.627  27.378  1.00  0.00     0.124 S 
ATOM     88  O   UNL A   1      46.245  35.841  26.183  1.00  0.00    -0.237 OA
ATOM     89  O   UNL A   1      44.618  37.218  27.440  1.00  0.00    -0.237 OA
ATOM     90  O   UNL A   1      47.036  37.497  27.828  1.00  0.00    -0.744 OA
ENDBRANCH  83  87
ENDBRANCH  57  80
ENDBRANCH  31  32
ENDBRANCH  24  26
ENDBRANCH  23  24
ENDBRANCH   1  23
TORSDOF 18
ENDMDL
MODEL 3
REMARK VINA RESULT:     -11.1      4.639      9.569
REMARK SMILES CCCN1C(=O)C[C@H](C(=O)OCCOC(=O)c2ccc(-c3c4nc(c(-c5cc(S(=O)(=O)[O-])ccc5F)c5ccc([nH]5)c(-c5cc(S(=O)(=O)[O-])ccc5F)c5nc(c(-c6cc(S(=O)(=O)[O-])ccc6F)c6ccc3[nH]6)C=C5)C=C4)cc2)[C@@H]1c1cncn1C1CC1
REMARK SMILES IDX 13 1 12 2 11 3 9 4 10 5 8 6 4 7 5 8 80 9 6 10 7 11 3 12 2 13
REMARK SMILES IDX 1 14 81 15 82 16 85 17 83 18 84 19 86 20 87 21 88 22 14 23
REMARK SMILES IDX 15 24 16 25 17 26 18 27 79 28 19 29 78 30 20 31 21 32 22 33
REMARK SMILES IDX 72 34 23 35 77 36 71 37 73 38 24 39 76 40 70 41 69 42 25 44
REMARK SMILES IDX 57 45 37 46 56 47 38 48 41 49 55 50 74 51 39 52 40 53 54 55
REMARK SMILES IDX 75 56 42 57 26 58 27 59 35 60 28 61 34 62 36 63 33 64 29 65
REMARK SMILES IDX 30 66 31 67 32 68 58 69 59 70 67 71 60 72 66 73 68 74 65 75
REMARK SMILES IDX 61 76 62 77 63 78 64 79 43 80 44 81 52 82 45 83 51 84 53 85
REMARK SMILES IDX 50 86 46 87 47 88 48 89 49 90
REMARK H PARENT 73 43 41 54
REMARK Flexibility Score: inf
ROOT
ATOM      1  C   UNL A   1      31.507  30.504  25.753  1.00  0.00     0.275 C 
ENDROOT
BRANCH   1   2
ATOM      2  C   UNL A   1      31.455  29.368  24.726  1.00  0.00     0.274 C 
BRANCH   2   3
ATOM      3  O   UNL A   1      32.146  28.189  25.186  1.00  0.00    -0.462 OA
BRANCH   3   4
ATOM      4  C   UNL A   1      31.399  27.060  25.221  1.00  0.00     0.312 C 
ATOM      5  O   UNL A   1      30.300  26.930  24.691  1.00  0.00    -0.252 OA
BRANCH   4   6
ATOM      6  C   UNL A   1      32.017  25.941  26.005  1.00  0.00     0.137 C 
ATOM      7  N   UNL A   1      33.414  24.122  26.155  1.00  0.00    -0.333 N 
ATOM      8  C   UNL A   1      32.245  23.781  26.846  1.00  0.00     0.224 C 
ATOM      9  C   UNL A   1      33.215  25.283  25.336  1.00  0.00     0.148 C 
ATOM     10  O   UNL A   1      32.096  22.829  27.586  1.00  0.00    -0.275 OA
ATOM     11  C   UNL A   1      31.167  24.781  26.480  1.00  0.00     0.118 C 
BRANCH   7  12
ATOM     12  C   UNL A   1      34.700  23.455  26.347  1.00  0.00     0.120 C 
BRANCH  12  13
ATOM     13  C   UNL A   1      35.883  24.025  25.558  1.00  0.00     0.018 C 
ATOM     14  C   UNL A   1      36.293  23.172  24.368  1.00  0.00     0.006 C 
ENDBRANCH  12  13
ENDBRANCH   7  12
BRANCH   9  15
ATOM     15  C   UNL A   1      33.131  25.069  23.857  1.00  0.00     0.061 A 
ATOM     16  C   UNL A   1      33.697  25.989  22.968  1.00  0.00     0.136 A 
ATOM     17  N   UNL A   1      32.663  24.074  23.012  1.00  0.00    -0.330 N 
ATOM     18  N   UNL A   1      33.562  25.630  21.668  1.00  0.00    -0.245 NA
ATOM     19  C   UNL A   1      32.949  24.479  21.724  1.00  0.00     0.199 A 
BRANCH  17  20
ATOM     20  C   UNL A   1      31.969  22.802  23.139  1.00  0.00     0.088 C 
ATOM     21  C   UNL A   1      32.088  21.495  22.411  1.00  0.00     0.027 C 
ATOM     22  C   UNL A   1      32.622  21.606  23.799  1.00  0.00     0.027 C 
ENDBRANCH  17  20
ENDBRANCH   9  15
ENDBRANCH   4   6
ENDBRANCH   3   4
ENDBRANCH   2   3
ENDBRANCH   1   2
BRANCH   1  23
ATOM     23  O   UNL A   1      32.573  30.340  26.707  1.00  0.00    -0.458 OA
BRANCH  23  24
ATOM     24  C   UNL A   1      33.129  31.499  27.132  1.00  0.00     0.338 C 
ATOM     25  O   UNL A   1      32.578  32.586  27.218  1.00  0.00    -0.246 OA
BRANCH  24  26
ATOM     26  C   UNL A   1      34.482  31.257  27.654  1.00  0.00     0.060 A 
ATOM     27  C   UNL A   1      34.798  29.948  28.023  1.00  0.00     0.016 A 
ATOM     28  C   UNL A   1      35.382  32.293  27.892  1.00  0.00     0.016 A 
ATOM     29  C   UNL A   1      36.009  29.659  28.638  1.00  0.00     0.010 A 
ATOM     30  C   UNL A   1      36.604  32.004  28.511  1.00  0.00     0.010 A 
ATOM     31  C   UNL A   1      36.918  30.687  28.898  1.00  0.00    -0.014 A 
BRANCH  31  32
ATOM     32  C   UNL A   1      38.156  30.378  29.655  1.00  0.00     0.031 A 
ATOM     33  C   UNL A   1      39.191  29.480  29.042  1.00  0.00     0.074 A 
ATOM     34  C   UNL A   1      38.363  30.937  30.861  1.00  0.00     0.049 A 
ATOM     35  N   UNL A   1      40.281  28.990  29.570  1.00  0.00    -0.248 NA
ATOM     36  C   UNL A   1      38.958  29.073  27.648  1.00  0.00     0.031 C 
ATOM     37  C   UNL A   1      37.457  31.880  31.519  1.00  0.00     0.029 A 
ATOM     38  N   UNL A   1      39.397  30.791  31.750  1.00  0.00    -0.354 N 
ATOM     39  C   UNL A   1      40.848  28.185  28.587  1.00  0.00     0.074 A 
ATOM     40  C   UNL A   1      39.969  28.245  27.438  1.00  0.00     0.031 C 
ATOM     41  C   UNL A   1      37.970  32.219  32.712  1.00  0.00     0.029 A 
ATOM     42  C   UNL A   1      39.205  31.473  32.929  1.00  0.00     0.049 A 
ATOM     43  H   UNL A   1      40.198  30.251  31.562  1.00  0.00     0.167 HD
ATOM     44  C   UNL A   1      41.994  27.461  28.649  1.00  0.00     0.034 A 
ATOM     45  C   UNL A   1      39.917  31.456  34.073  1.00  0.00     0.034 A 
ATOM     46  C   UNL A   1      42.858  27.433  29.804  1.00  0.00     0.049 A 
ATOM     47  C   UNL A   1      41.154  30.599  34.142  1.00  0.00     0.074 A 
ATOM     48  C   UNL A   1      44.054  26.757  29.974  1.00  0.00     0.029 A 
ATOM     49  N   UNL A   1      42.616  28.108  30.995  1.00  0.00    -0.354 N 
ATOM     50  N   UNL A   1      41.668  29.818  33.220  1.00  0.00    -0.248 NA
ATOM     51  C   UNL A   1      41.904  30.619  35.403  1.00  0.00     0.031 C 
ATOM     52  C   UNL A   1      44.495  26.966  31.286  1.00  0.00     0.029 A 
ATOM     53  C   UNL A   1      43.618  27.836  31.915  1.00  0.00     0.049 A 
ATOM     54  H   UNL A   1      41.843  28.695  31.163  1.00  0.00     0.167 HD
ATOM     55  C   UNL A   1      42.812  29.264  33.786  1.00  0.00     0.074 A 
ATOM     56  C   UNL A   1      42.921  29.817  35.122  1.00  0.00     0.031 C 
ATOM     57  C   UNL A   1      43.695  28.381  33.251  1.00  0.00     0.034 A 
BRANCH  44  58
ATOM     58  C   UNL A   1      42.322  26.584  27.462  1.00  0.00     0.023 A 
ATOM     59  C   UNL A   1      41.893  25.248  27.373  1.00  0.00     0.031 A 
ATOM     60  C   UNL A   1      43.131  27.084  26.424  1.00  0.00     0.131 A 
ATOM     61  C   UNL A   1      42.341  24.437  26.317  1.00  0.00     0.055 A 
ATOM     62  C   UNL A   1      43.505  26.295  25.335  1.00  0.00     0.041 A 
ATOM     63  F   UNL A   1      43.592  28.344  26.464  1.00  0.00    -0.206 F 
ATOM     64  C   UNL A   1      43.124  24.958  25.286  1.00  0.00     0.022 A 
BRANCH  61  65
ATOM     65  S   UNL A   1      42.022  22.653  26.397  1.00  0.00     0.124 S 
ATOM     66  O   UNL A   1      40.562  22.616  26.450  1.00  0.00    -0.237 OA
ATOM     67  O   UNL A   1      42.630  22.169  25.163  1.00  0.00    -0.237 OA
ATOM     68  O   UNL A   1      42.692  22.239  27.628  1.00  0.00    -0.744 OA
ENDBRANCH  61  65
ENDBRANCH  44  58
BRANCH  45  69
ATOM     69  C   UNL A   1      39.434  32.212  35.262  1.00  0.00     0.023 A 
ATOM     70  C   UNL A   1      39.854  33.527  35.517  1.00  0.00     0.031 A 
ATOM     71  C   UNL A   1      38.544  31.615  36.175  1.00  0.00     0.131 A 
ATOM     72  C   UNL A   1      39.405  34.191  36.671  1.00  0.00     0.055 A 
ATOM     73  C   UNL A   1      38.062  32.296  37.292  1.00  0.00     0.041 A 
ATOM     74  F   UNL A   1      38.110  30.360  35.976  1.00  0.00    -0.206 F 
ATOM     75  C   UNL A   1      38.501  33.590  37.550  1.00  0.00     0.022 A 
BRANCH  72  76
ATOM     76  S   UNL A   1      40.064  35.840  37.037  1.00  0.00     0.124 S 
ATOM     77  O   UNL A   1      39.330  36.193  38.246  1.00  0.00    -0.237 OA
ATOM     78  O   UNL A   1      41.488  35.567  37.208  1.00  0.00    -0.237 OA
ATOM     79  O   UNL A   1      39.721  36.617  35.848  1.00  0.00    -0.744 OA
ENDBRANCH  72  76
ENDBRANCH  45  69
BRANCH  57  80
ATOM     80  C   UNL A   1      44.871  27.992  34.112  1.00  0.00     0.023 A 
ATOM     81  C   UNL A   1      46.074  28.721  34.095  1.00  0.00     0.031 A 
ATOM     82  C   UNL A   1      44.791  26.867  34.952  1.00  0.00     0.131 A 
ATOM     83  C   UNL A   1      47.165  28.285  34.862  1.00  0.00     0.055 A 
ATOM     84  C   UNL A   1      45.861  26.472  35.756  1.00  0.00     0.041 A 
ATOM     85  F   UNL A   1      43.668  26.133  35.004  1.00  0.00    -0.206 F 
ATOM     86  C   UNL A   1      47.061  27.176  35.704  1.00  0.00     0.022 A 
BRANCH  83  87
ATOM     87  S   UNL A   1      48.756  29.136  34.676  1.00  0.00     0.124 S 
ATOM     88  O   UNL A   1      49.588  28.438  35.651  1.00  0.00    -0.237 OA
ATOM     89  O   UNL A   1      49.079  28.893  33.273  1.00  0.00    -0.237 OA
ATOM     90  O   UNL A   1      48.444  30.524  35.009  1.00  0.00    -0.744 OA
ENDBRANCH  83  87
ENDBRANCH  57  80
ENDBRANCH  31  32
ENDBRANCH  24  26
ENDBRANCH  23  24
ENDBRANCH   1  23
TORSDOF 18
ENDMDL
