MODEL 1
REMARK VINA RESULT:     -11.4      0.000      0.000
REMARK SMILES COc1cccc(C(=O)N[C@H]2C=C[C@@H](C(=O)OCCOC(=O)c3ccc(-c4c5nc(c(-c6cc(S(=O)(=O)[O-])ccc6F)c6ccc([nH]6)c(-c6cc(S(=O)(=O)[O-])ccc6F)c6nc(c(-c7cc(S(=O)(=O)[O-])ccc7F)c7ccc4[nH]7)C=C6)C=C5)cc3)C2)c1
REMARK SMILES IDX 18 1 17 2 15 3 16 4 14 5 11 6 12 7 86 8 13 9 10 10 8 11 9 12
REMARK SMILES IDX 7 14 3 15 4 16 87 17 5 18 6 19 2 20 1 21 19 22 20 23 21 24
REMARK SMILES IDX 22 25 23 26 24 27 85 28 25 29 84 30 26 31 27 32 28 33 78 34
REMARK SMILES IDX 29 35 83 36 77 37 79 38 30 39 82 40 76 41 75 42 31 44 63 45
REMARK SMILES IDX 43 46 62 47 44 48 47 49 61 50 80 51 45 52 46 53 60 55 81 56
REMARK SMILES IDX 48 57 32 58 33 59 41 60 34 61 40 62 42 63 39 64 35 65 36 66
REMARK SMILES IDX 37 67 38 68 64 69 65 70 73 71 66 72 72 73 74 74 71 75 67 76
REMARK SMILES IDX 68 77 69 78 70 79 49 80 50 81 58 82 51 83 57 84 59 85 56 86
REMARK SMILES IDX 52 87 53 88 54 89 55 90
REMARK H PARENT 10 13 79 43 47 54
REMARK Flexibility Score: inf
ROOT
ATOM      1  C   UNL A   1      32.635  28.640  25.339  1.00  0.00     0.274 C 
ENDROOT
BRANCH   1   2
ATOM      2  O   UNL A   1      31.445  27.887  25.051  1.00  0.00    -0.462 OA
BRANCH   2   3
ATOM      3  C   UNL A   1      31.051  26.983  25.986  1.00  0.00     0.312 C 
ATOM      4  O   UNL A   1      31.341  27.042  27.175  1.00  0.00    -0.252 OA
BRANCH   3   5
ATOM      5  C   UNL A   1      30.077  25.957  25.404  1.00  0.00     0.124 C 
ATOM      6  C   UNL A   1      30.497  24.612  23.405  1.00  0.00     0.106 C 
ATOM      7  C   UNL A   1      30.807  23.844  24.629  1.00  0.00    -0.006 C 
ATOM      8  C   UNL A   1      29.977  25.967  23.876  1.00  0.00     0.048 C 
ATOM      9  C   UNL A   1      30.515  24.552  25.726  1.00  0.00    -0.014 C 
BRANCH   6  10
ATOM     10  N   UNL A   1      31.547  24.676  22.409  1.00  0.00    -0.346 N 
ATOM     11  C   UNL A   1      32.902  24.708  22.273  1.00  0.00     0.251 C 
ATOM     12  O   UNL A   1      33.276  25.086  21.154  1.00  0.00    -0.269 OA
ATOM     13  H   UNL A   1      31.135  24.709  21.515  1.00  0.00     0.164 HD
BRANCH  11  14
ATOM     14  C   UNL A   1      33.965  24.323  23.251  1.00  0.00     0.043 A 
ATOM     15  C   UNL A   1      35.859  23.060  24.116  1.00  0.00     0.119 A 
ATOM     16  C   UNL A   1      35.929  23.876  25.239  1.00  0.00     0.046 A 
ATOM     17  C   UNL A   1      34.879  23.279  23.135  1.00  0.00     0.060 A 
ATOM     18  C   UNL A   1      35.044  24.934  25.375  1.00  0.00     0.005 A 
ATOM     19  C   UNL A   1      34.074  25.149  24.392  1.00  0.00     0.014 A 
BRANCH  15  20
ATOM     20  O   UNL A   1      36.748  22.020  24.088  1.00  0.00    -0.497 OA
ATOM     21  C   UNL A   1      36.446  20.969  25.001  1.00  0.00     0.278 C 
ENDBRANCH  15  20
ENDBRANCH  11  14
ENDBRANCH   6  10
ENDBRANCH   3   5
ENDBRANCH   2   3
ENDBRANCH   1   2
BRANCH   1  22
ATOM     22  C   UNL A   1      32.259  30.090  25.645  1.00  0.00     0.275 C 
BRANCH  22  23
ATOM     23  O   UNL A   1      32.472  30.389  27.037  1.00  0.00    -0.458 OA
BRANCH  23  24
ATOM     24  C   UNL A   1      33.149  31.536  27.283  1.00  0.00     0.338 C 
ATOM     25  O   UNL A   1      32.743  32.679  27.172  1.00  0.00    -0.246 OA
BRANCH  24  26
ATOM     26  C   UNL A   1      34.478  31.209  27.812  1.00  0.00     0.060 A 
ATOM     27  C   UNL A   1      34.743  29.904  28.233  1.00  0.00     0.016 A 
ATOM     28  C   UNL A   1      35.416  32.222  27.999  1.00  0.00     0.016 A 
ATOM     29  C   UNL A   1      35.930  29.613  28.893  1.00  0.00     0.010 A 
ATOM     30  C   UNL A   1      36.636  31.913  28.605  1.00  0.00     0.010 A 
ATOM     31  C   UNL A   1      36.892  30.612  29.073  1.00  0.00    -0.014 A 
BRANCH  31  32
ATOM     32  C   UNL A   1      38.159  30.306  29.779  1.00  0.00     0.031 A 
ATOM     33  C   UNL A   1      39.140  29.353  29.158  1.00  0.00     0.074 A 
ATOM     34  C   UNL A   1      38.415  30.875  30.971  1.00  0.00     0.049 A 
ATOM     35  N   UNL A   1      40.197  28.794  29.684  1.00  0.00    -0.248 NA
ATOM     36  C   UNL A   1      38.884  28.973  27.761  1.00  0.00     0.031 C 
ATOM     37  C   UNL A   1      37.563  31.867  31.634  1.00  0.00     0.029 A 
ATOM     38  N   UNL A   1      39.457  30.695  31.843  1.00  0.00    -0.354 N 
ATOM     39  C   UNL A   1      40.714  27.962  28.697  1.00  0.00     0.074 A 
ATOM     40  C   UNL A   1      39.844  28.085  27.545  1.00  0.00     0.031 C 
ATOM     41  C   UNL A   1      38.118  32.205  32.809  1.00  0.00     0.029 A 
ATOM     42  C   UNL A   1      39.315  31.398  33.016  1.00  0.00     0.049 A 
ATOM     43  H   UNL A   1      40.231  30.118  31.650  1.00  0.00     0.167 HD
ATOM     44  C   UNL A   1      41.811  27.168  28.757  1.00  0.00     0.034 A 
ATOM     45  C   UNL A   1      40.035  31.354  34.155  1.00  0.00     0.034 A 
ATOM     46  C   UNL A   1      42.666  27.078  29.917  1.00  0.00     0.049 A 
ATOM     47  C   UNL A   1      41.207  30.411  34.226  1.00  0.00     0.074 A 
ATOM     48  C   UNL A   1      43.802  26.310  30.098  1.00  0.00     0.029 A 
ATOM     49  N   UNL A   1      42.473  27.786  31.098  1.00  0.00    -0.354 N 
ATOM     50  N   UNL A   1      41.656  29.584  33.310  1.00  0.00    -0.248 NA
ATOM     51  C   UNL A   1      41.961  30.387  35.485  1.00  0.00     0.031 C 
ATOM     52  C   UNL A   1      44.263  26.510  31.405  1.00  0.00     0.029 A 
ATOM     53  C   UNL A   1      43.455  27.454  32.019  1.00  0.00     0.049 A 
ATOM     54  H   UNL A   1      41.746  28.428  31.258  1.00  0.00     0.167 HD
ATOM     55  C   UNL A   1      42.761  28.957  33.875  1.00  0.00     0.074 A 
ATOM     56  C   UNL A   1      42.913  29.508  35.207  1.00  0.00     0.031 C 
ATOM     57  C   UNL A   1      43.579  28.013  33.344  1.00  0.00     0.034 A 
BRANCH  44  58
ATOM     58  C   UNL A   1      42.098  26.291  27.563  1.00  0.00     0.023 A 
ATOM     59  C   UNL A   1      41.661  24.956  27.495  1.00  0.00     0.031 A 
ATOM     60  C   UNL A   1      42.858  26.790  26.490  1.00  0.00     0.131 A 
ATOM     61  C   UNL A   1      42.050  24.147  26.416  1.00  0.00     0.055 A 
ATOM     62  C   UNL A   1      43.177  26.001  25.383  1.00  0.00     0.041 A 
ATOM     63  F   UNL A   1      43.323  28.049  26.509  1.00  0.00    -0.206 F 
ATOM     64  C   UNL A   1      42.785  24.668  25.347  1.00  0.00     0.022 A 
BRANCH  61  65
ATOM     65  S   UNL A   1      41.699  22.368  26.493  1.00  0.00     0.124 S 
ATOM     66  O   UNL A   1      40.277  22.333  26.160  1.00  0.00    -0.237 OA
ATOM     67  O   UNL A   1      42.605  21.823  25.489  1.00  0.00    -0.237 OA
ATOM     68  O   UNL A   1      42.016  22.017  27.877  1.00  0.00    -0.744 OA
ENDBRANCH  61  65
ENDBRANCH  44  58
BRANCH  45  69
ATOM     69  C   UNL A   1      39.626  32.168  35.333  1.00  0.00     0.023 A 
ATOM     70  C   UNL A   1      40.195  33.427  35.576  1.00  0.00     0.031 A 
ATOM     71  C   UNL A   1      38.672  31.687  36.247  1.00  0.00     0.131 A 
ATOM     72  C   UNL A   1      39.826  34.150  36.721  1.00  0.00     0.055 A 
ATOM     73  C   UNL A   1      38.271  32.430  37.358  1.00  0.00     0.041 A 
ATOM     74  F   UNL A   1      38.095  30.488  36.060  1.00  0.00    -0.206 F 
ATOM     75  C   UNL A   1      38.859  33.666  37.606  1.00  0.00     0.022 A 
BRANCH  72  76
ATOM     76  S   UNL A   1      40.681  35.709  37.078  1.00  0.00     0.124 S 
ATOM     77  O   UNL A   1      41.283  36.020  35.786  1.00  0.00    -0.237 OA
ATOM     78  O   UNL A   1      39.580  36.569  37.498  1.00  0.00    -0.237 OA
ATOM     79  O   UNL A   1      41.623  35.346  38.134  1.00  0.00    -0.744 OA
ENDBRANCH  72  76
ENDBRANCH  45  69
BRANCH  57  80
ATOM     80  C   UNL A   1      44.738  27.566  34.195  1.00  0.00     0.023 A 
ATOM     81  C   UNL A   1      44.639  26.459  35.054  1.00  0.00     0.031 A 
ATOM     82  C   UNL A   1      45.956  28.266  34.146  1.00  0.00     0.131 A 
ATOM     83  C   UNL A   1      45.727  26.111  35.867  1.00  0.00     0.055 A 
ATOM     84  C   UNL A   1      47.051  27.884  34.920  1.00  0.00     0.041 A 
ATOM     85  F   UNL A   1      46.099  29.332  33.342  1.00  0.00    -0.206 F 
ATOM     86  C   UNL A   1      46.937  26.807  35.795  1.00  0.00     0.022 A 
BRANCH  83  87
ATOM     87  S   UNL A   1      45.521  24.772  37.074  1.00  0.00     0.124 S 
ATOM     88  O   UNL A   1      44.189  25.043  37.602  1.00  0.00    -0.237 OA
ATOM     89  O   UNL A   1      45.648  23.579  36.242  1.00  0.00    -0.237 OA
ATOM     90  O   UNL A   1      46.619  24.987  38.015  1.00  0.00    -0.744 OA
ENDBRANCH  83  87
ENDBRANCH  57  80
ENDBRANCH  31  32
ENDBRANCH  24  26
ENDBRANCH  23  24
ENDBRANCH  22  23
ENDBRANCH   1  22
TORSDOF 17
ENDMDL
MODEL 2
REMARK VINA RESULT:     -11.3      4.739      9.860
REMARK SMILES COc1cccc(C(=O)N[C@H]2C=C[C@@H](C(=O)OCCOC(=O)c3ccc(-c4c5nc(c(-c6cc(S(=O)(=O)[O-])ccc6F)c6ccc([nH]6)c(-c6cc(S(=O)(=O)[O-])ccc6F)c6nc(c(-c7cc(S(=O)(=O)[O-])ccc7F)c7ccc4[nH]7)C=C6)C=C5)cc3)C2)c1
REMARK SMILES IDX 18 1 17 2 15 3 16 4 14 5 11 6 12 7 86 8 13 9 10 10 8 11 9 12
REMARK SMILES IDX 7 14 3 15 4 16 87 17 5 18 6 19 2 20 1 21 19 22 20 23 21 24
REMARK SMILES IDX 22 25 23 26 24 27 85 28 25 29 84 30 26 31 27 32 28 33 78 34
REMARK SMILES IDX 29 35 83 36 77 37 79 38 30 39 82 40 76 41 75 42 31 44 63 45
REMARK SMILES IDX 43 46 62 47 44 48 47 49 61 50 80 51 45 52 46 53 60 55 81 56
REMARK SMILES IDX 48 57 32 58 33 59 41 60 34 61 40 62 42 63 39 64 35 65 36 66
REMARK SMILES IDX 37 67 38 68 64 69 65 70 73 71 66 72 72 73 74 74 71 75 67 76
REMARK SMILES IDX 68 77 69 78 70 79 49 80 50 81 58 82 51 83 57 84 59 85 56 86
REMARK SMILES IDX 52 87 53 88 54 89 55 90
REMARK H PARENT 10 13 79 43 47 54
REMARK Flexibility Score: inf
ROOT
ATOM      1  C   UNL A   1      35.035  20.728  25.137  1.00  0.00     0.274 C 
ENDROOT
BRANCH   1   2
ATOM      2  O   UNL A   1      34.813  21.524  26.313  1.00  0.00    -0.462 OA
BRANCH   2   3
ATOM      3  C   UNL A   1      34.123  22.683  26.148  1.00  0.00     0.312 C 
ATOM      4  O   UNL A   1      34.635  23.795  26.097  1.00  0.00    -0.252 OA
BRANCH   3   5
ATOM      5  C   UNL A   1      32.639  22.424  25.884  1.00  0.00     0.124 C 
ATOM      6  C   UNL A   1      30.863  24.085  26.147  1.00  0.00     0.106 C 
ATOM      7  C   UNL A   1      31.285  23.988  24.734  1.00  0.00    -0.006 C 
ATOM      8  C   UNL A   1      31.688  23.051  26.908  1.00  0.00     0.048 C 
ATOM      9  C   UNL A   1      32.208  23.032  24.574  1.00  0.00    -0.014 C 
BRANCH   6  10
ATOM     10  N   UNL A   1      30.871  25.413  26.725  1.00  0.00    -0.346 N 
ATOM     11  C   UNL A   1      31.327  26.680  26.509  1.00  0.00     0.251 C 
ATOM     12  O   UNL A   1      31.300  27.392  27.523  1.00  0.00    -0.269 OA
ATOM     13  H   UNL A   1      30.371  25.394  27.573  1.00  0.00     0.164 HD
BRANCH  11  14
ATOM     14  C   UNL A   1      31.803  27.315  25.243  1.00  0.00     0.043 A 
ATOM     15  C   UNL A   1      31.633  28.608  23.187  1.00  0.00     0.119 A 
ATOM     16  C   UNL A   1      32.999  28.483  22.959  1.00  0.00     0.046 A 
ATOM     17  C   UNL A   1      31.041  28.022  24.316  1.00  0.00     0.060 A 
ATOM     18  C   UNL A   1      33.786  27.799  23.873  1.00  0.00     0.005 A 
ATOM     19  C   UNL A   1      33.191  27.223  24.998  1.00  0.00     0.014 A 
BRANCH  15  20
ATOM     20  O   UNL A   1      30.933  29.266  22.212  1.00  0.00    -0.497 OA
ATOM     21  C   UNL A   1      29.689  29.803  22.650  1.00  0.00     0.278 C 
ENDBRANCH  15  20
ENDBRANCH  11  14
ENDBRANCH   6  10
ENDBRANCH   3   5
ENDBRANCH   2   3
ENDBRANCH   1   2
BRANCH   1  22
ATOM     22  C   UNL A   1      36.530  20.451  24.985  1.00  0.00     0.275 C 
BRANCH  22  23
ATOM     23  O   UNL A   1      37.307  21.551  25.496  1.00  0.00    -0.458 OA
BRANCH  23  24
ATOM     24  C   UNL A   1      38.570  21.239  25.872  1.00  0.00     0.338 C 
ATOM     25  O   UNL A   1      39.159  20.185  25.704  1.00  0.00    -0.246 OA
BRANCH  24  26
ATOM     26  C   UNL A   1      39.204  22.421  26.464  1.00  0.00     0.060 A 
ATOM     27  C   UNL A   1      38.772  23.693  26.078  1.00  0.00     0.016 A 
ATOM     28  C   UNL A   1      40.302  22.268  27.309  1.00  0.00     0.016 A 
ATOM     29  C   UNL A   1      39.469  24.820  26.493  1.00  0.00     0.010 A 
ATOM     30  C   UNL A   1      40.962  23.407  27.776  1.00  0.00     0.010 A 
ATOM     31  C   UNL A   1      40.563  24.688  27.356  1.00  0.00    -0.014 A 
BRANCH  31  32
ATOM     32  C   UNL A   1      41.310  25.888  27.798  1.00  0.00     0.031 A 
ATOM     33  C   UNL A   1      40.603  26.951  28.589  1.00  0.00     0.074 A 
ATOM     34  C   UNL A   1      42.611  26.021  27.480  1.00  0.00     0.049 A 
ATOM     35  N   UNL A   1      41.000  28.156  28.898  1.00  0.00    -0.248 NA
ATOM     36  C   UNL A   1      39.262  26.608  29.087  1.00  0.00     0.031 C 
ATOM     37  C   UNL A   1      43.415  25.019  26.774  1.00  0.00     0.029 A 
ATOM     38  N   UNL A   1      43.484  27.055  27.698  1.00  0.00    -0.354 N 
ATOM     39  C   UNL A   1      39.944  28.736  29.593  1.00  0.00     0.074 A 
ATOM     40  C   UNL A   1      38.885  27.749  29.648  1.00  0.00     0.031 C 
ATOM     41  C   UNL A   1      44.662  25.490  26.617  1.00  0.00     0.029 A 
ATOM     42  C   UNL A   1      44.723  26.851  27.136  1.00  0.00     0.049 A 
ATOM     43  H   UNL A   1      43.248  27.864  28.206  1.00  0.00     0.167 HD
ATOM     44  C   UNL A   1      39.871  29.980  30.127  1.00  0.00     0.034 A 
ATOM     45  C   UNL A   1      45.770  27.689  27.002  1.00  0.00     0.034 A 
ATOM     46  C   UNL A   1      40.950  30.936  30.066  1.00  0.00     0.049 A 
ATOM     47  C   UNL A   1      45.641  29.090  27.538  1.00  0.00     0.074 A 
ATOM     48  C   UNL A   1      40.995  32.225  30.568  1.00  0.00     0.029 A 
ATOM     49  N   UNL A   1      42.181  30.703  29.463  1.00  0.00    -0.354 N 
ATOM     50  N   UNL A   1      44.619  29.651  28.141  1.00  0.00    -0.248 NA
ATOM     51  C   UNL A   1      46.801  29.973  27.365  1.00  0.00     0.031 C 
ATOM     52  C   UNL A   1      42.229  32.788  30.219  1.00  0.00     0.029 A 
ATOM     53  C   UNL A   1      42.982  31.830  29.559  1.00  0.00     0.049 A 
ATOM     54  H   UNL A   1      42.446  29.860  29.030  1.00  0.00     0.167 HD
ATOM     55  C   UNL A   1      45.021  30.948  28.442  1.00  0.00     0.074 A 
ATOM     56  C   UNL A   1      46.382  31.081  27.959  1.00  0.00     0.031 C 
ATOM     57  C   UNL A   1      44.333  31.939  29.062  1.00  0.00     0.034 A 
BRANCH  44  58
ATOM     58  C   UNL A   1      38.561  30.388  30.754  1.00  0.00     0.023 A 
ATOM     59  C   UNL A   1      37.541  31.011  30.013  1.00  0.00     0.031 A 
ATOM     60  C   UNL A   1      38.347  30.188  32.130  1.00  0.00     0.131 A 
ATOM     61  C   UNL A   1      36.387  31.475  30.665  1.00  0.00     0.055 A 
ATOM     62  C   UNL A   1      37.164  30.584  32.757  1.00  0.00     0.041 A 
ATOM     63  F   UNL A   1      39.294  29.620  32.894  1.00  0.00    -0.206 F 
ATOM     64  C   UNL A   1      36.182  31.244  32.028  1.00  0.00     0.022 A 
BRANCH  61  65
ATOM     65  S   UNL A   1      35.221  32.508  29.734  1.00  0.00     0.124 S 
ATOM     66  O   UNL A   1      36.084  33.598  29.286  1.00  0.00    -0.237 OA
ATOM     67  O   UNL A   1      34.750  31.597  28.698  1.00  0.00    -0.237 OA
ATOM     68  O   UNL A   1      34.223  32.884  30.735  1.00  0.00    -0.744 OA
ENDBRANCH  61  65
ENDBRANCH  44  58
BRANCH  45  69
ATOM     69  C   UNL A   1      46.992  27.250  26.272  1.00  0.00     0.023 A 
ATOM     70  C   UNL A   1      48.039  26.596  26.939  1.00  0.00     0.031 A 
ATOM     71  C   UNL A   1      47.139  27.499  24.895  1.00  0.00     0.131 A 
ATOM     72  C   UNL A   1      49.199  26.239  26.234  1.00  0.00     0.055 A 
ATOM     73  C   UNL A   1      48.273  27.098  24.188  1.00  0.00     0.041 A 
ATOM     74  F   UNL A   1      46.166  28.121  24.209  1.00  0.00    -0.206 F 
ATOM     75  C   UNL A   1      49.318  26.473  24.862  1.00  0.00     0.022 A 
BRANCH  72  76
ATOM     76  S   UNL A   1      50.588  25.521  27.154  1.00  0.00     0.124 S 
ATOM     77  O   UNL A   1      51.623  25.459  26.128  1.00  0.00    -0.237 OA
ATOM     78  O   UNL A   1      50.790  26.505  28.212  1.00  0.00    -0.237 OA
ATOM     79  O   UNL A   1      50.070  24.229  27.598  1.00  0.00    -0.744 OA
ENDBRANCH  72  76
ENDBRANCH  45  69
BRANCH  57  80
ATOM     80  C   UNL A   1      45.070  33.232  29.295  1.00  0.00     0.023 A 
ATOM     81  C   UNL A   1      45.028  34.283  28.363  1.00  0.00     0.031 A 
ATOM     82  C   UNL A   1      45.829  33.405  30.464  1.00  0.00     0.131 A 
ATOM     83  C   UNL A   1      45.773  35.447  28.596  1.00  0.00     0.055 A 
ATOM     84  C   UNL A   1      46.528  34.587  30.715  1.00  0.00     0.041 A 
ATOM     85  F   UNL A   1      45.901  32.429  31.383  1.00  0.00    -0.206 F 
ATOM     86  C   UNL A   1      46.510  35.612  29.773  1.00  0.00     0.022 A 
BRANCH  83  87
ATOM     87  S   UNL A   1      45.821  36.725  27.310  1.00  0.00     0.124 S 
ATOM     88  O   UNL A   1      46.531  37.807  27.985  1.00  0.00    -0.237 OA
ATOM     89  O   UNL A   1      46.548  36.059  26.234  1.00  0.00    -0.237 OA
ATOM     90  O   UNL A   1      44.410  36.986  27.033  1.00  0.00    -0.744 OA
ENDBRANCH  83  87
ENDBRANCH  57  80
ENDBRANCH  31  32
ENDBRANCH  24  26
ENDBRANCH  23  24
ENDBRANCH  22  23
ENDBRANCH   1  22
TORSDOF 17
ENDMDL
MODEL 3
REMARK VINA RESULT:     -11.3      1.438      1.657
REMARK SMILES COc1cccc(C(=O)N[C@H]2C=C[C@@H](C(=O)OCCOC(=O)c3ccc(-c4c5nc(c(-c6cc(S(=O)(=O)[O-])ccc6F)c6ccc([nH]6)c(-c6cc(S(=O)(=O)[O-])ccc6F)c6nc(c(-c7cc(S(=O)(=O)[O-])ccc7F)c7ccc4[nH]7)C=C6)C=C5)cc3)C2)c1
REMARK SMILES IDX 18 1 17 2 15 3 16 4 14 5 11 6 12 7 86 8 13 9 10 10 8 11 9 12
REMARK SMILES IDX 7 14 3 15 4 16 87 17 5 18 6 19 2 20 1 21 19 22 20 23 21 24
REMARK SMILES IDX 22 25 23 26 24 27 85 28 25 29 84 30 26 31 27 32 28 33 78 34
REMARK SMILES IDX 29 35 83 36 77 37 79 38 30 39 82 40 76 41 75 42 31 44 63 45
REMARK SMILES IDX 43 46 62 47 44 48 47 49 61 50 80 51 45 52 46 53 60 55 81 56
REMARK SMILES IDX 48 57 32 58 33 59 41 60 34 61 40 62 42 63 39 64 35 65 36 66
REMARK SMILES IDX 37 67 38 68 64 69 65 70 73 71 66 72 72 73 74 74 71 75 67 76
REMARK SMILES IDX 68 77 69 78 70 79 49 80 50 81 58 82 51 83 57 84 59 85 56 86
REMARK SMILES IDX 52 87 53 88 54 89 55 90
REMARK H PARENT 10 13 79 43 47 54
REMARK Flexibility Score: inf
ROOT
ATOM      1  C   UNL A   1      31.481  28.800  24.551  1.00  0.00     0.274 C 
ENDROOT
BRANCH   1   2
ATOM      2  O   UNL A   1      31.946  27.548  25.083  1.00  0.00    -0.462 OA
BRANCH   2   3
ATOM      3  C   UNL A   1      31.194  26.982  26.064  1.00  0.00     0.312 C 
ATOM      4  O   UNL A   1      31.225  27.317  27.242  1.00  0.00    -0.252 OA
BRANCH   3   5
ATOM      5  C   UNL A   1      30.194  25.973  25.498  1.00  0.00     0.124 C 
ATOM      6  C   UNL A   1      30.662  24.422  23.665  1.00  0.00     0.106 C 
ATOM      7  C   UNL A   1      30.824  23.753  24.973  1.00  0.00    -0.006 C 
ATOM      8  C   UNL A   1      30.208  25.846  23.972  1.00  0.00     0.048 C 
ATOM      9  C   UNL A   1      30.504  24.578  25.977  1.00  0.00    -0.014 C 
BRANCH   6  10
ATOM     10  N   UNL A   1      31.784  24.324  22.755  1.00  0.00    -0.346 N 
ATOM     11  C   UNL A   1      33.141  24.199  22.728  1.00  0.00     0.251 C 
ATOM     12  O   UNL A   1      33.640  24.481  21.629  1.00  0.00    -0.269 OA
ATOM     13  H   UNL A   1      31.448  24.361  21.830  1.00  0.00     0.164 HD
BRANCH  11  14
ATOM     14  C   UNL A   1      34.076  23.743  23.801  1.00  0.00     0.043 A 
ATOM     15  C   UNL A   1      35.553  22.206  24.978  1.00  0.00     0.119 A 
ATOM     16  C   UNL A   1      35.884  23.186  25.907  1.00  0.00     0.046 A 
ATOM     17  C   UNL A   1      34.651  22.483  23.938  1.00  0.00     0.060 A 
ATOM     18  C   UNL A   1      35.340  24.456  25.786  1.00  0.00     0.005 A 
ATOM     19  C   UNL A   1      34.446  24.725  24.747  1.00  0.00     0.014 A 
BRANCH  15  20
ATOM     20  O   UNL A   1      36.109  20.975  25.200  1.00  0.00    -0.497 OA
ATOM     21  C   UNL A   1      37.411  20.815  24.644  1.00  0.00     0.278 C 
ENDBRANCH  15  20
ENDBRANCH  11  14
ENDBRANCH   6  10
ENDBRANCH   3   5
ENDBRANCH   2   3
ENDBRANCH   1   2
BRANCH   1  22
ATOM     22  C   UNL A   1      31.621  29.887  25.616  1.00  0.00     0.275 C 
BRANCH  22  23
ATOM     23  O   UNL A   1      33.009  30.177  25.870  1.00  0.00    -0.458 OA
BRANCH  23  24
ATOM     24  C   UNL A   1      33.239  31.091  26.842  1.00  0.00     0.338 C 
ATOM     25  O   UNL A   1      32.477  31.949  27.252  1.00  0.00    -0.246 OA
BRANCH  24  26
ATOM     26  C   UNL A   1      34.560  30.849  27.431  1.00  0.00     0.060 A 
ATOM     27  C   UNL A   1      34.908  29.552  27.817  1.00  0.00     0.016 A 
ATOM     28  C   UNL A   1      35.401  31.924  27.707  1.00  0.00     0.016 A 
ATOM     29  C   UNL A   1      36.079  29.329  28.529  1.00  0.00     0.010 A 
ATOM     30  C   UNL A   1      36.609  31.688  28.368  1.00  0.00     0.010 A 
ATOM     31  C   UNL A   1      36.946  30.392  28.801  1.00  0.00    -0.014 A 
BRANCH  31  32
ATOM     32  C   UNL A   1      38.195  30.158  29.563  1.00  0.00     0.031 A 
ATOM     33  C   UNL A   1      39.229  29.215  29.018  1.00  0.00     0.074 A 
ATOM     34  C   UNL A   1      38.387  30.784  30.739  1.00  0.00     0.049 A 
ATOM     35  N   UNL A   1      40.283  28.714  29.604  1.00  0.00    -0.248 NA
ATOM     36  C   UNL A   1      39.038  28.771  27.629  1.00  0.00     0.031 C 
ATOM     37  C   UNL A   1      37.480  31.772  31.330  1.00  0.00     0.029 A 
ATOM     38  N   UNL A   1      39.402  30.674  31.655  1.00  0.00    -0.354 N 
ATOM     39  C   UNL A   1      40.863  27.861  28.672  1.00  0.00     0.074 A 
ATOM     40  C   UNL A   1      40.033  27.908  27.486  1.00  0.00     0.031 C 
ATOM     41  C   UNL A   1      37.979  32.176  32.509  1.00  0.00     0.029 A 
ATOM     42  C   UNL A   1      39.193  31.419  32.792  1.00  0.00     0.049 A 
ATOM     43  H   UNL A   1      40.200  30.117  31.513  1.00  0.00     0.167 HD
ATOM     44  C   UNL A   1      41.983  27.108  28.804  1.00  0.00     0.034 A 
ATOM     45  C   UNL A   1      39.872  31.445  33.956  1.00  0.00     0.034 A 
ATOM     46  C   UNL A   1      42.796  27.094  29.996  1.00  0.00     0.049 A 
ATOM     47  C   UNL A   1      41.070  30.546  34.108  1.00  0.00     0.074 A 
ATOM     48  C   UNL A   1      43.950  26.373  30.249  1.00  0.00     0.029 A 
ATOM     49  N   UNL A   1      42.537  27.842  31.140  1.00  0.00    -0.354 N 
ATOM     50  N   UNL A   1      41.580  29.699  33.244  1.00  0.00    -0.248 NA
ATOM     51  C   UNL A   1      41.777  30.599  35.394  1.00  0.00     0.031 C 
ATOM     52  C   UNL A   1      44.354  26.641  31.563  1.00  0.00     0.029 A 
ATOM     53  C   UNL A   1      43.494  27.581  32.108  1.00  0.00     0.049 A 
ATOM     54  H   UNL A   1      41.783  28.465  31.247  1.00  0.00     0.167 HD
ATOM     55  C   UNL A   1      42.683  29.133  33.874  1.00  0.00     0.074 A 
ATOM     56  C   UNL A   1      42.767  29.742  35.187  1.00  0.00     0.031 C 
ATOM     57  C   UNL A   1      43.550  28.197  33.413  1.00  0.00     0.034 A 
BRANCH  44  58
ATOM     58  C   UNL A   1      42.342  26.194  27.658  1.00  0.00     0.023 A 
ATOM     59  C   UNL A   1      41.813  24.896  27.544  1.00  0.00     0.031 A 
ATOM     60  C   UNL A   1      43.265  26.616  26.684  1.00  0.00     0.131 A 
ATOM     61  C   UNL A   1      42.264  24.044  26.524  1.00  0.00     0.055 A 
ATOM     62  C   UNL A   1      43.652  25.789  25.628  1.00  0.00     0.041 A 
ATOM     63  F   UNL A   1      43.823  27.835  26.754  1.00  0.00    -0.206 F 
ATOM     64  C   UNL A   1      43.163  24.490  25.552  1.00  0.00     0.022 A 
BRANCH  61  65
ATOM     65  S   UNL A   1      41.766  22.299  26.567  1.00  0.00     0.124 S 
ATOM     66  O   UNL A   1      42.327  21.801  25.313  1.00  0.00    -0.237 OA
ATOM     67  O   UNL A   1      42.403  21.819  27.788  1.00  0.00    -0.237 OA
ATOM     68  O   UNL A   1      40.306  22.360  26.607  1.00  0.00    -0.744 OA
ENDBRANCH  61  65
ENDBRANCH  44  58
BRANCH  45  69
ATOM     69  C   UNL A   1      39.393  32.292  35.085  1.00  0.00     0.023 A 
ATOM     70  C   UNL A   1      38.717  31.728  36.177  1.00  0.00     0.031 A 
ATOM     71  C   UNL A   1      39.588  33.684  35.075  1.00  0.00     0.131 A 
ATOM     72  C   UNL A   1      38.235  32.558  37.202  1.00  0.00     0.055 A 
ATOM     73  C   UNL A   1      39.150  34.500  36.119  1.00  0.00     0.041 A 
ATOM     74  F   UNL A   1      40.230  34.274  34.053  1.00  0.00    -0.206 F 
ATOM     75  C   UNL A   1      38.458  33.936  37.187  1.00  0.00     0.022 A 
BRANCH  72  76
ATOM     76  S   UNL A   1      37.246  31.814  38.528  1.00  0.00     0.124 S 
ATOM     77  O   UNL A   1      37.039  30.462  38.022  1.00  0.00    -0.237 OA
ATOM     78  O   UNL A   1      38.137  31.940  39.677  1.00  0.00    -0.237 OA
ATOM     79  O   UNL A   1      36.052  32.654  38.574  1.00  0.00    -0.744 OA
ENDBRANCH  72  76
ENDBRANCH  45  69
BRANCH  57  80
ATOM     80  C   UNL A   1      44.691  27.824  34.322  1.00  0.00     0.023 A 
ATOM     81  C   UNL A   1      44.575  26.788  35.264  1.00  0.00     0.031 A 
ATOM     82  C   UNL A   1      45.908  28.524  34.245  1.00  0.00     0.131 A 
ATOM     83  C   UNL A   1      45.645  26.511  36.127  1.00  0.00     0.055 A 
ATOM     84  C   UNL A   1      46.986  28.209  35.072  1.00  0.00     0.041 A 
ATOM     85  F   UNL A   1      46.066  29.522  33.361  1.00  0.00    -0.206 F 
ATOM     86  C   UNL A   1      46.855  27.205  36.026  1.00  0.00     0.022 A 
BRANCH  83  87
ATOM     87  S   UNL A   1      45.415  25.272  37.432  1.00  0.00     0.124 S 
ATOM     88  O   UNL A   1      44.065  24.792  37.159  1.00  0.00    -0.237 OA
ATOM     89  O   UNL A   1      46.495  24.328  37.160  1.00  0.00    -0.237 OA
ATOM     90  O   UNL A   1      45.564  26.042  38.666  1.00  0.00    -0.744 OA
ENDBRANCH  83  87
ENDBRANCH  57  80
ENDBRANCH  31  32
ENDBRANCH  24  26
ENDBRANCH  23  24
ENDBRANCH  22  23
ENDBRANCH   1  22
TORSDOF 17
ENDMDL
