MODEL 1
REMARK VINA RESULT:     -10.6      0.000      0.000
REMARK SMILES CCC(CC)(NC(=O)NCCc1nccs1)C(=O)OCCOC(=O)c1ccc(-c2c3nc(c(-c4cc(S(=O)(=O)[O-])ccc4F)c4ccc([nH]4)c(-c4cc(S(=O)(=O)[O-])ccc4F)c4nc(c(-c5cc(S(=O)(=O)[O-])ccc5F)c5ccc2[nH]5)C=C4)C=C3)cc1
REMARK SMILES IDX 20 1 19 2 17 3 18 4 3 5 2 6 1 7 4 8 5 9 6 10 7 11 8 13 9 14
REMARK SMILES IDX 10 16 11 17 12 18 13 19 16 20 14 21 15 22 21 23 22 24 23 25
REMARK SMILES IDX 24 26 25 27 26 28 87 29 27 30 86 31 28 32 29 33 30 34 80 35
REMARK SMILES IDX 31 36 85 37 79 38 81 39 32 40 84 41 78 42 77 43 33 45 65 46
REMARK SMILES IDX 45 47 64 48 46 49 49 50 63 51 82 52 47 53 48 54 62 56 83 57
REMARK SMILES IDX 50 58 34 59 35 60 43 61 36 62 42 63 44 64 41 65 37 66 38 67
REMARK SMILES IDX 39 68 40 69 66 70 67 71 75 72 68 73 74 74 76 75 73 76 69 77
REMARK SMILES IDX 70 78 71 79 72 80 51 81 52 82 60 83 53 84 59 85 61 86 58 87
REMARK SMILES IDX 54 88 55 89 56 90 57 91
REMARK H PARENT 6 12 9 15 81 44 49 55
REMARK Flexibility Score: inf
ROOT
ATOM      1  C   UNL A   1      31.547  28.705  27.201  1.00  0.00     0.274 C 
ENDROOT
BRANCH   1   2
ATOM      2  O   UNL A   1      32.387  27.635  26.705  1.00  0.00    -0.460 OA
BRANCH   2   3
ATOM      3  C   UNL A   1      31.855  26.799  25.784  1.00  0.00     0.332 C 
ATOM      4  O   UNL A   1      30.703  26.381  25.863  1.00  0.00    -0.249 OA
BRANCH   3   5
ATOM      5  C   UNL A   1      32.875  26.347  24.675  1.00  0.00     0.139 C 
BRANCH   5   6
ATOM      6  C   UNL A   1      32.161  25.328  23.704  1.00  0.00     0.037 C 
ATOM      7  C   UNL A   1      32.875  24.902  22.431  1.00  0.00     0.007 C 
ENDBRANCH   5   6
BRANCH   5   8
ATOM      8  C   UNL A   1      34.033  25.649  25.444  1.00  0.00     0.037 C 
ATOM      9  C   UNL A   1      33.712  24.294  26.057  1.00  0.00     0.007 C 
ENDBRANCH   5   8
BRANCH   5  10
ATOM     10  N   UNL A   1      33.409  27.396  23.731  1.00  0.00    -0.322 N 
ATOM     11  C   UNL A   1      33.051  28.505  23.090  1.00  0.00     0.315 C 
ATOM     12  H   UNL A   1      34.346  27.188  23.516  1.00  0.00     0.166 HD
ATOM     13  O   UNL A   1      33.961  29.266  22.748  1.00  0.00    -0.249 OA
ATOM     14  N   UNL A   1      31.808  28.877  22.784  1.00  0.00    -0.338 N 
ATOM     15  H   UNL A   1      31.669  29.846  22.686  1.00  0.00     0.165 HD
BRANCH  14  16
ATOM     16  C   UNL A   1      30.638  28.062  22.575  1.00  0.00     0.125 C 
BRANCH  16  17
ATOM     17  C   UNL A   1      29.354  28.603  23.209  1.00  0.00     0.089 C 
BRANCH  17  18
ATOM     18  C   UNL A   1      28.959  29.896  22.554  1.00  0.00     0.094 A 
ATOM     19  N   UNL A   1      29.041  30.119  21.260  1.00  0.00    -0.250 NA
ATOM     20  S   UNL A   1      28.277  31.180  23.476  1.00  0.00    -0.127 S 
ATOM     21  C   UNL A   1      28.481  31.342  20.955  1.00  0.00     0.123 A 
ATOM     22  C   UNL A   1      28.027  32.071  22.033  1.00  0.00     0.087 A 
ENDBRANCH  17  18
ENDBRANCH  16  17
ENDBRANCH  14  16
ENDBRANCH   5  10
ENDBRANCH   3   5
ENDBRANCH   2   3
ENDBRANCH   1   2
BRANCH   1  23
ATOM     23  C   UNL A   1      31.619  29.893  26.237  1.00  0.00     0.275 C 
BRANCH  23  24
ATOM     24  O   UNL A   1      32.982  30.339  26.159  1.00  0.00    -0.458 OA
BRANCH  24  25
ATOM     25  C   UNL A   1      33.270  31.393  26.957  1.00  0.00     0.338 C 
ATOM     26  O   UNL A   1      32.548  32.339  27.241  1.00  0.00    -0.246 OA
BRANCH  25  27
ATOM     27  C   UNL A   1      34.495  31.049  27.680  1.00  0.00     0.060 A 
ATOM     28  C   UNL A   1      35.353  32.102  27.993  1.00  0.00     0.016 A 
ATOM     29  C   UNL A   1      34.787  29.753  28.078  1.00  0.00     0.016 A 
ATOM     30  C   UNL A   1      36.519  31.881  28.709  1.00  0.00     0.010 A 
ATOM     31  C   UNL A   1      35.952  29.527  28.817  1.00  0.00     0.010 A 
ATOM     32  C   UNL A   1      36.819  30.590  29.141  1.00  0.00    -0.014 A 
BRANCH  32  33
ATOM     33  C   UNL A   1      38.074  30.335  29.884  1.00  0.00     0.031 A 
ATOM     34  C   UNL A   1      39.107  29.443  29.267  1.00  0.00     0.074 A 
ATOM     35  C   UNL A   1      38.279  30.911  31.083  1.00  0.00     0.049 A 
ATOM     36  N   UNL A   1      40.160  28.896  29.809  1.00  0.00    -0.248 NA
ATOM     37  C   UNL A   1      38.916  29.119  27.845  1.00  0.00     0.031 C 
ATOM     38  C   UNL A   1      37.387  31.885  31.718  1.00  0.00     0.029 A 
ATOM     39  N   UNL A   1      39.299  30.758  31.988  1.00  0.00    -0.354 N 
ATOM     40  C   UNL A   1      40.738  28.123  28.807  1.00  0.00     0.074 A 
ATOM     41  C   UNL A   1      39.910  28.272  27.628  1.00  0.00     0.031 C 
ATOM     42  C   UNL A   1      37.899  32.239  32.907  1.00  0.00     0.029 A 
ATOM     43  C   UNL A   1      39.101  31.453  33.159  1.00  0.00     0.049 A 
ATOM     44  H   UNL A   1      40.094  30.203  31.816  1.00  0.00     0.167 HD
ATOM     45  C   UNL A   1      41.852  27.355  28.882  1.00  0.00     0.034 A 
ATOM     46  C   UNL A   1      39.782  31.410  34.322  1.00  0.00     0.034 A 
ATOM     47  C   UNL A   1      42.648  27.240  30.080  1.00  0.00     0.049 A 
ATOM     48  C   UNL A   1      40.958  30.469  34.417  1.00  0.00     0.074 A 
ATOM     49  C   UNL A   1      43.774  26.470  30.303  1.00  0.00     0.029 A 
ATOM     50  N   UNL A   1      42.393  27.923  31.266  1.00  0.00    -0.354 N 
ATOM     51  N   UNL A   1      41.454  29.672  33.497  1.00  0.00    -0.248 NA
ATOM     52  C   UNL A   1      41.658  30.411  35.704  1.00  0.00     0.031 C 
ATOM     53  C   UNL A   1      44.159  26.635  31.639  1.00  0.00     0.029 A 
ATOM     54  C   UNL A   1      43.325  27.573  32.230  1.00  0.00     0.049 A 
ATOM     55  H   UNL A   1      41.657  28.563  31.401  1.00  0.00     0.167 HD
ATOM     56  C   UNL A   1      42.542  29.038  34.088  1.00  0.00     0.074 A 
ATOM     57  C   UNL A   1      42.637  29.560  35.438  1.00  0.00     0.031 C 
ATOM     58  C   UNL A   1      43.388  28.110  33.570  1.00  0.00     0.034 A 
BRANCH  45  59
ATOM     59  C   UNL A   1      42.202  26.526  27.669  1.00  0.00     0.023 A 
ATOM     60  C   UNL A   1      41.752  25.204  27.509  1.00  0.00     0.031 A 
ATOM     61  C   UNL A   1      43.062  27.049  26.686  1.00  0.00     0.131 A 
ATOM     62  C   UNL A   1      42.228  24.425  26.441  1.00  0.00     0.055 A 
ATOM     63  C   UNL A   1      43.465  26.296  25.580  1.00  0.00     0.041 A 
ATOM     64  F   UNL A   1      43.549  28.295  26.795  1.00  0.00    -0.206 F 
ATOM     65  C   UNL A   1      43.062  24.971  25.462  1.00  0.00     0.022 A 
BRANCH  62  66
ATOM     66  S   UNL A   1      41.873  22.646  26.439  1.00  0.00     0.124 S 
ATOM     67  O   UNL A   1      40.414  22.638  26.398  1.00  0.00    -0.237 OA
ATOM     68  O   UNL A   1      42.549  22.191  25.229  1.00  0.00    -0.237 OA
ATOM     69  O   UNL A   1      42.458  22.178  27.694  1.00  0.00    -0.744 OA
ENDBRANCH  62  66
ENDBRANCH  45  59
BRANCH  46  70
ATOM     70  C   UNL A   1      39.332  32.205  35.503  1.00  0.00     0.023 A 
ATOM     71  C   UNL A   1      39.734  33.539  35.680  1.00  0.00     0.031 A 
ATOM     72  C   UNL A   1      38.527  31.627  36.504  1.00  0.00     0.131 A 
ATOM     73  C   UNL A   1      39.367  34.234  36.844  1.00  0.00     0.055 A 
ATOM     74  C   UNL A   1      38.115  32.342  37.630  1.00  0.00     0.041 A 
ATOM     75  F   UNL A   1      38.118  30.353  36.397  1.00  0.00    -0.206 F 
ATOM     76  C   UNL A   1      38.546  33.651  37.812  1.00  0.00     0.022 A 
BRANCH  73  77
ATOM     77  S   UNL A   1      40.056  35.889  37.122  1.00  0.00     0.124 S 
ATOM     78  O   UNL A   1      41.479  35.601  37.254  1.00  0.00    -0.237 OA
ATOM     79  O   UNL A   1      39.653  36.592  35.908  1.00  0.00    -0.237 OA
ATOM     80  O   UNL A   1      39.393  36.333  38.346  1.00  0.00    -0.744 OA
ENDBRANCH  73  77
ENDBRANCH  46  70
BRANCH  58  81
ATOM     81  C   UNL A   1      44.518  27.652  34.458  1.00  0.00     0.023 A 
ATOM     82  C   UNL A   1      44.398  26.524  35.288  1.00  0.00     0.031 A 
ATOM     83  C   UNL A   1      45.730  28.366  34.478  1.00  0.00     0.131 A 
ATOM     84  C   UNL A   1      45.451  26.176  36.146  1.00  0.00     0.055 A 
ATOM     85  C   UNL A   1      46.797  27.976  35.286  1.00  0.00     0.041 A 
ATOM     86  F   UNL A   1      45.894  29.453  33.708  1.00  0.00    -0.206 F 
ATOM     87  C   UNL A   1      46.656  26.883  36.136  1.00  0.00     0.022 A 
BRANCH  84  88
ATOM     88  S   UNL A   1      45.187  24.846  37.349  1.00  0.00     0.124 S 
ATOM     89  O   UNL A   1      44.460  23.860  36.556  1.00  0.00    -0.237 OA
ATOM     90  O   UNL A   1      46.551  24.485  37.720  1.00  0.00    -0.237 OA
ATOM     91  O   UNL A   1      44.407  25.488  38.405  1.00  0.00    -0.744 OA
ENDBRANCH  84  88
ENDBRANCH  58  81
ENDBRANCH  32  33
ENDBRANCH  25  27
ENDBRANCH  24  25
ENDBRANCH  23  24
ENDBRANCH   1  23
TORSDOF 20
ENDMDL
MODEL 2
REMARK VINA RESULT:     -10.4      1.418      1.744
REMARK SMILES CCC(CC)(NC(=O)NCCc1nccs1)C(=O)OCCOC(=O)c1ccc(-c2c3nc(c(-c4cc(S(=O)(=O)[O-])ccc4F)c4ccc([nH]4)c(-c4cc(S(=O)(=O)[O-])ccc4F)c4nc(c(-c5cc(S(=O)(=O)[O-])ccc5F)c5ccc2[nH]5)C=C4)C=C3)cc1
REMARK SMILES IDX 20 1 19 2 17 3 18 4 3 5 2 6 1 7 4 8 5 9 6 10 7 11 8 13 9 14
REMARK SMILES IDX 10 16 11 17 12 18 13 19 16 20 14 21 15 22 21 23 22 24 23 25
REMARK SMILES IDX 24 26 25 27 26 28 87 29 27 30 86 31 28 32 29 33 30 34 80 35
REMARK SMILES IDX 31 36 85 37 79 38 81 39 32 40 84 41 78 42 77 43 33 45 65 46
REMARK SMILES IDX 45 47 64 48 46 49 49 50 63 51 82 52 47 53 48 54 62 56 83 57
REMARK SMILES IDX 50 58 34 59 35 60 43 61 36 62 42 63 44 64 41 65 37 66 38 67
REMARK SMILES IDX 39 68 40 69 66 70 67 71 75 72 68 73 74 74 76 75 73 76 69 77
REMARK SMILES IDX 70 78 71 79 72 80 51 81 52 82 60 83 53 84 59 85 61 86 58 87
REMARK SMILES IDX 54 88 55 89 56 90 57 91
REMARK H PARENT 6 12 9 15 81 44 49 55
REMARK Flexibility Score: inf
ROOT
ATOM      1  C   UNL A   1      31.667  28.397  27.026  1.00  0.00     0.274 C 
ENDROOT
BRANCH   1   2
ATOM      2  O   UNL A   1      32.241  27.200  26.446  1.00  0.00    -0.460 OA
BRANCH   2   3
ATOM      3  C   UNL A   1      31.434  26.429  25.682  1.00  0.00     0.332 C 
ATOM      4  O   UNL A   1      30.263  26.207  25.977  1.00  0.00    -0.249 OA
BRANCH   3   5
ATOM      5  C   UNL A   1      32.164  25.777  24.450  1.00  0.00     0.139 C 
BRANCH   5   6
ATOM      6  C   UNL A   1      31.092  25.076  23.529  1.00  0.00     0.037 C 
ATOM      7  C   UNL A   1      31.028  23.558  23.498  1.00  0.00     0.007 C 
ENDBRANCH   5   6
BRANCH   5   8
ATOM      8  C   UNL A   1      33.133  24.724  25.058  1.00  0.00     0.037 C 
ATOM      9  C   UNL A   1      34.602  25.118  25.116  1.00  0.00     0.007 C 
ENDBRANCH   5   8
BRANCH   5  10
ATOM     10  N   UNL A   1      32.890  26.688  23.491  1.00  0.00    -0.322 N 
ATOM     11  C   UNL A   1      32.768  27.854  22.860  1.00  0.00     0.315 C 
ATOM     12  H   UNL A   1      33.752  26.280  23.249  1.00  0.00     0.166 HD
ATOM     13  O   UNL A   1      33.814  28.397  22.492  1.00  0.00    -0.249 OA
ATOM     14  N   UNL A   1      31.629  28.492  22.590  1.00  0.00    -0.338 N 
ATOM     15  H   UNL A   1      31.706  29.469  22.496  1.00  0.00     0.165 HD
BRANCH  14  16
ATOM     16  C   UNL A   1      30.303  27.957  22.415  1.00  0.00     0.125 C 
BRANCH  16  17
ATOM     17  C   UNL A   1      29.206  28.685  23.197  1.00  0.00     0.089 C 
BRANCH  17  18
ATOM     18  C   UNL A   1      28.864  29.983  22.521  1.00  0.00     0.094 A 
ATOM     19  N   UNL A   1      28.543  30.086  21.249  1.00  0.00    -0.250 NA
ATOM     20  S   UNL A   1      28.792  31.451  23.415  1.00  0.00    -0.127 S 
ATOM     21  C   UNL A   1      28.154  31.378  20.963  1.00  0.00     0.123 A 
ATOM     22  C   UNL A   1      28.240  32.267  22.012  1.00  0.00     0.087 A 
ENDBRANCH  17  18
ENDBRANCH  16  17
ENDBRANCH  14  16
ENDBRANCH   5  10
ENDBRANCH   3   5
ENDBRANCH   2   3
ENDBRANCH   1   2
BRANCH   1  23
ATOM     23  C   UNL A   1      31.749  29.541  26.011  1.00  0.00     0.275 C 
BRANCH  23  24
ATOM     24  O   UNL A   1      33.082  30.075  26.028  1.00  0.00    -0.458 OA
BRANCH  24  25
ATOM     25  C   UNL A   1      33.269  31.081  26.913  1.00  0.00     0.338 C 
ATOM     26  O   UNL A   1      32.461  31.930  27.265  1.00  0.00    -0.246 OA
BRANCH  25  27
ATOM     27  C   UNL A   1      34.516  30.790  27.621  1.00  0.00     0.060 A 
ATOM     28  C   UNL A   1      35.321  31.881  27.943  1.00  0.00     0.016 A 
ATOM     29  C   UNL A   1      34.878  29.504  27.997  1.00  0.00     0.016 A 
ATOM     30  C   UNL A   1      36.503  31.710  28.647  1.00  0.00     0.010 A 
ATOM     31  C   UNL A   1      36.059  29.328  28.722  1.00  0.00     0.010 A 
ATOM     32  C   UNL A   1      36.873  30.429  29.056  1.00  0.00    -0.014 A 
BRANCH  32  33
ATOM     33  C   UNL A   1      38.146  30.229  29.785  1.00  0.00     0.031 A 
ATOM     34  C   UNL A   1      39.198  29.358  29.170  1.00  0.00     0.074 A 
ATOM     35  C   UNL A   1      38.350  30.835  30.970  1.00  0.00     0.049 A 
ATOM     36  N   UNL A   1      40.275  28.854  29.706  1.00  0.00    -0.248 NA
ATOM     37  C   UNL A   1      38.997  29.000  27.758  1.00  0.00     0.031 C 
ATOM     38  C   UNL A   1      37.437  31.793  31.598  1.00  0.00     0.029 A 
ATOM     39  N   UNL A   1      39.387  30.732  31.861  1.00  0.00    -0.354 N 
ATOM     40  C   UNL A   1      40.863  28.081  28.711  1.00  0.00     0.074 A 
ATOM     41  C   UNL A   1      40.013  28.180  27.542  1.00  0.00     0.031 C 
ATOM     42  C   UNL A   1      37.955  32.187  32.773  1.00  0.00     0.029 A 
ATOM     43  C   UNL A   1      39.185  31.444  33.022  1.00  0.00     0.049 A 
ATOM     44  H   UNL A   1      40.197  30.199  31.688  1.00  0.00     0.167 HD
ATOM     45  C   UNL A   1      42.002  27.349  28.784  1.00  0.00     0.034 A 
ATOM     46  C   UNL A   1      39.883  31.445  34.175  1.00  0.00     0.034 A 
ATOM     47  C   UNL A   1      42.818  27.283  29.973  1.00  0.00     0.049 A 
ATOM     48  C   UNL A   1      41.089  30.543  34.270  1.00  0.00     0.074 A 
ATOM     49  C   UNL A   1      43.971  26.553  30.194  1.00  0.00     0.029 A 
ATOM     50  N   UNL A   1      42.559  27.981  31.149  1.00  0.00    -0.354 N 
ATOM     51  N   UNL A   1      41.597  29.744  33.359  1.00  0.00    -0.248 NA
ATOM     52  C   UNL A   1      41.810  30.533  35.548  1.00  0.00     0.031 C 
ATOM     53  C   UNL A   1      44.370  26.757  31.520  1.00  0.00     0.029 A 
ATOM     54  C   UNL A   1      43.515  27.679  32.105  1.00  0.00     0.049 A 
ATOM     55  H   UNL A   1      41.805  28.601  31.282  1.00  0.00     0.167 HD
ATOM     56  C   UNL A   1      42.713  29.156  33.946  1.00  0.00     0.074 A 
ATOM     57  C   UNL A   1      42.811  29.708  35.283  1.00  0.00     0.031 C 
ATOM     58  C   UNL A   1      43.581  28.245  33.434  1.00  0.00     0.034 A 
BRANCH  45  59
ATOM     59  C   UNL A   1      42.360  26.508  27.583  1.00  0.00     0.023 A 
ATOM     60  C   UNL A   1      42.114  25.124  27.536  1.00  0.00     0.031 A 
ATOM     61  C   UNL A   1      43.025  27.092  26.489  1.00  0.00     0.131 A 
ATOM     62  C   UNL A   1      42.603  24.361  26.463  1.00  0.00     0.055 A 
ATOM     63  C   UNL A   1      43.434  26.341  25.385  1.00  0.00     0.041 A 
ATOM     64  F   UNL A   1      43.314  28.403  26.486  1.00  0.00    -0.206 F 
ATOM     65  C   UNL A   1      43.239  24.964  25.375  1.00  0.00     0.022 A 
BRANCH  62  66
ATOM     66  S   UNL A   1      42.540  22.552  26.584  1.00  0.00     0.124 S 
ATOM     67  O   UNL A   1      43.956  22.203  26.515  1.00  0.00    -0.237 OA
ATOM     68  O   UNL A   1      41.892  22.345  27.874  1.00  0.00    -0.237 OA
ATOM     69  O   UNL A   1      41.750  22.157  25.419  1.00  0.00    -0.744 OA
ENDBRANCH  62  66
ENDBRANCH  45  59
BRANCH  46  70
ATOM     70  C   UNL A   1      39.425  32.249  35.347  1.00  0.00     0.023 A 
ATOM     71  C   UNL A   1      38.723  31.656  36.408  1.00  0.00     0.031 A 
ATOM     72  C   UNL A   1      39.643  33.639  35.404  1.00  0.00     0.131 A 
ATOM     73  C   UNL A   1      38.229  32.452  37.456  1.00  0.00     0.055 A 
ATOM     74  C   UNL A   1      39.203  34.416  36.477  1.00  0.00     0.041 A 
ATOM     75  F   UNL A   1      40.300  34.266  34.415  1.00  0.00    -0.206 F 
ATOM     76  C   UNL A   1      38.479  33.825  37.506  1.00  0.00     0.022 A 
BRANCH  73  77
ATOM     77  S   UNL A   1      37.171  31.679  38.711  1.00  0.00     0.124 S 
ATOM     78  O   UNL A   1      37.013  30.331  38.178  1.00  0.00    -0.237 OA
ATOM     79  O   UNL A   1      37.989  31.803  39.913  1.00  0.00    -0.237 OA
ATOM     80  O   UNL A   1      35.964  32.504  38.693  1.00  0.00    -0.744 OA
ENDBRANCH  73  77
ENDBRANCH  46  70
BRANCH  58  81
ATOM     81  C   UNL A   1      44.737  27.841  34.313  1.00  0.00     0.023 A 
ATOM     82  C   UNL A   1      44.645  26.760  35.207  1.00  0.00     0.031 A 
ATOM     83  C   UNL A   1      45.945  28.558  34.259  1.00  0.00     0.131 A 
ATOM     84  C   UNL A   1      45.723  26.464  36.054  1.00  0.00     0.055 A 
ATOM     85  C   UNL A   1      47.037  28.216  35.057  1.00  0.00     0.041 A 
ATOM     86  F   UNL A   1      46.083  29.601  33.426  1.00  0.00    -0.206 F 
ATOM     87  C   UNL A   1      46.924  27.172  35.970  1.00  0.00     0.022 A 
BRANCH  84  88
ATOM     88  S   UNL A   1      45.500  25.202  37.335  1.00  0.00     0.124 S 
ATOM     89  O   UNL A   1      45.813  25.946  38.551  1.00  0.00    -0.237 OA
ATOM     90  O   UNL A   1      44.101  24.824  37.163  1.00  0.00    -0.237 OA
ATOM     91  O   UNL A   1      46.470  24.170  36.974  1.00  0.00    -0.744 OA
ENDBRANCH  84  88
ENDBRANCH  58  81
ENDBRANCH  32  33
ENDBRANCH  25  27
ENDBRANCH  24  25
ENDBRANCH  23  24
ENDBRANCH   1  23
TORSDOF 20
ENDMDL
MODEL 3
REMARK VINA RESULT:     -10.2      5.413     10.552
REMARK SMILES CCC(CC)(NC(=O)NCCc1nccs1)C(=O)OCCOC(=O)c1ccc(-c2c3nc(c(-c4cc(S(=O)(=O)[O-])ccc4F)c4ccc([nH]4)c(-c4cc(S(=O)(=O)[O-])ccc4F)c4nc(c(-c5cc(S(=O)(=O)[O-])ccc5F)c5ccc2[nH]5)C=C4)C=C3)cc1
REMARK SMILES IDX 20 1 19 2 17 3 18 4 3 5 2 6 1 7 4 8 5 9 6 10 7 11 8 13 9 14
REMARK SMILES IDX 10 16 11 17 12 18 13 19 16 20 14 21 15 22 21 23 22 24 23 25
REMARK SMILES IDX 24 26 25 27 26 28 87 29 27 30 86 31 28 32 29 33 30 34 80 35
REMARK SMILES IDX 31 36 85 37 79 38 81 39 32 40 84 41 78 42 77 43 33 45 65 46
REMARK SMILES IDX 45 47 64 48 46 49 49 50 63 51 82 52 47 53 48 54 62 56 83 57
REMARK SMILES IDX 50 58 34 59 35 60 43 61 36 62 42 63 44 64 41 65 37 66 38 67
REMARK SMILES IDX 39 68 40 69 66 70 67 71 75 72 68 73 74 74 76 75 73 76 69 77
REMARK SMILES IDX 70 78 71 79 72 80 51 81 52 82 60 83 53 84 59 85 61 86 58 87
REMARK SMILES IDX 54 88 55 89 56 90 57 91
REMARK H PARENT 6 12 9 15 81 44 49 55
REMARK Flexibility Score: inf
ROOT
ATOM      1  C   UNL A   1      36.600  23.193  23.596  1.00  0.00     0.274 C 
ENDROOT
BRANCH   1   2
ATOM      2  O   UNL A   1      35.291  23.174  22.978  1.00  0.00    -0.460 OA
BRANCH   2   3
ATOM      3  C   UNL A   1      34.349  24.002  23.486  1.00  0.00     0.332 C 
ATOM      4  O   UNL A   1      34.566  24.734  24.447  1.00  0.00    -0.249 OA
BRANCH   3   5
ATOM      5  C   UNL A   1      32.943  23.861  22.794  1.00  0.00     0.139 C 
BRANCH   5   6
ATOM      6  C   UNL A   1      32.842  24.907  21.617  1.00  0.00     0.037 C 
ATOM      7  C   UNL A   1      33.211  26.356  21.887  1.00  0.00     0.007 C 
ENDBRANCH   5   6
BRANCH   5   8
ATOM      8  C   UNL A   1      31.905  24.187  23.905  1.00  0.00     0.037 C 
ATOM      9  C   UNL A   1      30.539  24.659  23.431  1.00  0.00     0.007 C 
ENDBRANCH   5   8
BRANCH   5  10
ATOM     10  N   UNL A   1      32.613  22.554  22.115  1.00  0.00    -0.322 N 
ATOM     11  C   UNL A   1      32.155  21.331  22.367  1.00  0.00     0.315 C 
ATOM     12  H   UNL A   1      32.801  22.635  21.153  1.00  0.00     0.166 HD
ATOM     13  O   UNL A   1      31.653  20.721  21.418  1.00  0.00    -0.249 OA
ATOM     14  N   UNL A   1      32.181  20.702  23.542  1.00  0.00    -0.338 N 
ATOM     15  H   UNL A   1      31.485  20.019  23.671  1.00  0.00     0.165 HD
BRANCH  14  16
ATOM     16  C   UNL A   1      33.084  20.880  24.651  1.00  0.00     0.125 C 
BRANCH  16  17
ATOM     17  C   UNL A   1      34.229  19.866  24.720  1.00  0.00     0.089 C 
BRANCH  17  18
ATOM     18  C   UNL A   1      33.681  18.479  24.908  1.00  0.00     0.094 A 
ATOM     19  N   UNL A   1      32.604  18.205  25.614  1.00  0.00    -0.250 NA
ATOM     20  S   UNL A   1      34.403  17.130  24.121  1.00  0.00    -0.127 S 
ATOM     21  C   UNL A   1      32.283  16.870  25.486  1.00  0.00     0.123 A 
ATOM     22  C   UNL A   1      33.156  16.121  24.726  1.00  0.00     0.087 A 
ENDBRANCH  17  18
ENDBRANCH  16  17
ENDBRANCH  14  16
ENDBRANCH   5  10
ENDBRANCH   3   5
ENDBRANCH   2   3
ENDBRANCH   1   2
BRANCH   1  23
ATOM     23  C   UNL A   1      36.856  21.848  24.282  1.00  0.00     0.275 C 
BRANCH  23  24
ATOM     24  O   UNL A   1      37.253  22.093  25.640  1.00  0.00    -0.458 OA
BRANCH  24  25
ATOM     25  C   UNL A   1      38.439  21.538  25.983  1.00  0.00     0.338 C 
ATOM     26  O   UNL A   1      38.846  20.415  25.718  1.00  0.00    -0.246 OA
BRANCH  25  27
ATOM     27  C   UNL A   1      39.288  22.627  26.463  1.00  0.00     0.060 A 
ATOM     28  C   UNL A   1      38.968  23.911  26.024  1.00  0.00     0.016 A 
ATOM     29  C   UNL A   1      40.340  22.421  27.344  1.00  0.00     0.016 A 
ATOM     30  C   UNL A   1      39.690  25.012  26.455  1.00  0.00     0.010 A 
ATOM     31  C   UNL A   1      41.061  23.529  27.796  1.00  0.00     0.010 A 
ATOM     32  C   UNL A   1      40.736  24.829  27.359  1.00  0.00    -0.014 A 
BRANCH  32  33
ATOM     33  C   UNL A   1      41.533  25.994  27.807  1.00  0.00     0.031 A 
ATOM     34  C   UNL A   1      40.863  27.051  28.630  1.00  0.00     0.074 A 
ATOM     35  C   UNL A   1      42.837  26.084  27.488  1.00  0.00     0.049 A 
ATOM     36  N   UNL A   1      41.276  28.249  28.937  1.00  0.00    -0.248 NA
ATOM     37  C   UNL A   1      39.538  26.707  29.169  1.00  0.00     0.031 C 
ATOM     38  C   UNL A   1      43.611  25.054  26.791  1.00  0.00     0.029 A 
ATOM     39  N   UNL A   1      43.745  27.091  27.703  1.00  0.00    -0.354 N 
ATOM     40  C   UNL A   1      40.245  28.825  29.671  1.00  0.00     0.074 A 
ATOM     41  C   UNL A   1      39.185  27.842  29.754  1.00  0.00     0.031 C 
ATOM     42  C   UNL A   1      44.874  25.484  26.635  1.00  0.00     0.029 A 
ATOM     43  C   UNL A   1      44.975  26.850  27.136  1.00  0.00     0.049 A 
ATOM     44  H   UNL A   1      43.534  27.907  28.212  1.00  0.00     0.167 HD
ATOM     45  C   UNL A   1      40.195  30.068  30.211  1.00  0.00     0.034 A 
ATOM     46  C   UNL A   1      46.039  27.664  26.987  1.00  0.00     0.034 A 
ATOM     47  C   UNL A   1      41.280  31.014  30.105  1.00  0.00     0.049 A 
ATOM     48  C   UNL A   1      45.924  29.077  27.503  1.00  0.00     0.074 A 
ATOM     49  C   UNL A   1      41.346  32.314  30.570  1.00  0.00     0.029 A 
ATOM     50  N   UNL A   1      42.497  30.753  29.482  1.00  0.00    -0.354 N 
ATOM     51  N   UNL A   1      44.916  29.651  28.121  1.00  0.00    -0.248 NA
ATOM     52  C   UNL A   1      47.080  29.955  27.295  1.00  0.00     0.031 C 
ATOM     53  C   UNL A   1      42.572  32.859  30.172  1.00  0.00     0.029 A 
ATOM     54  C   UNL A   1      43.309  31.875  29.530  1.00  0.00     0.049 A 
ATOM     55  H   UNL A   1      42.746  29.895  29.068  1.00  0.00     0.167 HD
ATOM     56  C   UNL A   1      45.328  30.950  28.398  1.00  0.00     0.074 A 
ATOM     57  C   UNL A   1      46.683  31.067  27.895  1.00  0.00     0.031 C 
ATOM     58  C   UNL A   1      44.656  31.959  29.012  1.00  0.00     0.034 A 
BRANCH  45  59
ATOM     59  C   UNL A   1      38.902  30.483  30.871  1.00  0.00     0.023 A 
ATOM     60  C   UNL A   1      37.904  31.195  30.183  1.00  0.00     0.031 A 
ATOM     61  C   UNL A   1      38.695  30.220  32.238  1.00  0.00     0.131 A 
ATOM     62  C   UNL A   1      36.790  31.690  30.880  1.00  0.00     0.055 A 
ATOM     63  C   UNL A   1      37.544  30.642  32.906  1.00  0.00     0.041 A 
ATOM     64  F   UNL A   1      39.623  29.568  32.957  1.00  0.00    -0.206 F 
ATOM     65  C   UNL A   1      36.591  31.397  32.231  1.00  0.00     0.022 A 
BRANCH  62  66
ATOM     66  S   UNL A   1      35.687  32.858  30.036  1.00  0.00     0.124 S 
ATOM     67  O   UNL A   1      34.382  32.240  30.255  1.00  0.00    -0.237 OA
ATOM     68  O   UNL A   1      35.935  34.102  30.754  1.00  0.00    -0.237 OA
ATOM     69  O   UNL A   1      36.156  32.833  28.651  1.00  0.00    -0.744 OA
ENDBRANCH  62  66
ENDBRANCH  45  59
BRANCH  46  70
ATOM     70  C   UNL A   1      47.259  27.205  26.257  1.00  0.00     0.023 A 
ATOM     71  C   UNL A   1      48.263  26.470  26.907  1.00  0.00     0.031 A 
ATOM     72  C   UNL A   1      47.463  27.536  24.904  1.00  0.00     0.131 A 
ATOM     73  C   UNL A   1      49.440  26.128  26.219  1.00  0.00     0.055 A 
ATOM     74  C   UNL A   1      48.606  27.140  24.207  1.00  0.00     0.041 A 
ATOM     75  F   UNL A   1      46.543  28.245  24.230  1.00  0.00    -0.206 F 
ATOM     76  C   UNL A   1      49.611  26.443  24.869  1.00  0.00     0.022 A 
BRANCH  73  77
ATOM     77  S   UNL A   1      50.789  25.341  27.141  1.00  0.00     0.124 S 
ATOM     78  O   UNL A   1      50.077  24.314  27.893  1.00  0.00    -0.237 OA
ATOM     79  O   UNL A   1      51.654  24.866  26.066  1.00  0.00    -0.237 OA
ATOM     80  O   UNL A   1      51.336  26.434  27.942  1.00  0.00    -0.744 OA
ENDBRANCH  73  77
ENDBRANCH  46  70
BRANCH  58  81
ATOM     81  C   UNL A   1      45.408  33.250  29.215  1.00  0.00     0.023 A 
ATOM     82  C   UNL A   1      45.455  34.244  28.222  1.00  0.00     0.031 A 
ATOM     83  C   UNL A   1      46.095  33.481  30.420  1.00  0.00     0.131 A 
ATOM     84  C   UNL A   1      46.223  35.399  28.430  1.00  0.00     0.055 A 
ATOM     85  C   UNL A   1      46.803  34.661  30.645  1.00  0.00     0.041 A 
ATOM     86  F   UNL A   1      46.086  32.562  31.398  1.00  0.00    -0.206 F 
ATOM     87  C   UNL A   1      46.881  35.622  29.642  1.00  0.00     0.022 A 
BRANCH  84  88
ATOM     88  S   UNL A   1      46.431  36.562  27.055  1.00  0.00     0.124 S 
ATOM     89  O   UNL A   1      45.178  37.310  27.099  1.00  0.00    -0.237 OA
ATOM     90  O   UNL A   1      47.627  37.299  27.447  1.00  0.00    -0.237 OA
ATOM     91  O   UNL A   1      46.593  35.692  25.892  1.00  0.00    -0.744 OA
ENDBRANCH  84  88
ENDBRANCH  58  81
ENDBRANCH  32  33
ENDBRANCH  25  27
ENDBRANCH  24  25
ENDBRANCH  23  24
ENDBRANCH   1  23
TORSDOF 20
ENDMDL
