MODEL 1
REMARK VINA RESULT:     -12.2      0.000      0.000
REMARK SMILES CCc1ccnc(C(=O)c2[nH]c3ccc(OC(F)(F)F)cc3c2CC(=O)OCCOC(=O)c2ccc(-c3c4nc(c(-c5cc(S(=O)(=O)[O-])ccc5F)c5ccc([nH]5)c(-c5cc(S(=O)(=O)[O-])ccc5F)c5nc(c(-c6cc(S(=O)(=O)[O-])ccc6F)c6ccc3[nH]6)C=C5)C=C4)cc2)c1
REMARK SMILES IDX 28 1 27 2 25 3 26 4 24 5 23 6 10 7 11 8 12 9 22 11 13 12
REMARK SMILES IDX 21 13 14 14 15 15 8 16 9 17 7 18 3 19 4 20 96 21 5 22 6 23
REMARK SMILES IDX 2 24 1 25 16 26 17 27 18 28 19 29 20 30 29 31 30 32 31 33
REMARK SMILES IDX 32 34 33 35 34 36 95 37 35 38 94 39 36 40 37 41 38 42 88 43
REMARK SMILES IDX 39 44 93 45 87 46 89 47 40 48 92 49 86 50 85 51 41 53 73 54
REMARK SMILES IDX 53 55 72 56 54 57 57 58 71 59 90 60 55 61 56 62 70 64 91 65
REMARK SMILES IDX 58 66 42 67 43 68 51 69 44 70 50 71 52 72 49 73 45 74 46 75
REMARK SMILES IDX 47 76 48 77 74 78 75 79 83 80 76 81 82 82 84 83 81 84 77 85
REMARK SMILES IDX 78 86 79 87 80 88 59 89 60 90 68 91 61 92 67 93 69 94 66 95
REMARK SMILES IDX 62 96 63 97 64 98 65 99
REMARK H PARENT 11 10 89 52 57 63
REMARK Flexibility Score: inf
ROOT
ATOM      1  C   UNL A   1      36.122  21.424  24.582  1.00  0.00     0.274 C 
ENDROOT
BRANCH   1   2
ATOM      2  O   UNL A   1      36.529  22.698  24.037  1.00  0.00    -0.462 OA
BRANCH   2   3
ATOM      3  C   UNL A   1      35.610  23.694  24.073  1.00  0.00     0.310 C 
ATOM      4  O   UNL A   1      34.965  24.065  23.092  1.00  0.00    -0.252 OA
BRANCH   3   5
ATOM      5  C   UNL A   1      35.301  24.222  25.457  1.00  0.00     0.161 C 
BRANCH   5   6
ATOM      6  C   UNL A   1      33.872  24.303  25.905  1.00  0.00     0.000 A 
ATOM      7  C   UNL A   1      33.012  23.266  26.276  1.00  0.00     0.093 A 
ATOM      8  N   UNL A   1      31.779  23.824  26.514  1.00  0.00    -0.352 N 
ATOM      9  C   UNL A   1      31.780  25.163  26.230  1.00  0.00     0.046 A 
ATOM     10  H   UNL A   1      30.997  23.326  26.844  1.00  0.00     0.167 HD
ATOM     11  C   UNL A   1      33.086  25.511  25.907  1.00  0.00     0.008 A 
ATOM     12  C   UNL A   1      30.727  26.077  26.243  1.00  0.00     0.030 A 
ATOM     13  C   UNL A   1      33.359  26.868  25.628  1.00  0.00     0.057 A 
ATOM     14  C   UNL A   1      31.022  27.412  25.947  1.00  0.00     0.049 A 
ATOM     15  C   UNL A   1      32.325  27.818  25.663  1.00  0.00     0.130 A 
BRANCH   7  16
ATOM     16  C   UNL A   1      33.198  21.838  26.501  1.00  0.00     0.227 C 
ATOM     17  O   UNL A   1      33.446  21.427  27.634  1.00  0.00    -0.285 OA
BRANCH  16  18
ATOM     18  C   UNL A   1      32.830  20.856  25.406  1.00  0.00     0.113 A 
ATOM     19  C   UNL A   1      32.970  18.657  24.409  1.00  0.00    -0.044 A 
ATOM     20  C   UNL A   1      32.508  19.222  23.219  1.00  0.00     0.024 A 
ATOM     21  C   UNL A   1      33.096  19.492  25.532  1.00  0.00     0.036 A 
ATOM     22  C   UNL A   1      32.225  20.578  23.190  1.00  0.00     0.112 A 
ATOM     23  N   UNL A   1      32.391  21.407  24.242  1.00  0.00    -0.253 NA
BRANCH  19  24
ATOM     24  C   UNL A   1      33.351  17.197  24.529  1.00  0.00     0.032 C 
ATOM     25  C   UNL A   1      34.032  16.578  23.316  1.00  0.00     0.009 C 
ENDBRANCH  19  24
ENDBRANCH  16  18
ENDBRANCH   7  16
BRANCH  15  26
ATOM     26  O   UNL A   1      32.727  29.098  25.397  1.00  0.00    -0.406 OA
BRANCH  26  27
ATOM     27  C   UNL A   1      33.230  29.865  26.477  1.00  0.00     0.573 C 
ATOM     28  F   UNL A   1      34.579  29.842  26.506  1.00  0.00    -0.132 F 
ATOM     29  F   UNL A   1      32.803  31.146  26.417  1.00  0.00    -0.132 F 
ATOM     30  F   UNL A   1      32.779  29.333  27.636  1.00  0.00    -0.132 F 
ENDBRANCH  26  27
ENDBRANCH  15  26
ENDBRANCH   5   6
ENDBRANCH   3   5
ENDBRANCH   2   3
ENDBRANCH   1   2
BRANCH   1  31
ATOM     31  C   UNL A   1      37.333  20.611  25.069  1.00  0.00     0.275 C 
BRANCH  31  32
ATOM     32  O   UNL A   1      38.567  21.364  25.057  1.00  0.00    -0.458 OA
BRANCH  32  33
ATOM     33  C   UNL A   1      39.317  21.170  26.158  1.00  0.00     0.338 C 
ATOM     34  O   UNL A   1      39.738  20.101  26.572  1.00  0.00    -0.246 OA
BRANCH  33  35
ATOM     35  C   UNL A   1      39.717  22.387  26.848  1.00  0.00     0.060 A 
ATOM     36  C   UNL A   1      39.260  23.599  26.317  1.00  0.00     0.016 A 
ATOM     37  C   UNL A   1      40.763  22.348  27.768  1.00  0.00     0.016 A 
ATOM     38  C   UNL A   1      39.891  24.782  26.671  1.00  0.00     0.010 A 
ATOM     39  C   UNL A   1      41.362  23.545  28.158  1.00  0.00     0.010 A 
ATOM     40  C   UNL A   1      40.947  24.763  27.593  1.00  0.00    -0.014 A 
BRANCH  40  41
ATOM     41  C   UNL A   1      41.602  26.030  27.987  1.00  0.00     0.031 A 
ATOM     42  C   UNL A   1      40.849  27.078  28.752  1.00  0.00     0.074 A 
ATOM     43  C   UNL A   1      42.881  26.225  27.624  1.00  0.00     0.049 A 
ATOM     44  N   UNL A   1      41.205  28.298  29.057  1.00  0.00    -0.248 NA
ATOM     45  C   UNL A   1      39.511  26.704  29.233  1.00  0.00     0.031 C 
ATOM     46  C   UNL A   1      43.712  25.246  26.916  1.00  0.00     0.029 A 
ATOM     47  N   UNL A   1      43.702  27.308  27.783  1.00  0.00    -0.354 N 
ATOM     48  C   UNL A   1      40.126  28.854  29.733  1.00  0.00     0.074 A 
ATOM     49  C   UNL A   1      39.100  27.833  29.792  1.00  0.00     0.031 C 
ATOM     50  C   UNL A   1      44.924  25.776  26.702  1.00  0.00     0.029 A 
ATOM     51  C   UNL A   1      44.931  27.148  27.191  1.00  0.00     0.049 A 
ATOM     52  H   UNL A   1      43.437  28.120  28.273  1.00  0.00     0.167 HD
ATOM     53  C   UNL A   1      40.011  30.107  30.244  1.00  0.00     0.034 A 
ATOM     54  C   UNL A   1      45.931  28.029  27.016  1.00  0.00     0.034 A 
ATOM     55  C   UNL A   1      41.059  31.097  30.168  1.00  0.00     0.049 A 
ATOM     56  C   UNL A   1      45.758  29.427  27.536  1.00  0.00     0.074 A 
ATOM     57  C   UNL A   1      41.071  32.387  30.673  1.00  0.00     0.029 A 
ATOM     58  N   UNL A   1      42.282  30.912  29.532  1.00  0.00    -0.354 N 
ATOM     59  N   UNL A   1      44.726  29.951  28.156  1.00  0.00    -0.248 NA
ATOM     60  C   UNL A   1      46.878  30.350  27.326  1.00  0.00     0.031 C 
ATOM     61  C   UNL A   1      42.273  32.998  30.291  1.00  0.00     0.029 A 
ATOM     62  C   UNL A   1      43.040  32.071  29.603  1.00  0.00     0.049 A 
ATOM     63  H   UNL A   1      42.568  30.078  29.095  1.00  0.00     0.167 HD
ATOM     64  C   UNL A   1      45.080  31.267  28.427  1.00  0.00     0.074 A 
ATOM     65  C   UNL A   1      46.422  31.451  27.907  1.00  0.00     0.031 C 
ATOM     66  C   UNL A   1      44.366  32.234  29.057  1.00  0.00     0.034 A 
BRANCH  53  67
ATOM     67  C   UNL A   1      38.685  30.494  30.854  1.00  0.00     0.023 A 
ATOM     68  C   UNL A   1      37.682  31.151  30.120  1.00  0.00     0.031 A 
ATOM     69  C   UNL A   1      38.434  30.220  32.212  1.00  0.00     0.131 A 
ATOM     70  C   UNL A   1      36.510  31.575  30.766  1.00  0.00     0.055 A 
ATOM     71  C   UNL A   1      37.231  30.571  32.828  1.00  0.00     0.041 A 
ATOM     72  F   UNL A   1      39.363  29.615  32.969  1.00  0.00    -0.206 F 
ATOM     73  C   UNL A   1      36.264  31.263  32.107  1.00  0.00     0.022 A 
BRANCH  70  74
ATOM     74  S   UNL A   1      35.325  32.630  29.890  1.00  0.00     0.124 S 
ATOM     75  O   UNL A   1      36.195  33.713  29.437  1.00  0.00    -0.237 OA
ATOM     76  O   UNL A   1      34.808  31.758  28.840  1.00  0.00    -0.237 OA
ATOM     77  O   UNL A   1      34.364  32.990  30.930  1.00  0.00    -0.744 OA
ENDBRANCH  70  74
ENDBRANCH  53  67
BRANCH  54  78
ATOM     78  C   UNL A   1      47.148  27.619  26.269  1.00  0.00     0.023 A 
ATOM     79  C   UNL A   1      47.253  27.830  24.888  1.00  0.00     0.031 A 
ATOM     80  C   UNL A   1      48.239  27.034  26.940  1.00  0.00     0.131 A 
ATOM     81  C   UNL A   1      48.422  27.445  24.214  1.00  0.00     0.055 A 
ATOM     82  C   UNL A   1      49.413  26.689  26.272  1.00  0.00     0.041 A 
ATOM     83  F   UNL A   1      48.187  26.825  28.264  1.00  0.00    -0.206 F 
ATOM     84  C   UNL A   1      49.506  26.887  24.898  1.00  0.00     0.022 A 
BRANCH  81  85
ATOM     85  S   UNL A   1      48.493  27.654  22.414  1.00  0.00     0.124 S 
ATOM     86  O   UNL A   1      48.578  26.272  21.956  1.00  0.00    -0.237 OA
ATOM     87  O   UNL A   1      47.238  28.344  22.140  1.00  0.00    -0.237 OA
ATOM     88  O   UNL A   1      49.699  28.454  22.212  1.00  0.00    -0.744 OA
ENDBRANCH  81  85
ENDBRANCH  54  78
BRANCH  66  89
ATOM     89  C   UNL A   1      45.056  33.557  29.246  1.00  0.00     0.023 A 
ATOM     90  C   UNL A   1      45.086  34.521  28.225  1.00  0.00     0.031 A 
ATOM     91  C   UNL A   1      45.715  33.840  30.453  1.00  0.00     0.131 A 
ATOM     92  C   UNL A   1      45.806  35.710  28.414  1.00  0.00     0.055 A 
ATOM     93  C   UNL A   1      46.391  35.043  30.653  1.00  0.00     0.041 A 
ATOM     94  F   UNL A   1      45.715  32.946  31.456  1.00  0.00    -0.206 F 
ATOM     95  C   UNL A   1      46.448  35.981  29.626  1.00  0.00     0.022 A 
BRANCH  92  96
ATOM     96  S   UNL A   1      45.954  36.869  27.028  1.00  0.00     0.124 S 
ATOM     97  O   UNL A   1      47.095  37.684  27.435  1.00  0.00    -0.237 OA
ATOM     98  O   UNL A   1      46.180  35.977  25.895  1.00  0.00    -0.237 OA
ATOM     99  O   UNL A   1      44.667  37.563  27.022  1.00  0.00    -0.744 OA
ENDBRANCH  92  96
ENDBRANCH  66  89
ENDBRANCH  40  41
ENDBRANCH  33  35
ENDBRANCH  32  33
ENDBRANCH  31  32
ENDBRANCH   1  31
TORSDOF 20
ENDMDL
MODEL 2
REMARK VINA RESULT:     -12.0      2.749      8.551
REMARK SMILES CCc1ccnc(C(=O)c2[nH]c3ccc(OC(F)(F)F)cc3c2CC(=O)OCCOC(=O)c2ccc(-c3c4nc(c(-c5cc(S(=O)(=O)[O-])ccc5F)c5ccc([nH]5)c(-c5cc(S(=O)(=O)[O-])ccc5F)c5nc(c(-c6cc(S(=O)(=O)[O-])ccc6F)c6ccc3[nH]6)C=C5)C=C4)cc2)c1
REMARK SMILES IDX 28 1 27 2 25 3 26 4 24 5 23 6 10 7 11 8 12 9 22 11 13 12
REMARK SMILES IDX 21 13 14 14 15 15 8 16 9 17 7 18 3 19 4 20 96 21 5 22 6 23
REMARK SMILES IDX 2 24 1 25 16 26 17 27 18 28 19 29 20 30 29 31 30 32 31 33
REMARK SMILES IDX 32 34 33 35 34 36 95 37 35 38 94 39 36 40 37 41 38 42 88 43
REMARK SMILES IDX 39 44 93 45 87 46 89 47 40 48 92 49 86 50 85 51 41 53 73 54
REMARK SMILES IDX 53 55 72 56 54 57 57 58 71 59 90 60 55 61 56 62 70 64 91 65
REMARK SMILES IDX 58 66 42 67 43 68 51 69 44 70 50 71 52 72 49 73 45 74 46 75
REMARK SMILES IDX 47 76 48 77 74 78 75 79 83 80 76 81 82 82 84 83 81 84 77 85
REMARK SMILES IDX 78 86 79 87 80 88 59 89 60 90 68 91 61 92 67 93 69 94 66 95
REMARK SMILES IDX 62 96 63 97 64 98 65 99
REMARK H PARENT 11 10 89 52 57 63
REMARK Flexibility Score: inf
ROOT
ATOM      1  C   UNL A   1      36.697  21.612  24.550  1.00  0.00     0.274 C 
ENDROOT
BRANCH   1   2
ATOM      2  O   UNL A   1      36.106  22.194  25.733  1.00  0.00    -0.462 OA
BRANCH   2   3
ATOM      3  C   UNL A   1      35.384  23.328  25.553  1.00  0.00     0.310 C 
ATOM      4  O   UNL A   1      35.887  24.436  25.368  1.00  0.00    -0.252 OA
BRANCH   3   5
ATOM      5  C   UNL A   1      33.890  23.116  25.430  1.00  0.00     0.161 C 
BRANCH   5   6
ATOM      6  C   UNL A   1      33.331  22.609  24.133  1.00  0.00     0.000 A 
ATOM      7  C   UNL A   1      32.852  23.339  23.043  1.00  0.00     0.093 A 
ATOM      8  N   UNL A   1      32.357  22.436  22.134  1.00  0.00    -0.352 N 
ATOM      9  C   UNL A   1      32.414  21.160  22.624  1.00  0.00     0.046 A 
ATOM     10  H   UNL A   1      32.005  22.675  21.246  1.00  0.00     0.167 HD
ATOM     11  C   UNL A   1      33.074  21.221  23.846  1.00  0.00     0.008 A 
ATOM     12  C   UNL A   1      31.937  19.971  22.072  1.00  0.00     0.030 A 
ATOM     13  C   UNL A   1      33.312  20.009  24.530  1.00  0.00     0.057 A 
ATOM     14  C   UNL A   1      32.172  18.787  22.778  1.00  0.00     0.049 A 
ATOM     15  C   UNL A   1      32.871  18.792  23.985  1.00  0.00     0.130 A 
BRANCH   7  16
ATOM     16  C   UNL A   1      32.851  24.757  22.705  1.00  0.00     0.227 C 
ATOM     17  O   UNL A   1      33.778  25.227  22.045  1.00  0.00    -0.285 OA
BRANCH  16  18
ATOM     18  C   UNL A   1      31.599  25.579  22.937  1.00  0.00     0.113 A 
ATOM     19  C   UNL A   1      30.498  27.714  23.217  1.00  0.00    -0.044 A 
ATOM     20  C   UNL A   1      29.418  27.028  23.773  1.00  0.00     0.024 A 
ATOM     21  C   UNL A   1      31.593  26.963  22.758  1.00  0.00     0.036 A 
ATOM     22  C   UNL A   1      29.485  25.648  23.876  1.00  0.00     0.112 A 
ATOM     23  N   UNL A   1      30.550  24.913  23.491  1.00  0.00    -0.253 NA
BRANCH  19  24
ATOM     24  C   UNL A   1      30.540  29.223  23.105  1.00  0.00     0.032 C 
ATOM     25  C   UNL A   1      29.716  29.836  21.980  1.00  0.00     0.009 C 
ENDBRANCH  19  24
ENDBRANCH  16  18
ENDBRANCH   7  16
BRANCH  15  26
ATOM     26  O   UNL A   1      33.185  17.692  24.735  1.00  0.00    -0.406 OA
BRANCH  26  27
ATOM     27  C   UNL A   1      34.370  16.989  24.403  1.00  0.00     0.573 C 
ATOM     28  F   UNL A   1      34.227  16.310  23.245  1.00  0.00    -0.132 F 
ATOM     29  F   UNL A   1      35.430  17.823  24.308  1.00  0.00    -0.132 F 
ATOM     30  F   UNL A   1      34.635  16.095  25.382  1.00  0.00    -0.132 F 
ENDBRANCH  26  27
ENDBRANCH  15  26
ENDBRANCH   5   6
ENDBRANCH   3   5
ENDBRANCH   2   3
ENDBRANCH   1   2
BRANCH   1  31
ATOM     31  C   UNL A   1      37.741  20.543  24.915  1.00  0.00     0.275 C 
BRANCH  31  32
ATOM     32  O   UNL A   1      38.215  20.652  26.277  1.00  0.00    -0.458 OA
BRANCH  32  33
ATOM     33  C   UNL A   1      39.535  20.908  26.359  1.00  0.00     0.338 C 
ATOM     34  O   UNL A   1      40.442  20.180  25.985  1.00  0.00    -0.246 OA
BRANCH  33  35
ATOM     35  C   UNL A   1      39.870  22.228  26.871  1.00  0.00     0.060 A 
ATOM     36  C   UNL A   1      39.204  23.319  26.302  1.00  0.00     0.016 A 
ATOM     37  C   UNL A   1      41.024  22.401  27.633  1.00  0.00     0.016 A 
ATOM     38  C   UNL A   1      39.727  24.595  26.453  1.00  0.00     0.010 A 
ATOM     39  C   UNL A   1      41.520  23.690  27.822  1.00  0.00     0.010 A 
ATOM     40  C   UNL A   1      40.889  24.789  27.213  1.00  0.00    -0.014 A 
BRANCH  40  41
ATOM     41  C   UNL A   1      41.431  26.154  27.392  1.00  0.00     0.031 A 
ATOM     42  C   UNL A   1      42.764  26.530  26.815  1.00  0.00     0.074 A 
ATOM     43  C   UNL A   1      40.710  27.039  28.101  1.00  0.00     0.049 A 
ATOM     44  N   UNL A   1      43.464  27.621  26.987  1.00  0.00    -0.248 NA
ATOM     45  C   UNL A   1      43.398  25.543  25.928  1.00  0.00     0.031 C 
ATOM     46  C   UNL A   1      39.383  26.780  28.664  1.00  0.00     0.029 A 
ATOM     47  N   UNL A   1      40.992  28.322  28.481  1.00  0.00    -0.354 N 
ATOM     48  C   UNL A   1      44.637  27.442  26.264  1.00  0.00     0.074 A 
ATOM     49  C   UNL A   1      44.553  26.132  25.650  1.00  0.00     0.031 C 
ATOM     50  C   UNL A   1      38.966  27.872  29.320  1.00  0.00     0.029 A 
ATOM     51  C   UNL A   1      40.023  28.875  29.282  1.00  0.00     0.049 A 
ATOM     52  H   UNL A   1      41.808  28.802  28.207  1.00  0.00     0.167 HD
ATOM     53  C   UNL A   1      45.686  28.295  26.140  1.00  0.00     0.034 A 
ATOM     54  C   UNL A   1      40.011  30.039  29.955  1.00  0.00     0.034 A 
ATOM     55  C   UNL A   1      45.732  29.596  26.766  1.00  0.00     0.049 A 
ATOM     56  C   UNL A   1      41.208  30.941  29.852  1.00  0.00     0.074 A 
ATOM     57  C   UNL A   1      46.724  30.560  26.689  1.00  0.00     0.029 A 
ATOM     58  N   UNL A   1      44.745  30.112  27.598  1.00  0.00    -0.354 N 
ATOM     59  N   UNL A   1      42.322  30.754  29.183  1.00  0.00    -0.248 NA
ATOM     60  C   UNL A   1      41.147  32.201  30.598  1.00  0.00     0.031 C 
ATOM     61  C   UNL A   1      46.364  31.628  27.521  1.00  0.00     0.029 A 
ATOM     62  C   UNL A   1      45.118  31.362  28.067  1.00  0.00     0.049 A 
ATOM     63  H   UNL A   1      43.901  29.655  27.822  1.00  0.00     0.167 HD
ATOM     64  C   UNL A   1      43.092  31.887  29.414  1.00  0.00     0.074 A 
ATOM     65  C   UNL A   1      42.311  32.750  30.280  1.00  0.00     0.031 C 
ATOM     66  C   UNL A   1      44.330  32.192  28.947  1.00  0.00     0.034 A 
BRANCH  53  67
ATOM     67  C   UNL A   1      46.890  27.815  25.366  1.00  0.00     0.023 A 
ATOM     68  C   UNL A   1      47.078  28.115  24.005  1.00  0.00     0.031 A 
ATOM     69  C   UNL A   1      47.858  27.016  26.003  1.00  0.00     0.131 A 
ATOM     70  C   UNL A   1      48.165  27.558  23.312  1.00  0.00     0.055 A 
ATOM     71  C   UNL A   1      48.982  26.534  25.328  1.00  0.00     0.041 A 
ATOM     72  F   UNL A   1      47.721  26.678  27.295  1.00  0.00    -0.206 F 
ATOM     73  C   UNL A   1      49.134  26.796  23.971  1.00  0.00     0.022 A 
BRANCH  70  74
ATOM     74  S   UNL A   1      48.280  27.742  21.513  1.00  0.00     0.124 S 
ATOM     75  O   UNL A   1      49.302  28.780  21.403  1.00  0.00    -0.237 OA
ATOM     76  O   UNL A   1      48.683  26.414  21.062  1.00  0.00    -0.237 OA
ATOM     77  O   UNL A   1      46.930  28.148  21.131  1.00  0.00    -0.744 OA
ENDBRANCH  70  74
ENDBRANCH  53  67
BRANCH  54  78
ATOM     78  C   UNL A   1      38.852  30.375  30.820  1.00  0.00     0.023 A 
ATOM     79  C   UNL A   1      37.782  31.136  30.330  1.00  0.00     0.031 A 
ATOM     80  C   UNL A   1      38.788  29.911  32.147  1.00  0.00     0.131 A 
ATOM     81  C   UNL A   1      36.694  31.425  31.168  1.00  0.00     0.055 A 
ATOM     82  C   UNL A   1      37.687  30.168  32.963  1.00  0.00     0.041 A 
ATOM     83  F   UNL A   1      39.784  29.169  32.654  1.00  0.00    -0.206 F 
ATOM     84  C   UNL A   1      36.634  30.936  32.476  1.00  0.00     0.022 A 
BRANCH  81  85
ATOM     85  S   UNL A   1      35.366  32.482  30.530  1.00  0.00     0.124 S 
ATOM     86  O   UNL A   1      36.063  33.747  30.328  1.00  0.00    -0.237 OA
ATOM     87  O   UNL A   1      34.967  31.770  29.321  1.00  0.00    -0.237 OA
ATOM     88  O   UNL A   1      34.380  32.477  31.608  1.00  0.00    -0.744 OA
ENDBRANCH  81  85
ENDBRANCH  54  78
BRANCH  66  89
ATOM     89  C   UNL A   1      44.879  33.536  29.340  1.00  0.00     0.023 A 
ATOM     90  C   UNL A   1      44.667  34.676  28.547  1.00  0.00     0.031 A 
ATOM     91  C   UNL A   1      45.648  33.666  30.508  1.00  0.00     0.131 A 
ATOM     92  C   UNL A   1      45.261  35.893  28.910  1.00  0.00     0.055 A 
ATOM     93  C   UNL A   1      46.199  34.889  30.888  1.00  0.00     0.041 A 
ATOM     94  F   UNL A   1      45.879  32.602  31.295  1.00  0.00    -0.206 F 
ATOM     95  C   UNL A   1      46.016  36.009  30.081  1.00  0.00     0.022 A 
BRANCH  92  96
ATOM     96  S   UNL A   1      45.097  37.310  27.791  1.00  0.00     0.124 S 
ATOM     97  O   UNL A   1      43.882  36.976  27.054  1.00  0.00    -0.237 OA
ATOM     98  O   UNL A   1      44.992  38.432  28.719  1.00  0.00    -0.237 OA
ATOM     99  O   UNL A   1      46.329  37.272  27.005  1.00  0.00    -0.744 OA
ENDBRANCH  92  96
ENDBRANCH  66  89
ENDBRANCH  40  41
ENDBRANCH  33  35
ENDBRANCH  32  33
ENDBRANCH  31  32
ENDBRANCH   1  31
TORSDOF 20
ENDMDL
MODEL 3
REMARK VINA RESULT:     -12.0      4.941      9.707
REMARK SMILES CCc1ccnc(C(=O)c2[nH]c3ccc(OC(F)(F)F)cc3c2CC(=O)OCCOC(=O)c2ccc(-c3c4nc(c(-c5cc(S(=O)(=O)[O-])ccc5F)c5ccc([nH]5)c(-c5cc(S(=O)(=O)[O-])ccc5F)c5nc(c(-c6cc(S(=O)(=O)[O-])ccc6F)c6ccc3[nH]6)C=C5)C=C4)cc2)c1
REMARK SMILES IDX 28 1 27 2 25 3 26 4 24 5 23 6 10 7 11 8 12 9 22 11 13 12
REMARK SMILES IDX 21 13 14 14 15 15 8 16 9 17 7 18 3 19 4 20 96 21 5 22 6 23
REMARK SMILES IDX 2 24 1 25 16 26 17 27 18 28 19 29 20 30 29 31 30 32 31 33
REMARK SMILES IDX 32 34 33 35 34 36 95 37 35 38 94 39 36 40 37 41 38 42 88 43
REMARK SMILES IDX 39 44 93 45 87 46 89 47 40 48 92 49 86 50 85 51 41 53 73 54
REMARK SMILES IDX 53 55 72 56 54 57 57 58 71 59 90 60 55 61 56 62 70 64 91 65
REMARK SMILES IDX 58 66 42 67 43 68 51 69 44 70 50 71 52 72 49 73 45 74 46 75
REMARK SMILES IDX 47 76 48 77 74 78 75 79 83 80 76 81 82 82 84 83 81 84 77 85
REMARK SMILES IDX 78 86 79 87 80 88 59 89 60 90 68 91 61 92 67 93 69 94 66 95
REMARK SMILES IDX 62 96 63 97 64 98 65 99
REMARK H PARENT 11 10 89 52 57 63
REMARK Flexibility Score: inf
ROOT
ATOM      1  C   UNL A   1      32.650  29.138  25.129  1.00  0.00     0.274 C 
ENDROOT
BRANCH   1   2
ATOM      2  O   UNL A   1      32.643  29.203  23.687  1.00  0.00    -0.462 OA
BRANCH   2   3
ATOM      3  C   UNL A   1      33.221  28.165  23.031  1.00  0.00     0.310 C 
ATOM      4  O   UNL A   1      34.406  27.854  23.154  1.00  0.00    -0.252 OA
BRANCH   3   5
ATOM      5  C   UNL A   1      32.260  27.297  22.248  1.00  0.00     0.161 C 
BRANCH   5   6
ATOM      6  C   UNL A   1      30.982  26.854  22.897  1.00  0.00     0.000 A 
ATOM      7  C   UNL A   1      30.653  25.599  23.414  1.00  0.00     0.093 A 
ATOM      8  N   UNL A   1      29.340  25.655  23.815  1.00  0.00    -0.352 N 
ATOM      9  C   UNL A   1      28.779  26.863  23.501  1.00  0.00     0.046 A 
ATOM     10  H   UNL A   1      28.864  24.921  24.268  1.00  0.00     0.167 HD
ATOM     11  C   UNL A   1      29.792  27.661  22.983  1.00  0.00     0.008 A 
ATOM     12  C   UNL A   1      27.461  27.298  23.646  1.00  0.00     0.030 A 
ATOM     13  C   UNL A   1      29.472  28.992  22.635  1.00  0.00     0.057 A 
ATOM     14  C   UNL A   1      27.168  28.614  23.278  1.00  0.00     0.049 A 
ATOM     15  C   UNL A   1      28.161  29.468  22.797  1.00  0.00     0.130 A 
BRANCH   7  16
ATOM     16  C   UNL A   1      31.412  24.376  23.644  1.00  0.00     0.227 C 
ATOM     17  O   UNL A   1      31.886  23.765  22.686  1.00  0.00    -0.285 OA
BRANCH  16  18
ATOM     18  C   UNL A   1      31.832  24.011  25.054  1.00  0.00     0.113 A 
ATOM     19  C   UNL A   1      33.518  23.307  26.638  1.00  0.00    -0.044 A 
ATOM     20  C   UNL A   1      32.484  22.951  27.504  1.00  0.00     0.024 A 
ATOM     21  C   UNL A   1      33.177  23.883  25.402  1.00  0.00     0.036 A 
ATOM     22  C   UNL A   1      31.175  23.151  27.099  1.00  0.00     0.112 A 
ATOM     23  N   UNL A   1      30.825  23.652  25.895  1.00  0.00    -0.253 NA
BRANCH  19  24
ATOM     24  C   UNL A   1      34.978  23.085  26.970  1.00  0.00     0.032 C 
ATOM     25  C   UNL A   1      35.911  22.865  25.786  1.00  0.00     0.009 C 
ENDBRANCH  19  24
ENDBRANCH  16  18
ENDBRANCH   7  16
BRANCH  15  26
ATOM     26  O   UNL A   1      27.990  30.780  22.444  1.00  0.00    -0.406 OA
BRANCH  26  27
ATOM     27  C   UNL A   1      28.011  31.745  23.481  1.00  0.00     0.573 C 
ATOM     28  F   UNL A   1      28.126  32.994  22.984  1.00  0.00    -0.132 F 
ATOM     29  F   UNL A   1      26.903  31.668  24.252  1.00  0.00    -0.132 F 
ATOM     30  F   UNL A   1      29.081  31.510  24.273  1.00  0.00    -0.132 F 
ENDBRANCH  26  27
ENDBRANCH  15  26
ENDBRANCH   5   6
ENDBRANCH   3   5
ENDBRANCH   2   3
ENDBRANCH   1   2
BRANCH   1  31
ATOM     31  C   UNL A   1      31.974  30.372  25.748  1.00  0.00     0.275 C 
BRANCH  31  32
ATOM     32  O   UNL A   1      32.340  30.590  27.130  1.00  0.00    -0.458 OA
BRANCH  32  33
ATOM     33  C   UNL A   1      33.165  31.641  27.300  1.00  0.00     0.338 C 
ATOM     34  O   UNL A   1      32.855  32.822  27.262  1.00  0.00    -0.246 OA
BRANCH  33  35
ATOM     35  C   UNL A   1      34.535  31.294  27.646  1.00  0.00     0.060 A 
ATOM     36  C   UNL A   1      34.783  29.964  28.002  1.00  0.00     0.016 A 
ATOM     37  C   UNL A   1      35.453  32.304  27.928  1.00  0.00     0.016 A 
ATOM     38  C   UNL A   1      35.941  29.647  28.697  1.00  0.00     0.010 A 
ATOM     39  C   UNL A   1      36.638  31.973  28.584  1.00  0.00     0.010 A 
ATOM     40  C   UNL A   1      36.876  30.648  28.993  1.00  0.00    -0.014 A 
BRANCH  40  41
ATOM     41  C   UNL A   1      38.121  30.303  29.713  1.00  0.00     0.031 A 
ATOM     42  C   UNL A   1      39.119  29.359  29.110  1.00  0.00     0.074 A 
ATOM     43  C   UNL A   1      38.325  30.840  30.928  1.00  0.00     0.049 A 
ATOM     44  N   UNL A   1      40.188  28.829  29.645  1.00  0.00    -0.248 NA
ATOM     45  C   UNL A   1      38.879  28.951  27.718  1.00  0.00     0.031 C 
ATOM     46  C   UNL A   1      37.433  31.804  31.580  1.00  0.00     0.029 A 
ATOM     47  N   UNL A   1      39.330  30.646  31.835  1.00  0.00    -0.354 N 
ATOM     48  C   UNL A   1      40.730  27.996  28.674  1.00  0.00     0.074 A 
ATOM     49  C   UNL A   1      39.868  28.092  27.513  1.00  0.00     0.031 C 
ATOM     50  C   UNL A   1      37.933  32.115  32.784  1.00  0.00     0.029 A 
ATOM     51  C   UNL A   1      39.133  31.323  33.015  1.00  0.00     0.049 A 
ATOM     52  H   UNL A   1      40.115  30.078  31.660  1.00  0.00     0.167 HD
ATOM     53  C   UNL A   1      41.840  27.219  28.758  1.00  0.00     0.034 A 
ATOM     54  C   UNL A   1      39.816  31.269  34.171  1.00  0.00     0.034 A 
ATOM     55  C   UNL A   1      42.677  27.152  29.933  1.00  0.00     0.049 A 
ATOM     56  C   UNL A   1      41.006  30.357  34.262  1.00  0.00     0.074 A 
ATOM     57  C   UNL A   1      43.841  26.427  30.128  1.00  0.00     0.029 A 
ATOM     58  N   UNL A   1      42.431  27.828  31.124  1.00  0.00    -0.354 N 
ATOM     59  N   UNL A   1      41.500  29.557  33.345  1.00  0.00    -0.248 NA
ATOM     60  C   UNL A   1      41.722  30.336  35.541  1.00  0.00     0.031 C 
ATOM     61  C   UNL A   1      44.262  26.617  31.451  1.00  0.00     0.029 A 
ATOM     62  C   UNL A   1      43.399  27.512  32.064  1.00  0.00     0.049 A 
ATOM     63  H   UNL A   1      41.677  28.443  31.276  1.00  0.00     0.167 HD
ATOM     64  C   UNL A   1      42.601  28.947  33.933  1.00  0.00     0.074 A 
ATOM     65  C   UNL A   1      42.699  29.477  35.281  1.00  0.00     0.031 C 
ATOM     66  C   UNL A   1      43.460  28.038  33.407  1.00  0.00     0.034 A 
BRANCH  53  67
ATOM     67  C   UNL A   1      42.162  26.329  27.582  1.00  0.00     0.023 A 
ATOM     68  C   UNL A   1      41.727  24.994  27.508  1.00  0.00     0.031 A 
ATOM     69  C   UNL A   1      42.946  26.825  26.523  1.00  0.00     0.131 A 
ATOM     70  C   UNL A   1      42.141  24.185  26.438  1.00  0.00     0.055 A 
ATOM     71  C   UNL A   1      43.285  26.038  25.420  1.00  0.00     0.041 A 
ATOM     72  F   UNL A   1      43.409  28.085  26.550  1.00  0.00    -0.206 F 
ATOM     73  C   UNL A   1      42.891  24.706  25.379  1.00  0.00     0.022 A 
BRANCH  70  74
ATOM     74  S   UNL A   1      41.787  22.407  26.459  1.00  0.00     0.124 S 
ATOM     75  O   UNL A   1      42.225  22.051  27.806  1.00  0.00    -0.237 OA
ATOM     76  O   UNL A   1      40.348  22.346  26.228  1.00  0.00    -0.237 OA
ATOM     77  O   UNL A   1      42.616  21.889  25.373  1.00  0.00    -0.744 OA
ENDBRANCH  70  74
ENDBRANCH  53  67
BRANCH  54  78
ATOM     78  C   UNL A   1      39.349  32.061  35.338  1.00  0.00     0.023 A 
ATOM     79  C   UNL A   1      39.809  33.367  35.554  1.00  0.00     0.031 A 
ATOM     80  C   UNL A   1      38.408  31.527  36.237  1.00  0.00     0.131 A 
ATOM     81  C   UNL A   1      39.337  34.095  36.657  1.00  0.00     0.055 A 
ATOM     82  C   UNL A   1      37.913  32.269  37.310  1.00  0.00     0.041 A 
ATOM     83  F   UNL A   1      37.930  30.286  36.061  1.00  0.00    -0.206 F 
ATOM     84  C   UNL A   1      38.384  33.560  37.528  1.00  0.00     0.022 A 
BRANCH  81  85
ATOM     85  S   UNL A   1      40.016  35.749  36.957  1.00  0.00     0.124 S 
ATOM     86  O   UNL A   1      41.434  35.463  37.136  1.00  0.00    -0.237 OA
ATOM     87  O   UNL A   1      39.654  36.451  35.730  1.00  0.00    -0.237 OA
ATOM     88  O   UNL A   1      39.311  36.193  38.157  1.00  0.00    -0.744 OA
ENDBRANCH  81  85
ENDBRANCH  54  78
BRANCH  66  89
ATOM     89  C   UNL A   1      44.597  27.604  34.291  1.00  0.00     0.023 A 
ATOM     90  C   UNL A   1      44.520  26.433  35.063  1.00  0.00     0.031 A 
ATOM     91  C   UNL A   1      45.757  28.390  34.380  1.00  0.00     0.131 A 
ATOM     92  C   UNL A   1      45.571  26.106  35.933  1.00  0.00     0.055 A 
ATOM     93  C   UNL A   1      46.818  28.036  35.212  1.00  0.00     0.041 A 
ATOM     94  F   UNL A   1      45.873  29.520  33.661  1.00  0.00    -0.206 F 
ATOM     95  C   UNL A   1      46.724  26.894  36.002  1.00  0.00     0.022 A 
BRANCH  92  96
ATOM     96  S   UNL A   1      45.382  24.674  37.028  1.00  0.00     0.124 S 
ATOM     97  O   UNL A   1      46.760  24.213  37.165  1.00  0.00    -0.237 OA
ATOM     98  O   UNL A   1      44.787  25.267  38.221  1.00  0.00    -0.237 OA
ATOM     99  O   UNL A   1      44.501  23.781  36.276  1.00  0.00    -0.744 OA
ENDBRANCH  92  96
ENDBRANCH  66  89
ENDBRANCH  40  41
ENDBRANCH  33  35
ENDBRANCH  32  33
ENDBRANCH  31  32
ENDBRANCH   1  31
TORSDOF 20
ENDMDL
