MODEL 1
REMARK VINA RESULT:     -12.2      0.000      0.000
REMARK SMILES CC1(C)CCN(c2ncccc2C(=O)OCCOC(=O)c2ccc(-c3c4nc(c(-c5cc(S(=O)(=O)[O-])ccc5F)c5ccc([nH]5)c(-c5cc(S(=O)(=O)[O-])ccc5F)c5nc(c(-c6cc(S(=O)(=O)[O-])ccc6F)c6ccc3[nH]6)C=C5)C=C4)cc2)C1
REMARK SMILES IDX 17 1 16 2 15 3 13 4 14 5 12 6 7 7 8 8 9 9 11 10 10 11 6 12
REMARK SMILES IDX 1 13 2 14 3 15 4 16 84 17 5 18 18 19 19 20 20 21 21 22 22 23
REMARK SMILES IDX 83 24 23 25 82 26 24 27 25 28 26 29 76 30 27 31 81 32 75 33
REMARK SMILES IDX 77 34 28 35 80 36 74 37 73 38 29 40 61 41 41 42 60 43 42 44
REMARK SMILES IDX 45 45 59 46 78 47 43 48 44 49 58 51 79 52 46 53 30 54 31 55
REMARK SMILES IDX 39 56 32 57 38 58 40 59 37 60 33 61 34 62 35 63 36 64 62 65
REMARK SMILES IDX 63 66 71 67 64 68 70 69 72 70 69 71 65 72 66 73 67 74 68 75
REMARK SMILES IDX 47 76 48 77 56 78 49 79 55 80 57 81 54 82 50 83 51 84 52 85
REMARK SMILES IDX 53 86
REMARK H PARENT 77 39 45 50
REMARK Flexibility Score: inf
ROOT
ATOM      1  C   UNL A   1      35.305  21.017  24.954  1.00  0.00     0.275 C 
ENDROOT
BRANCH   1   2
ATOM      2  C   UNL A   1      35.266  22.268  24.076  1.00  0.00     0.275 C 
BRANCH   2   3
ATOM      3  O   UNL A   1      34.007  22.979  24.211  1.00  0.00    -0.458 OA
BRANCH   3   4
ATOM      4  C   UNL A   1      33.878  23.817  25.283  1.00  0.00     0.342 C 
ATOM      5  O   UNL A   1      34.801  24.377  25.851  1.00  0.00    -0.246 OA
BRANCH   4   6
ATOM      6  C   UNL A   1      32.464  23.911  25.729  1.00  0.00     0.102 A 
ATOM      7  C   UNL A   1      31.771  25.109  26.017  1.00  0.00     0.143 A 
ATOM      8  N   UNL A   1      30.517  25.056  26.537  1.00  0.00    -0.238 NA
ATOM      9  C   UNL A   1      29.927  23.859  26.735  1.00  0.00     0.113 A 
ATOM     10  C   UNL A   1      31.814  22.682  25.927  1.00  0.00     0.021 A 
ATOM     11  C   UNL A   1      30.521  22.654  26.427  1.00  0.00     0.021 A 
BRANCH   7  12
ATOM     12  N   UNL A   1      32.075  26.355  25.493  1.00  0.00    -0.355 N 
ATOM     13  C   UNL A   1      34.548  28.768  26.717  1.00  0.00     0.013 C 
ATOM     14  C   UNL A   1      32.719  29.364  26.325  1.00  0.00    -0.016 C 
ATOM     15  C   UNL A   1      31.599  30.918  26.302  1.00  0.00     0.013 C 
ATOM     16  C   UNL A   1      31.274  29.200  24.733  1.00  0.00     0.030 C 
ATOM     17  C   UNL A   1      33.007  27.299  26.723  1.00  0.00     0.124 C 
ATOM     18  C   UNL A   1      31.088  27.286  24.373  1.00  0.00     0.119 C 
ENDBRANCH   7  12
ENDBRANCH   4   6
ENDBRANCH   3   4
ENDBRANCH   2   3
ENDBRANCH   1   2
BRANCH   1  19
ATOM     19  O   UNL A   1      36.371  21.166  25.895  1.00  0.00    -0.458 OA
BRANCH  19  20
ATOM     20  C   UNL A   1      37.564  20.835  25.374  1.00  0.00     0.338 C 
ATOM     21  O   UNL A   1      37.839  19.953  24.582  1.00  0.00    -0.246 OA
BRANCH  20  22
ATOM     22  C   UNL A   1      38.542  21.804  25.808  1.00  0.00     0.060 A 
ATOM     23  C   UNL A   1      40.060  21.249  26.684  1.00  0.00     0.016 A 
ATOM     24  C   UNL A   1      38.079  23.532  25.851  1.00  0.00     0.016 A 
ATOM     25  C   UNL A   1      40.941  22.594  27.979  1.00  0.00     0.010 A 
ATOM     26  C   UNL A   1      39.187  24.808  26.516  1.00  0.00     0.010 A 
ATOM     27  C   UNL A   1      40.648  24.416  27.566  1.00  0.00    -0.014 A 
BRANCH  27  28
ATOM     28  C   UNL A   1      41.355  25.689  27.944  1.00  0.00     0.031 A 
ATOM     29  C   UNL A   1      40.600  26.845  28.622  1.00  0.00     0.074 A 
ATOM     30  C   UNL A   1      42.580  25.928  27.421  1.00  0.00     0.049 A 
ATOM     31  N   UNL A   1      41.060  28.016  28.994  1.00  0.00    -0.248 NA
ATOM     32  C   UNL A   1      39.147  26.741  28.878  1.00  0.00     0.031 C 
ATOM     33  C   UNL A   1      43.232  25.082  26.437  1.00  0.00     0.029 A 
ATOM     34  N   UNL A   1      43.500  26.931  27.576  1.00  0.00    -0.354 N 
ATOM     35  C   UNL A   1      39.990  28.686  29.590  1.00  0.00     0.074 A 
ATOM     36  C   UNL A   1      38.831  27.869  29.470  1.00  0.00     0.031 C 
ATOM     37  C   UNL A   1      44.513  25.414  26.274  1.00  0.00     0.029 A 
ATOM     38  C   UNL A   1      44.701  26.686  26.927  1.00  0.00     0.049 A 
ATOM     39  H   UNL A   1      43.325  27.747  28.098  1.00  0.00     0.167 HD
ATOM     40  C   UNL A   1      39.941  29.898  30.178  1.00  0.00     0.034 A 
ATOM     41  C   UNL A   1      45.799  27.447  26.781  1.00  0.00     0.034 A 
ATOM     42  C   UNL A   1      41.045  30.795  30.104  1.00  0.00     0.049 A 
ATOM     43  C   UNL A   1      45.706  28.821  27.372  1.00  0.00     0.074 A 
ATOM     44  C   UNL A   1      41.148  32.081  30.581  1.00  0.00     0.029 A 
ATOM     45  N   UNL A   1      42.233  30.490  29.450  1.00  0.00    -0.354 N 
ATOM     46  N   UNL A   1      44.687  29.367  27.997  1.00  0.00    -0.248 NA
ATOM     47  C   UNL A   1      46.874  29.689  27.228  1.00  0.00     0.031 C 
ATOM     48  C   UNL A   1      42.380  32.580  30.157  1.00  0.00     0.029 A 
ATOM     49  C   UNL A   1      43.082  31.568  29.514  1.00  0.00     0.049 A 
ATOM     50  H   UNL A   1      42.434  29.633  29.010  1.00  0.00     0.167 HD
ATOM     51  C   UNL A   1      45.108  30.632  28.366  1.00  0.00     0.074 A 
ATOM     52  C   UNL A   1      46.475  30.761  27.893  1.00  0.00     0.031 C 
ATOM     53  C   UNL A   1      44.439  31.601  29.033  1.00  0.00     0.034 A 
BRANCH  40  54
ATOM     54  C   UNL A   1      38.652  30.282  30.865  1.00  0.00     0.023 A 
ATOM     55  C   UNL A   1      37.619  30.915  30.141  1.00  0.00     0.031 A 
ATOM     56  C   UNL A   1      38.482  30.130  32.250  1.00  0.00     0.131 A 
ATOM     57  C   UNL A   1      36.500  31.427  30.811  1.00  0.00     0.055 A 
ATOM     58  C   UNL A   1      37.321  30.563  32.899  1.00  0.00     0.041 A 
ATOM     59  F   UNL A   1      39.458  29.602  33.005  1.00  0.00    -0.206 F 
ATOM     60  C   UNL A   1      36.327  31.223  32.181  1.00  0.00     0.022 A 
BRANCH  57  61
ATOM     61  S   UNL A   1      35.357  32.503  29.901  1.00  0.00     0.124 S 
ATOM     62  O   UNL A   1      34.367  32.815  30.929  1.00  0.00    -0.237 OA
ATOM     63  O   UNL A   1      36.218  33.605  29.486  1.00  0.00    -0.237 OA
ATOM     64  O   UNL A   1      34.873  31.649  28.818  1.00  0.00    -0.744 OA
ENDBRANCH  57  61
ENDBRANCH  40  54
BRANCH  41  65
ATOM     65  C   UNL A   1      47.011  26.978  26.039  1.00  0.00     0.023 A 
ATOM     66  C   UNL A   1      48.013  26.266  26.716  1.00  0.00     0.031 A 
ATOM     67  C   UNL A   1      47.235  27.265  24.677  1.00  0.00     0.131 A 
ATOM     68  C   UNL A   1      49.218  25.950  26.068  1.00  0.00     0.055 A 
ATOM     69  C   UNL A   1      48.392  26.855  24.007  1.00  0.00     0.041 A 
ATOM     70  F   UNL A   1      46.327  27.951  23.964  1.00  0.00    -0.206 F 
ATOM     71  C   UNL A   1      49.405  26.216  24.712  1.00  0.00     0.022 A 
BRANCH  68  72
ATOM     72  S   UNL A   1      50.603  25.370  27.083  1.00  0.00     0.124 S 
ATOM     73  O   UNL A   1      51.566  24.975  26.060  1.00  0.00    -0.237 OA
ATOM     74  O   UNL A   1      50.937  26.563  27.853  1.00  0.00    -0.237 OA
ATOM     75  O   UNL A   1      50.023  24.271  27.851  1.00  0.00    -0.744 OA
ENDBRANCH  68  72
ENDBRANCH  41  65
BRANCH  53  76
ATOM     76  C   UNL A   1      45.221  32.824  29.377  1.00  0.00     0.023 A 
ATOM     77  C   UNL A   1      45.240  33.939  28.533  1.00  0.00     0.031 A 
ATOM     78  C   UNL A   1      45.921  32.866  30.593  1.00  0.00     0.131 A 
ATOM     79  C   UNL A   1      46.007  35.045  28.896  1.00  0.00     0.055 A 
ATOM     80  C   UNL A   1      46.601  34.009  30.992  1.00  0.00     0.041 A 
ATOM     81  F   UNL A   1      45.926  31.808  31.420  1.00  0.00    -0.206 F 
ATOM     82  C   UNL A   1      46.658  35.102  30.132  1.00  0.00     0.022 A 
BRANCH  79  83
ATOM     83  S   UNL A   1      46.239  36.353  27.669  1.00  0.00     0.124 S 
ATOM     84  O   UNL A   1      45.877  35.671  26.431  1.00  0.00    -0.237 OA
ATOM     85  O   UNL A   1      45.306  37.379  28.126  1.00  0.00    -0.237 OA
ATOM     86  O   UNL A   1      47.653  36.695  27.802  1.00  0.00    -0.744 OA
ENDBRANCH  79  83
ENDBRANCH  53  76
ENDBRANCH  27  28
ENDBRANCH  20  22
ENDBRANCH  19  20
ENDBRANCH   1  19
TORSDOF 15
ENDMDL
MODEL 2
REMARK VINA RESULT:     -12.1      1.690      2.092
REMARK SMILES CC1(C)CCN(c2ncccc2C(=O)OCCOC(=O)c2ccc(-c3c4nc(c(-c5cc(S(=O)(=O)[O-])ccc5F)c5ccc([nH]5)c(-c5cc(S(=O)(=O)[O-])ccc5F)c5nc(c(-c6cc(S(=O)(=O)[O-])ccc6F)c6ccc3[nH]6)C=C5)C=C4)cc2)C1
REMARK SMILES IDX 17 1 16 2 15 3 13 4 14 5 12 6 7 7 8 8 9 9 11 10 10 11 6 12
REMARK SMILES IDX 1 13 2 14 3 15 4 16 84 17 5 18 18 19 19 20 20 21 21 22 22 23
REMARK SMILES IDX 83 24 23 25 82 26 24 27 25 28 26 29 76 30 27 31 81 32 75 33
REMARK SMILES IDX 77 34 28 35 80 36 74 37 73 38 29 40 61 41 41 42 60 43 42 44
REMARK SMILES IDX 45 45 59 46 78 47 43 48 44 49 58 51 79 52 46 53 30 54 31 55
REMARK SMILES IDX 39 56 32 57 38 58 40 59 37 60 33 61 34 62 35 63 36 64 62 65
REMARK SMILES IDX 63 66 71 67 64 68 70 69 72 70 69 71 65 72 66 73 67 74 68 75
REMARK SMILES IDX 47 76 48 77 56 78 49 79 55 80 57 81 54 82 50 83 51 84 52 85
REMARK SMILES IDX 53 86
REMARK H PARENT 77 39 45 50
REMARK Flexibility Score: inf
ROOT
ATOM      1  C   UNL A   1      35.432  21.018  24.842  1.00  0.00     0.275 C 
ENDROOT
BRANCH   1   2
ATOM      2  C   UNL A   1      35.308  22.292  24.006  1.00  0.00     0.275 C 
BRANCH   2   3
ATOM      3  O   UNL A   1      34.012  22.923  24.180  1.00  0.00    -0.458 OA
BRANCH   3   4
ATOM      4  C   UNL A   1      33.848  23.713  25.282  1.00  0.00     0.342 C 
ATOM      5  O   UNL A   1      34.736  24.342  25.834  1.00  0.00    -0.246 OA
BRANCH   4   6
ATOM      6  C   UNL A   1      32.451  23.660  25.784  1.00  0.00     0.102 A 
ATOM      7  C   UNL A   1      31.670  24.776  26.165  1.00  0.00     0.143 A 
ATOM      8  N   UNL A   1      30.448  24.586  26.727  1.00  0.00    -0.238 NA
ATOM      9  C   UNL A   1      29.970  23.334  26.876  1.00  0.00     0.113 A 
ATOM     10  C   UNL A   1      31.915  22.370  25.933  1.00  0.00     0.021 A 
ATOM     11  C   UNL A   1      30.650  22.203  26.477  1.00  0.00     0.021 A 
BRANCH   7  12
ATOM     12  N   UNL A   1      31.846  26.070  25.704  1.00  0.00    -0.355 N 
ATOM     13  C   UNL A   1      30.511  27.569  22.638  1.00  0.00     0.013 C 
ATOM     14  C   UNL A   1      32.417  27.764  23.065  1.00  0.00    -0.016 C 
ATOM     15  C   UNL A   1      34.042  28.561  22.436  1.00  0.00     0.013 C 
ATOM     16  C   UNL A   1      33.644  28.339  24.741  1.00  0.00     0.030 C 
ATOM     17  C   UNL A   1      31.378  26.143  23.959  1.00  0.00     0.124 C 
ATOM     18  C   UNL A   1      33.081  27.207  26.233  1.00  0.00     0.119 C 
ENDBRANCH   7  12
ENDBRANCH   4   6
ENDBRANCH   3   4
ENDBRANCH   2   3
ENDBRANCH   1   2
BRANCH   1  19
ATOM     19  O   UNL A   1      36.461  21.222  25.814  1.00  0.00    -0.458 OA
BRANCH  19  20
ATOM     20  C   UNL A   1      37.670  20.843  25.368  1.00  0.00     0.338 C 
ATOM     21  O   UNL A   1      37.968  19.897  24.663  1.00  0.00    -0.246 OA
BRANCH  20  22
ATOM     22  C   UNL A   1      38.638  21.841  25.756  1.00  0.00     0.060 A 
ATOM     23  C   UNL A   1      40.196  21.334  26.590  1.00  0.00     0.016 A 
ATOM     24  C   UNL A   1      38.136  23.559  25.790  1.00  0.00     0.016 A 
ATOM     25  C   UNL A   1      41.086  22.719  27.836  1.00  0.00     0.010 A 
ATOM     26  C   UNL A   1      39.233  24.870  26.400  1.00  0.00     0.010 A 
ATOM     27  C   UNL A   1      40.737  24.527  27.407  1.00  0.00    -0.014 A 
BRANCH  27  28
ATOM     28  C   UNL A   1      41.425  25.822  27.744  1.00  0.00     0.031 A 
ATOM     29  C   UNL A   1      40.672  26.959  28.457  1.00  0.00     0.074 A 
ATOM     30  C   UNL A   1      42.613  26.094  27.158  1.00  0.00     0.049 A 
ATOM     31  N   UNL A   1      41.117  28.144  28.801  1.00  0.00    -0.248 NA
ATOM     32  C   UNL A   1      39.238  26.815  28.788  1.00  0.00     0.031 C 
ATOM     33  C   UNL A   1      43.239  25.263  26.145  1.00  0.00     0.029 A 
ATOM     34  N   UNL A   1      43.511  27.124  27.262  1.00  0.00    -0.354 N 
ATOM     35  C   UNL A   1      40.059  28.786  29.449  1.00  0.00     0.074 A 
ATOM     36  C   UNL A   1      38.921  27.936  29.391  1.00  0.00     0.031 C 
ATOM     37  C   UNL A   1      44.499  25.631  25.915  1.00  0.00     0.029 A 
ATOM     38  C   UNL A   1      44.684  26.911  26.553  1.00  0.00     0.049 A 
ATOM     39  H   UNL A   1      43.339  27.937  27.790  1.00  0.00     0.167 HD
ATOM     40  C   UNL A   1      40.006  30.000  30.035  1.00  0.00     0.034 A 
ATOM     41  C   UNL A   1      45.751  27.702  26.348  1.00  0.00     0.034 A 
ATOM     42  C   UNL A   1      41.078  30.927  29.901  1.00  0.00     0.049 A 
ATOM     43  C   UNL A   1      45.648  29.076  26.938  1.00  0.00     0.074 A 
ATOM     44  C   UNL A   1      41.168  32.218  30.368  1.00  0.00     0.029 A 
ATOM     45  N   UNL A   1      42.239  30.653  29.188  1.00  0.00    -0.354 N 
ATOM     46  N   UNL A   1      44.647  29.595  27.614  1.00  0.00    -0.248 NA
ATOM     47  C   UNL A   1      46.781  29.976  26.731  1.00  0.00     0.031 C 
ATOM     48  C   UNL A   1      42.362  32.750  29.879  1.00  0.00     0.029 A 
ATOM     49  C   UNL A   1      43.059  31.756  29.204  1.00  0.00     0.049 A 
ATOM     50  H   UNL A   1      42.442  29.801  28.740  1.00  0.00     0.167 HD
ATOM     51  C   UNL A   1      45.049  30.873  27.956  1.00  0.00     0.074 A 
ATOM     52  C   UNL A   1      46.386  31.040  27.413  1.00  0.00     0.031 C 
ATOM     53  C   UNL A   1      44.387  31.826  28.654  1.00  0.00     0.034 A 
BRANCH  40  54
ATOM     54  C   UNL A   1      38.743  30.349  30.786  1.00  0.00     0.023 A 
ATOM     55  C   UNL A   1      37.674  30.989  30.124  1.00  0.00     0.031 A 
ATOM     56  C   UNL A   1      38.634  30.158  32.172  1.00  0.00     0.131 A 
ATOM     57  C   UNL A   1      36.578  31.469  30.855  1.00  0.00     0.055 A 
ATOM     58  C   UNL A   1      37.498  30.560  32.881  1.00  0.00     0.041 A 
ATOM     59  F   UNL A   1      39.648  29.623  32.870  1.00  0.00    -0.206 F 
ATOM     60  C   UNL A   1      36.467  31.227  32.225  1.00  0.00     0.022 A 
BRANCH  57  61
ATOM     61  S   UNL A   1      35.385  32.554  30.023  1.00  0.00     0.124 S 
ATOM     62  O   UNL A   1      34.944  31.709  28.915  1.00  0.00    -0.237 OA
ATOM     63  O   UNL A   1      34.400  32.806  31.068  1.00  0.00    -0.237 OA
ATOM     64  O   UNL A   1      36.189  33.710  29.632  1.00  0.00    -0.744 OA
ENDBRANCH  57  61
ENDBRANCH  40  54
BRANCH  41  65
ATOM     65  C   UNL A   1      46.936  27.264  25.546  1.00  0.00     0.023 A 
ATOM     66  C   UNL A   1      47.172  27.827  24.283  1.00  0.00     0.031 A 
ATOM     67  C   UNL A   1      47.818  26.251  25.975  1.00  0.00     0.131 A 
ATOM     68  C   UNL A   1      48.192  27.319  23.462  1.00  0.00     0.055 A 
ATOM     69  C   UNL A   1      48.897  25.823  25.197  1.00  0.00     0.041 A 
ATOM     70  F   UNL A   1      47.650  25.657  27.167  1.00  0.00    -0.206 F 
ATOM     71  C   UNL A   1      49.073  26.339  23.918  1.00  0.00     0.022 A 
BRANCH  68  72
ATOM     72  S   UNL A   1      48.213  27.824  21.721  1.00  0.00     0.124 S 
ATOM     73  O   UNL A   1      48.287  26.533  21.046  1.00  0.00    -0.237 OA
ATOM     74  O   UNL A   1      46.950  28.543  21.598  1.00  0.00    -0.237 OA
ATOM     75  O   UNL A   1      49.415  28.649  21.622  1.00  0.00    -0.744 OA
ENDBRANCH  68  72
ENDBRANCH  41  65
BRANCH  53  76
ATOM     76  C   UNL A   1      45.150  33.072  28.952  1.00  0.00     0.023 A 
ATOM     77  C   UNL A   1      45.091  34.184  28.107  1.00  0.00     0.031 A 
ATOM     78  C   UNL A   1      45.913  33.139  30.130  1.00  0.00     0.131 A 
ATOM     79  C   UNL A   1      45.844  35.313  28.426  1.00  0.00     0.055 A 
ATOM     80  C   UNL A   1      46.580  34.303  30.489  1.00  0.00     0.041 A 
ATOM     81  F   UNL A   1      45.993  32.085  30.957  1.00  0.00    -0.206 F 
ATOM     82  C   UNL A   1      46.558  35.395  29.626  1.00  0.00     0.022 A 
BRANCH  79  83
ATOM     83  S   UNL A   1      45.971  36.623  27.186  1.00  0.00     0.124 S 
ATOM     84  O   UNL A   1      46.334  35.871  25.990  1.00  0.00    -0.237 OA
ATOM     85  O   UNL A   1      44.626  37.194  27.194  1.00  0.00    -0.237 OA
ATOM     86  O   UNL A   1      47.018  37.492  27.718  1.00  0.00    -0.744 OA
ENDBRANCH  79  83
ENDBRANCH  53  76
ENDBRANCH  27  28
ENDBRANCH  20  22
ENDBRANCH  19  20
ENDBRANCH   1  19
TORSDOF 15
ENDMDL
MODEL 3
REMARK VINA RESULT:     -11.9      1.498      1.971
REMARK SMILES CC1(C)CCN(c2ncccc2C(=O)OCCOC(=O)c2ccc(-c3c4nc(c(-c5cc(S(=O)(=O)[O-])ccc5F)c5ccc([nH]5)c(-c5cc(S(=O)(=O)[O-])ccc5F)c5nc(c(-c6cc(S(=O)(=O)[O-])ccc6F)c6ccc3[nH]6)C=C5)C=C4)cc2)C1
REMARK SMILES IDX 17 1 16 2 15 3 13 4 14 5 12 6 7 7 8 8 9 9 11 10 10 11 6 12
REMARK SMILES IDX 1 13 2 14 3 15 4 16 84 17 5 18 18 19 19 20 20 21 21 22 22 23
REMARK SMILES IDX 83 24 23 25 82 26 24 27 25 28 26 29 76 30 27 31 81 32 75 33
REMARK SMILES IDX 77 34 28 35 80 36 74 37 73 38 29 40 61 41 41 42 60 43 42 44
REMARK SMILES IDX 45 45 59 46 78 47 43 48 44 49 58 51 79 52 46 53 30 54 31 55
REMARK SMILES IDX 39 56 32 57 38 58 40 59 37 60 33 61 34 62 35 63 36 64 62 65
REMARK SMILES IDX 63 66 71 67 64 68 70 69 72 70 69 71 65 72 66 73 67 74 68 75
REMARK SMILES IDX 47 76 48 77 56 78 49 79 55 80 57 81 54 82 50 83 51 84 52 85
REMARK SMILES IDX 53 86
REMARK H PARENT 77 39 45 50
REMARK Flexibility Score: inf
ROOT
ATOM      1  C   UNL A   1      35.360  20.978  24.939  1.00  0.00     0.275 C 
ENDROOT
BRANCH   1   2
ATOM      2  C   UNL A   1      35.203  22.219  24.061  1.00  0.00     0.275 C 
BRANCH   2   3
ATOM      3  O   UNL A   1      33.892  22.824  24.215  1.00  0.00    -0.458 OA
BRANCH   3   4
ATOM      4  C   UNL A   1      33.736  23.718  25.237  1.00  0.00     0.342 C 
ATOM      5  O   UNL A   1      34.630  24.393  25.721  1.00  0.00    -0.246 OA
BRANCH   4   6
ATOM      6  C   UNL A   1      32.341  23.719  25.747  1.00  0.00     0.102 A 
ATOM      7  C   UNL A   1      31.617  24.862  26.158  1.00  0.00     0.143 A 
ATOM      8  N   UNL A   1      30.390  24.718  26.724  1.00  0.00    -0.238 NA
ATOM      9  C   UNL A   1      29.854  23.487  26.848  1.00  0.00     0.113 A 
ATOM     10  C   UNL A   1      31.745  22.454  25.871  1.00  0.00     0.021 A 
ATOM     11  C   UNL A   1      30.477  22.335  26.420  1.00  0.00     0.021 A 
BRANCH   7  12
ATOM     12  N   UNL A   1      31.852  26.157  25.725  1.00  0.00    -0.355 N 
ATOM     13  C   UNL A   1      30.634  27.763  22.664  1.00  0.00     0.013 C 
ATOM     14  C   UNL A   1      32.537  27.875  23.129  1.00  0.00    -0.016 C 
ATOM     15  C   UNL A   1      34.204  28.619  22.545  1.00  0.00     0.013 C 
ATOM     16  C   UNL A   1      33.755  28.371  24.838  1.00  0.00     0.030 C 
ATOM     17  C   UNL A   1      31.420  26.280  23.973  1.00  0.00     0.124 C 
ATOM     18  C   UNL A   1      33.119  27.235  26.298  1.00  0.00     0.119 C 
ENDBRANCH   7  12
ENDBRANCH   4   6
ENDBRANCH   3   4
ENDBRANCH   2   3
ENDBRANCH   1   2
BRANCH   1  19
ATOM     19  O   UNL A   1      36.421  21.219  25.867  1.00  0.00    -0.458 OA
BRANCH  19  20
ATOM     20  C   UNL A   1      37.620  20.864  25.377  1.00  0.00     0.338 C 
ATOM     21  O   UNL A   1      37.899  19.971  24.599  1.00  0.00    -0.246 OA
BRANCH  20  22
ATOM     22  C   UNL A   1      38.604  21.821  25.826  1.00  0.00     0.060 A 
ATOM     23  C   UNL A   1      40.103  21.247  26.720  1.00  0.00     0.016 A 
ATOM     24  C   UNL A   1      38.160  23.555  25.866  1.00  0.00     0.016 A 
ATOM     25  C   UNL A   1      40.983  22.579  28.029  1.00  0.00     0.010 A 
ATOM     26  C   UNL A   1      39.273  24.816  26.548  1.00  0.00     0.010 A 
ATOM     27  C   UNL A   1      40.716  24.405  27.616  1.00  0.00    -0.014 A 
BRANCH  27  28
ATOM     28  C   UNL A   1      41.432  25.669  28.006  1.00  0.00     0.031 A 
ATOM     29  C   UNL A   1      40.688  26.819  28.708  1.00  0.00     0.074 A 
ATOM     30  C   UNL A   1      42.653  25.910  27.476  1.00  0.00     0.049 A 
ATOM     31  N   UNL A   1      41.158  27.982  29.092  1.00  0.00    -0.248 NA
ATOM     32  C   UNL A   1      39.238  26.719  28.975  1.00  0.00     0.031 C 
ATOM     33  C   UNL A   1      43.293  25.076  26.475  1.00  0.00     0.029 A 
ATOM     34  N   UNL A   1      43.580  26.907  27.637  1.00  0.00    -0.354 N 
ATOM     35  C   UNL A   1      40.096  28.649  29.707  1.00  0.00     0.074 A 
ATOM     36  C   UNL A   1      38.933  27.840  29.585  1.00  0.00     0.031 C 
ATOM     37  C   UNL A   1      44.574  25.404  26.305  1.00  0.00     0.029 A 
ATOM     38  C   UNL A   1      44.774  26.666  26.975  1.00  0.00     0.049 A 
ATOM     39  H   UNL A   1      43.413  27.716  28.173  1.00  0.00     0.167 HD
ATOM     40  C   UNL A   1      40.058  29.853  30.313  1.00  0.00     0.034 A 
ATOM     41  C   UNL A   1      45.875  27.424  26.829  1.00  0.00     0.034 A 
ATOM     42  C   UNL A   1      41.165  30.745  30.242  1.00  0.00     0.049 A 
ATOM     43  C   UNL A   1      45.793  28.789  27.441  1.00  0.00     0.074 A 
ATOM     44  C   UNL A   1      41.279  32.024  30.736  1.00  0.00     0.029 A 
ATOM     45  N   UNL A   1      42.346  30.444  29.573  1.00  0.00    -0.354 N 
ATOM     46  N   UNL A   1      44.782  29.331  28.083  1.00  0.00    -0.248 NA
ATOM     47  C   UNL A   1      46.964  29.654  27.299  1.00  0.00     0.031 C 
ATOM     48  C   UNL A   1      42.509  32.523  30.309  1.00  0.00     0.029 A 
ATOM     49  C   UNL A   1      43.201  31.517  29.645  1.00  0.00     0.049 A 
ATOM     50  H   UNL A   1      42.540  29.593  29.119  1.00  0.00     0.167 HD
ATOM     51  C   UNL A   1      45.213  30.588  28.466  1.00  0.00     0.074 A 
ATOM     52  C   UNL A   1      46.576  30.718  27.983  1.00  0.00     0.031 C 
ATOM     53  C   UNL A   1      44.554  31.551  29.153  1.00  0.00     0.034 A 
BRANCH  40  54
ATOM     54  C   UNL A   1      38.777  30.233  31.016  1.00  0.00     0.023 A 
ATOM     55  C   UNL A   1      37.845  31.087  30.389  1.00  0.00     0.031 A 
ATOM     56  C   UNL A   1      38.524  29.849  32.342  1.00  0.00     0.131 A 
ATOM     57  C   UNL A   1      36.745  31.578  31.106  1.00  0.00     0.055 A 
ATOM     58  C   UNL A   1      37.376  30.271  33.022  1.00  0.00     0.041 A 
ATOM     59  F   UNL A   1      39.407  29.099  33.018  1.00  0.00    -0.206 F 
ATOM     60  C   UNL A   1      36.485  31.147  32.408  1.00  0.00     0.022 A 
BRANCH  57  61
ATOM     61  S   UNL A   1      35.754  32.911  30.374  1.00  0.00     0.124 S 
ATOM     62  O   UNL A   1      36.243  34.076  31.109  1.00  0.00    -0.237 OA
ATOM     63  O   UNL A   1      36.121  32.844  28.964  1.00  0.00    -0.237 OA
ATOM     64  O   UNL A   1      34.379  32.522  30.679  1.00  0.00    -0.744 OA
ENDBRANCH  57  61
ENDBRANCH  40  54
BRANCH  41  65
ATOM     65  C   UNL A   1      47.078  26.959  26.070  1.00  0.00     0.023 A 
ATOM     66  C   UNL A   1      48.081  26.232  26.728  1.00  0.00     0.031 A 
ATOM     67  C   UNL A   1      47.292  27.267  24.712  1.00  0.00     0.131 A 
ATOM     68  C   UNL A   1      49.279  25.919  26.065  1.00  0.00     0.055 A 
ATOM     69  C   UNL A   1      48.441  26.860  24.026  1.00  0.00     0.041 A 
ATOM     70  F   UNL A   1      46.382  27.968  24.017  1.00  0.00    -0.206 F 
ATOM     71  C   UNL A   1      49.457  26.205  24.712  1.00  0.00     0.022 A 
BRANCH  68  72
ATOM     72  S   UNL A   1      50.669  25.316  27.059  1.00  0.00     0.124 S 
ATOM     73  O   UNL A   1      51.038  26.517  27.801  1.00  0.00    -0.237 OA
ATOM     74  O   UNL A   1      50.048  24.248  27.834  1.00  0.00    -0.237 OA
ATOM     75  O   UNL A   1      51.638  24.880  26.057  1.00  0.00    -0.744 OA
ENDBRANCH  68  72
ENDBRANCH  41  65
BRANCH  53  76
ATOM     76  C   UNL A   1      45.344  32.765  29.507  1.00  0.00     0.023 A 
ATOM     77  C   UNL A   1      46.130  32.814  30.663  1.00  0.00     0.031 A 
ATOM     78  C   UNL A   1      45.328  33.868  28.637  1.00  0.00     0.131 A 
ATOM     79  C   UNL A   1      46.829  33.983  30.953  1.00  0.00     0.055 A 
ATOM     80  C   UNL A   1      46.106  34.990  28.884  1.00  0.00     0.041 A 
ATOM     81  F   UNL A   1      44.578  33.851  27.523  1.00  0.00    -0.206 F 
ATOM     82  C   UNL A   1      46.852  35.057  30.057  1.00  0.00     0.022 A 
BRANCH  79  83
ATOM     83  S   UNL A   1      47.608  34.122  32.579  1.00  0.00     0.124 S 
ATOM     84  O   UNL A   1      47.699  35.569  32.746  1.00  0.00    -0.237 OA
ATOM     85  O   UNL A   1      46.649  33.442  33.445  1.00  0.00    -0.237 OA
ATOM     86  O   UNL A   1      48.884  33.434  32.404  1.00  0.00    -0.744 OA
ENDBRANCH  79  83
ENDBRANCH  53  76
ENDBRANCH  27  28
ENDBRANCH  20  22
ENDBRANCH  19  20
ENDBRANCH   1  19
TORSDOF 15
ENDMDL
