MODEL 1
REMARK VINA RESULT:     -11.9      0.000      0.000
REMARK SMILES Cc1ccc(C)c(NC(=O)/C=C/C(=O)OCCOC(=O)c2ccc(-c3c4nc(c(-c5cc(S(=O)(=O)[O-])ccc5F)c5ccc([nH]5)c(-c5cc(S(=O)(=O)[O-])ccc5F)c5nc(c(-c6cc(S(=O)(=O)[O-])ccc6F)c6ccc3[nH]6)C=C5)C=C4)cc2)c1
REMARK SMILES IDX 17 1 16 2 15 3 13 4 14 5 12 6 11 7 9 8 8 9 10 11 7 12 1 13
REMARK SMILES IDX 2 14 3 15 84 16 4 17 5 18 6 19 18 20 19 21 20 22 21 23 22 24
REMARK SMILES IDX 83 25 23 26 82 27 24 28 25 29 26 30 76 31 27 32 81 33 75 34
REMARK SMILES IDX 77 35 28 36 80 37 74 38 73 39 29 41 61 42 41 43 60 44 42 45
REMARK SMILES IDX 45 46 59 47 78 48 43 49 44 50 58 52 79 53 46 54 30 55 31 56
REMARK SMILES IDX 39 57 32 58 38 59 40 60 37 61 33 62 34 63 35 64 36 65 62 66
REMARK SMILES IDX 63 67 71 68 64 69 70 70 72 71 69 72 65 73 66 74 67 75 68 76
REMARK SMILES IDX 47 77 48 78 56 79 49 80 55 81 57 82 54 83 50 84 51 85 52 86
REMARK SMILES IDX 53 87
REMARK H PARENT 8 10 77 40 45 51
REMARK Flexibility Score: inf
ROOT
ATOM      1  C   UNL A   1      34.960  31.590  28.178  1.00  0.00     0.275 C 
ENDROOT
BRANCH   1   2
ATOM      2  C   UNL A   1      33.613  31.076  27.655  1.00  0.00     0.275 C 
BRANCH   2   3
ATOM      3  O   UNL A   1      33.859  30.305  26.474  1.00  0.00    -0.459 OA
BRANCH   3   4
ATOM      4  C   UNL A   1      33.787  28.854  26.641  1.00  0.00     0.331 C 
ATOM      5  O   UNL A   1      34.868  28.543  27.216  1.00  0.00    -0.247 OA
BRANCH   4   6
ATOM      6  C   UNL A   1      32.118  27.656  26.058  1.00  0.00     0.099 C 
ATOM      7  C   UNL A   1      31.123  26.758  26.546  1.00  0.00     0.079 C 
BRANCH   7   8
ATOM      8  C   UNL A   1      30.074  25.857  25.923  1.00  0.00     0.248 C 
ATOM      9  N   UNL A   1      29.553  26.024  24.651  1.00  0.00    -0.322 N 
ATOM     10  H   UNL A   1      28.937  25.303  24.387  1.00  0.00     0.170 HD
ATOM     11  O   UNL A   1      29.797  24.805  26.509  1.00  0.00    -0.270 OA
BRANCH   9  12
ATOM     12  C   UNL A   1      29.720  27.007  23.653  1.00  0.00     0.044 A 
ATOM     13  C   UNL A   1      27.829  29.946  22.055  1.00  0.00     0.044 C 
ATOM     14  C   UNL A   1      28.916  29.042  22.565  1.00  0.00    -0.049 A 
ATOM     15  C   UNL A   1      30.235  29.348  22.230  1.00  0.00     0.004 A 
ATOM     16  C   UNL A   1      28.672  27.899  23.353  1.00  0.00     0.029 A 
ATOM     17  C   UNL A   1      31.204  28.361  22.340  1.00  0.00     0.006 A 
ATOM     18  C   UNL A   1      30.857  27.114  22.868  1.00  0.00    -0.027 A 
ATOM     19  C   UNL A   1      31.386  25.885  22.171  1.00  0.00     0.046 C 
ENDBRANCH   9  12
ENDBRANCH   7   8
ENDBRANCH   4   6
ENDBRANCH   3   4
ENDBRANCH   2   3
ENDBRANCH   1   2
BRANCH   1  20
ATOM     20  O   UNL A   1      35.440  30.912  29.373  1.00  0.00    -0.458 OA
BRANCH  20  21
ATOM     21  C   UNL A   1      36.774  30.933  29.637  1.00  0.00     0.338 C 
ATOM     22  O   UNL A   1      37.377  31.878  30.111  1.00  0.00    -0.246 OA
BRANCH  21  23
ATOM     23  C   UNL A   1      37.414  29.675  29.195  1.00  0.00     0.060 A 
ATOM     24  C   UNL A   1      38.072  28.541  30.466  1.00  0.00     0.016 A 
ATOM     25  C   UNL A   1      38.243  29.830  27.583  1.00  0.00     0.016 A 
ATOM     26  C   UNL A   1      39.706  27.735  30.221  1.00  0.00     0.010 A 
ATOM     27  C   UNL A   1      39.827  28.956  27.317  1.00  0.00     0.010 A 
ATOM     28  C   UNL A   1      40.617  28.035  28.679  1.00  0.00    -0.014 A 
BRANCH  28  29
ATOM     29  C   UNL A   1      42.102  27.835  28.516  1.00  0.00     0.031 A 
ATOM     30  C   UNL A   1      42.211  26.571  27.774  1.00  0.00     0.074 A 
ATOM     31  C   UNL A   1      43.226  28.607  28.681  1.00  0.00     0.049 A 
ATOM     32  N   UNL A   1      41.982  25.408  28.299  1.00  0.00    -0.248 NA
ATOM     33  C   UNL A   1      42.088  26.608  26.303  1.00  0.00     0.031 C 
ATOM     34  C   UNL A   1      43.382  29.985  29.163  1.00  0.00     0.029 A 
ATOM     35  N   UNL A   1      44.553  28.292  28.389  1.00  0.00    -0.354 N 
ATOM     36  C   UNL A   1      42.052  24.571  27.207  1.00  0.00     0.074 A 
ATOM     37  C   UNL A   1      41.593  25.379  26.117  1.00  0.00     0.031 C 
ATOM     38  C   UNL A   1      44.655  30.434  28.947  1.00  0.00     0.029 A 
ATOM     39  C   UNL A   1      45.487  29.363  28.406  1.00  0.00     0.049 A 
ATOM     40  H   UNL A   1      44.830  27.370  28.180  1.00  0.00     0.167 HD
ATOM     41  C   UNL A   1      42.993  23.586  27.159  1.00  0.00     0.034 A 
ATOM     42  C   UNL A   1      46.830  29.361  28.055  1.00  0.00     0.034 A 
ATOM     43  C   UNL A   1      43.608  23.405  28.473  1.00  0.00     0.049 A 
ATOM     44  C   UNL A   1      47.288  27.956  28.169  1.00  0.00     0.074 A 
ATOM     45  C   UNL A   1      43.132  23.241  29.764  1.00  0.00     0.029 A 
ATOM     46  N   UNL A   1      44.922  23.801  28.624  1.00  0.00    -0.354 N 
ATOM     47  N   UNL A   1      47.377  27.330  29.305  1.00  0.00    -0.248 NA
ATOM     48  C   UNL A   1      47.128  27.113  26.997  1.00  0.00     0.031 C 
ATOM     49  C   UNL A   1      44.017  23.991  30.597  1.00  0.00     0.029 A 
ATOM     50  C   UNL A   1      45.060  24.476  29.812  1.00  0.00     0.049 A 
ATOM     51  H   UNL A   1      45.646  23.626  27.980  1.00  0.00     0.167 HD
ATOM     52  C   UNL A   1      46.776  26.108  29.066  1.00  0.00     0.074 A 
ATOM     53  C   UNL A   1      46.713  25.998  27.605  1.00  0.00     0.031 C 
ATOM     54  C   UNL A   1      46.098  25.462  30.060  1.00  0.00     0.034 A 
BRANCH  41  55
ATOM     55  C   UNL A   1      43.690  23.147  25.876  1.00  0.00     0.023 A 
ATOM     56  C   UNL A   1      43.573  21.786  25.563  1.00  0.00     0.031 A 
ATOM     57  C   UNL A   1      44.629  23.867  25.091  1.00  0.00     0.131 A 
ATOM     58  C   UNL A   1      44.444  21.180  24.645  1.00  0.00     0.055 A 
ATOM     59  C   UNL A   1      45.459  23.268  24.144  1.00  0.00     0.041 A 
ATOM     60  F   UNL A   1      44.871  25.175  25.208  1.00  0.00    -0.206 F 
ATOM     61  C   UNL A   1      45.395  21.908  23.939  1.00  0.00     0.022 A 
BRANCH  58  62
ATOM     62  S   UNL A   1      44.411  19.383  24.519  1.00  0.00     0.124 S 
ATOM     63  O   UNL A   1      44.764  19.191  23.118  1.00  0.00    -0.237 OA
ATOM     64  O   UNL A   1      45.421  18.999  25.500  1.00  0.00    -0.237 OA
ATOM     65  O   UNL A   1      43.034  19.048  24.876  1.00  0.00    -0.744 OA
ENDBRANCH  58  62
ENDBRANCH  41  55
BRANCH  42  66
ATOM     66  C   UNL A   1      47.735  30.374  27.354  1.00  0.00     0.023 A 
ATOM     67  C   UNL A   1      47.346  31.695  26.931  1.00  0.00     0.031 A 
ATOM     68  C   UNL A   1      49.124  30.146  27.390  1.00  0.00     0.131 A 
ATOM     69  C   UNL A   1      48.324  32.686  26.592  1.00  0.00     0.055 A 
ATOM     70  C   UNL A   1      50.076  31.130  27.079  1.00  0.00     0.041 A 
ATOM     71  F   UNL A   1      49.613  28.977  27.826  1.00  0.00    -0.206 F 
ATOM     72  C   UNL A   1      49.684  32.402  26.692  1.00  0.00     0.022 A 
BRANCH  69  73
ATOM     73  S   UNL A   1      47.890  34.408  26.083  1.00  0.00     0.124 S 
ATOM     74  O   UNL A   1      47.604  35.058  27.356  1.00  0.00    -0.237 OA
ATOM     75  O   UNL A   1      49.087  34.852  25.379  1.00  0.00    -0.237 OA
ATOM     76  O   UNL A   1      46.717  34.230  25.221  1.00  0.00    -0.744 OA
ENDBRANCH  69  73
ENDBRANCH  42  66
BRANCH  54  77
ATOM     77  C   UNL A   1      46.335  25.908  31.497  1.00  0.00     0.023 A 
ATOM     78  C   UNL A   1      47.418  25.521  32.325  1.00  0.00     0.031 A 
ATOM     79  C   UNL A   1      45.414  26.827  32.028  1.00  0.00     0.131 A 
ATOM     80  C   UNL A   1      47.527  26.038  33.635  1.00  0.00     0.055 A 
ATOM     81  C   UNL A   1      45.541  27.355  33.312  1.00  0.00     0.041 A 
ATOM     82  F   UNL A   1      44.369  27.245  31.296  1.00  0.00    -0.206 F 
ATOM     83  C   UNL A   1      46.594  26.956  34.125  1.00  0.00     0.022 A 
BRANCH  80  84
ATOM     84  S   UNL A   1      48.862  25.492  34.755  1.00  0.00     0.124 S 
ATOM     85  O   UNL A   1      50.030  26.216  34.272  1.00  0.00    -0.237 OA
ATOM     86  O   UNL A   1      48.357  25.895  36.066  1.00  0.00    -0.237 OA
ATOM     87  O   UNL A   1      48.913  24.044  34.546  1.00  0.00    -0.744 OA
ENDBRANCH  80  84
ENDBRANCH  54  77
ENDBRANCH  28  29
ENDBRANCH  21  23
ENDBRANCH  20  21
ENDBRANCH   1  20
TORSDOF 16
ENDMDL
MODEL 2
REMARK VINA RESULT:     -11.6      4.196      9.235
REMARK SMILES Cc1ccc(C)c(NC(=O)/C=C/C(=O)OCCOC(=O)c2ccc(-c3c4nc(c(-c5cc(S(=O)(=O)[O-])ccc5F)c5ccc([nH]5)c(-c5cc(S(=O)(=O)[O-])ccc5F)c5nc(c(-c6cc(S(=O)(=O)[O-])ccc6F)c6ccc3[nH]6)C=C5)C=C4)cc2)c1
REMARK SMILES IDX 17 1 16 2 15 3 13 4 14 5 12 6 11 7 9 8 8 9 10 11 7 12 1 13
REMARK SMILES IDX 2 14 3 15 84 16 4 17 5 18 6 19 18 20 19 21 20 22 21 23 22 24
REMARK SMILES IDX 83 25 23 26 82 27 24 28 25 29 26 30 76 31 27 32 81 33 75 34
REMARK SMILES IDX 77 35 28 36 80 37 74 38 73 39 29 41 61 42 41 43 60 44 42 45
REMARK SMILES IDX 45 46 59 47 78 48 43 49 44 50 58 52 79 53 46 54 30 55 31 56
REMARK SMILES IDX 39 57 32 58 38 59 40 60 37 61 33 62 34 63 35 64 36 65 62 66
REMARK SMILES IDX 63 67 71 68 64 69 70 70 72 71 69 72 65 73 66 74 67 75 68 76
REMARK SMILES IDX 47 77 48 78 56 79 49 80 55 81 57 82 54 83 50 84 51 85 52 86
REMARK SMILES IDX 53 87
REMARK H PARENT 8 10 77 40 45 51
REMARK Flexibility Score: inf
ROOT
ATOM      1  C   UNL A   1      39.527  21.572  26.757  1.00  0.00     0.275 C 
ENDROOT
BRANCH   1   2
ATOM      2  C   UNL A   1      38.701  22.252  25.658  1.00  0.00     0.275 C 
BRANCH   2   3
ATOM      3  O   UNL A   1      37.551  22.847  26.270  1.00  0.00    -0.459 OA
BRANCH   3   4
ATOM      4  C   UNL A   1      36.459  23.191  25.360  1.00  0.00     0.331 C 
ATOM      5  O   UNL A   1      37.005  23.294  24.226  1.00  0.00    -0.247 OA
BRANCH   4   6
ATOM      6  C   UNL A   1      34.414  23.373  25.948  1.00  0.00     0.099 C 
ATOM      7  C   UNL A   1      33.379  24.313  26.227  1.00  0.00     0.079 C 
BRANCH   7   8
ATOM      8  C   UNL A   1      31.975  24.247  26.800  1.00  0.00     0.248 C 
ATOM      9  N   UNL A   1      31.025  25.243  26.661  1.00  0.00    -0.322 N 
ATOM     10  H   UNL A   1      30.148  24.997  27.035  1.00  0.00     0.170 HD
ATOM     11  O   UNL A   1      31.593  23.167  27.262  1.00  0.00    -0.270 OA
BRANCH   9  12
ATOM     12  C   UNL A   1      31.046  26.536  26.096  1.00  0.00     0.044 A 
ATOM     13  C   UNL A   1      32.053  30.136  26.988  1.00  0.00     0.044 C 
ATOM     14  C   UNL A   1      31.759  28.869  26.234  1.00  0.00    -0.049 A 
ATOM     15  C   UNL A   1      31.755  28.922  24.841  1.00  0.00     0.004 A 
ATOM     16  C   UNL A   1      31.477  27.638  26.860  1.00  0.00     0.029 A 
ATOM     17  C   UNL A   1      31.124  27.911  24.130  1.00  0.00     0.006 A 
ATOM     18  C   UNL A   1      30.587  26.820  24.819  1.00  0.00    -0.027 A 
ATOM     19  C   UNL A   1      29.220  26.332  24.406  1.00  0.00     0.046 C 
ENDBRANCH   9  12
ENDBRANCH   7   8
ENDBRANCH   4   6
ENDBRANCH   3   4
ENDBRANCH   2   3
ENDBRANCH   1   2
BRANCH   1  20
ATOM     20  O   UNL A   1      40.700  22.323  27.179  1.00  0.00    -0.458 OA
BRANCH  20  21
ATOM     21  C   UNL A   1      41.797  22.315  26.374  1.00  0.00     0.338 C 
ATOM     22  O   UNL A   1      42.180  21.360  25.725  1.00  0.00    -0.246 OA
BRANCH  21  23
ATOM     23  C   UNL A   1      42.514  23.607  26.457  1.00  0.00     0.060 A 
ATOM     24  C   UNL A   1      43.549  23.933  27.926  1.00  0.00     0.016 A 
ATOM     25  C   UNL A   1      41.623  24.965  25.639  1.00  0.00     0.016 A 
ATOM     26  C   UNL A   1      43.505  25.585  28.731  1.00  0.00     0.010 A 
ATOM     27  C   UNL A   1      41.655  26.627  26.401  1.00  0.00     0.010 A 
ATOM     28  C   UNL A   1      42.472  26.893  28.010  1.00  0.00    -0.014 A 
BRANCH  28  29
ATOM     29  C   UNL A   1      41.983  28.103  28.764  1.00  0.00     0.031 A 
ATOM     30  C   UNL A   1      42.795  29.206  28.232  1.00  0.00     0.074 A 
ATOM     31  C   UNL A   1      40.909  28.398  29.568  1.00  0.00     0.049 A 
ATOM     32  N   UNL A   1      44.049  29.376  28.516  1.00  0.00    -0.248 NA
ATOM     33  C   UNL A   1      42.364  29.854  26.977  1.00  0.00     0.031 C 
ATOM     34  C   UNL A   1      39.809  27.552  30.049  1.00  0.00     0.029 A 
ATOM     35  N   UNL A   1      40.543  29.624  30.123  1.00  0.00    -0.354 N 
ATOM     36  C   UNL A   1      44.405  30.411  27.679  1.00  0.00     0.074 A 
ATOM     37  C   UNL A   1      43.566  30.238  26.532  1.00  0.00     0.031 C 
ATOM     38  C   UNL A   1      38.834  28.310  30.635  1.00  0.00     0.029 A 
ATOM     39  C   UNL A   1      39.246  29.710  30.695  1.00  0.00     0.049 A 
ATOM     40  H   UNL A   1      41.157  30.394  30.120  1.00  0.00     0.167 HD
ATOM     41  C   UNL A   1      44.848  31.590  28.201  1.00  0.00     0.034 A 
ATOM     42  C   UNL A   1      38.588  30.817  31.214  1.00  0.00     0.034 A 
ATOM     43  C   UNL A   1      45.154  31.435  29.622  1.00  0.00     0.049 A 
ATOM     44  C   UNL A   1      39.641  31.795  31.576  1.00  0.00     0.074 A 
ATOM     45  C   UNL A   1      45.886  30.532  30.375  1.00  0.00     0.029 A 
ATOM     46  N   UNL A   1      44.320  32.061  30.527  1.00  0.00    -0.354 N 
ATOM     47  N   UNL A   1      40.489  31.596  32.541  1.00  0.00    -0.248 NA
ATOM     48  C   UNL A   1      40.071  32.716  30.539  1.00  0.00     0.031 C 
ATOM     49  C   UNL A   1      45.134  30.331  31.573  1.00  0.00     0.029 A 
ATOM     50  C   UNL A   1      44.047  31.203  31.564  1.00  0.00     0.049 A 
ATOM     51  H   UNL A   1      43.974  32.979  30.441  1.00  0.00     0.167 HD
ATOM     52  C   UNL A   1      41.712  31.931  31.990  1.00  0.00     0.074 A 
ATOM     53  C   UNL A   1      41.385  32.691  30.779  1.00  0.00     0.031 C 
ATOM     54  C   UNL A   1      42.851  31.287  32.383  1.00  0.00     0.034 A 
BRANCH  41  55
ATOM     55  C   UNL A   1      44.545  32.951  27.585  1.00  0.00     0.023 A 
ATOM     56  C   UNL A   1      43.966  33.889  28.451  1.00  0.00     0.031 A 
ATOM     57  C   UNL A   1      44.547  33.319  26.214  1.00  0.00     0.131 A 
ATOM     58  C   UNL A   1      43.309  35.023  27.951  1.00  0.00     0.055 A 
ATOM     59  C   UNL A   1      43.933  34.474  25.727  1.00  0.00     0.041 A 
ATOM     60  F   UNL A   1      45.073  32.584  25.231  1.00  0.00    -0.206 F 
ATOM     61  C   UNL A   1      43.277  35.319  26.593  1.00  0.00     0.022 A 
BRANCH  58  62
ATOM     62  S   UNL A   1      42.352  36.016  29.111  1.00  0.00     0.124 S 
ATOM     63  O   UNL A   1      42.692  37.365  28.676  1.00  0.00    -0.237 OA
ATOM     64  O   UNL A   1      40.991  35.569  28.830  1.00  0.00    -0.237 OA
ATOM     65  O   UNL A   1      42.885  35.618  30.412  1.00  0.00    -0.744 OA
ENDBRANCH  58  62
ENDBRANCH  41  55
BRANCH  42  66
ATOM     66  C   UNL A   1      37.131  31.280  31.192  1.00  0.00     0.023 A 
ATOM     67  C   UNL A   1      36.462  32.000  32.246  1.00  0.00     0.031 A 
ATOM     68  C   UNL A   1      36.467  31.292  29.951  1.00  0.00     0.131 A 
ATOM     69  C   UNL A   1      35.222  32.678  32.013  1.00  0.00     0.055 A 
ATOM     70  C   UNL A   1      35.264  31.979  29.725  1.00  0.00     0.041 A 
ATOM     71  F   UNL A   1      37.018  30.710  28.877  1.00  0.00    -0.206 F 
ATOM     72  C   UNL A   1      34.643  32.681  30.746  1.00  0.00     0.022 A 
BRANCH  69  73
ATOM     73  S   UNL A   1      34.337  33.651  33.311  1.00  0.00     0.124 S 
ATOM     74  O   UNL A   1      34.425  35.016  32.806  1.00  0.00    -0.237 OA
ATOM     75  O   UNL A   1      33.011  33.045  33.326  1.00  0.00    -0.237 OA
ATOM     76  O   UNL A   1      35.123  33.406  34.524  1.00  0.00    -0.744 OA
ENDBRANCH  69  73
ENDBRANCH  42  66
BRANCH  54  77
ATOM     77  C   UNL A   1      42.811  30.487  33.678  1.00  0.00     0.023 A 
ATOM     78  C   UNL A   1      42.557  29.098  33.798  1.00  0.00     0.031 A 
ATOM     79  C   UNL A   1      43.100  31.192  34.859  1.00  0.00     0.131 A 
ATOM     80  C   UNL A   1      42.579  28.480  35.067  1.00  0.00     0.055 A 
ATOM     81  C   UNL A   1      43.148  30.572  36.108  1.00  0.00     0.041 A 
ATOM     82  F   UNL A   1      43.361  32.509  34.820  1.00  0.00    -0.206 F 
ATOM     83  C   UNL A   1      42.879  29.214  36.218  1.00  0.00     0.022 A 
BRANCH  80  84
ATOM     84  S   UNL A   1      42.171  26.711  35.262  1.00  0.00     0.124 S 
ATOM     85  O   UNL A   1      43.164  26.038  34.434  1.00  0.00    -0.237 OA
ATOM     86  O   UNL A   1      42.301  26.515  36.704  1.00  0.00    -0.237 OA
ATOM     87  O   UNL A   1      40.798  26.620  34.760  1.00  0.00    -0.744 OA
ENDBRANCH  80  84
ENDBRANCH  54  77
ENDBRANCH  28  29
ENDBRANCH  21  23
ENDBRANCH  20  21
ENDBRANCH   1  20
TORSDOF 16
ENDMDL
MODEL 3
REMARK VINA RESULT:     -11.4      5.122     10.865
REMARK SMILES Cc1ccc(C)c(NC(=O)/C=C/C(=O)OCCOC(=O)c2ccc(-c3c4nc(c(-c5cc(S(=O)(=O)[O-])ccc5F)c5ccc([nH]5)c(-c5cc(S(=O)(=O)[O-])ccc5F)c5nc(c(-c6cc(S(=O)(=O)[O-])ccc6F)c6ccc3[nH]6)C=C5)C=C4)cc2)c1
REMARK SMILES IDX 17 1 16 2 15 3 13 4 14 5 12 6 11 7 9 8 8 9 10 11 7 12 1 13
REMARK SMILES IDX 2 14 3 15 84 16 4 17 5 18 6 19 18 20 19 21 20 22 21 23 22 24
REMARK SMILES IDX 83 25 23 26 82 27 24 28 25 29 26 30 76 31 27 32 81 33 75 34
REMARK SMILES IDX 77 35 28 36 80 37 74 38 73 39 29 41 61 42 41 43 60 44 42 45
REMARK SMILES IDX 45 46 59 47 78 48 43 49 44 50 58 52 79 53 46 54 30 55 31 56
REMARK SMILES IDX 39 57 32 58 38 59 40 60 37 61 33 62 34 63 35 64 36 65 62 66
REMARK SMILES IDX 63 67 71 68 64 69 70 70 72 71 69 72 65 73 66 74 67 75 68 76
REMARK SMILES IDX 47 77 48 78 56 79 49 80 55 81 57 82 54 83 50 84 51 85 52 86
REMARK SMILES IDX 53 87
REMARK H PARENT 8 10 77 40 45 51
REMARK Flexibility Score: inf
ROOT
ATOM      1  C   UNL A   1      38.570  23.990  26.125  1.00  0.00     0.275 C 
ENDROOT
BRANCH   1   2
ATOM      2  C   UNL A   1      37.622  22.857  25.711  1.00  0.00     0.275 C 
BRANCH   2   3
ATOM      3  O   UNL A   1      36.352  23.093  26.327  1.00  0.00    -0.459 OA
BRANCH   3   4
ATOM      4  C   UNL A   1      35.197  23.044  25.431  1.00  0.00     0.331 C 
ATOM      5  O   UNL A   1      34.672  21.916  25.645  1.00  0.00    -0.247 OA
BRANCH   4   6
ATOM      6  C   UNL A   1      34.603  24.642  24.145  1.00  0.00     0.099 C 
ATOM      7  C   UNL A   1      33.525  25.140  23.354  1.00  0.00     0.079 C 
BRANCH   7   8
ATOM      8  C   UNL A   1      33.341  26.263  22.351  1.00  0.00     0.248 C 
ATOM      9  N   UNL A   1      33.033  27.570  22.688  1.00  0.00    -0.322 N 
ATOM     10  H   UNL A   1      33.024  28.178  21.913  1.00  0.00     0.170 HD
ATOM     11  O   UNL A   1      33.664  26.047  21.179  1.00  0.00    -0.270 OA
BRANCH   9  12
ATOM     12  C   UNL A   1      32.730  28.216  23.905  1.00  0.00     0.044 A 
ATOM     13  C   UNL A   1      34.425  29.301  27.179  1.00  0.00     0.044 C 
ATOM     14  C   UNL A   1      33.508  29.225  25.990  1.00  0.00    -0.049 A 
ATOM     15  C   UNL A   1      32.386  30.053  25.974  1.00  0.00     0.004 A 
ATOM     16  C   UNL A   1      33.716  28.355  24.901  1.00  0.00     0.029 A 
ATOM     17  C   UNL A   1      31.337  29.749  25.119  1.00  0.00     0.006 A 
ATOM     18  C   UNL A   1      31.463  28.676  24.231  1.00  0.00    -0.027 A 
ATOM     19  C   UNL A   1      30.284  27.746  24.081  1.00  0.00     0.046 C 
ENDBRANCH   9  12
ENDBRANCH   7   8
ENDBRANCH   4   6
ENDBRANCH   3   4
ENDBRANCH   2   3
ENDBRANCH   1   2
BRANCH   1  20
ATOM     20  O   UNL A   1      39.810  23.541  26.741  1.00  0.00    -0.458 OA
BRANCH  20  21
ATOM     21  C   UNL A   1      40.529  24.434  27.473  1.00  0.00     0.338 C 
ATOM     22  O   UNL A   1      41.632  24.226  27.942  1.00  0.00    -0.246 OA
BRANCH  21  23
ATOM     23  C   UNL A   1      39.750  25.674  27.694  1.00  0.00     0.060 A 
ATOM     24  C   UNL A   1      40.279  27.196  26.835  1.00  0.00     0.016 A 
ATOM     25  C   UNL A   1      39.017  25.762  29.357  1.00  0.00     0.016 A 
ATOM     26  C   UNL A   1      40.299  28.798  27.736  1.00  0.00     0.010 A 
ATOM     27  C   UNL A   1      38.963  27.377  30.213  1.00  0.00     0.010 A 
ATOM     28  C   UNL A   1      39.731  28.851  29.460  1.00  0.00    -0.014 A 
BRANCH  28  29
ATOM     29  C   UNL A   1      40.097  29.933  30.444  1.00  0.00     0.031 A 
ATOM     30  C   UNL A   1      38.832  30.646  30.674  1.00  0.00     0.074 A 
ATOM     31  C   UNL A   1      41.171  30.209  31.253  1.00  0.00     0.049 A 
ATOM     32  N   UNL A   1      38.287  31.440  29.806  1.00  0.00    -0.248 NA
ATOM     33  C   UNL A   1      37.890  30.101  31.672  1.00  0.00     0.031 C 
ATOM     34  C   UNL A   1      42.457  29.519  31.411  1.00  0.00     0.029 A 
ATOM     35  N   UNL A   1      41.315  31.226  32.198  1.00  0.00    -0.354 N 
ATOM     36  C   UNL A   1      37.074  31.732  30.391  1.00  0.00     0.074 A 
ATOM     37  C   UNL A   1      36.752  30.551  31.134  1.00  0.00     0.031 C 
ATOM     38  C   UNL A   1      43.138  30.002  32.493  1.00  0.00     0.029 A 
ATOM     39  C   UNL A   1      42.421  31.128  33.085  1.00  0.00     0.049 A 
ATOM     40  H   UNL A   1      40.679  31.976  32.248  1.00  0.00     0.167 HD
ATOM     41  C   UNL A   1      36.766  33.018  30.720  1.00  0.00     0.034 A 
ATOM     42  C   UNL A   1      42.744  31.925  34.175  1.00  0.00     0.034 A 
ATOM     43  C   UNL A   1      37.711  33.944  30.097  1.00  0.00     0.049 A 
ATOM     44  C   UNL A   1      42.059  33.221  33.960  1.00  0.00     0.074 A 
ATOM     45  C   UNL A   1      38.213  34.121  28.818  1.00  0.00     0.029 A 
ATOM     46  N   UNL A   1      38.602  34.599  30.923  1.00  0.00    -0.354 N 
ATOM     47  N   UNL A   1      42.383  34.044  33.007  1.00  0.00    -0.248 NA
ATOM     48  C   UNL A   1      40.700  33.340  34.458  1.00  0.00     0.031 C 
ATOM     49  C   UNL A   1      39.592  34.450  28.988  1.00  0.00     0.029 A 
ATOM     50  C   UNL A   1      39.850  34.585  30.350  1.00  0.00     0.049 A 
ATOM     51  H   UNL A   1      38.377  35.012  31.789  1.00  0.00     0.167 HD
ATOM     52  C   UNL A   1      41.173  34.402  32.443  1.00  0.00     0.074 A 
ATOM     53  C   UNL A   1      40.164  34.001  33.429  1.00  0.00     0.031 C 
ATOM     54  C   UNL A   1      41.084  34.683  31.109  1.00  0.00     0.034 A 
BRANCH  41  55
ATOM     55  C   UNL A   1      35.955  33.403  31.951  1.00  0.00     0.023 A 
ATOM     56  C   UNL A   1      34.809  34.170  31.703  1.00  0.00     0.031 A 
ATOM     57  C   UNL A   1      36.324  33.297  33.319  1.00  0.00     0.131 A 
ATOM     58  C   UNL A   1      34.187  34.892  32.732  1.00  0.00     0.055 A 
ATOM     59  C   UNL A   1      35.671  33.979  34.346  1.00  0.00     0.041 A 
ATOM     60  F   UNL A   1      37.363  32.592  33.772  1.00  0.00    -0.206 F 
ATOM     61  C   UNL A   1      34.615  34.813  34.052  1.00  0.00     0.022 A 
BRANCH  58  62
ATOM     62  S   UNL A   1      32.903  36.071  32.272  1.00  0.00     0.124 S 
ATOM     63  O   UNL A   1      31.698  35.310  32.580  1.00  0.00    -0.237 OA
ATOM     64  O   UNL A   1      33.203  37.193  33.155  1.00  0.00    -0.237 OA
ATOM     65  O   UNL A   1      33.158  36.305  30.853  1.00  0.00    -0.744 OA
ENDBRANCH  58  62
ENDBRANCH  41  55
BRANCH  42  66
ATOM     66  C   UNL A   1      43.352  31.633  35.546  1.00  0.00     0.023 A 
ATOM     67  C   UNL A   1      43.628  30.324  36.081  1.00  0.00     0.031 A 
ATOM     68  C   UNL A   1      43.979  32.695  36.224  1.00  0.00     0.131 A 
ATOM     69  C   UNL A   1      44.491  30.148  37.211  1.00  0.00     0.055 A 
ATOM     70  C   UNL A   1      44.842  32.513  37.316  1.00  0.00     0.041 A 
ATOM     71  F   UNL A   1      43.850  33.956  35.786  1.00  0.00    -0.206 F 
ATOM     72  C   UNL A   1      45.111  31.244  37.806  1.00  0.00     0.022 A 
BRANCH  69  73
ATOM     73  S   UNL A   1      44.915  28.494  37.918  1.00  0.00     0.124 S 
ATOM     74  O   UNL A   1      45.062  28.780  39.340  1.00  0.00    -0.237 OA
ATOM     75  O   UNL A   1      43.775  27.672  37.532  1.00  0.00    -0.237 OA
ATOM     76  O   UNL A   1      46.168  28.140  37.243  1.00  0.00    -0.744 OA
ENDBRANCH  69  73
ENDBRANCH  42  66
BRANCH  54  77
ATOM     77  C   UNL A   1      42.374  34.965  30.349  1.00  0.00     0.023 A 
ATOM     78  C   UNL A   1      43.068  36.200  30.309  1.00  0.00     0.031 A 
ATOM     79  C   UNL A   1      42.948  33.881  29.665  1.00  0.00     0.131 A 
ATOM     80  C   UNL A   1      44.274  36.311  29.582  1.00  0.00     0.055 A 
ATOM     81  C   UNL A   1      44.153  33.987  28.971  1.00  0.00     0.041 A 
ATOM     82  F   UNL A   1      42.350  32.679  29.669  1.00  0.00    -0.206 F 
ATOM     83  C   UNL A   1      44.817  35.206  28.920  1.00  0.00     0.022 A 
BRANCH  80  84
ATOM     84  S   UNL A   1      45.146  37.909  29.440  1.00  0.00     0.124 S 
ATOM     85  O   UNL A   1      46.551  37.544  29.571  1.00  0.00    -0.237 OA
ATOM     86  O   UNL A   1      44.728  38.379  28.121  1.00  0.00    -0.237 OA
ATOM     87  O   UNL A   1      44.612  38.689  30.558  1.00  0.00    -0.744 OA
ENDBRANCH  80  84
ENDBRANCH  54  77
ENDBRANCH  28  29
ENDBRANCH  21  23
ENDBRANCH  20  21
ENDBRANCH   1  20
TORSDOF 16
ENDMDL
