MODEL 1
REMARK VINA RESULT:     -15.3      0.000      0.000
REMARK SMILES CCc1cccc(C)c1Nc1ccccc1CC(=O)OCCOC(=O)c1ccc(-c2c3nc(c(-c4cc(S(=O)(=O)[O-])ccc4F)c4ccc([nH]4)c(-c4cc(S(=O)(=O)[O-])ccc4F)c4nc(c(-c5cc(S(=O)(=O)[O-])ccc5F)c5ccc2[nH]5)C=C4)C=C3)cc1
REMARK SMILES IDX 21 1 20 2 18 3 19 4 17 5 16 6 11 7 12 8 13 9 15 10 14 11
REMARK SMILES IDX 10 12 9 14 3 15 4 16 5 17 7 18 6 19 8 20 2 21 1 22 22 23
REMARK SMILES IDX 23 24 24 25 25 26 26 27 27 28 88 29 28 30 87 31 29 32 30 33
REMARK SMILES IDX 31 34 81 35 32 36 86 37 80 38 82 39 33 40 85 41 79 42 78 43
REMARK SMILES IDX 34 45 66 46 46 47 65 48 47 49 50 50 64 51 83 52 48 53 49 54
REMARK SMILES IDX 63 56 84 57 51 58 35 59 36 60 44 61 37 62 43 63 45 64 42 65
REMARK SMILES IDX 38 66 39 67 40 68 41 69 67 70 68 71 76 72 69 73 75 74 77 75
REMARK SMILES IDX 74 76 70 77 71 78 72 79 73 80 52 81 53 82 61 83 54 84 60 85
REMARK SMILES IDX 62 86 59 87 55 88 56 89 57 90 58 91
REMARK H PARENT 10 13 82 44 50 55
REMARK Flexibility Score: inf
ROOT
ATOM      1  C   UNL A   1      40.141  20.580  26.475  1.00  0.00     0.274 C 
ENDROOT
BRANCH   1   2
ATOM      2  O   UNL A   1      38.965  21.819  25.932  1.00  0.00    -0.462 OA
BRANCH   2   3
ATOM      3  C   UNL A   1      37.368  21.883  25.330  1.00  0.00     0.310 C 
ATOM      4  O   UNL A   1      37.185  20.795  24.751  1.00  0.00    -0.252 OA
BRANCH   3   5
ATOM      5  C   UNL A   1      35.984  23.517  25.847  1.00  0.00     0.160 C 
BRANCH   5   6
ATOM      6  C   UNL A   1      34.132  23.381  25.981  1.00  0.00    -0.013 A 
ATOM      7  C   UNL A   1      33.048  24.373  26.162  1.00  0.00     0.042 A 
ATOM      8  C   UNL A   1      31.729  23.864  26.175  1.00  0.00     0.026 A 
ATOM      9  C   UNL A   1      31.430  22.514  25.984  1.00  0.00     0.002 A 
ATOM     10  C   UNL A   1      33.774  22.006  25.800  1.00  0.00     0.006 A 
ATOM     11  C   UNL A   1      32.445  21.591  25.784  1.00  0.00     0.000 A 
BRANCH   7  12
ATOM     12  N   UNL A   1      33.046  25.820  26.276  1.00  0.00    -0.355 N 
ATOM     13  H   UNL A   1      32.726  26.156  27.144  1.00  0.00     0.167 HD
BRANCH  12  14
ATOM     14  C   UNL A   1      33.476  26.988  25.227  1.00  0.00     0.045 A 
ATOM     15  C   UNL A   1      32.701  26.801  23.615  1.00  0.00    -0.024 A 
ATOM     16  C   UNL A   1      31.591  28.033  22.946  1.00  0.00     0.006 A 
ATOM     17  C   UNL A   1      30.995  29.335  23.898  1.00  0.00     0.001 A 
ATOM     18  C   UNL A   1      33.153  28.493  26.149  1.00  0.00    -0.027 A 
ATOM     19  C   UNL A   1      31.667  29.569  25.523  1.00  0.00     0.005 A 
ATOM     20  C   UNL A   1      34.528  28.711  26.902  1.00  0.00     0.046 C 
BRANCH  15  21
ATOM     21  C   UNL A   1      32.196  25.453  23.034  1.00  0.00     0.034 C 
ATOM     22  C   UNL A   1      33.185  24.398  22.544  1.00  0.00     0.009 C 
ENDBRANCH  15  21
ENDBRANCH  12  14
ENDBRANCH   7  12
ENDBRANCH   5   6
ENDBRANCH   3   5
ENDBRANCH   2   3
ENDBRANCH   1   2
BRANCH   1  23
ATOM     23  C   UNL A   1      41.729  20.827  27.542  1.00  0.00     0.275 C 
BRANCH  23  24
ATOM     24  O   UNL A   1      42.947  22.157  27.041  1.00  0.00    -0.458 OA
BRANCH  24  25
ATOM     25  C   UNL A   1      42.519  23.804  26.118  1.00  0.00     0.338 C 
ATOM     26  O   UNL A   1      43.215  24.418  25.275  1.00  0.00    -0.246 OA
BRANCH  25  27
ATOM     27  C   UNL A   1      41.144  24.720  26.427  1.00  0.00     0.060 A 
ATOM     28  C   UNL A   1      41.520  26.270  25.668  1.00  0.00     0.016 A 
ATOM     29  C   UNL A   1      39.932  24.675  27.888  1.00  0.00     0.016 A 
ATOM     30  C   UNL A   1      40.945  27.727  26.370  1.00  0.00     0.010 A 
ATOM     31  C   UNL A   1      39.409  26.247  28.593  1.00  0.00     0.010 A 
ATOM     32  C   UNL A   1      40.036  27.722  27.823  1.00  0.00    -0.014 A 
BRANCH  32  33
ATOM     33  C   UNL A   1      40.362  28.751  28.796  1.00  0.00     0.031 A 
ATOM     34  C   UNL A   1      39.411  29.853  28.740  1.00  0.00     0.074 A 
ATOM     35  C   UNL A   1      41.245  28.409  29.783  1.00  0.00     0.049 A 
ATOM     36  N   UNL A   1      39.603  30.971  29.310  1.00  0.00    -0.248 NA
ATOM     37  C   UNL A   1      38.172  29.869  27.941  1.00  0.00     0.031 C 
ATOM     38  C   UNL A   1      41.363  28.801  31.183  1.00  0.00     0.029 A 
ATOM     39  N   UNL A   1      42.357  27.577  29.642  1.00  0.00    -0.354 N 
ATOM     40  C   UNL A   1      38.350  31.501  29.481  1.00  0.00     0.074 A 
ATOM     41  C   UNL A   1      37.560  30.953  28.421  1.00  0.00     0.031 C 
ATOM     42  C   UNL A   1      42.556  28.395  31.684  1.00  0.00     0.029 A 
ATOM     43  C   UNL A   1      43.320  27.744  30.625  1.00  0.00     0.049 A 
ATOM     44  H   UNL A   1      42.449  26.927  28.909  1.00  0.00     0.167 HD
ATOM     45  C   UNL A   1      38.127  32.133  30.659  1.00  0.00     0.034 A 
ATOM     46  C   UNL A   1      44.566  28.081  30.179  1.00  0.00     0.034 A 
ATOM     47  C   UNL A   1      39.391  32.224  31.419  1.00  0.00     0.049 A 
ATOM     48  C   UNL A   1      44.598  29.606  30.118  1.00  0.00     0.074 A 
ATOM     49  C   UNL A   1      39.890  31.655  32.577  1.00  0.00     0.029 A 
ATOM     50  N   UNL A   1      40.504  32.725  30.747  1.00  0.00    -0.354 N 
ATOM     51  N   UNL A   1      43.535  30.355  30.289  1.00  0.00    -0.248 NA
ATOM     52  C   UNL A   1      45.811  30.405  30.029  1.00  0.00     0.031 C 
ATOM     53  C   UNL A   1      41.328  31.707  32.499  1.00  0.00     0.029 A 
ATOM     54  C   UNL A   1      41.695  32.309  31.303  1.00  0.00     0.049 A 
ATOM     55  H   UNL A   1      40.445  33.311  29.958  1.00  0.00     0.167 HD
ATOM     56  C   UNL A   1      43.872  31.666  30.397  1.00  0.00     0.074 A 
ATOM     57  C   UNL A   1      45.319  31.645  30.217  1.00  0.00     0.031 C 
ATOM     58  C   UNL A   1      42.952  32.658  30.630  1.00  0.00     0.034 A 
BRANCH  45  59
ATOM     59  C   UNL A   1      36.785  32.515  31.210  1.00  0.00     0.023 A 
ATOM     60  C   UNL A   1      35.953  33.258  30.359  1.00  0.00     0.031 A 
ATOM     61  C   UNL A   1      36.256  32.239  32.490  1.00  0.00     0.131 A 
ATOM     62  C   UNL A   1      34.669  33.658  30.751  1.00  0.00     0.055 A 
ATOM     63  C   UNL A   1      34.957  32.608  32.872  1.00  0.00     0.041 A 
ATOM     64  F   UNL A   1      36.961  31.634  33.453  1.00  0.00    -0.206 F 
ATOM     65  C   UNL A   1      34.152  33.318  31.997  1.00  0.00     0.022 A 
BRANCH  62  66
ATOM     66  S   UNL A   1      33.694  34.629  29.582  1.00  0.00     0.124 S 
ATOM     67  O   UNL A   1      32.682  35.220  30.451  1.00  0.00    -0.237 OA
ATOM     68  O   UNL A   1      34.692  35.542  29.036  1.00  0.00    -0.237 OA
ATOM     69  O   UNL A   1      33.197  33.624  28.644  1.00  0.00    -0.744 OA
ENDBRANCH  62  66
ENDBRANCH  45  59
BRANCH  46  70
ATOM     70  C   UNL A   1      45.079  27.053  29.185  1.00  0.00     0.023 A 
ATOM     71  C   UNL A   1      45.079  27.410  27.807  1.00  0.00     0.031 A 
ATOM     72  C   UNL A   1      45.939  26.006  29.549  1.00  0.00     0.131 A 
ATOM     73  C   UNL A   1      46.022  26.867  26.902  1.00  0.00     0.055 A 
ATOM     74  C   UNL A   1      46.882  25.473  28.646  1.00  0.00     0.041 A 
ATOM     75  F   UNL A   1      45.994  25.580  30.820  1.00  0.00    -0.206 F 
ATOM     76  C   UNL A   1      46.971  25.948  27.336  1.00  0.00     0.022 A 
BRANCH  73  77
ATOM     77  S   UNL A   1      46.055  27.447  25.172  1.00  0.00     0.124 S 
ATOM     78  O   UNL A   1      46.572  26.273  24.473  1.00  0.00    -0.237 OA
ATOM     79  O   UNL A   1      44.655  27.767  24.905  1.00  0.00    -0.237 OA
ATOM     80  O   UNL A   1      46.961  28.593  25.183  1.00  0.00    -0.744 OA
ENDBRANCH  73  77
ENDBRANCH  46  70
BRANCH  58  81
ATOM     81  C   UNL A   1      43.201  34.099  30.235  1.00  0.00     0.023 A 
ATOM     82  C   UNL A   1      43.004  34.541  28.926  1.00  0.00     0.031 A 
ATOM     83  C   UNL A   1      43.558  35.108  31.164  1.00  0.00     0.131 A 
ATOM     84  C   UNL A   1      43.343  35.840  28.540  1.00  0.00     0.055 A 
ATOM     85  C   UNL A   1      43.733  36.446  30.806  1.00  0.00     0.041 A 
ATOM     86  F   UNL A   1      43.754  34.861  32.465  1.00  0.00    -0.206 F 
ATOM     87  C   UNL A   1      43.677  36.812  29.474  1.00  0.00     0.022 A 
BRANCH  84  88
ATOM     88  S   UNL A   1      43.506  36.150  26.769  1.00  0.00     0.124 S 
ATOM     89  O   UNL A   1      42.702  37.359  26.606  1.00  0.00    -0.237 OA
ATOM     90  O   UNL A   1      44.946  36.324  26.612  1.00  0.00    -0.237 OA
ATOM     91  O   UNL A   1      42.949  34.945  26.160  1.00  0.00    -0.744 OA
ENDBRANCH  84  88
ENDBRANCH  58  81
ENDBRANCH  32  33
ENDBRANCH  25  27
ENDBRANCH  24  25
ENDBRANCH  23  24
ENDBRANCH   1  23
TORSDOF 18
ENDMDL
MODEL 2
REMARK VINA RESULT:     -15.1      1.263      1.692
REMARK SMILES CCc1cccc(C)c1Nc1ccccc1CC(=O)OCCOC(=O)c1ccc(-c2c3nc(c(-c4cc(S(=O)(=O)[O-])ccc4F)c4ccc([nH]4)c(-c4cc(S(=O)(=O)[O-])ccc4F)c4nc(c(-c5cc(S(=O)(=O)[O-])ccc5F)c5ccc2[nH]5)C=C4)C=C3)cc1
REMARK SMILES IDX 21 1 20 2 18 3 19 4 17 5 16 6 11 7 12 8 13 9 15 10 14 11
REMARK SMILES IDX 10 12 9 14 3 15 4 16 5 17 7 18 6 19 8 20 2 21 1 22 22 23
REMARK SMILES IDX 23 24 24 25 25 26 26 27 27 28 88 29 28 30 87 31 29 32 30 33
REMARK SMILES IDX 31 34 81 35 32 36 86 37 80 38 82 39 33 40 85 41 79 42 78 43
REMARK SMILES IDX 34 45 66 46 46 47 65 48 47 49 50 50 64 51 83 52 48 53 49 54
REMARK SMILES IDX 63 56 84 57 51 58 35 59 36 60 44 61 37 62 43 63 45 64 42 65
REMARK SMILES IDX 38 66 39 67 40 68 41 69 67 70 68 71 76 72 69 73 75 74 77 75
REMARK SMILES IDX 74 76 70 77 71 78 72 79 73 80 52 81 53 82 61 83 54 84 60 85
REMARK SMILES IDX 62 86 59 87 55 88 56 89 57 90 58 91
REMARK H PARENT 10 13 82 44 50 55
REMARK Flexibility Score: inf
ROOT
ATOM      1  C   UNL A   1      40.752  19.657  26.120  1.00  0.00     0.274 C 
ENDROOT
BRANCH   1   2
ATOM      2  O   UNL A   1      39.618  21.045  26.070  1.00  0.00    -0.462 OA
BRANCH   2   3
ATOM      3  C   UNL A   1      38.082  21.411  25.420  1.00  0.00     0.310 C 
ATOM      4  O   UNL A   1      37.701  20.370  24.851  1.00  0.00    -0.252 OA
BRANCH   3   5
ATOM      5  C   UNL A   1      37.036  23.297  25.873  1.00  0.00     0.160 C 
BRANCH   5   6
ATOM      6  C   UNL A   1      35.231  23.474  26.295  1.00  0.00    -0.013 A 
ATOM      7  C   UNL A   1      34.210  24.501  25.989  1.00  0.00     0.042 A 
ATOM      8  C   UNL A   1      32.904  24.247  26.467  1.00  0.00     0.026 A 
ATOM      9  C   UNL A   1      32.556  23.081  27.152  1.00  0.00     0.002 A 
ATOM     10  C   UNL A   1      34.826  22.301  27.010  1.00  0.00     0.006 A 
ATOM     11  C   UNL A   1      33.507  22.107  27.411  1.00  0.00     0.000 A 
BRANCH   7  12
ATOM     12  N   UNL A   1      34.251  25.734  25.223  1.00  0.00    -0.355 N 
ATOM     13  H   UNL A   1      34.929  26.377  25.531  1.00  0.00     0.167 HD
BRANCH  12  14
ATOM     14  C   UNL A   1      33.376  26.245  23.950  1.00  0.00     0.045 A 
ATOM     15  C   UNL A   1      32.574  24.900  23.065  1.00  0.00    -0.024 A 
ATOM     16  C   UNL A   1      30.796  24.779  22.932  1.00  0.00     0.006 A 
ATOM     17  C   UNL A   1      29.742  25.782  23.849  1.00  0.00     0.001 A 
ATOM     18  C   UNL A   1      32.338  27.523  24.664  1.00  0.00    -0.027 A 
ATOM     19  C   UNL A   1      30.449  27.107  24.793  1.00  0.00     0.005 A 
ATOM     20  C   UNL A   1      33.253  28.805  24.508  1.00  0.00     0.046 C 
BRANCH  15  21
ATOM     21  C   UNL A   1      33.075  23.431  23.059  1.00  0.00     0.034 C 
ATOM     22  C   UNL A   1      34.535  23.108  22.751  1.00  0.00     0.009 C 
ENDBRANCH  15  21
ENDBRANCH  12  14
ENDBRANCH   7  12
ENDBRANCH   5   6
ENDBRANCH   3   5
ENDBRANCH   2   3
ENDBRANCH   1   2
BRANCH   1  23
ATOM     23  C   UNL A   1      42.635  19.639  25.705  1.00  0.00     0.275 C 
BRANCH  23  24
ATOM     24  O   UNL A   1      43.446  21.233  25.151  1.00  0.00    -0.458 OA
BRANCH  24  25
ATOM     25  C   UNL A   1      43.413  22.918  26.104  1.00  0.00     0.338 C 
ATOM     26  O   UNL A   1      44.353  23.472  26.721  1.00  0.00    -0.246 OA
BRANCH  25  27
ATOM     27  C   UNL A   1      42.026  23.840  26.327  1.00  0.00     0.060 A 
ATOM     28  C   UNL A   1      42.415  25.350  25.499  1.00  0.00     0.016 A 
ATOM     29  C   UNL A   1      40.773  23.862  27.754  1.00  0.00     0.016 A 
ATOM     30  C   UNL A   1      41.814  26.838  26.108  1.00  0.00     0.010 A 
ATOM     31  C   UNL A   1      40.223  25.465  28.362  1.00  0.00     0.010 A 
ATOM     32  C   UNL A   1      40.865  26.903  27.534  1.00  0.00    -0.014 A 
BRANCH  32  33
ATOM     33  C   UNL A   1      41.158  27.983  28.461  1.00  0.00     0.031 A 
ATOM     34  C   UNL A   1      40.155  29.035  28.383  1.00  0.00     0.074 A 
ATOM     35  C   UNL A   1      42.075  27.721  29.442  1.00  0.00     0.049 A 
ATOM     36  N   UNL A   1      40.303  30.182  28.907  1.00  0.00    -0.248 NA
ATOM     37  C   UNL A   1      38.901  28.961  27.610  1.00  0.00     0.031 C 
ATOM     38  C   UNL A   1      42.200  28.171  30.824  1.00  0.00     0.029 A 
ATOM     39  N   UNL A   1      43.223  26.938  29.310  1.00  0.00    -0.354 N 
ATOM     40  C   UNL A   1      39.030  30.658  29.084  1.00  0.00     0.074 A 
ATOM     41  C   UNL A   1      38.247  30.033  28.061  1.00  0.00     0.031 C 
ATOM     42  C   UNL A   1      43.420  27.842  31.315  1.00  0.00     0.029 A 
ATOM     43  C   UNL A   1      44.196  27.188  30.266  1.00  0.00     0.049 A 
ATOM     44  H   UNL A   1      43.333  26.266  28.599  1.00  0.00     0.167 HD
ATOM     45  C   UNL A   1      38.798  31.323  30.242  1.00  0.00     0.034 A 
ATOM     46  C   UNL A   1      45.415  27.567  29.782  1.00  0.00     0.034 A 
ATOM     47  C   UNL A   1      40.070  31.503  30.972  1.00  0.00     0.049 A 
ATOM     48  C   UNL A   1      45.372  29.088  29.664  1.00  0.00     0.074 A 
ATOM     49  C   UNL A   1      40.617  31.003  32.140  1.00  0.00     0.029 A 
ATOM     50  N   UNL A   1      41.144  32.030  30.259  1.00  0.00    -0.354 N 
ATOM     51  N   UNL A   1      44.277  29.792  29.829  1.00  0.00    -0.248 NA
ATOM     52  C   UNL A   1      46.543  29.940  29.520  1.00  0.00     0.031 C 
ATOM     53  C   UNL A   1      42.049  31.121  32.031  1.00  0.00     0.029 A 
ATOM     54  C   UNL A   1      42.364  31.693  30.806  1.00  0.00     0.049 A 
ATOM     55  H   UNL A   1      41.043  32.583  29.450  1.00  0.00     0.167 HD
ATOM     56  C   UNL A   1      44.553  31.121  29.881  1.00  0.00     0.074 A 
ATOM     57  C   UNL A   1      45.995  31.161  29.672  1.00  0.00     0.031 C 
ATOM     58  C   UNL A   1      43.590  32.076  30.095  1.00  0.00     0.034 A 
BRANCH  45  59
ATOM     59  C   UNL A   1      37.449  31.662  30.806  1.00  0.00     0.023 A 
ATOM     60  C   UNL A   1      36.610  32.433  29.987  1.00  0.00     0.031 A 
ATOM     61  C   UNL A   1      36.920  31.319  32.069  1.00  0.00     0.131 A 
ATOM     62  C   UNL A   1      35.320  32.797  30.393  1.00  0.00     0.055 A 
ATOM     63  C   UNL A   1      35.615  31.653  32.463  1.00  0.00     0.041 A 
ATOM     64  F   UNL A   1      37.630  30.678  33.005  1.00  0.00    -0.206 F 
ATOM     65  C   UNL A   1      34.804  32.393  31.620  1.00  0.00     0.022 A 
BRANCH  62  66
ATOM     66  S   UNL A   1      34.336  33.811  29.268  1.00  0.00     0.124 S 
ATOM     67  O   UNL A   1      33.791  32.808  28.359  1.00  0.00    -0.237 OA
ATOM     68  O   UNL A   1      33.389  34.446  30.176  1.00  0.00    -0.237 OA
ATOM     69  O   UNL A   1      35.325  34.711  28.677  1.00  0.00    -0.744 OA
ENDBRANCH  62  66
ENDBRANCH  45  59
BRANCH  46  70
ATOM     70  C   UNL A   1      45.959  26.527  28.817  1.00  0.00     0.023 A 
ATOM     71  C   UNL A   1      45.973  26.856  27.432  1.00  0.00     0.031 A 
ATOM     72  C   UNL A   1      46.830  25.502  29.215  1.00  0.00     0.131 A 
ATOM     73  C   UNL A   1      46.937  26.310  26.551  1.00  0.00     0.055 A 
ATOM     74  C   UNL A   1      47.794  24.966  28.336  1.00  0.00     0.041 A 
ATOM     75  F   UNL A   1      46.874  25.103  30.494  1.00  0.00    -0.206 F 
ATOM     76  C   UNL A   1      47.894  25.415  27.018  1.00  0.00     0.022 A 
BRANCH  73  77
ATOM     77  S   UNL A   1      46.986  26.855  24.810  1.00  0.00     0.124 S 
ATOM     78  O   UNL A   1      45.579  27.149  24.551  1.00  0.00    -0.237 OA
ATOM     79  O   UNL A   1      47.870  28.016  24.853  1.00  0.00    -0.237 OA
ATOM     80  O   UNL A   1      47.510  25.704  24.078  1.00  0.00    -0.744 OA
ENDBRANCH  73  77
ENDBRANCH  46  70
BRANCH  58  81
ATOM     81  C   UNL A   1      43.762  33.511  29.641  1.00  0.00     0.023 A 
ATOM     82  C   UNL A   1      44.238  33.821  28.367  1.00  0.00     0.031 A 
ATOM     83  C   UNL A   1      43.375  34.625  30.427  1.00  0.00     0.131 A 
ATOM     84  C   UNL A   1      44.503  35.141  27.992  1.00  0.00     0.055 A 
ATOM     85  C   UNL A   1      43.483  35.944  29.985  1.00  0.00     0.041 A 
ATOM     86  F   UNL A   1      42.868  34.503  31.660  1.00  0.00    -0.206 F 
ATOM     87  C   UNL A   1      44.100  36.213  28.778  1.00  0.00     0.022 A 
BRANCH  84  88
ATOM     88  S   UNL A   1      45.549  35.384  26.542  1.00  0.00     0.124 S 
ATOM     89  O   UNL A   1      46.745  34.629  26.911  1.00  0.00    -0.237 OA
ATOM     90  O   UNL A   1      44.743  34.805  25.472  1.00  0.00    -0.237 OA
ATOM     91  O   UNL A   1      45.720  36.833  26.485  1.00  0.00    -0.744 OA
ENDBRANCH  84  88
ENDBRANCH  58  81
ENDBRANCH  32  33
ENDBRANCH  25  27
ENDBRANCH  24  25
ENDBRANCH  23  24
ENDBRANCH   1  23
TORSDOF 18
ENDMDL
MODEL 3
REMARK VINA RESULT:     -15.0      3.821     10.152
REMARK SMILES CCc1cccc(C)c1Nc1ccccc1CC(=O)OCCOC(=O)c1ccc(-c2c3nc(c(-c4cc(S(=O)(=O)[O-])ccc4F)c4ccc([nH]4)c(-c4cc(S(=O)(=O)[O-])ccc4F)c4nc(c(-c5cc(S(=O)(=O)[O-])ccc5F)c5ccc2[nH]5)C=C4)C=C3)cc1
REMARK SMILES IDX 21 1 20 2 18 3 19 4 17 5 16 6 11 7 12 8 13 9 15 10 14 11
REMARK SMILES IDX 10 12 9 14 3 15 4 16 5 17 7 18 6 19 8 20 2 21 1 22 22 23
REMARK SMILES IDX 23 24 24 25 25 26 26 27 27 28 88 29 28 30 87 31 29 32 30 33
REMARK SMILES IDX 31 34 81 35 32 36 86 37 80 38 82 39 33 40 85 41 79 42 78 43
REMARK SMILES IDX 34 45 66 46 46 47 65 48 47 49 50 50 64 51 83 52 48 53 49 54
REMARK SMILES IDX 63 56 84 57 51 58 35 59 36 60 44 61 37 62 43 63 45 64 42 65
REMARK SMILES IDX 38 66 39 67 40 68 41 69 67 70 68 71 76 72 69 73 75 74 77 75
REMARK SMILES IDX 74 76 70 77 71 78 72 79 73 80 52 81 53 82 61 83 54 84 60 85
REMARK SMILES IDX 62 86 59 87 55 88 56 89 57 90 58 91
REMARK H PARENT 10 13 82 44 50 55
REMARK Flexibility Score: inf
ROOT
ATOM      1  C   UNL A   1      33.740  34.242  28.347  1.00  0.00     0.274 C 
ENDROOT
BRANCH   1   2
ATOM      2  O   UNL A   1      33.199  32.689  27.634  1.00  0.00    -0.462 OA
BRANCH   2   3
ATOM      3  C   UNL A   1      33.686  31.052  27.628  1.00  0.00     0.310 C 
ATOM      4  O   UNL A   1      34.666  30.990  28.396  1.00  0.00    -0.252 OA
BRANCH   3   5
ATOM      5  C   UNL A   1      32.501  29.480  26.639  1.00  0.00     0.160 C 
BRANCH   5   6
ATOM      6  C   UNL A   1      32.994  28.535  25.112  1.00  0.00    -0.013 A 
ATOM      7  C   UNL A   1      33.494  27.161  24.882  1.00  0.00     0.042 A 
ATOM      8  C   UNL A   1      33.721  26.796  23.535  1.00  0.00     0.026 A 
ATOM      9  C   UNL A   1      33.453  27.643  22.458  1.00  0.00     0.002 A 
ATOM     10  C   UNL A   1      32.745  29.370  23.975  1.00  0.00     0.006 A 
ATOM     11  C   UNL A   1      32.955  28.919  22.675  1.00  0.00     0.000 A 
BRANCH   7  12
ATOM     12  N   UNL A   1      33.758  26.046  25.773  1.00  0.00    -0.355 N 
ATOM     13  H   UNL A   1      34.253  26.290  26.588  1.00  0.00     0.167 HD
BRANCH  12  14
ATOM     14  C   UNL A   1      33.387  24.466  25.667  1.00  0.00     0.045 A 
ATOM     15  C   UNL A   1      31.797  24.172  24.879  1.00  0.00    -0.024 A 
ATOM     16  C   UNL A   1      31.650  23.256  23.350  1.00  0.00     0.006 A 
ATOM     17  C   UNL A   1      33.025  22.828  22.409  1.00  0.00     0.001 A 
ATOM     18  C   UNL A   1      34.850  23.760  24.906  1.00  0.00    -0.027 A 
ATOM     19  C   UNL A   1      34.637  23.125  23.086  1.00  0.00     0.005 A 
ATOM     20  C   UNL A   1      35.744  23.430  26.169  1.00  0.00     0.046 C 
BRANCH  15  21
ATOM     21  C   UNL A   1      30.631  25.196  24.843  1.00  0.00     0.034 C 
ATOM     22  C   UNL A   1      29.904  25.592  26.125  1.00  0.00     0.009 C 
ENDBRANCH  15  21
ENDBRANCH  12  14
ENDBRANCH   7  12
ENDBRANCH   5   6
ENDBRANCH   3   5
ENDBRANCH   2   3
ENDBRANCH   1   2
BRANCH   1  23
ATOM     23  C   UNL A   1      33.175  35.058  30.001  1.00  0.00     0.275 C 
BRANCH  23  24
ATOM     24  O   UNL A   1      34.305  34.944  31.489  1.00  0.00    -0.458 OA
BRANCH  24  25
ATOM     25  C   UNL A   1      35.958  33.942  31.588  1.00  0.00     0.338 C 
ATOM     26  O   UNL A   1      36.950  34.164  32.323  1.00  0.00    -0.246 OA
BRANCH  25  27
ATOM     27  C   UNL A   1      36.333  32.653  30.578  1.00  0.00     0.060 A 
ATOM     28  C   UNL A   1      36.288  31.266  31.670  1.00  0.00     0.016 A 
ATOM     29  C   UNL A   1      37.428  32.575  29.028  1.00  0.00     0.016 A 
ATOM     30  C   UNL A   1      37.367  29.952  31.429  1.00  0.00     0.010 A 
ATOM     31  C   UNL A   1      38.562  31.185  28.871  1.00  0.00     0.010 A 
ATOM     32  C   UNL A   1      38.524  29.966  30.165  1.00  0.00    -0.014 A 
BRANCH  32  33
ATOM     33  C   UNL A   1      39.852  29.477  30.495  1.00  0.00     0.031 A 
ATOM     34  C   UNL A   1      40.083  28.152  29.936  1.00  0.00     0.074 A 
ATOM     35  C   UNL A   1      40.752  30.398  30.956  1.00  0.00     0.049 A 
ATOM     36  N   UNL A   1      41.058  27.411  30.274  1.00  0.00    -0.248 NA
ATOM     37  C   UNL A   1      39.179  27.451  29.005  1.00  0.00     0.031 C 
ATOM     38  C   UNL A   1      42.196  30.532  30.806  1.00  0.00     0.029 A 
ATOM     39  N   UNL A   1      40.467  31.482  31.790  1.00  0.00    -0.354 N 
ATOM     40  C   UNL A   1      41.234  26.555  29.218  1.00  0.00     0.074 A 
ATOM     41  C   UNL A   1      39.942  26.428  28.615  1.00  0.00     0.031 C 
ATOM     42  C   UNL A   1      42.672  31.468  31.664  1.00  0.00     0.029 A 
ATOM     43  C   UNL A   1      41.569  31.982  32.468  1.00  0.00     0.049 A 
ATOM     44  H   UNL A   1      39.564  31.858  31.889  1.00  0.00     0.167 HD
ATOM     45  C   UNL A   1      42.518  26.287  28.876  1.00  0.00     0.034 A 
ATOM     46  C   UNL A   1      41.471  31.986  33.830  1.00  0.00     0.034 A 
ATOM     47  C   UNL A   1      43.430  26.890  29.870  1.00  0.00     0.049 A 
ATOM     48  C   UNL A   1      42.003  30.632  34.298  1.00  0.00     0.074 A 
ATOM     49  C   UNL A   1      44.343  27.930  29.868  1.00  0.00     0.029 A 
ATOM     50  N   UNL A   1      43.169  26.632  31.213  1.00  0.00    -0.354 N 
ATOM     51  N   UNL A   1      42.289  29.650  33.478  1.00  0.00    -0.248 NA
ATOM     52  C   UNL A   1      42.402  30.328  35.664  1.00  0.00     0.031 C 
ATOM     53  C   UNL A   1      44.501  28.367  31.232  1.00  0.00     0.029 A 
ATOM     54  C   UNL A   1      43.692  27.593  32.053  1.00  0.00     0.049 A 
ATOM     55  H   UNL A   1      42.665  25.848  31.530  1.00  0.00     0.167 HD
ATOM     56  C   UNL A   1      42.937  28.646  34.125  1.00  0.00     0.074 A 
ATOM     57  C   UNL A   1      42.976  29.120  35.503  1.00  0.00     0.031 C 
ATOM     58  C   UNL A   1      43.394  27.519  33.488  1.00  0.00     0.034 A 
BRANCH  45  59
ATOM     59  C   UNL A   1      42.971  25.647  27.597  1.00  0.00     0.023 A 
ATOM     60  C   UNL A   1      42.620  24.301  27.417  1.00  0.00     0.031 A 
ATOM     61  C   UNL A   1      43.726  26.224  26.552  1.00  0.00     0.131 A 
ATOM     62  C   UNL A   1      42.969  23.599  26.256  1.00  0.00     0.055 A 
ATOM     63  C   UNL A   1      44.046  25.534  25.374  1.00  0.00     0.041 A 
ATOM     64  F   UNL A   1      44.227  27.463  26.617  1.00  0.00    -0.206 F 
ATOM     65  C   UNL A   1      43.661  24.212  25.218  1.00  0.00     0.022 A 
BRANCH  62  66
ATOM     66  S   UNL A   1      42.484  21.863  26.143  1.00  0.00     0.124 S 
ATOM     67  O   UNL A   1      43.397  21.362  25.121  1.00  0.00    -0.237 OA
ATOM     68  O   UNL A   1      42.713  21.392  27.504  1.00  0.00    -0.237 OA
ATOM     69  O   UNL A   1      41.081  21.933  25.741  1.00  0.00    -0.744 OA
ENDBRANCH  62  66
ENDBRANCH  45  59
BRANCH  46  70
ATOM     70  C   UNL A   1      40.247  32.763  34.281  1.00  0.00     0.023 A 
ATOM     71  C   UNL A   1      39.449  32.196  35.316  1.00  0.00     0.031 A 
ATOM     72  C   UNL A   1      40.109  34.145  34.086  1.00  0.00     0.131 A 
ATOM     73  C   UNL A   1      38.706  33.008  36.206  1.00  0.00     0.055 A 
ATOM     74  C   UNL A   1      39.375  34.951  34.981  1.00  0.00     0.041 A 
ATOM     75  F   UNL A   1      40.800  34.770  33.121  1.00  0.00    -0.206 F 
ATOM     76  C   UNL A   1      38.724  34.392  36.082  1.00  0.00     0.022 A 
BRANCH  73  77
ATOM     77  S   UNL A   1      37.795  32.238  37.587  1.00  0.00     0.124 S 
ATOM     78  O   UNL A   1      38.743  32.383  38.688  1.00  0.00    -0.237 OA
ATOM     79  O   UNL A   1      36.591  33.059  37.685  1.00  0.00    -0.237 OA
ATOM     80  O   UNL A   1      37.571  30.859  37.158  1.00  0.00    -0.744 OA
ENDBRANCH  73  77
ENDBRANCH  46  70
BRANCH  58  81
ATOM     81  C   UNL A   1      43.619  26.213  34.221  1.00  0.00     0.023 A 
ATOM     82  C   UNL A   1      44.902  25.705  34.430  1.00  0.00     0.031 A 
ATOM     83  C   UNL A   1      42.572  25.467  34.818  1.00  0.00     0.131 A 
ATOM     84  C   UNL A   1      45.100  24.447  35.005  1.00  0.00     0.055 A 
ATOM     85  C   UNL A   1      42.788  24.292  35.540  1.00  0.00     0.041 A 
ATOM     86  F   UNL A   1      41.286  25.831  34.741  1.00  0.00    -0.206 F 
ATOM     87  C   UNL A   1      44.056  23.745  35.593  1.00  0.00     0.022 A 
BRANCH  84  88
ATOM     88  S   UNL A   1      46.727  23.696  34.786  1.00  0.00     0.124 S 
ATOM     89  O   UNL A   1      46.378  22.291  34.587  1.00  0.00    -0.237 OA
ATOM     90  O   UNL A   1      47.238  24.392  33.610  1.00  0.00    -0.237 OA
ATOM     91  O   UNL A   1      47.412  23.997  36.040  1.00  0.00    -0.744 OA
ENDBRANCH  84  88
ENDBRANCH  58  81
ENDBRANCH  32  33
ENDBRANCH  25  27
ENDBRANCH  24  25
ENDBRANCH  23  24
ENDBRANCH   1  23
TORSDOF 18
ENDMDL
