MODEL 1
REMARK VINA RESULT:     -12.8      0.000      0.000
REMARK SMILES C[C@H]1CC[C@H]([NH2+]Cc2c(C(=O)OCCOC(=O)c3ccc(-c4c5nc(c(-c6cc(S(=O)(=O)[O-])ccc6F)c6ccc([nH]6)c(-c6cc(S(=O)(=O)[O-])ccc6F)c6nc(c(-c7cc(S(=O)(=O)[O-])ccc7F)c7ccc4[nH]7)C=C6)C=C5)cc3)n(Cc3ccccc3F)c3ccccc23)CC1
REMARK SMILES IDX 13 1 12 2 10 3 11 4 9 5 8 6 95 7 81 8 90 9 94 10 91 11 93 12
REMARK SMILES IDX 92 13 7 14 6 15 5 18 1 19 2 20 3 21 97 22 4 23 96 24 82 25
REMARK SMILES IDX 83 26 84 27 88 28 85 29 87 30 89 31 86 32 14 33 15 34 16 35
REMARK SMILES IDX 17 36 18 37 19 38 80 39 20 40 79 41 21 42 22 43 23 44 73 45
REMARK SMILES IDX 24 46 78 47 72 48 74 49 25 50 77 51 71 52 70 53 26 55 58 56
REMARK SMILES IDX 38 57 57 58 39 59 42 60 56 61 75 62 40 63 41 64 55 66 76 67
REMARK SMILES IDX 43 68 27 69 28 70 36 71 29 72 35 73 37 74 34 75 30 76 31 77
REMARK SMILES IDX 32 78 33 79 59 80 60 81 68 82 61 83 67 84 69 85 66 86 62 87
REMARK SMILES IDX 63 88 64 89 65 90 44 91 45 92 53 93 46 94 52 95 54 96 51 97
REMARK SMILES IDX 47 98 48 99 49 100 50 101
REMARK H PARENT 6 16 6 17 74 54 42 65
REMARK Flexibility Score: inf
ROOT
ATOM      1  C   UNL A   1      33.858  30.044  27.053  1.00  0.00     0.275 C 
ENDROOT
BRANCH   1   2
ATOM      2  O   UNL A   1      33.999  28.704  26.496  1.00  0.00    -0.457 OA
BRANCH   2   3
ATOM      3  C   UNL A   1      32.860  27.959  26.434  1.00  0.00     0.355 C 
ATOM      4  O   UNL A   1      32.086  27.873  27.362  1.00  0.00    -0.244 OA
BRANCH   3   5
ATOM      5  C   UNL A   1      32.708  27.212  25.199  1.00  0.00     0.137 A 
ATOM      6  C   UNL A   1      32.232  27.643  23.949  1.00  0.00     0.047 A 
ATOM      7  C   UNL A   1      32.389  26.532  23.046  1.00  0.00     0.009 A 
ATOM      8  N   UNL A   1      33.280  25.937  25.010  1.00  0.00    -0.330 N 
ATOM      9  C   UNL A   1      33.124  25.543  23.691  1.00  0.00     0.050 A 
ATOM     10  C   UNL A   1      32.066  26.351  21.681  1.00  0.00     0.011 A 
ATOM     11  C   UNL A   1      33.639  24.442  22.985  1.00  0.00     0.027 A 
ATOM     12  C   UNL A   1      32.529  25.229  20.994  1.00  0.00     0.001 A 
ATOM     13  C   UNL A   1      33.331  24.298  21.634  1.00  0.00     0.002 A 
BRANCH   6  14
ATOM     14  C   UNL A   1      31.719  28.971  23.419  1.00  0.00     0.300 C 
BRANCH  14  15
ATOM     15  N   UNL A   1      30.707  29.664  24.206  1.00  0.00    -0.340 N 
ATOM     16  H   UNL A   1      30.459  29.055  24.986  1.00  0.00     0.346 HD
ATOM     17  H   UNL A   1      31.144  30.550  24.460  1.00  0.00     0.346 HD
BRANCH  15  18
ATOM     18  C   UNL A   1      29.455  30.050  23.533  1.00  0.00     0.182 C 
ATOM     19  C   UNL A   1      27.655  32.852  20.573  1.00  0.00     0.007 C 
ATOM     20  C   UNL A   1      28.536  32.029  21.507  1.00  0.00    -0.014 C 
ATOM     21  C   UNL A   1      28.408  30.531  21.232  1.00  0.00     0.009 C 
ATOM     22  C   UNL A   1      28.198  32.263  22.979  1.00  0.00     0.009 C 
ATOM     23  C   UNL A   1      29.465  29.774  22.027  1.00  0.00     0.065 C 
ATOM     24  C   UNL A   1      29.186  31.532  23.891  1.00  0.00     0.065 C 
ENDBRANCH  15  18
ENDBRANCH  14  15
ENDBRANCH   6  14
BRANCH   8  25
ATOM     25  C   UNL A   1      34.241  25.273  25.905  1.00  0.00     0.161 C 
BRANCH  25  26
ATOM     26  C   UNL A   1      34.077  23.802  26.203  1.00  0.00     0.008 A 
ATOM     27  C   UNL A   1      32.811  23.239  26.437  1.00  0.00     0.008 A 
ATOM     28  C   UNL A   1      35.148  22.919  26.028  1.00  0.00     0.128 A 
ATOM     29  C   UNL A   1      32.626  21.854  26.490  1.00  0.00     0.001 A 
ATOM     30  C   UNL A   1      34.968  21.533  26.054  1.00  0.00     0.039 A 
ATOM     31  F   UNL A   1      36.369  23.395  25.745  1.00  0.00    -0.207 F 
ATOM     32  C   UNL A   1      33.703  20.998  26.284  1.00  0.00     0.003 A 
ENDBRANCH  25  26
ENDBRANCH   8  25
ENDBRANCH   3   5
ENDBRANCH   2   3
ENDBRANCH   1   2
BRANCH   1  33
ATOM     33  C   UNL A   1      35.011  30.607  27.905  1.00  0.00     0.275 C 
BRANCH  33  34
ATOM     34  O   UNL A   1      35.778  29.495  28.416  1.00  0.00    -0.458 OA
BRANCH  34  35
ATOM     35  C   UNL A   1      36.841  29.838  29.194  1.00  0.00     0.338 C 
ATOM     36  O   UNL A   1      36.782  30.485  30.226  1.00  0.00    -0.246 OA
BRANCH  35  37
ATOM     37  C   UNL A   1      38.012  29.029  28.753  1.00  0.00     0.060 A 
ATOM     38  C   UNL A   1      38.677  28.155  29.620  1.00  0.00     0.016 A 
ATOM     39  C   UNL A   1      38.614  29.399  27.547  1.00  0.00     0.016 A 
ATOM     40  C   UNL A   1      40.007  27.799  29.360  1.00  0.00     0.010 A 
ATOM     41  C   UNL A   1      39.936  29.025  27.291  1.00  0.00     0.010 A 
ATOM     42  C   UNL A   1      40.681  28.307  28.240  1.00  0.00    -0.014 A 
BRANCH  42  43
ATOM     43  C   UNL A   1      42.107  27.993  28.034  1.00  0.00     0.031 A 
ATOM     44  C   UNL A   1      42.465  26.705  27.401  1.00  0.00     0.074 A 
ATOM     45  C   UNL A   1      43.196  28.781  28.169  1.00  0.00     0.049 A 
ATOM     46  N   UNL A   1      42.725  25.588  27.992  1.00  0.00    -0.248 NA
ATOM     47  C   UNL A   1      42.540  26.653  25.936  1.00  0.00     0.031 C 
ATOM     48  C   UNL A   1      43.307  30.233  28.147  1.00  0.00     0.029 A 
ATOM     49  N   UNL A   1      44.499  28.367  28.305  1.00  0.00    -0.354 N 
ATOM     50  C   UNL A   1      43.128  24.713  26.993  1.00  0.00     0.074 A 
ATOM     51  C   UNL A   1      42.857  25.374  25.736  1.00  0.00     0.031 C 
ATOM     52  C   UNL A   1      44.617  30.587  28.167  1.00  0.00     0.029 A 
ATOM     53  C   UNL A   1      45.426  29.394  28.374  1.00  0.00     0.049 A 
ATOM     54  H   UNL A   1      44.753  27.417  28.351  1.00  0.00     0.167 HD
ATOM     55  C   UNL A   1      43.805  23.563  27.261  1.00  0.00     0.034 A 
ATOM     56  C   UNL A   1      46.752  29.277  28.624  1.00  0.00     0.034 A 
ATOM     57  C   UNL A   1      43.998  23.368  28.673  1.00  0.00     0.049 A 
ATOM     58  C   UNL A   1      47.022  27.950  29.243  1.00  0.00     0.074 A 
ATOM     59  C   UNL A   1      43.212  23.007  29.744  1.00  0.00     0.029 A 
ATOM     60  N   UNL A   1      45.149  23.913  29.189  1.00  0.00    -0.354 N 
ATOM     61  N   UNL A   1      46.617  27.582  30.428  1.00  0.00    -0.248 NA
ATOM     62  C   UNL A   1      47.622  26.885  28.444  1.00  0.00     0.031 C 
ATOM     63  C   UNL A   1      43.808  23.602  30.895  1.00  0.00     0.029 A 
ATOM     64  C   UNL A   1      44.924  24.334  30.481  1.00  0.00     0.049 A 
ATOM     65  H   UNL A   1      46.004  23.991  28.707  1.00  0.00     0.167 HD
ATOM     66  C   UNL A   1      46.539  26.204  30.368  1.00  0.00     0.074 A 
ATOM     67  C   UNL A   1      47.349  25.833  29.218  1.00  0.00     0.031 C 
ATOM     68  C   UNL A   1      45.575  25.510  31.041  1.00  0.00     0.034 A 
BRANCH  55  69
ATOM     69  C   UNL A   1      44.517  22.723  26.243  1.00  0.00     0.023 A 
ATOM     70  C   UNL A   1      44.030  21.480  25.801  1.00  0.00     0.031 A 
ATOM     71  C   UNL A   1      45.672  23.208  25.602  1.00  0.00     0.131 A 
ATOM     72  C   UNL A   1      44.736  20.720  24.858  1.00  0.00     0.055 A 
ATOM     73  C   UNL A   1      46.332  22.484  24.601  1.00  0.00     0.041 A 
ATOM     74  F   UNL A   1      46.191  24.402  25.925  1.00  0.00    -0.206 F 
ATOM     75  C   UNL A   1      45.880  21.220  24.244  1.00  0.00     0.022 A 
BRANCH  72  76
ATOM     76  S   UNL A   1      44.229  19.013  24.510  1.00  0.00     0.124 S 
ATOM     77  O   UNL A   1      42.829  19.029  24.915  1.00  0.00    -0.237 OA
ATOM     78  O   UNL A   1      44.472  18.905  23.073  1.00  0.00    -0.237 OA
ATOM     79  O   UNL A   1      45.132  18.224  25.344  1.00  0.00    -0.744 OA
ENDBRANCH  72  76
ENDBRANCH  55  69
BRANCH  56  80
ATOM     80  C   UNL A   1      47.861  30.220  28.358  1.00  0.00     0.023 A 
ATOM     81  C   UNL A   1      48.811  29.951  27.354  1.00  0.00     0.031 A 
ATOM     82  C   UNL A   1      48.134  31.281  29.241  1.00  0.00     0.131 A 
ATOM     83  C   UNL A   1      49.997  30.707  27.284  1.00  0.00     0.055 A 
ATOM     84  C   UNL A   1      49.305  32.040  29.156  1.00  0.00     0.041 A 
ATOM     85  F   UNL A   1      47.288  31.577  30.238  1.00  0.00    -0.206 F 
ATOM     86  C   UNL A   1      50.247  31.750  28.178  1.00  0.00     0.022 A 
BRANCH  83  87
ATOM     87  S   UNL A   1      51.261  30.327  26.039  1.00  0.00     0.124 S 
ATOM     88  O   UNL A   1      52.443  30.038  26.850  1.00  0.00    -0.237 OA
ATOM     89  O   UNL A   1      50.675  29.180  25.356  1.00  0.00    -0.237 OA
ATOM     90  O   UNL A   1      51.345  31.556  25.262  1.00  0.00    -0.744 OA
ENDBRANCH  83  87
ENDBRANCH  56  80
BRANCH  68  91
ATOM     91  C   UNL A   1      44.962  26.131  32.280  1.00  0.00     0.023 A 
ATOM     92  C   UNL A   1      45.488  25.763  33.535  1.00  0.00     0.031 A 
ATOM     93  C   UNL A   1      43.823  26.956  32.276  1.00  0.00     0.131 A 
ATOM     94  C   UNL A   1      44.878  26.203  34.720  1.00  0.00     0.055 A 
ATOM     95  C   UNL A   1      43.264  27.454  33.458  1.00  0.00     0.041 A 
ATOM     96  F   UNL A   1      43.171  27.247  31.142  1.00  0.00    -0.206 F 
ATOM     97  C   UNL A   1      43.784  27.069  34.688  1.00  0.00     0.022 A 
BRANCH  94  98
ATOM     98  S   UNL A   1      45.398  25.553  36.332  1.00  0.00     0.124 S 
ATOM     99  O   UNL A   1      44.130  25.136  36.922  1.00  0.00    -0.237 OA
ATOM    100  O   UNL A   1      46.299  24.466  35.953  1.00  0.00    -0.237 OA
ATOM    101  O   UNL A   1      46.045  26.691  36.978  1.00  0.00    -0.744 OA
ENDBRANCH  94  98
ENDBRANCH  68  91
ENDBRANCH  42  43
ENDBRANCH  35  37
ENDBRANCH  34  35
ENDBRANCH  33  34
ENDBRANCH   1  33
TORSDOF 19
ENDMDL
MODEL 2
REMARK VINA RESULT:     -12.4      1.908      2.141
REMARK SMILES C[C@H]1CC[C@H]([NH2+]Cc2c(C(=O)OCCOC(=O)c3ccc(-c4c5nc(c(-c6cc(S(=O)(=O)[O-])ccc6F)c6ccc([nH]6)c(-c6cc(S(=O)(=O)[O-])ccc6F)c6nc(c(-c7cc(S(=O)(=O)[O-])ccc7F)c7ccc4[nH]7)C=C6)C=C5)cc3)n(Cc3ccccc3F)c3ccccc23)CC1
REMARK SMILES IDX 13 1 12 2 10 3 11 4 9 5 8 6 95 7 81 8 90 9 94 10 91 11 93 12
REMARK SMILES IDX 92 13 7 14 6 15 5 18 1 19 2 20 3 21 97 22 4 23 96 24 82 25
REMARK SMILES IDX 83 26 84 27 88 28 85 29 87 30 89 31 86 32 14 33 15 34 16 35
REMARK SMILES IDX 17 36 18 37 19 38 80 39 20 40 79 41 21 42 22 43 23 44 73 45
REMARK SMILES IDX 24 46 78 47 72 48 74 49 25 50 77 51 71 52 70 53 26 55 58 56
REMARK SMILES IDX 38 57 57 58 39 59 42 60 56 61 75 62 40 63 41 64 55 66 76 67
REMARK SMILES IDX 43 68 27 69 28 70 36 71 29 72 35 73 37 74 34 75 30 76 31 77
REMARK SMILES IDX 32 78 33 79 59 80 60 81 68 82 61 83 67 84 69 85 66 86 62 87
REMARK SMILES IDX 63 88 64 89 65 90 44 91 45 92 53 93 46 94 52 95 54 96 51 97
REMARK SMILES IDX 47 98 48 99 49 100 50 101
REMARK H PARENT 6 16 6 17 74 54 42 65
REMARK Flexibility Score: inf
ROOT
ATOM      1  C   UNL A   1      33.515  29.686  27.257  1.00  0.00     0.275 C 
ENDROOT
BRANCH   1   2
ATOM      2  O   UNL A   1      33.658  28.353  26.685  1.00  0.00    -0.457 OA
BRANCH   2   3
ATOM      3  C   UNL A   1      32.499  27.671  26.462  1.00  0.00     0.355 C 
ATOM      4  O   UNL A   1      31.649  27.532  27.314  1.00  0.00    -0.244 OA
BRANCH   3   5
ATOM      5  C   UNL A   1      32.418  27.055  25.150  1.00  0.00     0.137 A 
ATOM      6  C   UNL A   1      32.050  27.624  23.919  1.00  0.00     0.047 A 
ATOM      7  C   UNL A   1      32.243  26.602  22.921  1.00  0.00     0.009 A 
ATOM      8  N   UNL A   1      32.967  25.786  24.874  1.00  0.00    -0.330 N 
ATOM      9  C   UNL A   1      32.900  25.529  23.515  1.00  0.00     0.050 A 
ATOM     10  C   UNL A   1      32.018  26.568  21.526  1.00  0.00     0.011 A 
ATOM     11  C   UNL A   1      33.435  24.485  22.740  1.00  0.00     0.027 A 
ATOM     12  C   UNL A   1      32.499  25.503  20.765  1.00  0.00     0.001 A 
ATOM     13  C   UNL A   1      33.225  24.487  21.363  1.00  0.00     0.002 A 
BRANCH   6  14
ATOM     14  C   UNL A   1      31.615  29.014  23.490  1.00  0.00     0.300 C 
BRANCH  14  15
ATOM     15  N   UNL A   1      30.570  29.664  24.271  1.00  0.00    -0.340 N 
ATOM     16  H   UNL A   1      30.297  29.016  25.011  1.00  0.00     0.346 HD
ATOM     17  H   UNL A   1      30.993  30.538  24.585  1.00  0.00     0.346 HD
BRANCH  15  18
ATOM     18  C   UNL A   1      29.342  30.078  23.572  1.00  0.00     0.182 C 
ATOM     19  C   UNL A   1      27.686  32.861  20.512  1.00  0.00     0.007 C 
ATOM     20  C   UNL A   1      28.524  32.032  21.479  1.00  0.00    -0.014 C 
ATOM     21  C   UNL A   1      28.342  30.533  21.244  1.00  0.00     0.009 C 
ATOM     22  C   UNL A   1      28.177  32.320  22.940  1.00  0.00     0.009 C 
ATOM     23  C   UNL A   1      29.360  29.759  22.074  1.00  0.00     0.065 C 
ATOM     24  C   UNL A   1      29.126  31.578  23.885  1.00  0.00     0.065 C 
ENDBRANCH  15  18
ENDBRANCH  14  15
ENDBRANCH   6  14
BRANCH   8  25
ATOM     25  C   UNL A   1      33.840  25.003  25.765  1.00  0.00     0.161 C 
BRANCH  25  26
ATOM     26  C   UNL A   1      33.517  23.551  26.025  1.00  0.00     0.008 A 
ATOM     27  C   UNL A   1      32.272  23.004  25.672  1.00  0.00     0.008 A 
ATOM     28  C   UNL A   1      34.522  22.660  26.412  1.00  0.00     0.128 A 
ATOM     29  C   UNL A   1      32.047  21.624  25.702  1.00  0.00     0.001 A 
ATOM     30  C   UNL A   1      34.313  21.278  26.421  1.00  0.00     0.039 A 
ATOM     31  F   UNL A   1      35.748  23.118  26.706  1.00  0.00    -0.207 F 
ATOM     32  C   UNL A   1      33.072  20.757  26.063  1.00  0.00     0.003 A 
ENDBRANCH  25  26
ENDBRANCH   8  25
ENDBRANCH   3   5
ENDBRANCH   2   3
ENDBRANCH   1   2
BRANCH   1  33
ATOM     33  C   UNL A   1      34.786  30.424  27.717  1.00  0.00     0.275 C 
BRANCH  33  34
ATOM     34  O   UNL A   1      35.795  29.436  28.024  1.00  0.00    -0.458 OA
BRANCH  34  35
ATOM     35  C   UNL A   1      36.851  29.897  28.748  1.00  0.00     0.338 C 
ATOM     36  O   UNL A   1      36.779  30.671  29.687  1.00  0.00    -0.246 OA
BRANCH  35  37
ATOM     37  C   UNL A   1      38.036  29.059  28.415  1.00  0.00     0.060 A 
ATOM     38  C   UNL A   1      38.661  28.246  29.368  1.00  0.00     0.016 A 
ATOM     39  C   UNL A   1      38.691  29.344  27.213  1.00  0.00     0.016 A 
ATOM     40  C   UNL A   1      39.999  27.872  29.190  1.00  0.00     0.010 A 
ATOM     41  C   UNL A   1      40.021  28.952  27.040  1.00  0.00     0.010 A 
ATOM     42  C   UNL A   1      40.722  28.301  28.068  1.00  0.00    -0.014 A 
BRANCH  42  43
ATOM     43  C   UNL A   1      42.155  27.973  27.945  1.00  0.00     0.031 A 
ATOM     44  C   UNL A   1      42.537  26.697  27.301  1.00  0.00     0.074 A 
ATOM     45  C   UNL A   1      43.242  28.742  28.172  1.00  0.00     0.049 A 
ATOM     46  N   UNL A   1      42.745  25.562  27.875  1.00  0.00    -0.248 NA
ATOM     47  C   UNL A   1      42.707  26.685  25.842  1.00  0.00     0.031 C 
ATOM     48  C   UNL A   1      43.373  30.191  28.199  1.00  0.00     0.029 A 
ATOM     49  N   UNL A   1      44.528  28.305  28.381  1.00  0.00    -0.354 N 
ATOM     50  C   UNL A   1      43.200  24.708  26.879  1.00  0.00     0.074 A 
ATOM     51  C   UNL A   1      43.020  25.408  25.627  1.00  0.00     0.031 C 
ATOM     52  C   UNL A   1      44.683  30.527  28.314  1.00  0.00     0.029 A 
ATOM     53  C   UNL A   1      45.461  29.316  28.538  1.00  0.00     0.049 A 
ATOM     54  H   UNL A   1      44.767  27.350  28.415  1.00  0.00     0.167 HD
ATOM     55  C   UNL A   1      43.844  23.542  27.158  1.00  0.00     0.034 A 
ATOM     56  C   UNL A   1      46.767  29.174  28.870  1.00  0.00     0.034 A 
ATOM     57  C   UNL A   1      43.943  23.305  28.573  1.00  0.00     0.049 A 
ATOM     58  C   UNL A   1      46.980  27.826  29.467  1.00  0.00     0.074 A 
ATOM     59  C   UNL A   1      43.085  22.926  29.580  1.00  0.00     0.029 A 
ATOM     60  N   UNL A   1      45.064  23.820  29.177  1.00  0.00    -0.354 N 
ATOM     61  N   UNL A   1      46.494  27.431  30.612  1.00  0.00    -0.248 NA
ATOM     62  C   UNL A   1      47.617  26.776  28.678  1.00  0.00     0.031 C 
ATOM     63  C   UNL A   1      43.613  23.481  30.783  1.00  0.00     0.029 A 
ATOM     64  C   UNL A   1      44.762  24.208  30.463  1.00  0.00     0.049 A 
ATOM     65  H   UNL A   1      45.951  23.899  28.754  1.00  0.00     0.167 HD
ATOM     66  C   UNL A   1      46.403  26.058  30.508  1.00  0.00     0.074 A 
ATOM     67  C   UNL A   1      47.282  25.707  29.403  1.00  0.00     0.031 C 
ATOM     68  C   UNL A   1      45.390  25.359  31.098  1.00  0.00     0.034 A 
BRANCH  55  69
ATOM     69  C   UNL A   1      44.610  22.720  26.164  1.00  0.00     0.023 A 
ATOM     70  C   UNL A   1      44.182  21.455  25.725  1.00  0.00     0.031 A 
ATOM     71  C   UNL A   1      45.759  23.244  25.542  1.00  0.00     0.131 A 
ATOM     72  C   UNL A   1      44.937  20.714  24.806  1.00  0.00     0.055 A 
ATOM     73  C   UNL A   1      46.468  22.537  24.563  1.00  0.00     0.041 A 
ATOM     74  F   UNL A   1      46.224  24.461  25.863  1.00  0.00    -0.206 F 
ATOM     75  C   UNL A   1      46.074  21.252  24.210  1.00  0.00     0.022 A 
BRANCH  72  76
ATOM     76  S   UNL A   1      44.505  18.985  24.465  1.00  0.00     0.124 S 
ATOM     77  O   UNL A   1      43.077  18.971  24.761  1.00  0.00    -0.237 OA
ATOM     78  O   UNL A   1      44.861  18.849  23.054  1.00  0.00    -0.237 OA
ATOM     79  O   UNL A   1      45.361  18.243  25.387  1.00  0.00    -0.744 OA
ENDBRANCH  72  76
ENDBRANCH  55  69
BRANCH  56  80
ATOM     80  C   UNL A   1      47.903  30.108  28.703  1.00  0.00     0.023 A 
ATOM     81  C   UNL A   1      48.250  31.015  29.722  1.00  0.00     0.031 A 
ATOM     82  C   UNL A   1      48.516  30.280  27.447  1.00  0.00     0.131 A 
ATOM     83  C   UNL A   1      49.148  32.065  29.458  1.00  0.00     0.055 A 
ATOM     84  C   UNL A   1      49.422  31.314  27.195  1.00  0.00     0.041 A 
ATOM     85  F   UNL A   1      48.214  29.471  26.421  1.00  0.00    -0.206 F 
ATOM     86  C   UNL A   1      49.737  32.218  28.201  1.00  0.00     0.022 A 
BRANCH  83  87
ATOM     87  S   UNL A   1      49.550  33.282  30.743  1.00  0.00     0.124 S 
ATOM     88  O   UNL A   1      50.335  34.278  30.017  1.00  0.00    -0.237 OA
ATOM     89  O   UNL A   1      48.225  33.716  31.170  1.00  0.00    -0.237 OA
ATOM     90  O   UNL A   1      50.307  32.503  31.714  1.00  0.00    -0.744 OA
ENDBRANCH  83  87
ENDBRANCH  56  80
BRANCH  68  91
ATOM     91  C   UNL A   1      44.706  25.954  32.311  1.00  0.00     0.023 A 
ATOM     92  C   UNL A   1      43.653  26.867  32.098  1.00  0.00     0.031 A 
ATOM     93  C   UNL A   1      45.126  25.756  33.639  1.00  0.00     0.131 A 
ATOM     94  C   UNL A   1      43.070  27.548  33.177  1.00  0.00     0.055 A 
ATOM     95  C   UNL A   1      44.491  26.379  34.719  1.00  0.00     0.041 A 
ATOM     96  F   UNL A   1      46.204  25.016  33.932  1.00  0.00    -0.206 F 
ATOM     97  C   UNL A   1      43.466  27.289  34.491  1.00  0.00     0.022 A 
BRANCH  94  98
ATOM     98  S   UNL A   1      41.881  28.890  32.899  1.00  0.00     0.124 S 
ATOM     99  O   UNL A   1      42.297  29.408  31.599  1.00  0.00    -0.237 OA
ATOM    100  O   UNL A   1      40.604  28.181  32.909  1.00  0.00    -0.237 OA
ATOM    101  O   UNL A   1      42.094  29.790  34.028  1.00  0.00    -0.744 OA
ENDBRANCH  94  98
ENDBRANCH  68  91
ENDBRANCH  42  43
ENDBRANCH  35  37
ENDBRANCH  34  35
ENDBRANCH  33  34
ENDBRANCH   1  33
TORSDOF 19
ENDMDL
MODEL 3
REMARK VINA RESULT:     -11.3      4.982      9.814
REMARK SMILES C[C@H]1CC[C@H]([NH2+]Cc2c(C(=O)OCCOC(=O)c3ccc(-c4c5nc(c(-c6cc(S(=O)(=O)[O-])ccc6F)c6ccc([nH]6)c(-c6cc(S(=O)(=O)[O-])ccc6F)c6nc(c(-c7cc(S(=O)(=O)[O-])ccc7F)c7ccc4[nH]7)C=C6)C=C5)cc3)n(Cc3ccccc3F)c3ccccc23)CC1
REMARK SMILES IDX 13 1 12 2 10 3 11 4 9 5 8 6 95 7 81 8 90 9 94 10 91 11 93 12
REMARK SMILES IDX 92 13 7 14 6 15 5 18 1 19 2 20 3 21 97 22 4 23 96 24 82 25
REMARK SMILES IDX 83 26 84 27 88 28 85 29 87 30 89 31 86 32 14 33 15 34 16 35
REMARK SMILES IDX 17 36 18 37 19 38 80 39 20 40 79 41 21 42 22 43 23 44 73 45
REMARK SMILES IDX 24 46 78 47 72 48 74 49 25 50 77 51 71 52 70 53 26 55 58 56
REMARK SMILES IDX 38 57 57 58 39 59 42 60 56 61 75 62 40 63 41 64 55 66 76 67
REMARK SMILES IDX 43 68 27 69 28 70 36 71 29 72 35 73 37 74 34 75 30 76 31 77
REMARK SMILES IDX 32 78 33 79 59 80 60 81 68 82 61 83 67 84 69 85 66 86 62 87
REMARK SMILES IDX 63 88 64 89 65 90 44 91 45 92 53 93 46 94 52 95 54 96 51 97
REMARK SMILES IDX 47 98 48 99 49 100 50 101
REMARK H PARENT 6 16 6 17 74 54 42 65
REMARK Flexibility Score: inf
ROOT
ATOM      1  C   UNL A   1      37.992  31.941  35.399  1.00  0.00     0.275 C 
ENDROOT
BRANCH   1   2
ATOM      2  O   UNL A   1      37.153  31.975  34.207  1.00  0.00    -0.457 OA
BRANCH   2   3
ATOM      3  C   UNL A   1      37.506  32.881  33.253  1.00  0.00     0.355 C 
ATOM      4  O   UNL A   1      37.960  33.971  33.525  1.00  0.00    -0.244 OA
BRANCH   3   5
ATOM      5  C   UNL A   1      37.205  32.461  31.897  1.00  0.00     0.137 A 
ATOM      6  C   UNL A   1      37.905  31.574  31.062  1.00  0.00     0.047 A 
ATOM      7  C   UNL A   1      37.118  31.431  29.864  1.00  0.00     0.009 A 
ATOM      8  N   UNL A   1      35.961  32.714  31.284  1.00  0.00    -0.330 N 
ATOM      9  C   UNL A   1      35.891  32.053  30.069  1.00  0.00     0.050 A 
ATOM     10  C   UNL A   1      37.316  30.705  28.666  1.00  0.00     0.011 A 
ATOM     11  C   UNL A   1      34.826  31.875  29.169  1.00  0.00     0.027 A 
ATOM     12  C   UNL A   1      36.276  30.578  27.745  1.00  0.00     0.001 A 
ATOM     13  C   UNL A   1      35.036  31.134  28.008  1.00  0.00     0.002 A 
BRANCH   6  14
ATOM     14  C   UNL A   1      39.172  30.753  31.226  1.00  0.00     0.300 C 
BRANCH  14  15
ATOM     15  N   UNL A   1      39.025  29.363  31.640  1.00  0.00    -0.340 N 
ATOM     16  H   UNL A   1      39.251  29.317  32.634  1.00  0.00     0.346 HD
ATOM     17  H   UNL A   1      38.064  29.124  31.393  1.00  0.00     0.346 HD
BRANCH  15  18
ATOM     18  C   UNL A   1      39.845  28.349  30.954  1.00  0.00     0.182 C 
ATOM     19  C   UNL A   1      41.055  26.767  26.969  1.00  0.00     0.007 C 
ATOM     20  C   UNL A   1      40.489  27.520  28.168  1.00  0.00    -0.014 C 
ATOM     21  C   UNL A   1      41.596  28.015  29.098  1.00  0.00     0.009 C 
ATOM     22  C   UNL A   1      39.535  26.660  28.996  1.00  0.00     0.009 C 
ATOM     23  C   UNL A   1      41.002  28.947  30.148  1.00  0.00     0.065 C 
ATOM     24  C   UNL A   1      38.880  27.483  30.108  1.00  0.00     0.065 C 
ENDBRANCH  15  18
ENDBRANCH  14  15
ENDBRANCH   6  14
BRANCH   8  25
ATOM     25  C   UNL A   1      34.755  33.239  31.947  1.00  0.00     0.161 C 
BRANCH  25  26
ATOM     26  C   UNL A   1      34.408  34.701  31.797  1.00  0.00     0.008 A 
ATOM     27  C   UNL A   1      33.689  35.172  30.685  1.00  0.00     0.008 A 
ATOM     28  C   UNL A   1      34.590  35.586  32.864  1.00  0.00     0.128 A 
ATOM     29  C   UNL A   1      33.173  36.471  30.647  1.00  0.00     0.001 A 
ATOM     30  C   UNL A   1      34.056  36.878  32.844  1.00  0.00     0.039 A 
ATOM     31  F   UNL A   1      35.219  35.176  33.975  1.00  0.00    -0.207 F 
ATOM     32  C   UNL A   1      33.344  37.322  31.733  1.00  0.00     0.003 A 
ENDBRANCH  25  26
ENDBRANCH   8  25
ENDBRANCH   3   5
ENDBRANCH   2   3
ENDBRANCH   1   2
BRANCH   1  33
ATOM     33  C   UNL A   1      38.518  30.576  35.884  1.00  0.00     0.275 C 
BRANCH  33  34
ATOM     34  O   UNL A   1      39.396  30.044  34.868  1.00  0.00    -0.458 OA
BRANCH  34  35
ATOM     35  C   UNL A   1      40.533  29.461  35.337  1.00  0.00     0.338 C 
ATOM     36  O   UNL A   1      40.678  28.994  36.454  1.00  0.00    -0.246 OA
BRANCH  35  37
ATOM     37  C   UNL A   1      41.429  29.204  34.176  1.00  0.00     0.060 A 
ATOM     38  C   UNL A   1      41.935  27.928  33.899  1.00  0.00     0.016 A 
ATOM     39  C   UNL A   1      41.996  30.322  33.558  1.00  0.00     0.016 A 
ATOM     40  C   UNL A   1      43.111  27.797  33.148  1.00  0.00     0.010 A 
ATOM     41  C   UNL A   1      43.160  30.177  32.798  1.00  0.00     0.010 A 
ATOM     42  C   UNL A   1      43.788  28.928  32.670  1.00  0.00    -0.014 A 
BRANCH  42  43
ATOM     43  C   UNL A   1      45.072  28.773  31.960  1.00  0.00     0.031 A 
ATOM     44  C   UNL A   1      45.461  29.797  30.967  1.00  0.00     0.074 A 
ATOM     45  C   UNL A   1      46.088  27.912  32.188  1.00  0.00     0.049 A 
ATOM     46  N   UNL A   1      45.227  29.786  29.699  1.00  0.00    -0.248 NA
ATOM     47  C   UNL A   1      46.199  30.974  31.442  1.00  0.00     0.031 C 
ATOM     48  C   UNL A   1      46.438  27.176  33.394  1.00  0.00     0.029 A 
ATOM     49  N   UNL A   1      47.089  27.572  31.309  1.00  0.00    -0.354 N 
ATOM     50  C   UNL A   1      45.895  30.886  29.178  1.00  0.00     0.074 A 
ATOM     51  C   UNL A   1      46.353  31.660  30.310  1.00  0.00     0.031 C 
ATOM     52  C   UNL A   1      47.627  26.548  33.213  1.00  0.00     0.029 A 
ATOM     53  C   UNL A   1      48.035  26.700  31.823  1.00  0.00     0.049 A 
ATOM     54  H   UNL A   1      47.129  27.919  30.389  1.00  0.00     0.167 HD
ATOM     55  C   UNL A   1      46.167  31.011  27.850  1.00  0.00     0.034 A 
ATOM     56  C   UNL A   1      49.052  26.114  31.148  1.00  0.00     0.034 A 
ATOM     57  C   UNL A   1      45.647  29.909  27.087  1.00  0.00     0.049 A 
ATOM     58  C   UNL A   1      48.778  26.181  29.686  1.00  0.00     0.074 A 
ATOM     59  C   UNL A   1      44.405  29.490  26.665  1.00  0.00     0.029 A 
ATOM     60  N   UNL A   1      46.499  28.842  26.941  1.00  0.00    -0.354 N 
ATOM     61  N   UNL A   1      47.814  25.547  29.077  1.00  0.00    -0.248 NA
ATOM     62  C   UNL A   1      49.493  27.148  28.858  1.00  0.00     0.031 C 
ATOM     63  C   UNL A   1      44.489  28.073  26.526  1.00  0.00     0.029 A 
ATOM     64  C   UNL A   1      45.774  27.672  26.900  1.00  0.00     0.049 A 
ATOM     65  H   UNL A   1      47.480  28.905  26.876  1.00  0.00     0.167 HD
ATOM     66  C   UNL A   1      47.544  26.301  27.952  1.00  0.00     0.074 A 
ATOM     67  C   UNL A   1      48.720  27.136  27.770  1.00  0.00     0.031 C 
ATOM     68  C   UNL A   1      46.277  26.424  27.458  1.00  0.00     0.034 A 
BRANCH  55  69
ATOM     69  C   UNL A   1      47.117  32.006  27.254  1.00  0.00     0.023 A 
ATOM     70  C   UNL A   1      48.483  31.738  27.057  1.00  0.00     0.031 A 
ATOM     71  C   UNL A   1      46.644  33.238  26.763  1.00  0.00     0.131 A 
ATOM     72  C   UNL A   1      49.340  32.702  26.510  1.00  0.00     0.055 A 
ATOM     73  C   UNL A   1      47.484  34.169  26.142  1.00  0.00     0.041 A 
ATOM     74  F   UNL A   1      45.347  33.570  26.867  1.00  0.00    -0.206 F 
ATOM     75  C   UNL A   1      48.847  33.915  26.038  1.00  0.00     0.022 A 
BRANCH  72  76
ATOM     76  S   UNL A   1      51.133  32.429  26.517  1.00  0.00     0.124 S 
ATOM     77  O   UNL A   1      51.356  31.876  25.187  1.00  0.00    -0.237 OA
ATOM     78  O   UNL A   1      51.651  33.778  26.738  1.00  0.00    -0.237 OA
ATOM     79  O   UNL A   1      51.323  31.510  27.637  1.00  0.00    -0.744 OA
ENDBRANCH  72  76
ENDBRANCH  55  69
BRANCH  56  80
ATOM     80  C   UNL A   1      50.299  25.493  31.649  1.00  0.00     0.023 A 
ATOM     81  C   UNL A   1      50.280  24.221  32.253  1.00  0.00     0.031 A 
ATOM     82  C   UNL A   1      51.487  26.240  31.751  1.00  0.00     0.131 A 
ATOM     83  C   UNL A   1      51.407  23.756  32.956  1.00  0.00     0.055 A 
ATOM     84  C   UNL A   1      52.610  25.767  32.434  1.00  0.00     0.041 A 
ATOM     85  F   UNL A   1      51.569  27.471  31.223  1.00  0.00    -0.206 F 
ATOM     86  C   UNL A   1      52.572  24.521  33.047  1.00  0.00     0.022 A 
BRANCH  83  87
ATOM     87  S   UNL A   1      51.373  22.149  33.797  1.00  0.00     0.124 S 
ATOM     88  O   UNL A   1      52.760  21.972  34.224  1.00  0.00    -0.237 OA
ATOM     89  O   UNL A   1      50.414  22.391  34.868  1.00  0.00    -0.237 OA
ATOM     90  O   UNL A   1      50.939  21.234  32.750  1.00  0.00    -0.744 OA
ENDBRANCH  83  87
ENDBRANCH  56  80
BRANCH  68  91
ATOM     91  C   UNL A   1      45.273  25.327  27.749  1.00  0.00     0.023 A 
ATOM     92  C   UNL A   1      45.145  24.280  26.814  1.00  0.00     0.031 A 
ATOM     93  C   UNL A   1      44.367  25.342  28.826  1.00  0.00     0.131 A 
ATOM     94  C   UNL A   1      44.143  23.309  26.963  1.00  0.00     0.055 A 
ATOM     95  C   UNL A   1      43.420  24.329  29.012  1.00  0.00     0.041 A 
ATOM     96  F   UNL A   1      44.319  26.366  29.688  1.00  0.00    -0.206 F 
ATOM     97  C   UNL A   1      43.296  23.313  28.072  1.00  0.00     0.022 A 
BRANCH  94  98
ATOM     98  S   UNL A   1      43.819  22.097  25.653  1.00  0.00     0.124 S 
ATOM     99  O   UNL A   1      45.165  21.652  25.303  1.00  0.00    -0.237 OA
ATOM    100  O   UNL A   1      42.994  21.107  26.342  1.00  0.00    -0.237 OA
ATOM    101  O   UNL A   1      43.127  22.866  24.623  1.00  0.00    -0.744 OA
ENDBRANCH  94  98
ENDBRANCH  68  91
ENDBRANCH  42  43
ENDBRANCH  35  37
ENDBRANCH  34  35
ENDBRANCH  33  34
ENDBRANCH   1  33
TORSDOF 19
ENDMDL
