MODEL 1
REMARK VINA RESULT:     -11.1      0.000      0.000
REMARK SMILES O=C(OCCOC(=O)[C@@H](NC(=O)c1ccncc1Cl)C1CC1)c1ccc(-c2c3nc(c(-c4cc(S(=O)(=O)[O-])ccc4F)c4ccc([nH]4)c(-c4cc(S(=O)(=O)[O-])ccc4F)c4nc(c(-c5cc(S(=O)(=O)[O-])ccc5F)c5ccc2[nH]5)C=C4)C=C3)cc1
REMARK SMILES IDX 4 1 3 2 2 3 1 4 23 5 24 6 85 7 25 8 84 9 26 10 27 11 28 12
REMARK SMILES IDX 78 13 29 14 83 15 77 16 79 17 30 18 82 19 76 20 75 21 31 23
REMARK SMILES IDX 63 24 43 25 62 26 44 27 47 28 61 29 80 30 45 31 46 32 60 34
REMARK SMILES IDX 81 35 48 36 32 37 33 38 41 39 34 40 40 41 42 42 39 43 35 44
REMARK SMILES IDX 36 45 37 46 38 47 64 48 65 49 73 50 66 51 72 52 74 53 71 54
REMARK SMILES IDX 67 55 68 56 69 57 70 58 49 59 50 60 58 61 51 62 57 63 59 64
REMARK SMILES IDX 56 65 52 66 53 67 54 68 55 69 5 70 6 71 7 72 8 73 9 74 10 75
REMARK SMILES IDX 11 76 12 78 13 79 14 80 18 81 15 82 17 83 19 84 16 85 20 86
REMARK SMILES IDX 21 87 22 88
REMARK H PARENT 79 22 47 33 10 77
REMARK Flexibility Score: inf
ROOT
ATOM      1  C   UNL A   1      32.236  29.664  24.811  1.00  0.00     0.275 C 
ENDROOT
BRANCH   1   2
ATOM      2  O   UNL A   1      31.910  30.282  26.066  1.00  0.00    -0.458 OA
BRANCH   2   3
ATOM      3  C   UNL A   1      32.581  31.211  26.787  1.00  0.00     0.338 C 
ATOM      4  O   UNL A   1      32.068  32.329  26.864  1.00  0.00    -0.246 OA
BRANCH   3   5
ATOM      5  C   UNL A   1      33.909  31.013  27.473  1.00  0.00     0.060 A 
ATOM      6  C   UNL A   1      34.734  31.995  28.028  1.00  0.00     0.016 A 
ATOM      7  C   UNL A   1      34.323  29.674  27.634  1.00  0.00     0.016 A 
ATOM      8  C   UNL A   1      35.883  31.652  28.769  1.00  0.00     0.010 A 
ATOM      9  C   UNL A   1      35.459  29.325  28.382  1.00  0.00     0.010 A 
ATOM     10  C   UNL A   1      36.238  30.313  28.984  1.00  0.00    -0.014 A 
BRANCH  10  11
ATOM     11  C   UNL A   1      37.482  29.992  29.743  1.00  0.00     0.031 A 
ATOM     12  C   UNL A   1      38.562  29.266  29.045  1.00  0.00     0.074 A 
ATOM     13  C   UNL A   1      37.630  30.236  31.061  1.00  0.00     0.049 A 
ATOM     14  N   UNL A   1      39.721  28.917  29.517  1.00  0.00    -0.248 NA
ATOM     15  C   UNL A   1      38.255  28.767  27.699  1.00  0.00     0.031 C 
ATOM     16  C   UNL A   1      36.504  30.520  31.903  1.00  0.00     0.029 A 
ATOM     17  N   UNL A   1      38.679  30.249  31.952  1.00  0.00    -0.354 N 
ATOM     18  C   UNL A   1      40.255  28.071  28.570  1.00  0.00     0.074 A 
ATOM     19  C   UNL A   1      39.308  27.997  27.473  1.00  0.00     0.031 C 
ATOM     20  C   UNL A   1      36.907  30.851  33.131  1.00  0.00     0.029 A 
ATOM     21  C   UNL A   1      38.340  30.768  33.199  1.00  0.00     0.049 A 
ATOM     22  H   UNL A   1      39.581  29.923  31.730  1.00  0.00     0.167 HD
ATOM     23  C   UNL A   1      41.410  27.378  28.665  1.00  0.00     0.034 A 
ATOM     24  C   UNL A   1      39.083  31.125  34.272  1.00  0.00     0.034 A 
ATOM     25  C   UNL A   1      42.271  27.438  29.817  1.00  0.00     0.049 A 
ATOM     26  C   UNL A   1      40.496  30.630  34.210  1.00  0.00     0.074 A 
ATOM     27  C   UNL A   1      43.478  26.800  30.022  1.00  0.00     0.029 A 
ATOM     28  N   UNL A   1      42.002  28.165  30.979  1.00  0.00    -0.354 N 
ATOM     29  N   UNL A   1      41.063  29.969  33.224  1.00  0.00    -0.248 NA
ATOM     30  C   UNL A   1      41.339  30.811  35.393  1.00  0.00     0.031 C 
ATOM     31  C   UNL A   1      43.924  27.114  31.311  1.00  0.00     0.029 A 
ATOM     32  C   UNL A   1      43.026  27.994  31.898  1.00  0.00     0.049 A 
ATOM     33  H   UNL A   1      41.201  28.719  31.123  1.00  0.00     0.167 HD
ATOM     34  C   UNL A   1      42.277  29.544  33.717  1.00  0.00     0.074 A 
ATOM     35  C   UNL A   1      42.440  30.177  35.016  1.00  0.00     0.031 C 
ATOM     36  C   UNL A   1      43.122  28.624  33.195  1.00  0.00     0.034 A 
BRANCH  23  37
ATOM     37  C   UNL A   1      41.705  26.457  27.518  1.00  0.00     0.023 A 
ATOM     38  C   UNL A   1      41.364  25.095  27.583  1.00  0.00     0.031 A 
ATOM     39  C   UNL A   1      42.468  26.904  26.427  1.00  0.00     0.131 A 
ATOM     40  C   UNL A   1      41.874  24.208  26.627  1.00  0.00     0.055 A 
ATOM     41  C   UNL A   1      42.893  26.027  25.428  1.00  0.00     0.041 A 
ATOM     42  F   UNL A   1      42.862  28.184  26.346  1.00  0.00    -0.206 F 
ATOM     43  C   UNL A   1      42.612  24.667  25.534  1.00  0.00     0.022 A 
BRANCH  40  44
ATOM     44  S   UNL A   1      41.703  22.430  26.935  1.00  0.00     0.124 S 
ATOM     45  O   UNL A   1      42.764  22.200  27.913  1.00  0.00    -0.237 OA
ATOM     46  O   UNL A   1      40.342  22.316  27.433  1.00  0.00    -0.237 OA
ATOM     47  O   UNL A   1      41.938  21.834  25.617  1.00  0.00    -0.744 OA
ENDBRANCH  40  44
ENDBRANCH  23  37
BRANCH  24  48
ATOM     48  C   UNL A   1      38.569  31.916  35.456  1.00  0.00     0.023 A 
ATOM     49  C   UNL A   1      38.154  31.248  36.629  1.00  0.00     0.031 A 
ATOM     50  C   UNL A   1      38.443  33.319  35.469  1.00  0.00     0.131 A 
ATOM     51  C   UNL A   1      37.636  31.962  37.730  1.00  0.00     0.055 A 
ATOM     52  C   UNL A   1      38.033  34.033  36.605  1.00  0.00     0.041 A 
ATOM     53  F   UNL A   1      38.700  34.045  34.371  1.00  0.00    -0.206 F 
ATOM     54  C   UNL A   1      37.619  33.353  37.743  1.00  0.00     0.022 A 
BRANCH  51  55
ATOM     55  S   UNL A   1      36.814  31.051  39.076  1.00  0.00     0.124 S 
ATOM     56  O   UNL A   1      36.686  29.716  38.501  1.00  0.00    -0.237 OA
ATOM     57  O   UNL A   1      37.768  31.188  40.171  1.00  0.00    -0.237 OA
ATOM     58  O   UNL A   1      35.555  31.771  39.256  1.00  0.00    -0.744 OA
ENDBRANCH  51  55
ENDBRANCH  24  48
BRANCH  36  59
ATOM     59  C   UNL A   1      44.249  28.236  34.102  1.00  0.00     0.023 A 
ATOM     60  C   UNL A   1      44.059  27.253  35.091  1.00  0.00     0.031 A 
ATOM     61  C   UNL A   1      45.477  28.904  34.035  1.00  0.00     0.131 A 
ATOM     62  C   UNL A   1      45.068  27.018  36.029  1.00  0.00     0.055 A 
ATOM     63  C   UNL A   1      46.505  28.614  34.929  1.00  0.00     0.041 A 
ATOM     64  F   UNL A   1      45.685  29.862  33.118  1.00  0.00    -0.206 F 
ATOM     65  C   UNL A   1      46.298  27.677  35.941  1.00  0.00     0.022 A 
BRANCH  62  66
ATOM     66  S   UNL A   1      44.708  25.933  37.435  1.00  0.00     0.124 S 
ATOM     67  O   UNL A   1      46.026  25.782  38.042  1.00  0.00    -0.237 OA
ATOM     68  O   UNL A   1      43.740  26.714  38.198  1.00  0.00    -0.237 OA
ATOM     69  O   UNL A   1      44.172  24.728  36.805  1.00  0.00    -0.744 OA
ENDBRANCH  62  66
ENDBRANCH  36  59
ENDBRANCH  10  11
ENDBRANCH   3   5
ENDBRANCH   2   3
ENDBRANCH   1   2
BRANCH   1  70
ATOM     70  C   UNL A   1      31.091  28.840  24.216  1.00  0.00     0.274 C 
BRANCH  70  71
ATOM     71  O   UNL A   1      31.553  27.822  23.316  1.00  0.00    -0.461 OA
BRANCH  71  72
ATOM     72  C   UNL A   1      31.182  26.558  23.667  1.00  0.00     0.329 C 
ATOM     73  O   UNL A   1      30.031  26.224  23.941  1.00  0.00    -0.250 OA
BRANCH  72  74
ATOM     74  C   UNL A   1      32.376  25.621  23.885  1.00  0.00     0.195 C 
BRANCH  74  75
ATOM     75  N   UNL A   1      32.847  24.864  22.720  1.00  0.00    -0.338 N 
ATOM     76  C   UNL A   1      33.548  23.753  22.381  1.00  0.00     0.253 C 
ATOM     77  H   UNL A   1      32.554  25.322  21.899  1.00  0.00     0.164 HD
ATOM     78  O   UNL A   1      33.413  23.397  21.211  1.00  0.00    -0.269 OA
BRANCH  76  79
ATOM     79  C   UNL A   1      34.406  22.969  23.289  1.00  0.00     0.061 A 
ATOM     80  C   UNL A   1      35.798  23.009  23.132  1.00  0.00     0.035 A 
ATOM     81  C   UNL A   1      33.852  22.049  24.190  1.00  0.00     0.072 A 
ATOM     82  C   UNL A   1      36.579  22.201  23.947  1.00  0.00     0.112 A 
ATOM     83  C   UNL A   1      34.724  21.333  24.998  1.00  0.00     0.132 A 
ATOM     84  Cl  UNL A   1      32.159  21.711  24.301  1.00  0.00    -0.082 Cl
ATOM     85  N   UNL A   1      36.071  21.410  24.912  1.00  0.00    -0.263 NA
ENDBRANCH  76  79
ENDBRANCH  74  75
BRANCH  74  86
ATOM     86  C   UNL A   1      33.364  26.266  24.826  1.00  0.00     0.023 C 
ATOM     87  C   UNL A   1      33.180  26.422  26.303  1.00  0.00     0.007 C 
ATOM     88  C   UNL A   1      34.190  25.435  25.765  1.00  0.00     0.007 C 
ENDBRANCH  74  86
ENDBRANCH  72  74
ENDBRANCH  71  72
ENDBRANCH  70  71
ENDBRANCH   1  70
TORSDOF 17
ENDMDL
MODEL 2
REMARK VINA RESULT:     -11.1      5.280     10.296
REMARK SMILES O=C(OCCOC(=O)[C@@H](NC(=O)c1ccncc1Cl)C1CC1)c1ccc(-c2c3nc(c(-c4cc(S(=O)(=O)[O-])ccc4F)c4ccc([nH]4)c(-c4cc(S(=O)(=O)[O-])ccc4F)c4nc(c(-c5cc(S(=O)(=O)[O-])ccc5F)c5ccc2[nH]5)C=C4)C=C3)cc1
REMARK SMILES IDX 4 1 3 2 2 3 1 4 23 5 24 6 85 7 25 8 84 9 26 10 27 11 28 12
REMARK SMILES IDX 78 13 29 14 83 15 77 16 79 17 30 18 82 19 76 20 75 21 31 23
REMARK SMILES IDX 63 24 43 25 62 26 44 27 47 28 61 29 80 30 45 31 46 32 60 34
REMARK SMILES IDX 81 35 48 36 32 37 33 38 41 39 34 40 40 41 42 42 39 43 35 44
REMARK SMILES IDX 36 45 37 46 38 47 64 48 65 49 73 50 66 51 72 52 74 53 71 54
REMARK SMILES IDX 67 55 68 56 69 57 70 58 49 59 50 60 58 61 51 62 57 63 59 64
REMARK SMILES IDX 56 65 52 66 53 67 54 68 55 69 5 70 6 71 7 72 8 73 9 74 10 75
REMARK SMILES IDX 11 76 12 78 13 79 14 80 18 81 15 82 17 83 19 84 16 85 20 86
REMARK SMILES IDX 21 87 22 88
REMARK H PARENT 79 22 47 33 10 77
REMARK Flexibility Score: inf
ROOT
ATOM      1  C   UNL A   1      35.908  20.322  24.950  1.00  0.00     0.275 C 
ENDROOT
BRANCH   1   2
ATOM      2  O   UNL A   1      36.761  21.171  25.734  1.00  0.00    -0.458 OA
BRANCH   2   3
ATOM      3  C   UNL A   1      38.111  21.259  25.778  1.00  0.00     0.338 C 
ATOM      4  O   UNL A   1      38.744  20.280  25.376  1.00  0.00    -0.246 OA
BRANCH   3   5
ATOM      5  C   UNL A   1      38.909  22.426  26.304  1.00  0.00     0.060 A 
ATOM      6  C   UNL A   1      40.163  22.389  26.919  1.00  0.00     0.016 A 
ATOM      7  C   UNL A   1      38.352  23.702  26.076  1.00  0.00     0.016 A 
ATOM      8  C   UNL A   1      40.858  23.575  27.232  1.00  0.00     0.010 A 
ATOM      9  C   UNL A   1      39.046  24.886  26.373  1.00  0.00     0.010 A 
ATOM     10  C   UNL A   1      40.323  24.835  26.930  1.00  0.00    -0.014 A 
BRANCH  10  11
ATOM     11  C   UNL A   1      41.074  26.067  27.310  1.00  0.00     0.031 A 
ATOM     12  C   UNL A   1      40.453  26.999  28.272  1.00  0.00     0.074 A 
ATOM     13  C   UNL A   1      42.243  26.426  26.742  1.00  0.00     0.049 A 
ATOM     14  N   UNL A   1      40.949  28.103  28.744  1.00  0.00    -0.248 NA
ATOM     15  C   UNL A   1      39.063  26.721  28.652  1.00  0.00     0.031 C 
ATOM     16  C   UNL A   1      42.694  25.838  25.514  1.00  0.00     0.029 A 
ATOM     17  N   UNL A   1      43.233  27.344  27.013  1.00  0.00    -0.354 N 
ATOM     18  C   UNL A   1      39.904  28.713  29.404  1.00  0.00     0.074 A 
ATOM     19  C   UNL A   1      38.757  27.830  29.306  1.00  0.00     0.031 C 
ATOM     20  C   UNL A   1      43.926  26.255  25.217  1.00  0.00     0.029 A 
ATOM     21  C   UNL A   1      44.365  27.190  26.216  1.00  0.00     0.049 A 
ATOM     22  H   UNL A   1      43.149  28.042  27.702  1.00  0.00     0.167 HD
ATOM     23  C   UNL A   1      39.913  29.937  29.974  1.00  0.00     0.034 A 
ATOM     24  C   UNL A   1      45.601  27.738  26.271  1.00  0.00     0.034 A 
ATOM     25  C   UNL A   1      41.068  30.798  29.971  1.00  0.00     0.049 A 
ATOM     26  C   UNL A   1      45.690  28.917  27.192  1.00  0.00     0.074 A 
ATOM     27  C   UNL A   1      41.208  32.049  30.537  1.00  0.00     0.029 A 
ATOM     28  N   UNL A   1      42.281  30.505  29.346  1.00  0.00    -0.354 N 
ATOM     29  N   UNL A   1      44.738  29.398  27.959  1.00  0.00    -0.248 NA
ATOM     30  C   UNL A   1      46.934  29.690  27.197  1.00  0.00     0.031 C 
ATOM     31  C   UNL A   1      42.488  32.525  30.230  1.00  0.00     0.029 A 
ATOM     32  C   UNL A   1      43.174  31.551  29.520  1.00  0.00     0.049 A 
ATOM     33  H   UNL A   1      42.475  29.674  28.853  1.00  0.00     0.167 HD
ATOM     34  C   UNL A   1      45.220  30.598  28.435  1.00  0.00     0.074 A 
ATOM     35  C   UNL A   1      46.612  30.677  28.021  1.00  0.00     0.031 C 
ATOM     36  C   UNL A   1      44.542  31.592  29.055  1.00  0.00     0.034 A 
BRANCH  23  37
ATOM     37  C   UNL A   1      38.603  30.391  30.546  1.00  0.00     0.023 A 
ATOM     38  C   UNL A   1      37.659  31.053  29.742  1.00  0.00     0.031 A 
ATOM     39  C   UNL A   1      38.363  30.306  31.926  1.00  0.00     0.131 A 
ATOM     40  C   UNL A   1      36.568  31.695  30.341  1.00  0.00     0.055 A 
ATOM     41  C   UNL A   1      37.223  30.868  32.503  1.00  0.00     0.041 A 
ATOM     42  F   UNL A   1      39.258  29.729  32.743  1.00  0.00    -0.206 F 
ATOM     43  C   UNL A   1      36.327  31.583  31.712  1.00  0.00     0.022 A 
BRANCH  40  44
ATOM     44  S   UNL A   1      35.574  32.818  29.324  1.00  0.00     0.124 S 
ATOM     45  O   UNL A   1      35.697  32.203  28.004  1.00  0.00    -0.237 OA
ATOM     46  O   UNL A   1      34.261  32.740  29.944  1.00  0.00    -0.237 OA
ATOM     47  O   UNL A   1      36.259  34.105  29.472  1.00  0.00    -0.744 OA
ENDBRANCH  40  44
ENDBRANCH  23  37
BRANCH  24  48
ATOM     48  C   UNL A   1      46.794  27.260  25.472  1.00  0.00     0.023 A 
ATOM     49  C   UNL A   1      47.048  27.794  24.189  1.00  0.00     0.031 A 
ATOM     50  C   UNL A   1      47.690  26.267  25.914  1.00  0.00     0.131 A 
ATOM     51  C   UNL A   1      48.133  27.337  23.411  1.00  0.00     0.055 A 
ATOM     52  C   UNL A   1      48.830  25.896  25.185  1.00  0.00     0.041 A 
ATOM     53  F   UNL A   1      47.480  25.612  27.065  1.00  0.00    -0.206 F 
ATOM     54  C   UNL A   1      49.053  26.426  23.922  1.00  0.00     0.022 A 
BRANCH  51  55
ATOM     55  S   UNL A   1      48.229  27.806  21.654  1.00  0.00     0.124 S 
ATOM     56  O   UNL A   1      46.956  28.489  21.454  1.00  0.00    -0.237 OA
ATOM     57  O   UNL A   1      49.420  28.648  21.622  1.00  0.00    -0.237 OA
ATOM     58  O   UNL A   1      48.358  26.523  20.965  1.00  0.00    -0.744 OA
ENDBRANCH  51  55
ENDBRANCH  24  48
BRANCH  36  59
ATOM     59  C   UNL A   1      45.328  32.854  29.241  1.00  0.00     0.023 A 
ATOM     60  C   UNL A   1      45.296  33.861  28.259  1.00  0.00     0.031 A 
ATOM     61  C   UNL A   1      46.169  33.011  30.348  1.00  0.00     0.131 A 
ATOM     62  C   UNL A   1      46.156  34.957  28.370  1.00  0.00     0.055 A 
ATOM     63  C   UNL A   1      46.971  34.141  30.490  1.00  0.00     0.041 A 
ATOM     64  F   UNL A   1      46.240  32.060  31.293  1.00  0.00    -0.206 F 
ATOM     65  C   UNL A   1      46.978  35.113  29.490  1.00  0.00     0.022 A 
BRANCH  62  66
ATOM     66  S   UNL A   1      46.276  36.110  26.977  1.00  0.00     0.124 S 
ATOM     67  O   UNL A   1      47.274  37.059  27.458  1.00  0.00    -0.237 OA
ATOM     68  O   UNL A   1      46.698  35.240  25.883  1.00  0.00    -0.237 OA
ATOM     69  O   UNL A   1      44.920  36.640  26.858  1.00  0.00    -0.744 OA
ENDBRANCH  62  66
ENDBRANCH  36  59
ENDBRANCH  10  11
ENDBRANCH   3   5
ENDBRANCH   2   3
ENDBRANCH   1   2
BRANCH   1  70
ATOM     70  C   UNL A   1      34.421  20.466  25.286  1.00  0.00     0.274 C 
BRANCH  70  71
ATOM     71  O   UNL A   1      33.742  21.374  24.405  1.00  0.00    -0.461 OA
BRANCH  71  72
ATOM     72  C   UNL A   1      32.548  21.824  24.883  1.00  0.00     0.329 C 
ATOM     73  O   UNL A   1      31.589  21.101  25.145  1.00  0.00    -0.250 OA
BRANCH  72  74
ATOM     74  C   UNL A   1      32.437  23.354  24.877  1.00  0.00     0.195 C 
BRANCH  74  75
ATOM     75  N   UNL A   1      31.442  23.950  25.775  1.00  0.00    -0.338 N 
ATOM     76  C   UNL A   1      30.588  25.000  25.876  1.00  0.00     0.253 C 
ATOM     77  H   UNL A   1      31.369  23.398  26.587  1.00  0.00     0.164 HD
ATOM     78  O   UNL A   1      29.730  24.883  26.750  1.00  0.00    -0.269 OA
BRANCH  76  79
ATOM     79  C   UNL A   1      30.607  26.207  25.028  1.00  0.00     0.061 A 
ATOM     80  C   UNL A   1      30.192  26.120  23.693  1.00  0.00     0.035 A 
ATOM     81  C   UNL A   1      31.198  27.395  25.479  1.00  0.00     0.072 A 
ATOM     82  C   UNL A   1      30.294  27.251  22.894  1.00  0.00     0.112 A 
ATOM     83  C   UNL A   1      31.195  28.483  24.618  1.00  0.00     0.132 A 
ATOM     84  Cl  UNL A   1      31.982  27.560  27.013  1.00  0.00    -0.082 Cl
ATOM     85  N   UNL A   1      30.734  28.441  23.347  1.00  0.00    -0.263 NA
ENDBRANCH  76  79
ENDBRANCH  74  75
BRANCH  74  86
ATOM     86  C   UNL A   1      33.811  23.964  24.750  1.00  0.00     0.023 C 
ATOM     87  C   UNL A   1      34.125  25.424  24.862  1.00  0.00     0.007 C 
ATOM     88  C   UNL A   1      34.545  24.471  25.957  1.00  0.00     0.007 C 
ENDBRANCH  74  86
ENDBRANCH  72  74
ENDBRANCH  71  72
ENDBRANCH  70  71
ENDBRANCH   1  70
TORSDOF 17
ENDMDL
MODEL 3
REMARK VINA RESULT:     -11.1      1.112      1.505
REMARK SMILES O=C(OCCOC(=O)[C@@H](NC(=O)c1ccncc1Cl)C1CC1)c1ccc(-c2c3nc(c(-c4cc(S(=O)(=O)[O-])ccc4F)c4ccc([nH]4)c(-c4cc(S(=O)(=O)[O-])ccc4F)c4nc(c(-c5cc(S(=O)(=O)[O-])ccc5F)c5ccc2[nH]5)C=C4)C=C3)cc1
REMARK SMILES IDX 4 1 3 2 2 3 1 4 23 5 24 6 85 7 25 8 84 9 26 10 27 11 28 12
REMARK SMILES IDX 78 13 29 14 83 15 77 16 79 17 30 18 82 19 76 20 75 21 31 23
REMARK SMILES IDX 63 24 43 25 62 26 44 27 47 28 61 29 80 30 45 31 46 32 60 34
REMARK SMILES IDX 81 35 48 36 32 37 33 38 41 39 34 40 40 41 42 42 39 43 35 44
REMARK SMILES IDX 36 45 37 46 38 47 64 48 65 49 73 50 66 51 72 52 74 53 71 54
REMARK SMILES IDX 67 55 68 56 69 57 70 58 49 59 50 60 58 61 51 62 57 63 59 64
REMARK SMILES IDX 56 65 52 66 53 67 54 68 55 69 5 70 6 71 7 72 8 73 9 74 10 75
REMARK SMILES IDX 11 76 12 78 13 79 14 80 18 81 15 82 17 83 19 84 16 85 20 86
REMARK SMILES IDX 21 87 22 88
REMARK H PARENT 79 22 47 33 10 77
REMARK Flexibility Score: inf
ROOT
ATOM      1  C   UNL A   1      31.811  29.474  25.786  1.00  0.00     0.275 C 
ENDROOT
BRANCH   1   2
ATOM      2  O   UNL A   1      32.694  30.607  25.812  1.00  0.00    -0.458 OA
BRANCH   2   3
ATOM      3  C   UNL A   1      33.166  31.327  26.857  1.00  0.00     0.338 C 
ATOM      4  O   UNL A   1      32.475  32.277  27.231  1.00  0.00    -0.246 OA
BRANCH   3   5
ATOM      5  C   UNL A   1      34.470  31.098  27.577  1.00  0.00     0.060 A 
ATOM      6  C   UNL A   1      35.354  32.064  28.064  1.00  0.00     0.016 A 
ATOM      7  C   UNL A   1      34.789  29.751  27.853  1.00  0.00     0.016 A 
ATOM      8  C   UNL A   1      36.469  31.706  28.849  1.00  0.00     0.010 A 
ATOM      9  C   UNL A   1      35.891  29.389  28.645  1.00  0.00     0.010 A 
ATOM     10  C   UNL A   1      36.730  30.369  29.177  1.00  0.00    -0.014 A 
BRANCH  10  11
ATOM     11  C   UNL A   1      37.940  30.027  29.979  1.00  0.00     0.031 A 
ATOM     12  C   UNL A   1      39.029  29.276  29.322  1.00  0.00     0.074 A 
ATOM     13  C   UNL A   1      38.048  30.276  31.300  1.00  0.00     0.049 A 
ATOM     14  N   UNL A   1      40.164  28.908  29.836  1.00  0.00    -0.248 NA
ATOM     15  C   UNL A   1      38.758  28.775  27.969  1.00  0.00     0.031 C 
ATOM     16  C   UNL A   1      36.901  30.587  32.102  1.00  0.00     0.029 A 
ATOM     17  N   UNL A   1      39.067  30.274  32.227  1.00  0.00    -0.354 N 
ATOM     18  C   UNL A   1      40.713  28.045  28.911  1.00  0.00     0.074 A 
ATOM     19  C   UNL A   1      39.802  27.984  27.783  1.00  0.00     0.031 C 
ATOM     20  C   UNL A   1      37.268  30.917  33.342  1.00  0.00     0.029 A 
ATOM     21  C   UNL A   1      38.696  30.807  33.459  1.00  0.00     0.049 A 
ATOM     22  H   UNL A   1      39.969  29.928  32.037  1.00  0.00     0.167 HD
ATOM     23  C   UNL A   1      41.850  27.330  29.049  1.00  0.00     0.034 A 
ATOM     24  C   UNL A   1      39.410  31.155  34.554  1.00  0.00     0.034 A 
ATOM     25  C   UNL A   1      42.673  27.380  30.230  1.00  0.00     0.049 A 
ATOM     26  C   UNL A   1      40.814  30.632  34.542  1.00  0.00     0.074 A 
ATOM     27  C   UNL A   1      43.859  26.720  30.478  1.00  0.00     0.029 A 
ATOM     28  N   UNL A   1      42.379  28.119  31.377  1.00  0.00    -0.354 N 
ATOM     29  N   UNL A   1      41.400  29.955  33.580  1.00  0.00    -0.248 NA
ATOM     30  C   UNL A   1      41.620  30.803  35.753  1.00  0.00     0.031 C 
ATOM     31  C   UNL A   1      44.267  27.033  31.780  1.00  0.00     0.029 A 
ATOM     32  C   UNL A   1      43.367  27.934  32.332  1.00  0.00     0.049 A 
ATOM     33  H   UNL A   1      41.585  28.690  31.491  1.00  0.00     0.167 HD
ATOM     34  C   UNL A   1      42.588  29.508  34.116  1.00  0.00     0.074 A 
ATOM     35  C   UNL A   1      42.720  30.145  35.417  1.00  0.00     0.031 C 
ATOM     36  C   UNL A   1      43.432  28.569  33.628  1.00  0.00     0.034 A 
BRANCH  23  37
ATOM     37  C   UNL A   1      42.166  26.397  27.917  1.00  0.00     0.023 A 
ATOM     38  C   UNL A   1      41.647  25.091  27.896  1.00  0.00     0.031 A 
ATOM     39  C   UNL A   1      43.110  26.757  26.943  1.00  0.00     0.131 A 
ATOM     40  C   UNL A   1      42.154  24.160  26.982  1.00  0.00     0.055 A 
ATOM     41  C   UNL A   1      43.540  25.848  25.975  1.00  0.00     0.041 A 
ATOM     42  F   UNL A   1      43.672  27.976  26.952  1.00  0.00    -0.206 F 
ATOM     43  C   UNL A   1      43.076  24.536  26.002  1.00  0.00     0.022 A 
BRANCH  40  44
ATOM     44  S   UNL A   1      41.718  22.415  27.209  1.00  0.00     0.124 S 
ATOM     45  O   UNL A   1      42.683  22.004  28.227  1.00  0.00    -0.237 OA
ATOM     46  O   UNL A   1      40.330  22.481  27.636  1.00  0.00    -0.237 OA
ATOM     47  O   UNL A   1      41.937  21.836  25.880  1.00  0.00    -0.744 OA
ENDBRANCH  40  44
ENDBRANCH  23  37
BRANCH  24  48
ATOM     48  C   UNL A   1      38.871  31.963  35.716  1.00  0.00     0.023 A 
ATOM     49  C   UNL A   1      38.283  31.310  36.821  1.00  0.00     0.031 A 
ATOM     50  C   UNL A   1      38.889  33.370  35.770  1.00  0.00     0.131 A 
ATOM     51  C   UNL A   1      37.741  32.043  37.898  1.00  0.00     0.055 A 
ATOM     52  C   UNL A   1      38.451  34.091  36.891  1.00  0.00     0.041 A 
ATOM     53  F   UNL A   1      39.320  34.095  34.727  1.00  0.00    -0.206 F 
ATOM     54  C   UNL A   1      37.865  33.428  37.961  1.00  0.00     0.022 A 
BRANCH  51  55
ATOM     55  S   UNL A   1      36.709  31.187  39.129  1.00  0.00     0.124 S 
ATOM     56  O   UNL A   1      36.485  29.895  38.489  1.00  0.00    -0.237 OA
ATOM     57  O   UNL A   1      37.571  31.179  40.305  1.00  0.00    -0.237 OA
ATOM     58  O   UNL A   1      35.525  32.039  39.233  1.00  0.00    -0.744 OA
ENDBRANCH  51  55
ENDBRANCH  24  48
BRANCH  36  59
ATOM     59  C   UNL A   1      44.520  28.164  34.575  1.00  0.00     0.023 A 
ATOM     60  C   UNL A   1      44.284  27.174  35.547  1.00  0.00     0.031 A 
ATOM     61  C   UNL A   1      45.755  28.823  34.562  1.00  0.00     0.131 A 
ATOM     62  C   UNL A   1      45.254  26.923  36.521  1.00  0.00     0.055 A 
ATOM     63  C   UNL A   1      46.745  28.516  35.492  1.00  0.00     0.041 A 
ATOM     64  F   UNL A   1      46.006  29.787  33.661  1.00  0.00    -0.206 F 
ATOM     65  C   UNL A   1      46.491  27.574  36.487  1.00  0.00     0.022 A 
BRANCH  62  66
ATOM     66  S   UNL A   1      44.831  25.829  37.903  1.00  0.00     0.124 S 
ATOM     67  O   UNL A   1      46.130  25.633  38.538  1.00  0.00    -0.237 OA
ATOM     68  O   UNL A   1      43.868  26.627  38.655  1.00  0.00    -0.237 OA
ATOM     69  O   UNL A   1      44.276  24.649  37.243  1.00  0.00    -0.744 OA
ENDBRANCH  62  66
ENDBRANCH  36  59
ENDBRANCH  10  11
ENDBRANCH   3   5
ENDBRANCH   2   3
ENDBRANCH   1   2
BRANCH   1  70
ATOM     70  C   UNL A   1      30.995  29.361  24.495  1.00  0.00     0.274 C 
BRANCH  70  71
ATOM     71  O   UNL A   1      31.768  28.856  23.396  1.00  0.00    -0.461 OA
BRANCH  71  72
ATOM     72  C   UNL A   1      31.223  27.764  22.787  1.00  0.00     0.329 C 
ATOM     73  O   UNL A   1      30.251  27.803  22.035  1.00  0.00    -0.250 OA
BRANCH  72  74
ATOM     74  C   UNL A   1      31.813  26.441  23.289  1.00  0.00     0.195 C 
BRANCH  74  75
ATOM     75  N   UNL A   1      31.453  26.027  24.649  1.00  0.00    -0.338 N 
ATOM     76  C   UNL A   1      31.942  25.367  25.729  1.00  0.00     0.253 C 
ATOM     77  H   UNL A   1      30.537  26.331  24.846  1.00  0.00     0.164 HD
ATOM     78  O   UNL A   1      31.312  25.548  26.771  1.00  0.00    -0.269 OA
BRANCH  76  79
ATOM     79  C   UNL A   1      33.138  24.505  25.740  1.00  0.00     0.061 A 
ATOM     80  C   UNL A   1      34.401  25.072  25.520  1.00  0.00     0.035 A 
ATOM     81  C   UNL A   1      33.021  23.109  25.789  1.00  0.00     0.072 A 
ATOM     82  C   UNL A   1      35.502  24.228  25.456  1.00  0.00     0.112 A 
ATOM     83  C   UNL A   1      34.191  22.363  25.775  1.00  0.00     0.132 A 
ATOM     84  Cl  UNL A   1      31.508  22.269  25.799  1.00  0.00    -0.082 Cl
ATOM     85  N   UNL A   1      35.426  22.895  25.635  1.00  0.00    -0.263 NA
ENDBRANCH  76  79
ENDBRANCH  74  75
BRANCH  74  86
ATOM     86  C   UNL A   1      31.833  25.433  22.165  1.00  0.00     0.023 C 
ATOM     87  C   UNL A   1      32.736  25.482  20.972  1.00  0.00     0.007 C 
ATOM     88  C   UNL A   1      32.949  24.437  22.042  1.00  0.00     0.007 C 
ENDBRANCH  74  86
ENDBRANCH  72  74
ENDBRANCH  71  72
ENDBRANCH  70  71
ENDBRANCH   1  70
TORSDOF 17
ENDMDL
