MODEL 1
REMARK VINA RESULT:     -14.3      0.000      0.000
REMARK SMILES Cc1nn(-c2nc3ccccc3o2)c2c1[C@H](c1ccc(C(=O)OCCOC(=O)c3ccc(-c4c5nc(c(-c6cc(S(=O)(=O)[O-])ccc6F)c6ccc([nH]6)c(-c6cc(S(=O)(=O)[O-])ccc6F)c6nc(c(-c7cc(S(=O)(=O)[O-])ccc7F)c7ccc4[nH]7)C=C6)C=C5)cc3)cc1)CC(=O)N2
REMARK SMILES IDX 25 1 24 2 23 3 21 4 22 5 20 6 17 7 18 8 93 9 19 10 92 11
REMARK SMILES IDX 16 12 1 13 2 14 3 15 15 16 4 17 14 18 97 19 94 20 95 21
REMARK SMILES IDX 96 23 5 24 6 25 13 26 7 27 12 28 8 29 11 30 9 31 10 32 26 33
REMARK SMILES IDX 27 34 28 35 29 36 30 37 91 38 31 39 90 40 32 41 33 42 34 43
REMARK SMILES IDX 84 44 35 45 89 46 83 47 85 48 36 49 88 50 82 51 81 52 37 54
REMARK SMILES IDX 69 55 49 56 68 57 50 58 53 59 67 60 86 61 51 62 52 63 66 65
REMARK SMILES IDX 87 66 54 67 38 68 39 69 47 70 40 71 46 72 48 73 45 74 41 75
REMARK SMILES IDX 42 76 43 77 44 78 70 79 71 80 79 81 72 82 78 83 80 84 77 85
REMARK SMILES IDX 73 86 74 87 75 88 76 89 55 90 56 91 64 92 57 93 63 94 65 95
REMARK SMILES IDX 62 96 58 97 59 98 60 99 61 100
REMARK H PARENT 97 22 85 53 53 64
REMARK Flexibility Score: inf
ROOT
ATOM      1  C   UNL A   1      35.002  31.884  27.632  1.00  0.00     0.275 C 
ENDROOT
BRANCH   1   2
ATOM      2  C   UNL A   1      33.621  31.250  27.673  1.00  0.00     0.275 C 
BRANCH   2   3
ATOM      3  O   UNL A   1      33.420  30.380  26.547  1.00  0.00    -0.458 OA
BRANCH   3   4
ATOM      4  C   UNL A   1      32.145  30.283  26.086  1.00  0.00     0.338 C 
ATOM      5  O   UNL A   1      31.421  31.220  25.778  1.00  0.00    -0.246 OA
BRANCH   4   6
ATOM      6  C   UNL A   1      31.744  28.858  25.932  1.00  0.00     0.060 A 
ATOM      7  C   UNL A   1      30.903  26.157  25.590  1.00  0.00    -0.040 A 
ATOM      8  C   UNL A   1      30.605  27.144  24.635  1.00  0.00     0.005 A 
ATOM      9  C   UNL A   1      31.675  26.560  26.697  1.00  0.00     0.005 A 
ATOM     10  C   UNL A   1      31.044  28.469  24.786  1.00  0.00     0.016 A 
ATOM     11  C   UNL A   1      32.072  27.891  26.879  1.00  0.00     0.016 A 
BRANCH   7  12
ATOM     12  C   UNL A   1      30.271  24.766  25.484  1.00  0.00     0.064 C 
ATOM     13  C   UNL A   1      32.118  24.725  22.521  1.00  0.00     0.069 C 
ATOM     14  C   UNL A   1      31.931  23.718  23.597  1.00  0.00     0.066 A 
ATOM     15  N   UNL A   1      32.438  22.493  23.382  1.00  0.00    -0.167 NA
ATOM     16  C   UNL A   1      31.197  23.784  24.825  1.00  0.00     0.026 A 
ATOM     17  N   UNL A   1      32.138  21.799  24.497  1.00  0.00    -0.166 N 
ATOM     18  C   UNL A   1      31.244  22.480  25.280  1.00  0.00     0.145 A 
ATOM     19  N   UNL A   1      30.444  21.932  26.257  1.00  0.00    -0.310 N 
ATOM     20  C   UNL A   1      29.803  24.221  26.858  1.00  0.00     0.113 C 
ATOM     21  C   UNL A   1      29.541  22.729  26.911  1.00  0.00     0.226 C 
ATOM     22  H   UNL A   1      30.520  20.977  26.485  1.00  0.00     0.171 HD
ATOM     23  O   UNL A   1      28.660  22.245  27.619  1.00  0.00    -0.275 OA
BRANCH  17  24
ATOM     24  C   UNL A   1      32.656  20.519  24.666  1.00  0.00     0.325 A 
ATOM     25  N   UNL A   1      33.952  20.285  24.517  1.00  0.00    -0.191 NA
ATOM     26  O   UNL A   1      31.930  19.419  25.073  1.00  0.00    -0.422 OA
ATOM     27  C   UNL A   1      34.060  18.930  24.667  1.00  0.00     0.111 A 
ATOM     28  C   UNL A   1      32.844  18.403  25.066  1.00  0.00     0.156 A 
ATOM     29  C   UNL A   1      35.149  18.071  24.481  1.00  0.00     0.032 A 
ATOM     30  C   UNL A   1      32.625  17.066  25.370  1.00  0.00     0.049 A 
ATOM     31  C   UNL A   1      34.955  16.702  24.721  1.00  0.00     0.003 A 
ATOM     32  C   UNL A   1      33.721  16.215  25.175  1.00  0.00     0.004 A 
ENDBRANCH  17  24
ENDBRANCH   7  12
ENDBRANCH   4   6
ENDBRANCH   3   4
ENDBRANCH   2   3
ENDBRANCH   1   2
BRANCH   1  33
ATOM     33  O   UNL A   1      35.312  32.534  28.864  1.00  0.00    -0.458 OA
BRANCH  33  34
ATOM     34  C   UNL A   1      35.662  31.692  29.864  1.00  0.00     0.338 C 
ATOM     35  O   UNL A   1      35.207  31.659  30.993  1.00  0.00    -0.246 OA
BRANCH  34  36
ATOM     36  C   UNL A   1      36.882  30.981  29.481  1.00  0.00     0.060 A 
ATOM     37  C   UNL A   1      36.829  29.584  29.429  1.00  0.00     0.016 A 
ATOM     38  C   UNL A   1      38.095  31.681  29.507  1.00  0.00     0.016 A 
ATOM     39  C   UNL A   1      38.008  28.877  29.555  1.00  0.00     0.010 A 
ATOM     40  C   UNL A   1      39.259  30.978  29.673  1.00  0.00     0.010 A 
ATOM     41  C   UNL A   1      39.195  29.588  29.752  1.00  0.00    -0.014 A 
BRANCH  41  42
ATOM     42  C   UNL A   1      40.436  28.856  29.892  1.00  0.00     0.031 A 
ATOM     43  C   UNL A   1      40.818  28.668  31.310  1.00  0.00     0.074 A 
ATOM     44  C   UNL A   1      41.027  28.242  28.851  1.00  0.00     0.049 A 
ATOM     45  N   UNL A   1      41.822  29.179  31.937  1.00  0.00    -0.248 NA
ATOM     46  C   UNL A   1      39.841  28.001  32.192  1.00  0.00     0.031 C 
ATOM     47  C   UNL A   1      40.522  28.118  27.482  1.00  0.00     0.029 A 
ATOM     48  N   UNL A   1      42.149  27.473  28.834  1.00  0.00    -0.354 N 
ATOM     49  C   UNL A   1      41.738  28.668  33.228  1.00  0.00     0.074 A 
ATOM     50  C   UNL A   1      40.388  28.212  33.386  1.00  0.00     0.031 C 
ATOM     51  C   UNL A   1      41.203  27.138  26.847  1.00  0.00     0.029 A 
ATOM     52  C   UNL A   1      42.255  26.643  27.722  1.00  0.00     0.049 A 
ATOM     53  H   UNL A   1      42.827  27.501  29.546  1.00  0.00     0.167 HD
ATOM     54  C   UNL A   1      42.861  28.360  33.931  1.00  0.00     0.034 A 
ATOM     55  C   UNL A   1      43.083  25.571  27.582  1.00  0.00     0.034 A 
ATOM     56  C   UNL A   1      44.014  29.039  33.376  1.00  0.00     0.049 A 
ATOM     57  C   UNL A   1      44.161  25.722  28.596  1.00  0.00     0.074 A 
ATOM     58  C   UNL A   1      44.308  30.362  33.100  1.00  0.00     0.029 A 
ATOM     59  N   UNL A   1      44.918  28.302  32.638  1.00  0.00    -0.354 N 
ATOM     60  N   UNL A   1      45.043  26.684  28.570  1.00  0.00    -0.248 NA
ATOM     61  C   UNL A   1      43.960  25.109  29.902  1.00  0.00     0.031 C 
ATOM     62  C   UNL A   1      45.003  30.334  31.856  1.00  0.00     0.029 A 
ATOM     63  C   UNL A   1      45.179  28.999  31.485  1.00  0.00     0.049 A 
ATOM     64  H   UNL A   1      45.305  27.433  32.893  1.00  0.00     0.167 HD
ATOM     65  C   UNL A   1      45.175  27.089  29.891  1.00  0.00     0.074 A 
ATOM     66  C   UNL A   1      44.563  26.018  30.676  1.00  0.00     0.031 C 
ATOM     67  C   UNL A   1      45.495  28.379  30.210  1.00  0.00     0.034 A 
BRANCH  54  68
ATOM     68  C   UNL A   1      42.982  27.145  34.834  1.00  0.00     0.023 A 
ATOM     69  C   UNL A   1      43.795  26.097  34.369  1.00  0.00     0.031 A 
ATOM     70  C   UNL A   1      42.156  26.827  35.940  1.00  0.00     0.131 A 
ATOM     71  C   UNL A   1      43.669  24.799  34.888  1.00  0.00     0.055 A 
ATOM     72  C   UNL A   1      42.087  25.549  36.500  1.00  0.00     0.041 A 
ATOM     73  F   UNL A   1      41.303  27.691  36.501  1.00  0.00    -0.206 F 
ATOM     74  C   UNL A   1      42.816  24.514  35.949  1.00  0.00     0.022 A 
BRANCH  71  75
ATOM     75  S   UNL A   1      44.499  23.453  34.013  1.00  0.00     0.124 S 
ATOM     76  O   UNL A   1      43.801  23.469  32.732  1.00  0.00    -0.237 OA
ATOM     77  O   UNL A   1      45.883  23.917  34.000  1.00  0.00    -0.237 OA
ATOM     78  O   UNL A   1      44.237  22.290  34.856  1.00  0.00    -0.744 OA
ENDBRANCH  71  75
ENDBRANCH  54  68
BRANCH  55  79
ATOM     79  C   UNL A   1      42.792  24.292  26.870  1.00  0.00     0.023 A 
ATOM     80  C   UNL A   1      43.727  23.653  26.025  1.00  0.00     0.031 A 
ATOM     81  C   UNL A   1      41.634  23.549  27.198  1.00  0.00     0.131 A 
ATOM     82  C   UNL A   1      43.481  22.342  25.548  1.00  0.00     0.055 A 
ATOM     83  C   UNL A   1      41.392  22.260  26.716  1.00  0.00     0.041 A 
ATOM     84  F   UNL A   1      40.731  24.014  28.075  1.00  0.00    -0.206 F 
ATOM     85  C   UNL A   1      42.320  21.646  25.893  1.00  0.00     0.022 A 
BRANCH  82  86
ATOM     86  S   UNL A   1      44.723  21.471  24.534  1.00  0.00     0.124 S 
ATOM     87  O   UNL A   1      44.224  20.100  24.541  1.00  0.00    -0.237 OA
ATOM     88  O   UNL A   1      44.648  22.184  23.265  1.00  0.00    -0.237 OA
ATOM     89  O   UNL A   1      45.970  21.672  25.273  1.00  0.00    -0.744 OA
ENDBRANCH  82  86
ENDBRANCH  55  79
BRANCH  67  90
ATOM     90  C   UNL A   1      46.015  29.292  29.114  1.00  0.00     0.023 A 
ATOM     91  C   UNL A   1      45.260  30.292  28.460  1.00  0.00     0.031 A 
ATOM     92  C   UNL A   1      47.387  29.211  28.813  1.00  0.00     0.131 A 
ATOM     93  C   UNL A   1      45.885  31.157  27.536  1.00  0.00     0.055 A 
ATOM     94  C   UNL A   1      48.005  30.082  27.917  1.00  0.00     0.041 A 
ATOM     95  F   UNL A   1      48.166  28.300  29.420  1.00  0.00    -0.206 F 
ATOM     96  C   UNL A   1      47.255  31.055  27.270  1.00  0.00     0.022 A 
BRANCH  93  97
ATOM     97  S   UNL A   1      44.924  32.422  26.642  1.00  0.00     0.124 S 
ATOM     98  O   UNL A   1      44.299  33.195  27.708  1.00  0.00    -0.237 OA
ATOM     99  O   UNL A   1      45.952  33.111  25.869  1.00  0.00    -0.237 OA
ATOM    100  O   UNL A   1      43.989  31.631  25.839  1.00  0.00    -0.744 OA
ENDBRANCH  93  97
ENDBRANCH  67  90
ENDBRANCH  41  42
ENDBRANCH  34  36
ENDBRANCH  33  34
ENDBRANCH   1  33
TORSDOF 16
ENDMDL
MODEL 2
REMARK VINA RESULT:     -14.2      2.236      6.581
REMARK SMILES Cc1nn(-c2nc3ccccc3o2)c2c1[C@H](c1ccc(C(=O)OCCOC(=O)c3ccc(-c4c5nc(c(-c6cc(S(=O)(=O)[O-])ccc6F)c6ccc([nH]6)c(-c6cc(S(=O)(=O)[O-])ccc6F)c6nc(c(-c7cc(S(=O)(=O)[O-])ccc7F)c7ccc4[nH]7)C=C6)C=C5)cc3)cc1)CC(=O)N2
REMARK SMILES IDX 25 1 24 2 23 3 21 4 22 5 20 6 17 7 18 8 93 9 19 10 92 11
REMARK SMILES IDX 16 12 1 13 2 14 3 15 15 16 4 17 14 18 97 19 94 20 95 21
REMARK SMILES IDX 96 23 5 24 6 25 13 26 7 27 12 28 8 29 11 30 9 31 10 32 26 33
REMARK SMILES IDX 27 34 28 35 29 36 30 37 91 38 31 39 90 40 32 41 33 42 34 43
REMARK SMILES IDX 84 44 35 45 89 46 83 47 85 48 36 49 88 50 82 51 81 52 37 54
REMARK SMILES IDX 69 55 49 56 68 57 50 58 53 59 67 60 86 61 51 62 52 63 66 65
REMARK SMILES IDX 87 66 54 67 38 68 39 69 47 70 40 71 46 72 48 73 45 74 41 75
REMARK SMILES IDX 42 76 43 77 44 78 70 79 71 80 79 81 72 82 78 83 80 84 77 85
REMARK SMILES IDX 73 86 74 87 75 88 76 89 55 90 56 91 64 92 57 93 63 94 65 95
REMARK SMILES IDX 62 96 58 97 59 98 60 99 61 100
REMARK H PARENT 97 22 85 53 53 64
REMARK Flexibility Score: inf
ROOT
ATOM      1  C   UNL A   1      35.348  31.451  28.831  1.00  0.00     0.275 C 
ENDROOT
BRANCH   1   2
ATOM      2  C   UNL A   1      35.113  31.061  27.380  1.00  0.00     0.275 C 
BRANCH   2   3
ATOM      3  O   UNL A   1      34.340  29.852  27.291  1.00  0.00    -0.458 OA
BRANCH   3   4
ATOM      4  C   UNL A   1      33.121  29.963  26.700  1.00  0.00     0.338 C 
ATOM      5  O   UNL A   1      32.546  31.010  26.436  1.00  0.00    -0.246 OA
BRANCH   4   6
ATOM      6  C   UNL A   1      32.582  28.624  26.340  1.00  0.00     0.060 A 
ATOM      7  C   UNL A   1      31.466  26.093  25.652  1.00  0.00    -0.040 A 
ATOM      8  C   UNL A   1      30.837  27.296  25.287  1.00  0.00     0.005 A 
ATOM      9  C   UNL A   1      32.695  26.203  26.331  1.00  0.00     0.005 A 
ATOM     10  C   UNL A   1      31.400  28.543  25.598  1.00  0.00     0.016 A 
ATOM     11  C   UNL A   1      33.236  27.444  26.689  1.00  0.00     0.016 A 
BRANCH   7  12
ATOM     12  C   UNL A   1      30.749  24.755  25.450  1.00  0.00     0.064 C 
ATOM     13  C   UNL A   1      32.725  24.727  22.571  1.00  0.00     0.069 C 
ATOM     14  C   UNL A   1      32.423  23.686  23.587  1.00  0.00     0.066 A 
ATOM     15  N   UNL A   1      32.857  22.440  23.332  1.00  0.00    -0.167 NA
ATOM     16  C   UNL A   1      31.638  23.745  24.783  1.00  0.00     0.026 A 
ATOM     17  N   UNL A   1      32.460  21.717  24.397  1.00  0.00    -0.166 N 
ATOM     18  C   UNL A   1      31.578  22.420  25.174  1.00  0.00     0.145 A 
ATOM     19  N   UNL A   1      30.699  21.882  26.087  1.00  0.00    -0.310 N 
ATOM     20  C   UNL A   1      30.183  24.180  26.773  1.00  0.00     0.113 C 
ATOM     21  C   UNL A   1      29.820  22.708  26.740  1.00  0.00     0.226 C 
ATOM     22  H   UNL A   1      30.701  20.915  26.270  1.00  0.00     0.171 HD
ATOM     23  O   UNL A   1      28.878  22.253  27.385  1.00  0.00    -0.275 OA
BRANCH  17  24
ATOM     24  C   UNL A   1      32.884  20.398  24.525  1.00  0.00     0.325 A 
ATOM     25  N   UNL A   1      32.025  19.433  24.816  1.00  0.00    -0.191 NA
ATOM     26  O   UNL A   1      34.169  19.954  24.292  1.00  0.00    -0.422 OA
ATOM     27  C   UNL A   1      32.810  18.321  24.946  1.00  0.00     0.111 A 
ATOM     28  C   UNL A   1      34.109  18.618  24.569  1.00  0.00     0.156 A 
ATOM     29  C   UNL A   1      32.504  17.027  25.381  1.00  0.00     0.032 A 
ATOM     30  C   UNL A   1      35.146  17.696  24.522  1.00  0.00     0.049 A 
ATOM     31  C   UNL A   1      33.537  16.079  25.404  1.00  0.00     0.003 A 
ATOM     32  C   UNL A   1      34.828  16.405  24.964  1.00  0.00     0.004 A 
ENDBRANCH  17  24
ENDBRANCH   7  12
ENDBRANCH   4   6
ENDBRANCH   3   4
ENDBRANCH   2   3
ENDBRANCH   1   2
BRANCH   1  33
ATOM     33  O   UNL A   1      36.627  31.011  29.285  1.00  0.00    -0.458 OA
BRANCH  33  34
ATOM     34  C   UNL A   1      36.608  29.824  29.934  1.00  0.00     0.338 C 
ATOM     35  O   UNL A   1      35.927  29.521  30.898  1.00  0.00    -0.246 OA
BRANCH  34  36
ATOM     36  C   UNL A   1      37.739  29.015  29.479  1.00  0.00     0.060 A 
ATOM     37  C   UNL A   1      38.271  28.082  30.375  1.00  0.00     0.016 A 
ATOM     38  C   UNL A   1      38.430  29.425  28.332  1.00  0.00     0.016 A 
ATOM     39  C   UNL A   1      39.575  27.667  30.195  1.00  0.00     0.010 A 
ATOM     40  C   UNL A   1      39.737  29.045  28.178  1.00  0.00     0.010 A 
ATOM     41  C   UNL A   1      40.310  28.216  29.141  1.00  0.00    -0.014 A 
BRANCH  41  42
ATOM     42  C   UNL A   1      41.681  27.793  28.947  1.00  0.00     0.031 A 
ATOM     43  C   UNL A   1      41.771  26.495  28.240  1.00  0.00     0.074 A 
ATOM     44  C   UNL A   1      42.724  28.606  29.190  1.00  0.00     0.049 A 
ATOM     45  N   UNL A   1      42.187  25.365  28.702  1.00  0.00    -0.248 NA
ATOM     46  C   UNL A   1      41.115  26.395  26.922  1.00  0.00     0.031 C 
ATOM     47  C   UNL A   1      42.684  30.017  29.582  1.00  0.00     0.029 A 
ATOM     48  N   UNL A   1      44.052  28.379  29.001  1.00  0.00    -0.354 N 
ATOM     49  C   UNL A   1      42.092  24.482  27.632  1.00  0.00     0.074 A 
ATOM     50  C   UNL A   1      41.184  25.084  26.701  1.00  0.00     0.031 C 
ATOM     51  C   UNL A   1      43.900  30.569  29.369  1.00  0.00     0.029 A 
ATOM     52  C   UNL A   1      44.825  29.534  28.931  1.00  0.00     0.049 A 
ATOM     53  H   UNL A   1      44.433  27.475  28.920  1.00  0.00     0.167 HD
ATOM     54  C   UNL A   1      43.016  23.500  27.453  1.00  0.00     0.034 A 
ATOM     55  C   UNL A   1      46.096  29.636  28.455  1.00  0.00     0.034 A 
ATOM     56  C   UNL A   1      43.736  23.244  28.683  1.00  0.00     0.049 A 
ATOM     57  C   UNL A   1      46.674  28.265  28.469  1.00  0.00     0.074 A 
ATOM     58  C   UNL A   1      43.351  22.923  29.972  1.00  0.00     0.029 A 
ATOM     59  N   UNL A   1      45.031  23.707  28.794  1.00  0.00    -0.354 N 
ATOM     60  N   UNL A   1      46.903  27.592  29.564  1.00  0.00    -0.248 NA
ATOM     61  C   UNL A   1      46.531  27.452  27.268  1.00  0.00     0.031 C 
ATOM     62  C   UNL A   1      44.220  23.673  30.816  1.00  0.00     0.029 A 
ATOM     63  C   UNL A   1      45.145  24.338  30.009  1.00  0.00     0.049 A 
ATOM     64  H   UNL A   1      45.745  23.604  28.124  1.00  0.00     0.167 HD
ATOM     65  C   UNL A   1      46.500  26.294  29.282  1.00  0.00     0.074 A 
ATOM     66  C   UNL A   1      46.377  26.246  27.826  1.00  0.00     0.031 C 
ATOM     67  C   UNL A   1      46.018  25.471  30.262  1.00  0.00     0.034 A 
BRANCH  54  68
ATOM     68  C   UNL A   1      43.544  23.079  26.093  1.00  0.00     0.023 A 
ATOM     69  C   UNL A   1      43.451  21.712  25.780  1.00  0.00     0.031 A 
ATOM     70  C   UNL A   1      44.370  23.843  25.232  1.00  0.00     0.131 A 
ATOM     71  C   UNL A   1      44.245  21.145  24.771  1.00  0.00     0.055 A 
ATOM     72  C   UNL A   1      45.104  23.286  24.183  1.00  0.00     0.041 A 
ATOM     73  F   UNL A   1      44.593  25.152  25.390  1.00  0.00    -0.206 F 
ATOM     74  C   UNL A   1      45.077  21.922  23.971  1.00  0.00     0.022 A 
BRANCH  71  75
ATOM     75  S   UNL A   1      44.315  19.342  24.659  1.00  0.00     0.124 S 
ATOM     76  O   UNL A   1      45.389  19.038  25.597  1.00  0.00    -0.237 OA
ATOM     77  O   UNL A   1      42.967  18.968  25.077  1.00  0.00    -0.237 OA
ATOM     78  O   UNL A   1      44.622  19.103  23.252  1.00  0.00    -0.744 OA
ENDBRANCH  71  75
ENDBRANCH  54  68
BRANCH  55  79
ATOM     79  C   UNL A   1      46.686  30.772  27.689  1.00  0.00     0.023 A 
ATOM     80  C   UNL A   1      45.906  31.690  26.952  1.00  0.00     0.031 A 
ATOM     81  C   UNL A   1      48.050  31.107  27.861  1.00  0.00     0.131 A 
ATOM     82  C   UNL A   1      46.492  32.867  26.423  1.00  0.00     0.055 A 
ATOM     83  C   UNL A   1      48.626  32.263  27.329  1.00  0.00     0.041 A 
ATOM     84  F   UNL A   1      48.860  30.363  28.631  1.00  0.00    -0.206 F 
ATOM     85  C   UNL A   1      47.846  33.154  26.613  1.00  0.00     0.022 A 
BRANCH  82  86
ATOM     86  S   UNL A   1      45.475  34.104  25.550  1.00  0.00     0.124 S 
ATOM     87  O   UNL A   1      44.707  33.278  24.625  1.00  0.00    -0.237 OA
ATOM     88  O   UNL A   1      44.732  34.725  26.640  1.00  0.00    -0.237 OA
ATOM     89  O   UNL A   1      46.466  34.975  24.916  1.00  0.00    -0.744 OA
ENDBRANCH  82  86
ENDBRANCH  55  79
BRANCH  67  90
ATOM     90  C   UNL A   1      46.218  25.871  31.711  1.00  0.00     0.023 A 
ATOM     91  C   UNL A   1      45.205  26.350  32.573  1.00  0.00     0.031 A 
ATOM     92  C   UNL A   1      47.488  25.634  32.271  1.00  0.00     0.131 A 
ATOM     93  C   UNL A   1      45.488  26.581  33.936  1.00  0.00     0.055 A 
ATOM     94  C   UNL A   1      47.757  25.842  33.622  1.00  0.00     0.041 A 
ATOM     95  F   UNL A   1      48.487  25.154  31.512  1.00  0.00    -0.206 F 
ATOM     96  C   UNL A   1      46.759  26.323  34.459  1.00  0.00     0.022 A 
BRANCH  93  97
ATOM     97  S   UNL A   1      44.212  27.246  35.055  1.00  0.00     0.124 S 
ATOM     98  O   UNL A   1      43.139  26.262  34.976  1.00  0.00    -0.237 OA
ATOM     99  O   UNL A   1      44.919  27.321  36.330  1.00  0.00    -0.237 OA
ATOM    100  O   UNL A   1      43.887  28.547  34.465  1.00  0.00    -0.744 OA
ENDBRANCH  93  97
ENDBRANCH  67  90
ENDBRANCH  41  42
ENDBRANCH  34  36
ENDBRANCH  33  34
ENDBRANCH   1  33
TORSDOF 16
ENDMDL
MODEL 3
REMARK VINA RESULT:     -13.9      2.571      3.223
REMARK SMILES Cc1nn(-c2nc3ccccc3o2)c2c1[C@H](c1ccc(C(=O)OCCOC(=O)c3ccc(-c4c5nc(c(-c6cc(S(=O)(=O)[O-])ccc6F)c6ccc([nH]6)c(-c6cc(S(=O)(=O)[O-])ccc6F)c6nc(c(-c7cc(S(=O)(=O)[O-])ccc7F)c7ccc4[nH]7)C=C6)C=C5)cc3)cc1)CC(=O)N2
REMARK SMILES IDX 25 1 24 2 23 3 21 4 22 5 20 6 17 7 18 8 93 9 19 10 92 11
REMARK SMILES IDX 16 12 1 13 2 14 3 15 15 16 4 17 14 18 97 19 94 20 95 21
REMARK SMILES IDX 96 23 5 24 6 25 13 26 7 27 12 28 8 29 11 30 9 31 10 32 26 33
REMARK SMILES IDX 27 34 28 35 29 36 30 37 91 38 31 39 90 40 32 41 33 42 34 43
REMARK SMILES IDX 84 44 35 45 89 46 83 47 85 48 36 49 88 50 82 51 81 52 37 54
REMARK SMILES IDX 69 55 49 56 68 57 50 58 53 59 67 60 86 61 51 62 52 63 66 65
REMARK SMILES IDX 87 66 54 67 38 68 39 69 47 70 40 71 46 72 48 73 45 74 41 75
REMARK SMILES IDX 42 76 43 77 44 78 70 79 71 80 79 81 72 82 78 83 80 84 77 85
REMARK SMILES IDX 73 86 74 87 75 88 76 89 55 90 56 91 64 92 57 93 63 94 65 95
REMARK SMILES IDX 62 96 58 97 59 98 60 99 61 100
REMARK H PARENT 97 22 85 53 53 64
REMARK Flexibility Score: inf
ROOT
ATOM      1  C   UNL A   1      35.241  31.807  27.852  1.00  0.00     0.275 C 
ENDROOT
BRANCH   1   2
ATOM      2  C   UNL A   1      33.752  31.505  27.790  1.00  0.00     0.275 C 
BRANCH   2   3
ATOM      3  O   UNL A   1      33.503  30.297  27.052  1.00  0.00    -0.458 OA
BRANCH   3   4
ATOM      4  C   UNL A   1      32.324  30.241  26.378  1.00  0.00     0.338 C 
ATOM      5  O   UNL A   1      31.702  31.199  25.939  1.00  0.00    -0.246 OA
BRANCH   4   6
ATOM      6  C   UNL A   1      31.898  28.830  26.172  1.00  0.00     0.060 A 
ATOM      7  C   UNL A   1      31.012  26.157  25.726  1.00  0.00    -0.040 A 
ATOM      8  C   UNL A   1      30.793  27.171  24.777  1.00  0.00     0.005 A 
ATOM      9  C   UNL A   1      31.730  26.519  26.883  1.00  0.00     0.005 A 
ATOM     10  C   UNL A   1      31.254  28.481  24.980  1.00  0.00     0.016 A 
ATOM     11  C   UNL A   1      32.148  27.835  27.115  1.00  0.00     0.016 A 
BRANCH   7  12
ATOM     12  C   UNL A   1      30.354  24.786  25.555  1.00  0.00     0.064 C 
ATOM     13  C   UNL A   1      32.341  24.770  22.683  1.00  0.00     0.069 C 
ATOM     14  C   UNL A   1      32.079  23.743  23.724  1.00  0.00     0.066 A 
ATOM     15  N   UNL A   1      32.567  22.511  23.502  1.00  0.00    -0.167 NA
ATOM     16  C   UNL A   1      31.288  23.797  24.916  1.00  0.00     0.026 A 
ATOM     17  N   UNL A   1      32.197  21.798  24.584  1.00  0.00    -0.166 N 
ATOM     18  C   UNL A   1      31.283  22.481  25.341  1.00  0.00     0.145 A 
ATOM     19  N   UNL A   1      30.424  21.930  26.265  1.00  0.00    -0.310 N 
ATOM     20  C   UNL A   1      29.808  24.219  26.891  1.00  0.00     0.113 C 
ATOM     21  C   UNL A   1      29.509  22.733  26.894  1.00  0.00     0.226 C 
ATOM     22  H   UNL A   1      30.467  20.969  26.471  1.00  0.00     0.171 HD
ATOM     23  O   UNL A   1      28.584  22.254  27.548  1.00  0.00    -0.275 OA
BRANCH  17  24
ATOM     24  C   UNL A   1      32.677  20.502  24.746  1.00  0.00     0.325 A 
ATOM     25  N   UNL A   1      33.902  20.177  24.359  1.00  0.00    -0.191 NA
ATOM     26  O   UNL A   1      31.997  19.480  25.375  1.00  0.00    -0.422 OA
ATOM     27  C   UNL A   1      33.973  18.831  24.590  1.00  0.00     0.111 A 
ATOM     28  C   UNL A   1      32.840  18.410  25.264  1.00  0.00     0.156 A 
ATOM     29  C   UNL A   1      34.958  17.895  24.257  1.00  0.00     0.032 A 
ATOM     30  C   UNL A   1      32.624  17.113  25.709  1.00  0.00     0.049 A 
ATOM     31  C   UNL A   1      34.752  16.561  24.638  1.00  0.00     0.003 A 
ATOM     32  C   UNL A   1      33.615  16.184  25.366  1.00  0.00     0.004 A 
ENDBRANCH  17  24
ENDBRANCH   7  12
ENDBRANCH   4   6
ENDBRANCH   3   4
ENDBRANCH   2   3
ENDBRANCH   1   2
BRANCH   1  33
ATOM     33  O   UNL A   1      35.745  31.659  29.178  1.00  0.00    -0.458 OA
BRANCH  33  34
ATOM     34  C   UNL A   1      36.949  32.243  29.383  1.00  0.00     0.338 C 
ATOM     35  O   UNL A   1      37.302  33.352  29.022  1.00  0.00    -0.246 OA
BRANCH  34  36
ATOM     36  C   UNL A   1      37.888  31.236  29.877  1.00  0.00     0.060 A 
ATOM     37  C   UNL A   1      39.239  31.590  29.954  1.00  0.00     0.016 A 
ATOM     38  C   UNL A   1      37.462  29.902  29.934  1.00  0.00     0.016 A 
ATOM     39  C   UNL A   1      40.184  30.585  29.938  1.00  0.00     0.010 A 
ATOM     40  C   UNL A   1      38.403  28.907  29.876  1.00  0.00     0.010 A 
ATOM     41  C   UNL A   1      39.749  29.262  29.822  1.00  0.00    -0.014 A 
BRANCH  41  42
ATOM     42  C   UNL A   1      40.733  28.200  29.798  1.00  0.00     0.031 A 
ATOM     43  C   UNL A   1      41.388  28.014  31.113  1.00  0.00     0.074 A 
ATOM     44  C   UNL A   1      40.854  27.358  28.756  1.00  0.00     0.049 A 
ATOM     45  N   UNL A   1      42.617  28.242  31.428  1.00  0.00    -0.248 NA
ATOM     46  C   UNL A   1      40.515  27.745  32.272  1.00  0.00     0.031 C 
ATOM     47  C   UNL A   1      40.010  27.289  27.561  1.00  0.00     0.029 A 
ATOM     48  N   UNL A   1      41.677  26.285  28.611  1.00  0.00    -0.354 N 
ATOM     49  C   UNL A   1      42.719  27.881  32.767  1.00  0.00     0.074 A 
ATOM     50  C   UNL A   1      41.379  27.871  33.277  1.00  0.00     0.031 C 
ATOM     51  C   UNL A   1      40.212  26.103  26.944  1.00  0.00     0.029 A 
ATOM     52  C   UNL A   1      41.270  25.380  27.636  1.00  0.00     0.049 A 
ATOM     53  H   UNL A   1      42.492  26.160  29.149  1.00  0.00     0.167 HD
ATOM     54  C   UNL A   1      43.850  27.301  33.250  1.00  0.00     0.034 A 
ATOM     55  C   UNL A   1      41.705  24.099  27.480  1.00  0.00     0.034 A 
ATOM     56  C   UNL A   1      44.971  27.552  32.367  1.00  0.00     0.049 A 
ATOM     57  C   UNL A   1      43.000  23.992  28.205  1.00  0.00     0.074 A 
ATOM     58  C   UNL A   1      45.542  28.698  31.843  1.00  0.00     0.029 A 
ATOM     59  N   UNL A   1      45.422  26.522  31.569  1.00  0.00    -0.354 N 
ATOM     60  N   UNL A   1      44.079  24.636  27.851  1.00  0.00    -0.248 NA
ATOM     61  C   UNL A   1      42.968  23.572  29.600  1.00  0.00     0.031 C 
ATOM     62  C   UNL A   1      45.870  28.365  30.497  1.00  0.00     0.029 A 
ATOM     63  C   UNL A   1      45.571  27.016  30.296  1.00  0.00     0.049 A 
ATOM     64  H   UNL A   1      45.603  25.599  31.859  1.00  0.00     0.167 HD
ATOM     65  C   UNL A   1      44.642  25.082  29.038  1.00  0.00     0.074 A 
ATOM     66  C   UNL A   1      43.972  24.311  30.084  1.00  0.00     0.031 C 
ATOM     67  C   UNL A   1      45.376  26.234  29.088  1.00  0.00     0.034 A 
BRANCH  54  68
ATOM     68  C   UNL A   1      43.850  26.180  34.274  1.00  0.00     0.023 A 
ATOM     69  C   UNL A   1      44.063  26.553  35.612  1.00  0.00     0.031 A 
ATOM     70  C   UNL A   1      43.948  24.791  34.009  1.00  0.00     0.131 A 
ATOM     71  C   UNL A   1      44.484  25.614  36.567  1.00  0.00     0.055 A 
ATOM     72  C   UNL A   1      44.298  23.850  34.980  1.00  0.00     0.041 A 
ATOM     73  F   UNL A   1      43.798  24.258  32.792  1.00  0.00    -0.206 F 
ATOM     74  C   UNL A   1      44.609  24.263  36.260  1.00  0.00     0.022 A 
BRANCH  71  75
ATOM     75  S   UNL A   1      45.056  26.231  38.167  1.00  0.00     0.124 S 
ATOM     76  O   UNL A   1      46.055  27.211  37.757  1.00  0.00    -0.237 OA
ATOM     77  O   UNL A   1      43.823  26.766  38.736  1.00  0.00    -0.237 OA
ATOM     78  O   UNL A   1      45.580  25.036  38.822  1.00  0.00    -0.744 OA
ENDBRANCH  71  75
ENDBRANCH  54  68
BRANCH  55  79
ATOM     79  C   UNL A   1      40.904  22.919  27.042  1.00  0.00     0.023 A 
ATOM     80  C   UNL A   1      39.551  23.011  26.649  1.00  0.00     0.031 A 
ATOM     81  C   UNL A   1      41.548  21.684  26.788  1.00  0.00     0.131 A 
ATOM     82  C   UNL A   1      38.905  21.906  26.042  1.00  0.00     0.055 A 
ATOM     83  C   UNL A   1      40.903  20.595  26.198  1.00  0.00     0.041 A 
ATOM     84  F   UNL A   1      42.859  21.519  27.023  1.00  0.00    -0.206 F 
ATOM     85  C   UNL A   1      39.578  20.703  25.815  1.00  0.00     0.022 A 
BRANCH  82  86
ATOM     86  S   UNL A   1      37.187  22.044  25.445  1.00  0.00     0.124 S 
ATOM     87  O   UNL A   1      36.622  20.754  25.825  1.00  0.00    -0.237 OA
ATOM     88  O   UNL A   1      36.695  23.209  26.170  1.00  0.00    -0.237 OA
ATOM     89  O   UNL A   1      37.341  22.244  24.003  1.00  0.00    -0.744 OA
ENDBRANCH  82  86
ENDBRANCH  55  79
BRANCH  67  90
ATOM     90  C   UNL A   1      45.839  26.858  27.785  1.00  0.00     0.023 A 
ATOM     91  C   UNL A   1      46.949  26.426  27.023  1.00  0.00     0.031 A 
ATOM     92  C   UNL A   1      45.028  27.869  27.236  1.00  0.00     0.131 A 
ATOM     93  C   UNL A   1      47.214  27.013  25.767  1.00  0.00     0.055 A 
ATOM     94  C   UNL A   1      45.280  28.430  25.986  1.00  0.00     0.041 A 
ATOM     95  F   UNL A   1      43.943  28.306  27.898  1.00  0.00    -0.206 F 
ATOM     96  C   UNL A   1      46.379  28.007  25.248  1.00  0.00     0.022 A 
BRANCH  93  97
ATOM     97  S   UNL A   1      48.667  26.508  24.789  1.00  0.00     0.124 S 
ATOM     98  O   UNL A   1      49.579  25.960  25.785  1.00  0.00    -0.237 OA
ATOM     99  O   UNL A   1      48.096  25.550  23.847  1.00  0.00    -0.237 OA
ATOM    100  O   UNL A   1      49.117  27.762  24.180  1.00  0.00    -0.744 OA
ENDBRANCH  93  97
ENDBRANCH  67  90
ENDBRANCH  41  42
ENDBRANCH  34  36
ENDBRANCH  33  34
ENDBRANCH   1  33
TORSDOF 16
ENDMDL
