MODEL 1
REMARK VINA RESULT:     -11.8      0.000      0.000
REMARK SMILES CCCNC(=O)N1[C@@H](C(=O)OCCOC(=O)c2ccc(-c3c4nc(c(-c5cc(S(=O)(=O)[O-])ccc5F)c5ccc([nH]5)c(-c5cc(S(=O)(=O)[O-])ccc5F)c5nc(c(-c6cc(S(=O)(=O)[O-])ccc6F)c6ccc3[nH]6)C=C5)C=C4)cc2)CC[C@H]2CCCC[C@@H]21
REMARK SMILES IDX 12 1 11 2 9 3 10 4 8 5 7 6 87 7 80 8 82 9 86 10 81 11 83 12
REMARK SMILES IDX 85 13 84 14 5 15 4 16 6 18 3 19 2 20 1 21 13 22 14 23 15 24
REMARK SMILES IDX 16 25 17 26 18 27 79 28 19 29 78 30 20 31 21 32 22 33 72 34
REMARK SMILES IDX 23 35 77 36 71 37 73 38 24 39 76 40 70 41 69 42 25 44 57 45
REMARK SMILES IDX 37 46 56 47 38 48 41 49 55 50 74 51 39 52 40 53 54 55 75 56
REMARK SMILES IDX 42 57 26 58 27 59 35 60 28 61 34 62 36 63 33 64 29 65 30 66
REMARK SMILES IDX 31 67 32 68 58 69 59 70 67 71 60 72 66 73 68 74 65 75 61 76
REMARK SMILES IDX 62 77 63 78 64 79 43 80 44 81 52 82 45 83 51 84 53 85 50 86
REMARK SMILES IDX 46 87 47 88 48 89 49 90
REMARK H PARENT 4 17 73 43 41 54
REMARK Flexibility Score: inf
ROOT
ATOM      1  C   UNL A   1      34.197  21.113  25.623  1.00  0.00     0.274 C 
ENDROOT
BRANCH   1   2
ATOM      2  O   UNL A   1      33.942  22.461  26.081  1.00  0.00    -0.461 OA
BRANCH   2   3
ATOM      3  C   UNL A   1      33.131  23.241  25.301  1.00  0.00     0.329 C 
ATOM      4  O   UNL A   1      32.322  22.810  24.485  1.00  0.00    -0.250 OA
BRANCH   3   5
ATOM      5  C   UNL A   1      33.378  24.749  25.598  1.00  0.00     0.197 C 
ATOM      6  N   UNL A   1      32.147  25.543  25.619  1.00  0.00    -0.308 N 
ATOM      7  C   UNL A   1      32.261  26.972  25.897  1.00  0.00     0.091 C 
ATOM      8  C   UNL A   1      34.290  25.309  24.479  1.00  0.00     0.038 C 
ATOM      9  C   UNL A   1      33.631  27.519  25.473  1.00  0.00     0.012 C 
ATOM     10  C   UNL A   1      32.019  27.392  27.358  1.00  0.00     0.025 C 
ATOM     11  C   UNL A   1      34.081  26.813  24.198  1.00  0.00     0.008 C 
ATOM     12  C   UNL A   1      33.520  29.040  25.387  1.00  0.00     0.006 C 
ATOM     13  C   UNL A   1      31.972  28.923  27.442  1.00  0.00     0.002 C 
ATOM     14  C   UNL A   1      33.167  29.612  26.768  1.00  0.00     0.000 C 
BRANCH   6  15
ATOM     15  C   UNL A   1      31.013  24.908  26.009  1.00  0.00     0.318 C 
ATOM     16  N   UNL A   1      29.989  24.868  25.127  1.00  0.00    -0.338 N 
ATOM     17  H   UNL A   1      29.223  24.323  25.422  1.00  0.00     0.165 HD
ATOM     18  O   UNL A   1      30.985  24.292  27.068  1.00  0.00    -0.249 OA
BRANCH  16  19
ATOM     19  C   UNL A   1      29.814  25.482  23.825  1.00  0.00     0.117 C 
BRANCH  19  20
ATOM     20  C   UNL A   1      29.116  26.839  23.893  1.00  0.00     0.018 C 
ATOM     21  C   UNL A   1      29.691  27.874  22.939  1.00  0.00     0.006 C 
ENDBRANCH  19  20
ENDBRANCH  16  19
ENDBRANCH   6  15
ENDBRANCH   3   5
ENDBRANCH   2   3
ENDBRANCH   1   2
BRANCH   1  22
ATOM     22  C   UNL A   1      35.428  21.086  24.706  1.00  0.00     0.275 C 
BRANCH  22  23
ATOM     23  O   UNL A   1      36.380  22.057  25.170  1.00  0.00    -0.458 OA
BRANCH  23  24
ATOM     24  C   UNL A   1      37.657  21.627  25.371  1.00  0.00     0.338 C 
ATOM     25  O   UNL A   1      38.138  20.601  24.925  1.00  0.00    -0.246 OA
BRANCH  24  26
ATOM     26  C   UNL A   1      38.410  22.629  26.189  1.00  0.00     0.060 A 
ATOM     27  C   UNL A   1      37.911  23.912  26.351  1.00  0.00     0.016 A 
ATOM     28  C   UNL A   1      39.682  22.352  26.705  1.00  0.00     0.016 A 
ATOM     29  C   UNL A   1      38.746  24.928  26.816  1.00  0.00     0.010 A 
ATOM     30  C   UNL A   1      40.460  23.373  27.307  1.00  0.00     0.010 A 
ATOM     31  C   UNL A   1      40.034  24.712  27.309  1.00  0.00    -0.014 A 
BRANCH  31  32
ATOM     32  C   UNL A   1      40.900  25.902  27.683  1.00  0.00     0.031 A 
ATOM     33  C   UNL A   1      40.419  26.912  28.706  1.00  0.00     0.074 A 
ATOM     34  C   UNL A   1      42.174  26.056  27.238  1.00  0.00     0.049 A 
ATOM     35  N   UNL A   1      40.864  28.123  28.941  1.00  0.00    -0.248 NA
ATOM     36  C   UNL A   1      39.280  26.528  29.551  1.00  0.00     0.031 C 
ATOM     37  C   UNL A   1      42.877  25.158  26.319  1.00  0.00     0.029 A 
ATOM     38  N   UNL A   1      43.142  26.991  27.548  1.00  0.00    -0.354 N 
ATOM     39  C   UNL A   1      39.972  28.692  29.847  1.00  0.00     0.074 A 
ATOM     40  C   UNL A   1      38.993  27.672  30.156  1.00  0.00     0.031 C 
ATOM     41  C   UNL A   1      44.180  25.470  26.292  1.00  0.00     0.029 A 
ATOM     42  C   UNL A   1      44.379  26.729  26.993  1.00  0.00     0.049 A 
ATOM     43  H   UNL A   1      42.965  27.776  28.116  1.00  0.00     0.167 HD
ATOM     44  C   UNL A   1      39.961  29.959  30.337  1.00  0.00     0.034 A 
ATOM     45  C   UNL A   1      45.526  27.442  26.960  1.00  0.00     0.034 A 
ATOM     46  C   UNL A   1      41.016  30.921  30.110  1.00  0.00     0.049 A 
ATOM     47  C   UNL A   1      45.506  28.844  27.516  1.00  0.00     0.074 A 
ATOM     48  C   UNL A   1      41.083  32.248  30.504  1.00  0.00     0.029 A 
ATOM     49  N   UNL A   1      42.218  30.644  29.469  1.00  0.00    -0.354 N 
ATOM     50  N   UNL A   1      44.544  29.465  28.155  1.00  0.00    -0.248 NA
ATOM     51  C   UNL A   1      46.702  29.662  27.281  1.00  0.00     0.031 C 
ATOM     52  C   UNL A   1      42.299  32.783  30.061  1.00  0.00     0.029 A 
ATOM     53  C   UNL A   1      43.025  31.774  29.452  1.00  0.00     0.049 A 
ATOM     54  H   UNL A   1      42.461  29.772  29.083  1.00  0.00     0.167 HD
ATOM     55  C   UNL A   1      45.008  30.759  28.368  1.00  0.00     0.074 A 
ATOM     56  C   UNL A   1      46.360  30.807  27.852  1.00  0.00     0.031 C 
ATOM     57  C   UNL A   1      44.362  31.823  28.910  1.00  0.00     0.034 A 
BRANCH  44  58
ATOM     58  C   UNL A   1      38.707  30.413  31.053  1.00  0.00     0.023 A 
ATOM     59  C   UNL A   1      37.621  31.013  30.396  1.00  0.00     0.031 A 
ATOM     60  C   UNL A   1      38.635  30.279  32.453  1.00  0.00     0.131 A 
ATOM     61  C   UNL A   1      36.550  31.527  31.148  1.00  0.00     0.055 A 
ATOM     62  C   UNL A   1      37.531  30.716  33.185  1.00  0.00     0.041 A 
ATOM     63  F   UNL A   1      39.652  29.733  33.141  1.00  0.00    -0.206 F 
ATOM     64  C   UNL A   1      36.485  31.361  32.534  1.00  0.00     0.022 A 
BRANCH  61  65
ATOM     65  S   UNL A   1      35.314  32.557  30.309  1.00  0.00     0.124 S 
ATOM     66  O   UNL A   1      36.104  33.732  29.950  1.00  0.00    -0.237 OA
ATOM     67  O   UNL A   1      34.894  31.707  29.201  1.00  0.00    -0.237 OA
ATOM     68  O   UNL A   1      34.302  32.788  31.338  1.00  0.00    -0.744 OA
ENDBRANCH  61  65
ENDBRANCH  44  58
BRANCH  45  69
ATOM     69  C   UNL A   1      46.748  26.929  26.256  1.00  0.00     0.023 A 
ATOM     70  C   UNL A   1      47.790  26.307  26.966  1.00  0.00     0.031 A 
ATOM     71  C   UNL A   1      46.928  27.109  24.871  1.00  0.00     0.131 A 
ATOM     72  C   UNL A   1      48.963  25.916  26.296  1.00  0.00     0.055 A 
ATOM     73  C   UNL A   1      48.056  26.640  24.198  1.00  0.00     0.041 A 
ATOM     74  F   UNL A   1      45.993  27.736  24.137  1.00  0.00    -0.206 F 
ATOM     75  C   UNL A   1      49.089  26.049  24.913  1.00  0.00     0.022 A 
BRANCH  72  76
ATOM     76  S   UNL A   1      50.376  25.327  27.273  1.00  0.00     0.124 S 
ATOM     77  O   UNL A   1      50.692  26.503  28.076  1.00  0.00    -0.237 OA
ATOM     78  O   UNL A   1      49.800  24.195  27.991  1.00  0.00    -0.237 OA
ATOM     79  O   UNL A   1      51.369  24.979  26.258  1.00  0.00    -0.744 OA
ENDBRANCH  72  76
ENDBRANCH  45  69
BRANCH  57  80
ATOM     80  C   UNL A   1      45.131  33.120  28.973  1.00  0.00     0.023 A 
ATOM     81  C   UNL A   1      45.317  33.918  27.829  1.00  0.00     0.031 A 
ATOM     82  C   UNL A   1      45.726  33.536  30.176  1.00  0.00     0.131 A 
ATOM     83  C   UNL A   1      46.135  35.057  27.898  1.00  0.00     0.055 A 
ATOM     84  C   UNL A   1      46.489  34.703  30.251  1.00  0.00     0.041 A 
ATOM     85  F   UNL A   1      45.584  32.811  31.296  1.00  0.00    -0.206 F 
ATOM     86  C   UNL A   1      46.710  35.462  29.104  1.00  0.00     0.022 A 
BRANCH  83  87
ATOM     87  S   UNL A   1      46.529  35.940  26.362  1.00  0.00     0.124 S 
ATOM     88  O   UNL A   1      47.989  35.936  26.374  1.00  0.00    -0.237 OA
ATOM     89  O   UNL A   1      45.896  35.102  25.348  1.00  0.00    -0.237 OA
ATOM     90  O   UNL A   1      45.912  37.252  26.553  1.00  0.00    -0.744 OA
ENDBRANCH  83  87
ENDBRANCH  57  80
ENDBRANCH  31  32
ENDBRANCH  24  26
ENDBRANCH  23  24
ENDBRANCH  22  23
ENDBRANCH   1  22
TORSDOF 17
ENDMDL
MODEL 2
REMARK VINA RESULT:     -11.5      1.950      7.890
REMARK SMILES CCCNC(=O)N1[C@@H](C(=O)OCCOC(=O)c2ccc(-c3c4nc(c(-c5cc(S(=O)(=O)[O-])ccc5F)c5ccc([nH]5)c(-c5cc(S(=O)(=O)[O-])ccc5F)c5nc(c(-c6cc(S(=O)(=O)[O-])ccc6F)c6ccc3[nH]6)C=C5)C=C4)cc2)CC[C@H]2CCCC[C@@H]21
REMARK SMILES IDX 12 1 11 2 9 3 10 4 8 5 7 6 87 7 80 8 82 9 86 10 81 11 83 12
REMARK SMILES IDX 85 13 84 14 5 15 4 16 6 18 3 19 2 20 1 21 13 22 14 23 15 24
REMARK SMILES IDX 16 25 17 26 18 27 79 28 19 29 78 30 20 31 21 32 22 33 72 34
REMARK SMILES IDX 23 35 77 36 71 37 73 38 24 39 76 40 70 41 69 42 25 44 57 45
REMARK SMILES IDX 37 46 56 47 38 48 41 49 55 50 74 51 39 52 40 53 54 55 75 56
REMARK SMILES IDX 42 57 26 58 27 59 35 60 28 61 34 62 36 63 33 64 29 65 30 66
REMARK SMILES IDX 31 67 32 68 58 69 59 70 67 71 60 72 66 73 68 74 65 75 61 76
REMARK SMILES IDX 62 77 63 78 64 79 43 80 44 81 52 82 45 83 51 84 53 85 50 86
REMARK SMILES IDX 46 87 47 88 48 89 49 90
REMARK H PARENT 4 17 73 43 41 54
REMARK Flexibility Score: inf
ROOT
ATOM      1  C   UNL A   1      35.619  20.628  25.261  1.00  0.00     0.274 C 
ENDROOT
BRANCH   1   2
ATOM      2  O   UNL A   1      35.751  21.766  26.144  1.00  0.00    -0.461 OA
BRANCH   2   3
ATOM      3  C   UNL A   1      34.640  22.136  26.853  1.00  0.00     0.329 C 
ATOM      4  O   UNL A   1      34.063  21.424  27.670  1.00  0.00    -0.250 OA
BRANCH   3   5
ATOM      5  C   UNL A   1      34.213  23.586  26.479  1.00  0.00     0.197 C 
ATOM      6  N   UNL A   1      32.863  23.665  25.917  1.00  0.00    -0.308 N 
ATOM      7  C   UNL A   1      32.355  24.981  25.539  1.00  0.00     0.091 C 
ATOM      8  C   UNL A   1      35.206  24.112  25.414  1.00  0.00     0.038 C 
ATOM      9  C   UNL A   1      33.498  25.937  25.169  1.00  0.00     0.012 C 
ATOM     10  C   UNL A   1      31.472  25.685  26.584  1.00  0.00     0.025 C 
ATOM     11  C   UNL A   1      34.596  25.156  24.453  1.00  0.00     0.008 C 
ATOM     12  C   UNL A   1      32.895  27.104  24.390  1.00  0.00     0.006 C 
ATOM     13  C   UNL A   1      30.860  26.946  25.961  1.00  0.00     0.002 C 
ATOM     14  C   UNL A   1      31.891  27.855  25.277  1.00  0.00     0.000 C 
BRANCH   6  15
ATOM     15  C   UNL A   1      31.968  22.735  26.339  1.00  0.00     0.318 C 
ATOM     16  N   UNL A   1      31.786  21.648  25.556  1.00  0.00    -0.338 N 
ATOM     17  H   UNL A   1      31.193  20.965  25.946  1.00  0.00     0.165 HD
ATOM     18  O   UNL A   1      31.453  22.834  27.446  1.00  0.00    -0.249 OA
BRANCH  16  19
ATOM     19  C   UNL A   1      32.305  21.306  24.245  1.00  0.00     0.117 C 
BRANCH  19  20
ATOM     20  C   UNL A   1      31.835  22.261  23.149  1.00  0.00     0.018 C 
ATOM     21  C   UNL A   1      32.958  22.783  22.267  1.00  0.00     0.006 C 
ENDBRANCH  19  20
ENDBRANCH  16  19
ENDBRANCH   6  15
ENDBRANCH   3   5
ENDBRANCH   2   3
ENDBRANCH   1   2
BRANCH   1  22
ATOM     22  C   UNL A   1      36.992  19.990  25.005  1.00  0.00     0.275 C 
BRANCH  22  23
ATOM     23  O   UNL A   1      37.997  21.017  25.027  1.00  0.00    -0.458 OA
BRANCH  23  24
ATOM     24  C   UNL A   1      39.104  20.786  25.787  1.00  0.00     0.338 C 
ATOM     25  O   UNL A   1      39.709  19.730  25.856  1.00  0.00    -0.246 OA
BRANCH  24  26
ATOM     26  C   UNL A   1      39.507  22.039  26.498  1.00  0.00     0.060 A 
ATOM     27  C   UNL A   1      38.836  23.226  26.250  1.00  0.00     0.016 A 
ATOM     28  C   UNL A   1      40.634  22.086  27.328  1.00  0.00     0.016 A 
ATOM     29  C   UNL A   1      39.402  24.439  26.641  1.00  0.00     0.010 A 
ATOM     30  C   UNL A   1      41.112  23.321  27.834  1.00  0.00     0.010 A 
ATOM     31  C   UNL A   1      40.544  24.544  27.438  1.00  0.00    -0.014 A 
BRANCH  31  32
ATOM     32  C   UNL A   1      41.143  25.912  27.709  1.00  0.00     0.031 A 
ATOM     33  C   UNL A   1      42.411  26.351  27.006  1.00  0.00     0.074 A 
ATOM     34  C   UNL A   1      40.523  26.850  28.472  1.00  0.00     0.049 A 
ATOM     35  N   UNL A   1      43.226  27.333  27.309  1.00  0.00    -0.248 NA
ATOM     36  C   UNL A   1      42.837  25.574  25.834  1.00  0.00     0.031 C 
ATOM     37  C   UNL A   1      39.248  26.682  29.173  1.00  0.00     0.029 A 
ATOM     38  N   UNL A   1      40.844  28.167  28.740  1.00  0.00    -0.354 N 
ATOM     39  C   UNL A   1      44.324  27.199  26.464  1.00  0.00     0.074 A 
ATOM     40  C   UNL A   1      44.044  26.070  25.602  1.00  0.00     0.031 C 
ATOM     41  C   UNL A   1      38.816  27.870  29.616  1.00  0.00     0.029 A 
ATOM     42  C   UNL A   1      39.879  28.849  29.453  1.00  0.00     0.049 A 
ATOM     43  H   UNL A   1      41.688  28.581  28.447  1.00  0.00     0.167 HD
ATOM     44  C   UNL A   1      45.469  27.930  26.445  1.00  0.00     0.034 A 
ATOM     45  C   UNL A   1      39.862  30.085  30.000  1.00  0.00     0.034 A 
ATOM     46  C   UNL A   1      45.674  29.126  27.231  1.00  0.00     0.049 A 
ATOM     47  C   UNL A   1      41.135  30.894  29.965  1.00  0.00     0.074 A 
ATOM     48  C   UNL A   1      46.811  29.911  27.338  1.00  0.00     0.029 A 
ATOM     49  N   UNL A   1      44.701  29.742  28.008  1.00  0.00    -0.354 N 
ATOM     50  N   UNL A   1      42.269  30.624  29.363  1.00  0.00    -0.248 NA
ATOM     51  C   UNL A   1      41.146  32.138  30.744  1.00  0.00     0.031 C 
ATOM     52  C   UNL A   1      46.539  30.970  28.216  1.00  0.00     0.029 A 
ATOM     53  C   UNL A   1      45.213  30.888  28.601  1.00  0.00     0.049 A 
ATOM     54  H   UNL A   1      43.781  29.412  28.123  1.00  0.00     0.167 HD
ATOM     55  C   UNL A   1      43.138  31.650  29.720  1.00  0.00     0.074 A 
ATOM     56  C   UNL A   1      42.377  32.578  30.530  1.00  0.00     0.031 C 
ATOM     57  C   UNL A   1      44.456  31.794  29.433  1.00  0.00     0.034 A 
BRANCH  44  58
ATOM     58  C   UNL A   1      46.629  27.378  25.646  1.00  0.00     0.023 A 
ATOM     59  C   UNL A   1      47.012  27.884  24.394  1.00  0.00     0.031 A 
ATOM     60  C   UNL A   1      47.336  26.268  26.149  1.00  0.00     0.131 A 
ATOM     61  C   UNL A   1      48.014  27.232  23.655  1.00  0.00     0.055 A 
ATOM     62  C   UNL A   1      48.388  25.678  25.448  1.00  0.00     0.041 A 
ATOM     63  F   UNL A   1      47.004  25.724  27.332  1.00  0.00    -0.206 F 
ATOM     64  C   UNL A   1      48.722  26.149  24.183  1.00  0.00     0.022 A 
BRANCH  61  65
ATOM     65  S   UNL A   1      48.278  27.719  21.927  1.00  0.00     0.124 S 
ATOM     66  O   UNL A   1      47.035  28.426  21.628  1.00  0.00    -0.237 OA
ATOM     67  O   UNL A   1      49.477  28.545  22.011  1.00  0.00    -0.237 OA
ATOM     68  O   UNL A   1      48.444  26.445  21.231  1.00  0.00    -0.744 OA
ENDBRANCH  61  65
ENDBRANCH  44  58
BRANCH  45  69
ATOM     69  C   UNL A   1      38.671  30.589  30.761  1.00  0.00     0.023 A 
ATOM     70  C   UNL A   1      37.737  31.453  30.160  1.00  0.00     0.031 A 
ATOM     71  C   UNL A   1      38.478  30.272  32.119  1.00  0.00     0.131 A 
ATOM     72  C   UNL A   1      36.679  31.982  30.920  1.00  0.00     0.055 A 
ATOM     73  C   UNL A   1      37.378  30.731  32.843  1.00  0.00     0.041 A 
ATOM     74  F   UNL A   1      39.356  29.490  32.768  1.00  0.00    -0.206 F 
ATOM     75  C   UNL A   1      36.476  31.602  32.247  1.00  0.00     0.022 A 
BRANCH  72  76
ATOM     76  S   UNL A   1      35.627  33.266  30.184  1.00  0.00     0.124 S 
ATOM     77  O   UNL A   1      34.459  32.493  29.776  1.00  0.00    -0.237 OA
ATOM     78  O   UNL A   1      35.433  34.181  31.303  1.00  0.00    -0.237 OA
ATOM     79  O   UNL A   1      36.444  33.787  29.089  1.00  0.00    -0.744 OA
ENDBRANCH  72  76
ENDBRANCH  45  69
BRANCH  57  80
ATOM     80  C   UNL A   1      45.142  33.013  29.999  1.00  0.00     0.023 A 
ATOM     81  C   UNL A   1      45.187  34.226  29.288  1.00  0.00     0.031 A 
ATOM     82  C   UNL A   1      45.799  32.948  31.240  1.00  0.00     0.131 A 
ATOM     83  C   UNL A   1      45.932  35.304  29.791  1.00  0.00     0.055 A 
ATOM     84  C   UNL A   1      46.488  34.043  31.763  1.00  0.00     0.041 A 
ATOM     85  F   UNL A   1      45.791  31.814  31.959  1.00  0.00    -0.206 F 
ATOM     86  C   UNL A   1      46.570  35.225  31.031  1.00  0.00     0.022 A 
BRANCH  83  87
ATOM     87  S   UNL A   1      46.149  36.775  28.750  1.00  0.00     0.124 S 
ATOM     88  O   UNL A   1      47.279  36.391  27.911  1.00  0.00    -0.237 OA
ATOM     89  O   UNL A   1      44.857  36.874  28.077  1.00  0.00    -0.237 OA
ATOM     90  O   UNL A   1      46.427  37.839  29.714  1.00  0.00    -0.744 OA
ENDBRANCH  83  87
ENDBRANCH  57  80
ENDBRANCH  31  32
ENDBRANCH  24  26
ENDBRANCH  23  24
ENDBRANCH  22  23
ENDBRANCH   1  22
TORSDOF 17
ENDMDL
MODEL 3
REMARK VINA RESULT:     -11.4      1.632      2.633
REMARK SMILES CCCNC(=O)N1[C@@H](C(=O)OCCOC(=O)c2ccc(-c3c4nc(c(-c5cc(S(=O)(=O)[O-])ccc5F)c5ccc([nH]5)c(-c5cc(S(=O)(=O)[O-])ccc5F)c5nc(c(-c6cc(S(=O)(=O)[O-])ccc6F)c6ccc3[nH]6)C=C5)C=C4)cc2)CC[C@H]2CCCC[C@@H]21
REMARK SMILES IDX 12 1 11 2 9 3 10 4 8 5 7 6 87 7 80 8 82 9 86 10 81 11 83 12
REMARK SMILES IDX 85 13 84 14 5 15 4 16 6 18 3 19 2 20 1 21 13 22 14 23 15 24
REMARK SMILES IDX 16 25 17 26 18 27 79 28 19 29 78 30 20 31 21 32 22 33 72 34
REMARK SMILES IDX 23 35 77 36 71 37 73 38 24 39 76 40 70 41 69 42 25 44 57 45
REMARK SMILES IDX 37 46 56 47 38 48 41 49 55 50 74 51 39 52 40 53 54 55 75 56
REMARK SMILES IDX 42 57 26 58 27 59 35 60 28 61 34 62 36 63 33 64 29 65 30 66
REMARK SMILES IDX 31 67 32 68 58 69 59 70 67 71 60 72 66 73 68 74 65 75 61 76
REMARK SMILES IDX 62 77 63 78 64 79 43 80 44 81 52 82 45 83 51 84 53 85 50 86
REMARK SMILES IDX 46 87 47 88 48 89 49 90
REMARK H PARENT 4 17 73 43 41 54
REMARK Flexibility Score: inf
ROOT
ATOM      1  C   UNL A   1      34.426  21.988  24.225  1.00  0.00     0.274 C 
ENDROOT
BRANCH   1   2
ATOM      2  O   UNL A   1      33.783  23.273  24.067  1.00  0.00    -0.461 OA
BRANCH   2   3
ATOM      3  C   UNL A   1      33.356  23.606  22.809  1.00  0.00     0.329 C 
ATOM      4  O   UNL A   1      33.941  23.310  21.772  1.00  0.00    -0.250 OA
BRANCH   3   5
ATOM      5  C   UNL A   1      32.024  24.409  22.882  1.00  0.00     0.197 C 
ATOM      6  N   UNL A   1      32.197  25.770  23.395  1.00  0.00    -0.308 N 
ATOM      7  C   UNL A   1      31.013  26.619  23.498  1.00  0.00     0.091 C 
ATOM      8  C   UNL A   1      31.067  23.656  23.837  1.00  0.00     0.038 C 
ATOM      9  C   UNL A   1      29.739  25.782  23.688  1.00  0.00     0.012 C 
ATOM     10  C   UNL A   1      30.773  27.579  22.320  1.00  0.00     0.025 C 
ATOM     11  C   UNL A   1      30.058  24.573  24.562  1.00  0.00     0.008 C 
ATOM     12  C   UNL A   1      28.646  26.711  24.211  1.00  0.00     0.006 C 
ATOM     13  C   UNL A   1      29.622  28.531  22.671  1.00  0.00     0.002 C 
ATOM     14  C   UNL A   1      28.363  27.812  23.177  1.00  0.00     0.000 C 
BRANCH   6  15
ATOM     15  C   UNL A   1      33.390  26.370  23.152  1.00  0.00     0.318 C 
ATOM     16  N   UNL A   1      34.200  26.594  24.211  1.00  0.00    -0.338 N 
ATOM     17  H   UNL A   1      35.087  26.951  23.972  1.00  0.00     0.165 HD
ATOM     18  O   UNL A   1      33.752  26.576  22.000  1.00  0.00    -0.249 OA
BRANCH  16  19
ATOM     19  C   UNL A   1      34.001  26.403  25.635  1.00  0.00     0.117 C 
BRANCH  19  20
ATOM     20  C   UNL A   1      33.468  27.650  26.336  1.00  0.00     0.018 C 
ATOM     21  C   UNL A   1      31.989  27.576  26.683  1.00  0.00     0.006 C 
ENDBRANCH  19  20
ENDBRANCH  16  19
ENDBRANCH   6  15
ENDBRANCH   3   5
ENDBRANCH   2   3
ENDBRANCH   1   2
BRANCH   1  22
ATOM     22  C   UNL A   1      35.952  22.143  24.149  1.00  0.00     0.275 C 
BRANCH  22  23
ATOM     23  O   UNL A   1      36.518  21.837  25.435  1.00  0.00    -0.458 OA
BRANCH  23  24
ATOM     24  C   UNL A   1      37.856  21.588  25.480  1.00  0.00     0.338 C 
ATOM     25  O   UNL A   1      38.426  20.669  24.918  1.00  0.00    -0.246 OA
BRANCH  24  26
ATOM     26  C   UNL A   1      38.545  22.641  26.290  1.00  0.00     0.060 A 
ATOM     27  C   UNL A   1      38.050  23.936  26.313  1.00  0.00     0.016 A 
ATOM     28  C   UNL A   1      39.761  22.394  26.939  1.00  0.00     0.016 A 
ATOM     29  C   UNL A   1      38.853  24.977  26.779  1.00  0.00     0.010 A 
ATOM     30  C   UNL A   1      40.494  23.451  27.535  1.00  0.00     0.010 A 
ATOM     31  C   UNL A   1      40.088  24.789  27.402  1.00  0.00    -0.014 A 
BRANCH  31  32
ATOM     32  C   UNL A   1      40.931  25.998  27.768  1.00  0.00     0.031 A 
ATOM     33  C   UNL A   1      40.430  27.009  28.779  1.00  0.00     0.074 A 
ATOM     34  C   UNL A   1      42.204  26.169  27.327  1.00  0.00     0.049 A 
ATOM     35  N   UNL A   1      40.852  28.230  29.004  1.00  0.00    -0.248 NA
ATOM     36  C   UNL A   1      39.294  26.614  29.623  1.00  0.00     0.031 C 
ATOM     37  C   UNL A   1      42.926  25.275  26.419  1.00  0.00     0.029 A 
ATOM     38  N   UNL A   1      43.155  27.124  27.632  1.00  0.00    -0.354 N 
ATOM     39  C   UNL A   1      39.947  28.792  29.901  1.00  0.00     0.074 A 
ATOM     40  C   UNL A   1      38.984  27.758  30.216  1.00  0.00     0.031 C 
ATOM     41  C   UNL A   1      44.224  25.608  26.394  1.00  0.00     0.029 A 
ATOM     42  C   UNL A   1      44.398  26.877  27.083  1.00  0.00     0.049 A 
ATOM     43  H   UNL A   1      42.963  27.911  28.190  1.00  0.00     0.167 HD
ATOM     44  C   UNL A   1      39.912  30.064  30.379  1.00  0.00     0.034 A 
ATOM     45  C   UNL A   1      45.534  27.609  27.048  1.00  0.00     0.034 A 
ATOM     46  C   UNL A   1      40.952  31.041  30.147  1.00  0.00     0.049 A 
ATOM     47  C   UNL A   1      45.488  29.016  27.590  1.00  0.00     0.074 A 
ATOM     48  C   UNL A   1      40.994  32.372  30.528  1.00  0.00     0.029 A 
ATOM     49  N   UNL A   1      42.161  30.778  29.513  1.00  0.00    -0.354 N 
ATOM     50  N   UNL A   1      44.512  29.627  28.220  1.00  0.00    -0.248 NA
ATOM     51  C   UNL A   1      46.670  29.853  27.352  1.00  0.00     0.031 C 
ATOM     52  C   UNL A   1      42.204  32.924  30.084  1.00  0.00     0.029 A 
ATOM     53  C   UNL A   1      42.949  31.921  29.488  1.00  0.00     0.049 A 
ATOM     54  H   UNL A   1      42.421  29.907  29.137  1.00  0.00     0.167 HD
ATOM     55  C   UNL A   1      44.953  30.931  28.422  1.00  0.00     0.074 A 
ATOM     56  C   UNL A   1      46.307  30.997  27.910  1.00  0.00     0.031 C 
ATOM     57  C   UNL A   1      44.287  31.988  28.950  1.00  0.00     0.034 A 
BRANCH  44  58
ATOM     58  C   UNL A   1      38.648  30.502  31.085  1.00  0.00     0.023 A 
ATOM     59  C   UNL A   1      37.562  31.094  30.421  1.00  0.00     0.031 A 
ATOM     60  C   UNL A   1      38.566  30.364  32.485  1.00  0.00     0.131 A 
ATOM     61  C   UNL A   1      36.480  31.595  31.166  1.00  0.00     0.055 A 
ATOM     62  C   UNL A   1      37.451  30.787  33.208  1.00  0.00     0.041 A 
ATOM     63  F   UNL A   1      39.582  29.826  33.180  1.00  0.00    -0.206 F 
ATOM     64  C   UNL A   1      36.405  31.424  32.551  1.00  0.00     0.022 A 
BRANCH  61  65
ATOM     65  S   UNL A   1      35.241  32.616  30.320  1.00  0.00     0.124 S 
ATOM     66  O   UNL A   1      34.877  31.762  29.191  1.00  0.00    -0.237 OA
ATOM     67  O   UNL A   1      34.219  32.787  31.346  1.00  0.00    -0.237 OA
ATOM     68  O   UNL A   1      35.976  33.827  29.963  1.00  0.00    -0.744 OA
ENDBRANCH  61  65
ENDBRANCH  44  58
BRANCH  45  69
ATOM     69  C   UNL A   1      46.767  27.110  26.353  1.00  0.00     0.023 A 
ATOM     70  C   UNL A   1      47.107  27.559  25.064  1.00  0.00     0.031 A 
ATOM     71  C   UNL A   1      47.591  26.128  26.934  1.00  0.00     0.131 A 
ATOM     72  C   UNL A   1      48.218  27.009  24.399  1.00  0.00     0.055 A 
ATOM     73  C   UNL A   1      48.741  25.651  26.305  1.00  0.00     0.041 A 
ATOM     74  F   UNL A   1      47.300  25.621  28.144  1.00  0.00    -0.206 F 
ATOM     75  C   UNL A   1      49.054  26.083  25.023  1.00  0.00     0.022 A 
BRANCH  72  76
ATOM     76  S   UNL A   1      48.497  27.440  22.657  1.00  0.00     0.124 S 
ATOM     77  O   UNL A   1      47.293  28.203  22.344  1.00  0.00    -0.237 OA
ATOM     78  O   UNL A   1      49.740  28.201  22.727  1.00  0.00    -0.237 OA
ATOM     79  O   UNL A   1      48.601  26.139  21.998  1.00  0.00    -0.744 OA
ENDBRANCH  72  76
ENDBRANCH  45  69
BRANCH  57  80
ATOM     80  C   UNL A   1      45.033  33.299  29.004  1.00  0.00     0.023 A 
ATOM     81  C   UNL A   1      45.289  34.045  27.839  1.00  0.00     0.031 A 
ATOM     82  C   UNL A   1      45.537  33.781  30.224  1.00  0.00     0.131 A 
ATOM     83  C   UNL A   1      46.086  35.198  27.909  1.00  0.00     0.055 A 
ATOM     84  C   UNL A   1      46.278  34.962  30.295  1.00  0.00     0.041 A 
ATOM     85  F   UNL A   1      45.326  33.107  31.365  1.00  0.00    -0.206 F 
ATOM     86  C   UNL A   1      46.570  35.669  29.131  1.00  0.00     0.022 A 
BRANCH  83  87
ATOM     87  S   UNL A   1      46.576  36.013  26.363  1.00  0.00     0.124 S 
ATOM     88  O   UNL A   1      45.858  35.229  25.363  1.00  0.00    -0.237 OA
ATOM     89  O   UNL A   1      46.100  37.379  26.566  1.00  0.00    -0.237 OA
ATOM     90  O   UNL A   1      48.030  35.862  26.342  1.00  0.00    -0.744 OA
ENDBRANCH  83  87
ENDBRANCH  57  80
ENDBRANCH  31  32
ENDBRANCH  24  26
ENDBRANCH  23  24
ENDBRANCH  22  23
ENDBRANCH   1  22
TORSDOF 17
ENDMDL
