MODEL 1
REMARK VINA RESULT:     -12.7      0.000      0.000
REMARK SMILES Cc1cccc(-c2cc(C(=O)OCCOC(=O)c3ccc(-c4c5nc(c(-c6cc(S(=O)(=O)[O-])ccc6F)c6ccc([nH]6)c(-c6cc(S(=O)(=O)[O-])ccc6F)c6nc(c(-c7cc(S(=O)(=O)[O-])ccc7F)c7ccc4[nH]7)C=C6)C=C5)cc3)ccn2)c1
REMARK SMILES IDX 14 1 13 2 12 3 10 4 11 5 9 6 7 7 8 8 83 9 82 10 81 11 6 12
REMARK SMILES IDX 1 13 2 14 3 15 84 16 4 17 5 18 15 19 16 20 17 21 18 22 19 23
REMARK SMILES IDX 80 24 20 25 79 26 21 27 22 28 23 29 73 30 24 31 78 32 72 33
REMARK SMILES IDX 74 34 25 35 77 36 71 37 70 38 26 40 58 41 38 42 57 43 39 44
REMARK SMILES IDX 42 45 56 46 75 47 40 48 41 49 55 51 76 52 43 53 27 54 28 55
REMARK SMILES IDX 36 56 29 57 35 58 37 59 34 60 30 61 31 62 32 63 33 64 59 65
REMARK SMILES IDX 60 66 68 67 61 68 67 69 69 70 66 71 62 72 63 73 64 74 65 75
REMARK SMILES IDX 44 76 45 77 53 78 46 79 52 80 54 81 51 82 47 83 48 84 49 85
REMARK SMILES IDX 50 86
REMARK H PARENT 74 39 42 50
REMARK Flexibility Score: inf
ROOT
ATOM      1  C   UNL A   1      34.080  31.431  27.825  1.00  0.00     0.275 C 
ENDROOT
BRANCH   1   2
ATOM      2  C   UNL A   1      32.793  30.866  27.180  1.00  0.00     0.275 C 
BRANCH   2   3
ATOM      3  O   UNL A   1      32.973  29.748  26.297  1.00  0.00    -0.458 OA
BRANCH   3   4
ATOM      4  C   UNL A   1      32.213  28.664  26.529  1.00  0.00     0.338 C 
ATOM      5  O   UNL A   1      32.088  28.053  27.580  1.00  0.00    -0.246 OA
BRANCH   4   6
ATOM      6  C   UNL A   1      31.425  28.382  25.326  1.00  0.00     0.063 A 
ATOM      7  C   UNL A   1      30.066  29.238  23.578  1.00  0.00     0.071 A 
ATOM      8  C   UNL A   1      31.011  29.463  24.568  1.00  0.00     0.044 A 
ATOM      9  N   UNL A   1      29.617  27.995  23.265  1.00  0.00    -0.256 NA
ATOM     10  C   UNL A   1      30.105  26.955  23.980  1.00  0.00     0.112 A 
ATOM     11  C   UNL A   1      30.968  27.102  25.046  1.00  0.00     0.036 A 
BRANCH   7  12
ATOM     12  C   UNL A   1      29.310  30.372  23.047  1.00  0.00     0.000 A 
ATOM     13  C   UNL A   1      27.824  31.624  19.763  1.00  0.00     0.044 C 
ATOM     14  C   UNL A   1      28.295  31.577  21.186  1.00  0.00    -0.050 A 
ATOM     15  C   UNL A   1      28.264  32.740  21.968  1.00  0.00     0.003 A 
ATOM     16  C   UNL A   1      28.821  30.396  21.734  1.00  0.00     0.013 A 
ATOM     17  C   UNL A   1      28.715  32.720  23.286  1.00  0.00     0.001 A 
ATOM     18  C   UNL A   1      29.223  31.540  23.821  1.00  0.00     0.010 A 
ENDBRANCH   7  12
ENDBRANCH   4   6
ENDBRANCH   3   4
ENDBRANCH   2   3
ENDBRANCH   1   2
BRANCH   1  19
ATOM     19  O   UNL A   1      35.263  30.604  27.809  1.00  0.00    -0.458 OA
BRANCH  19  20
ATOM     20  C   UNL A   1      36.043  30.581  28.924  1.00  0.00     0.338 C 
ATOM     21  O   UNL A   1      35.715  31.024  30.016  1.00  0.00    -0.246 OA
BRANCH  20  22
ATOM     22  C   UNL A   1      37.176  29.651  28.687  1.00  0.00     0.060 A 
ATOM     23  C   UNL A   1      37.997  29.831  27.563  1.00  0.00     0.016 A 
ATOM     24  C   UNL A   1      37.599  28.855  29.752  1.00  0.00     0.016 A 
ATOM     25  C   UNL A   1      39.302  29.334  27.572  1.00  0.00     0.010 A 
ATOM     26  C   UNL A   1      38.912  28.459  29.810  1.00  0.00     0.010 A 
ATOM     27  C   UNL A   1      39.764  28.690  28.723  1.00  0.00    -0.014 A 
BRANCH  27  28
ATOM     28  C   UNL A   1      40.996  27.913  28.770  1.00  0.00     0.031 A 
ATOM     29  C   UNL A   1      41.117  26.515  28.329  1.00  0.00     0.074 A 
ATOM     30  C   UNL A   1      42.048  28.612  29.248  1.00  0.00     0.049 A 
ATOM     31  N   UNL A   1      41.975  25.686  28.820  1.00  0.00    -0.248 NA
ATOM     32  C   UNL A   1      40.277  25.919  27.292  1.00  0.00     0.031 C 
ATOM     33  C   UNL A   1      43.452  28.260  29.320  1.00  0.00     0.029 A 
ATOM     34  N   UNL A   1      41.961  29.788  29.998  1.00  0.00    -0.354 N 
ATOM     35  C   UNL A   1      42.020  24.589  27.991  1.00  0.00     0.074 A 
ATOM     36  C   UNL A   1      40.882  24.736  27.110  1.00  0.00     0.031 C 
ATOM     37  C   UNL A   1      44.002  28.971  30.324  1.00  0.00     0.029 A 
ATOM     38  C   UNL A   1      42.914  29.677  30.998  1.00  0.00     0.049 A 
ATOM     39  H   UNL A   1      41.347  30.542  29.846  1.00  0.00     0.167 HD
ATOM     40  C   UNL A   1      43.110  23.768  28.024  1.00  0.00     0.034 A 
ATOM     41  C   UNL A   1      42.559  29.567  32.313  1.00  0.00     0.034 A 
ATOM     42  C   UNL A   1      44.081  24.229  29.010  1.00  0.00     0.049 A 
ATOM     43  C   UNL A   1      43.134  28.300  32.898  1.00  0.00     0.074 A 
ATOM     44  C   UNL A   1      45.201  25.035  28.886  1.00  0.00     0.029 A 
ATOM     45  N   UNL A   1      43.783  24.162  30.365  1.00  0.00    -0.354 N 
ATOM     46  N   UNL A   1      43.351  27.212  32.208  1.00  0.00    -0.248 NA
ATOM     47  C   UNL A   1      43.538  28.181  34.292  1.00  0.00     0.031 C 
ATOM     48  C   UNL A   1      45.508  25.548  30.171  1.00  0.00     0.029 A 
ATOM     49  C   UNL A   1      44.606  25.014  31.076  1.00  0.00     0.049 A 
ATOM     50  H   UNL A   1      43.087  23.590  30.762  1.00  0.00     0.167 HD
ATOM     51  C   UNL A   1      44.011  26.309  32.999  1.00  0.00     0.074 A 
ATOM     52  C   UNL A   1      44.073  26.949  34.304  1.00  0.00     0.031 C 
ATOM     53  C   UNL A   1      44.499  25.126  32.520  1.00  0.00     0.034 A 
BRANCH  40  54
ATOM     54  C   UNL A   1      43.458  22.773  26.942  1.00  0.00     0.023 A 
ATOM     55  C   UNL A   1      42.872  21.487  26.972  1.00  0.00     0.031 A 
ATOM     56  C   UNL A   1      44.359  23.008  25.888  1.00  0.00     0.131 A 
ATOM     57  C   UNL A   1      43.242  20.483  26.061  1.00  0.00     0.055 A 
ATOM     58  C   UNL A   1      44.750  21.999  24.993  1.00  0.00     0.041 A 
ATOM     59  F   UNL A   1      44.872  24.229  25.672  1.00  0.00    -0.206 F 
ATOM     60  C   UNL A   1      44.203  20.724  25.086  1.00  0.00     0.022 A 
BRANCH  57  61
ATOM     61  S   UNL A   1      42.455  18.851  26.184  1.00  0.00     0.124 S 
ATOM     62  O   UNL A   1      42.598  18.544  27.605  1.00  0.00    -0.237 OA
ATOM     63  O   UNL A   1      41.101  19.122  25.717  1.00  0.00    -0.237 OA
ATOM     64  O   UNL A   1      43.260  18.017  25.292  1.00  0.00    -0.744 OA
ENDBRANCH  57  61
ENDBRANCH  40  54
BRANCH  41  65
ATOM     65  C   UNL A   1      41.242  30.171  32.714  1.00  0.00     0.023 A 
ATOM     66  C   UNL A   1      41.049  31.562  32.538  1.00  0.00     0.031 A 
ATOM     67  C   UNL A   1      40.106  29.404  33.011  1.00  0.00     0.131 A 
ATOM     68  C   UNL A   1      39.759  32.116  32.523  1.00  0.00     0.055 A 
ATOM     69  C   UNL A   1      38.823  29.973  33.061  1.00  0.00     0.041 A 
ATOM     70  F   UNL A   1      40.196  28.077  33.177  1.00  0.00    -0.206 F 
ATOM     71  C   UNL A   1      38.640  31.328  32.785  1.00  0.00     0.022 A 
BRANCH  68  72
ATOM     72  S   UNL A   1      39.537  33.816  31.909  1.00  0.00     0.124 S 
ATOM     73  O   UNL A   1      40.721  33.996  31.078  1.00  0.00    -0.237 OA
ATOM     74  O   UNL A   1      38.263  33.735  31.200  1.00  0.00    -0.237 OA
ATOM     75  O   UNL A   1      39.496  34.609  33.135  1.00  0.00    -0.744 OA
ENDBRANCH  68  72
ENDBRANCH  41  65
BRANCH  53  76
ATOM     76  C   UNL A   1      45.055  24.016  33.372  1.00  0.00     0.023 A 
ATOM     77  C   UNL A   1      46.365  24.032  33.862  1.00  0.00     0.031 A 
ATOM     78  C   UNL A   1      44.242  22.940  33.803  1.00  0.00     0.131 A 
ATOM     79  C   UNL A   1      46.856  22.975  34.644  1.00  0.00     0.055 A 
ATOM     80  C   UNL A   1      44.704  21.939  34.659  1.00  0.00     0.041 A 
ATOM     81  F   UNL A   1      42.963  22.820  33.418  1.00  0.00    -0.206 F 
ATOM     82  C   UNL A   1      46.027  21.941  35.070  1.00  0.00     0.022 A 
BRANCH  79  83
ATOM     83  S   UNL A   1      48.626  22.949  35.014  1.00  0.00     0.124 S 
ATOM     84  O   UNL A   1      48.956  21.544  34.788  1.00  0.00    -0.237 OA
ATOM     85  O   UNL A   1      49.164  23.890  34.038  1.00  0.00    -0.237 OA
ATOM     86  O   UNL A   1      48.693  23.387  36.406  1.00  0.00    -0.744 OA
ENDBRANCH  79  83
ENDBRANCH  53  76
ENDBRANCH  27  28
ENDBRANCH  20  22
ENDBRANCH  19  20
ENDBRANCH   1  19
TORSDOF 15
ENDMDL
MODEL 2
REMARK VINA RESULT:     -12.7      2.276      4.044
REMARK SMILES Cc1cccc(-c2cc(C(=O)OCCOC(=O)c3ccc(-c4c5nc(c(-c6cc(S(=O)(=O)[O-])ccc6F)c6ccc([nH]6)c(-c6cc(S(=O)(=O)[O-])ccc6F)c6nc(c(-c7cc(S(=O)(=O)[O-])ccc7F)c7ccc4[nH]7)C=C6)C=C5)cc3)ccn2)c1
REMARK SMILES IDX 14 1 13 2 12 3 10 4 11 5 9 6 7 7 8 8 83 9 82 10 81 11 6 12
REMARK SMILES IDX 1 13 2 14 3 15 84 16 4 17 5 18 15 19 16 20 17 21 18 22 19 23
REMARK SMILES IDX 80 24 20 25 79 26 21 27 22 28 23 29 73 30 24 31 78 32 72 33
REMARK SMILES IDX 74 34 25 35 77 36 71 37 70 38 26 40 58 41 38 42 57 43 39 44
REMARK SMILES IDX 42 45 56 46 75 47 40 48 41 49 55 51 76 52 43 53 27 54 28 55
REMARK SMILES IDX 36 56 29 57 35 58 37 59 34 60 30 61 31 62 32 63 33 64 59 65
REMARK SMILES IDX 60 66 68 67 61 68 67 69 69 70 66 71 62 72 63 73 64 74 65 75
REMARK SMILES IDX 44 76 45 77 53 78 46 79 52 80 54 81 51 82 47 83 48 84 49 85
REMARK SMILES IDX 50 86
REMARK H PARENT 74 39 42 50
REMARK Flexibility Score: inf
ROOT
ATOM      1  C   UNL A   1      33.547  29.971  27.155  1.00  0.00     0.275 C 
ENDROOT
BRANCH   1   2
ATOM      2  C   UNL A   1      32.431  28.905  27.241  1.00  0.00     0.275 C 
BRANCH   2   3
ATOM      3  O   UNL A   1      31.950  28.396  25.988  1.00  0.00    -0.458 OA
BRANCH   3   4
ATOM      4  C   UNL A   1      32.810  27.658  25.265  1.00  0.00     0.338 C 
ATOM      5  O   UNL A   1      33.561  28.042  24.380  1.00  0.00    -0.246 OA
BRANCH   4   6
ATOM      6  C   UNL A   1      32.812  26.291  25.795  1.00  0.00     0.063 A 
ATOM      7  C   UNL A   1      33.977  24.235  26.022  1.00  0.00     0.071 A 
ATOM      8  C   UNL A   1      34.009  25.597  25.761  1.00  0.00     0.044 A 
ATOM      9  N   UNL A   1      32.845  23.591  26.405  1.00  0.00    -0.256 NA
ATOM     10  C   UNL A   1      31.711  24.322  26.501  1.00  0.00     0.112 A 
ATOM     11  C   UNL A   1      31.633  25.657  26.161  1.00  0.00     0.036 A 
BRANCH   7  12
ATOM     12  C   UNL A   1      35.105  23.405  25.602  1.00  0.00     0.000 A 
ATOM     13  C   UNL A   1      35.963  19.748  24.929  1.00  0.00     0.044 C 
ATOM     14  C   UNL A   1      36.101  21.224  25.153  1.00  0.00    -0.050 A 
ATOM     15  C   UNL A   1      37.376  21.799  25.236  1.00  0.00     0.003 A 
ATOM     16  C   UNL A   1      34.970  22.035  25.339  1.00  0.00     0.013 A 
ATOM     17  C   UNL A   1      37.524  23.166  25.463  1.00  0.00     0.001 A 
ATOM     18  C   UNL A   1      36.394  23.961  25.633  1.00  0.00     0.010 A 
ENDBRANCH   7  12
ENDBRANCH   4   6
ENDBRANCH   3   4
ENDBRANCH   2   3
ENDBRANCH   1   2
BRANCH   1  19
ATOM     19  O   UNL A   1      34.844  29.636  27.696  1.00  0.00    -0.458 OA
BRANCH  19  20
ATOM     20  C   UNL A   1      35.509  30.592  28.400  1.00  0.00     0.338 C 
ATOM     21  O   UNL A   1      34.983  31.550  28.949  1.00  0.00    -0.246 OA
BRANCH  20  22
ATOM     22  C   UNL A   1      36.884  30.102  28.675  1.00  0.00     0.060 A 
ATOM     23  C   UNL A   1      37.110  29.244  29.763  1.00  0.00     0.016 A 
ATOM     24  C   UNL A   1      37.832  30.221  27.658  1.00  0.00     0.016 A 
ATOM     25  C   UNL A   1      38.219  28.396  29.757  1.00  0.00     0.010 A 
ATOM     26  C   UNL A   1      38.862  29.315  27.596  1.00  0.00     0.010 A 
ATOM     27  C   UNL A   1      39.063  28.407  28.644  1.00  0.00    -0.014 A 
BRANCH  27  28
ATOM     28  C   UNL A   1      40.373  27.769  28.621  1.00  0.00     0.031 A 
ATOM     29  C   UNL A   1      40.612  26.370  28.232  1.00  0.00     0.074 A 
ATOM     30  C   UNL A   1      41.376  28.599  28.977  1.00  0.00     0.049 A 
ATOM     31  N   UNL A   1      41.592  25.664  28.684  1.00  0.00    -0.248 NA
ATOM     32  C   UNL A   1      39.762  25.635  27.297  1.00  0.00     0.031 C 
ATOM     33  C   UNL A   1      42.812  28.402  28.945  1.00  0.00     0.029 A 
ATOM     34  N   UNL A   1      41.220  29.797  29.680  1.00  0.00    -0.354 N 
ATOM     35  C   UNL A   1      41.691  24.536  27.903  1.00  0.00     0.074 A 
ATOM     36  C   UNL A   1      40.477  24.515  27.116  1.00  0.00     0.031 C 
ATOM     37  C   UNL A   1      43.358  29.219  29.868  1.00  0.00     0.029 A 
ATOM     38  C   UNL A   1      42.256  29.841  30.600  1.00  0.00     0.049 A 
ATOM     39  H   UNL A   1      40.517  30.473  29.548  1.00  0.00     0.167 HD
ATOM     40  C   UNL A   1      42.864  23.838  27.879  1.00  0.00     0.034 A 
ATOM     41  C   UNL A   1      42.021  29.762  31.944  1.00  0.00     0.034 A 
ATOM     42  C   UNL A   1      43.854  24.450  28.759  1.00  0.00     0.049 A 
ATOM     43  C   UNL A   1      42.775  28.595  32.533  1.00  0.00     0.074 A 
ATOM     44  C   UNL A   1      44.865  25.362  28.507  1.00  0.00     0.029 A 
ATOM     45  N   UNL A   1      43.673  24.423  30.136  1.00  0.00    -0.354 N 
ATOM     46  N   UNL A   1      43.055  27.502  31.875  1.00  0.00    -0.248 NA
ATOM     47  C   UNL A   1      43.299  28.593  33.892  1.00  0.00     0.031 C 
ATOM     48  C   UNL A   1      45.214  25.971  29.737  1.00  0.00     0.029 A 
ATOM     49  C   UNL A   1      44.451  25.393  30.738  1.00  0.00     0.049 A 
ATOM     50  H   UNL A   1      43.077  23.802  30.615  1.00  0.00     0.167 HD
ATOM     51  C   UNL A   1      43.871  26.716  32.646  1.00  0.00     0.074 A 
ATOM     52  C   UNL A   1      43.966  27.427  33.912  1.00  0.00     0.031 C 
ATOM     53  C   UNL A   1      44.447  25.569  32.179  1.00  0.00     0.034 A 
BRANCH  40  54
ATOM     54  C   UNL A   1      43.233  22.830  26.817  1.00  0.00     0.023 A 
ATOM     55  C   UNL A   1      42.716  21.517  26.901  1.00  0.00     0.031 A 
ATOM     56  C   UNL A   1      44.088  23.080  25.729  1.00  0.00     0.131 A 
ATOM     57  C   UNL A   1      43.113  20.506  26.009  1.00  0.00     0.055 A 
ATOM     58  C   UNL A   1      44.506  22.066  24.851  1.00  0.00     0.041 A 
ATOM     59  F   UNL A   1      44.529  24.318  25.462  1.00  0.00    -0.206 F 
ATOM     60  C   UNL A   1      44.031  20.767  24.998  1.00  0.00     0.022 A 
BRANCH  57  61
ATOM     61  S   UNL A   1      42.418  18.839  26.203  1.00  0.00     0.124 S 
ATOM     62  O   UNL A   1      42.604  18.590  27.629  1.00  0.00    -0.237 OA
ATOM     63  O   UNL A   1      41.041  19.022  25.756  1.00  0.00    -0.237 OA
ATOM     64  O   UNL A   1      43.248  18.020  25.322  1.00  0.00    -0.744 OA
ENDBRANCH  57  61
ENDBRANCH  40  54
BRANCH  41  65
ATOM     65  C   UNL A   1      40.681  30.243  32.428  1.00  0.00     0.023 A 
ATOM     66  C   UNL A   1      40.284  31.568  32.126  1.00  0.00     0.031 A 
ATOM     67  C   UNL A   1      39.696  29.385  32.937  1.00  0.00     0.131 A 
ATOM     68  C   UNL A   1      38.935  31.952  32.201  1.00  0.00     0.055 A 
ATOM     69  C   UNL A   1      38.359  29.792  33.074  1.00  0.00     0.041 A 
ATOM     70  F   UNL A   1      39.983  28.109  33.234  1.00  0.00    -0.206 F 
ATOM     71  C   UNL A   1      37.967  31.069  32.676  1.00  0.00     0.022 A 
BRANCH  68  72
ATOM     72  S   UNL A   1      38.422  33.523  31.437  1.00  0.00     0.124 S 
ATOM     73  O   UNL A   1      36.968  33.427  31.493  1.00  0.00    -0.237 OA
ATOM     74  O   UNL A   1      39.033  34.518  32.313  1.00  0.00    -0.237 OA
ATOM     75  O   UNL A   1      39.011  33.450  30.102  1.00  0.00    -0.744 OA
ENDBRANCH  68  72
ENDBRANCH  41  65
BRANCH  53  76
ATOM     76  C   UNL A   1      45.187  24.570  33.029  1.00  0.00     0.023 A 
ATOM     77  C   UNL A   1      46.475  24.811  33.518  1.00  0.00     0.031 A 
ATOM     78  C   UNL A   1      44.573  23.369  33.458  1.00  0.00     0.131 A 
ATOM     79  C   UNL A   1      47.142  23.854  34.297  1.00  0.00     0.055 A 
ATOM     80  C   UNL A   1      45.202  22.461  34.311  1.00  0.00     0.041 A 
ATOM     81  F   UNL A   1      43.333  23.030  33.073  1.00  0.00    -0.206 F 
ATOM     82  C   UNL A   1      46.505  22.691  34.722  1.00  0.00     0.022 A 
BRANCH  79  83
ATOM     83  S   UNL A   1      48.890  24.133  34.667  1.00  0.00     0.124 S 
ATOM     84  O   UNL A   1      49.242  22.909  35.383  1.00  0.00    -0.237 OA
ATOM     85  O   UNL A   1      49.473  24.276  33.337  1.00  0.00    -0.237 OA
ATOM     86  O   UNL A   1      48.881  25.348  35.478  1.00  0.00    -0.744 OA
ENDBRANCH  79  83
ENDBRANCH  53  76
ENDBRANCH  27  28
ENDBRANCH  20  22
ENDBRANCH  19  20
ENDBRANCH   1  19
TORSDOF 15
ENDMDL
MODEL 3
REMARK VINA RESULT:     -12.6      5.223     11.309
REMARK SMILES Cc1cccc(-c2cc(C(=O)OCCOC(=O)c3ccc(-c4c5nc(c(-c6cc(S(=O)(=O)[O-])ccc6F)c6ccc([nH]6)c(-c6cc(S(=O)(=O)[O-])ccc6F)c6nc(c(-c7cc(S(=O)(=O)[O-])ccc7F)c7ccc4[nH]7)C=C6)C=C5)cc3)ccn2)c1
REMARK SMILES IDX 14 1 13 2 12 3 10 4 11 5 9 6 7 7 8 8 83 9 82 10 81 11 6 12
REMARK SMILES IDX 1 13 2 14 3 15 84 16 4 17 5 18 15 19 16 20 17 21 18 22 19 23
REMARK SMILES IDX 80 24 20 25 79 26 21 27 22 28 23 29 73 30 24 31 78 32 72 33
REMARK SMILES IDX 74 34 25 35 77 36 71 37 70 38 26 40 58 41 38 42 57 43 39 44
REMARK SMILES IDX 42 45 56 46 75 47 40 48 41 49 55 51 76 52 43 53 27 54 28 55
REMARK SMILES IDX 36 56 29 57 35 58 37 59 34 60 30 61 31 62 32 63 33 64 59 65
REMARK SMILES IDX 60 66 68 67 61 68 67 69 69 70 66 71 62 72 63 73 64 74 65 75
REMARK SMILES IDX 44 76 45 77 53 78 46 79 52 80 54 81 51 82 47 83 48 84 49 85
REMARK SMILES IDX 50 86
REMARK H PARENT 74 39 42 50
REMARK Flexibility Score: inf
ROOT
ATOM      1  C   UNL A   1      37.369  23.162  25.697  1.00  0.00     0.275 C 
ENDROOT
BRANCH   1   2
ATOM      2  C   UNL A   1      35.952  23.661  26.064  1.00  0.00     0.275 C 
BRANCH   2   3
ATOM      3  O   UNL A   1      35.276  24.426  25.055  1.00  0.00    -0.458 OA
BRANCH   3   4
ATOM      4  C   UNL A   1      34.725  23.738  24.041  1.00  0.00     0.338 C 
ATOM      5  O   UNL A   1      35.036  23.774  22.859  1.00  0.00    -0.246 OA
BRANCH   4   6
ATOM      6  C   UNL A   1      33.739  22.805  24.593  1.00  0.00     0.063 A 
ATOM      7  C   UNL A   1      33.005  20.555  24.792  1.00  0.00     0.071 A 
ATOM      8  C   UNL A   1      34.024  21.453  24.507  1.00  0.00     0.044 A 
ATOM      9  N   UNL A   1      31.789  20.951  25.246  1.00  0.00    -0.256 NA
ATOM     10  C   UNL A   1      31.576  22.279  25.390  1.00  0.00     0.112 A 
ATOM     11  C   UNL A   1      32.497  23.242  25.032  1.00  0.00     0.036 A 
BRANCH   7  12
ATOM     12  C   UNL A   1      33.126  19.174  24.326  1.00  0.00     0.000 A 
ATOM     13  C   UNL A   1      35.151  16.015  25.015  1.00  0.00     0.044 C 
ATOM     14  C   UNL A   1      34.219  16.994  24.368  1.00  0.00    -0.050 A 
ATOM     15  C   UNL A   1      33.645  16.692  23.126  1.00  0.00     0.003 A 
ATOM     16  C   UNL A   1      33.956  18.240  24.961  1.00  0.00     0.013 A 
ATOM     17  C   UNL A   1      32.791  17.599  22.500  1.00  0.00     0.001 A 
ATOM     18  C   UNL A   1      32.528  18.824  23.105  1.00  0.00     0.010 A 
ENDBRANCH   7  12
ENDBRANCH   4   6
ENDBRANCH   3   4
ENDBRANCH   2   3
ENDBRANCH   1   2
BRANCH   1  19
ATOM     19  O   UNL A   1      38.465  24.096  25.809  1.00  0.00    -0.458 OA
BRANCH  19  20
ATOM     20  C   UNL A   1      39.460  23.813  26.693  1.00  0.00     0.338 C 
ATOM     21  O   UNL A   1      40.133  22.792  26.685  1.00  0.00    -0.246 OA
BRANCH  20  22
ATOM     22  C   UNL A   1      39.809  25.058  27.423  1.00  0.00     0.060 A 
ATOM     23  C   UNL A   1      40.269  26.175  26.708  1.00  0.00     0.016 A 
ATOM     24  C   UNL A   1      39.346  25.198  28.731  1.00  0.00     0.016 A 
ATOM     25  C   UNL A   1      40.126  27.453  27.251  1.00  0.00     0.010 A 
ATOM     26  C   UNL A   1      39.105  26.457  29.224  1.00  0.00     0.010 A 
ATOM     27  C   UNL A   1      39.498  27.585  28.492  1.00  0.00    -0.014 A 
BRANCH  27  28
ATOM     28  C   UNL A   1      39.514  28.813  29.276  1.00  0.00     0.031 A 
ATOM     29  C   UNL A   1      38.485  29.862  29.201  1.00  0.00     0.074 A 
ATOM     30  C   UNL A   1      40.571  28.898  30.111  1.00  0.00     0.049 A 
ATOM     31  N   UNL A   1      38.719  31.107  29.445  1.00  0.00    -0.248 NA
ATOM     32  C   UNL A   1      37.093  29.604  28.840  1.00  0.00     0.031 C 
ATOM     33  C   UNL A   1      40.873  29.870  31.143  1.00  0.00     0.029 A 
ATOM     34  N   UNL A   1      41.747  28.151  30.003  1.00  0.00    -0.354 N 
ATOM     35  C   UNL A   1      37.507  31.744  29.579  1.00  0.00     0.074 A 
ATOM     36  C   UNL A   1      36.527  30.792  29.101  1.00  0.00     0.031 C 
ATOM     37  C   UNL A   1      42.211  29.886  31.311  1.00  0.00     0.029 A 
ATOM     38  C   UNL A   1      42.786  29.026  30.279  1.00  0.00     0.049 A 
ATOM     39  H   UNL A   1      41.822  27.196  29.776  1.00  0.00     0.167 HD
ATOM     40  C   UNL A   1      37.446  32.937  30.239  1.00  0.00     0.034 A 
ATOM     41  C   UNL A   1      43.684  29.393  29.317  1.00  0.00     0.034 A 
ATOM     42  C   UNL A   1      38.769  33.349  30.695  1.00  0.00     0.049 A 
ATOM     43  C   UNL A   1      43.687  30.894  29.158  1.00  0.00     0.074 A 
ATOM     44  C   UNL A   1      39.415  33.177  31.908  1.00  0.00     0.029 A 
ATOM     45  N   UNL A   1      39.739  33.721  29.773  1.00  0.00    -0.354 N 
ATOM     46  N   UNL A   1      42.643  31.651  29.370  1.00  0.00    -0.248 NA
ATOM     47  C   UNL A   1      44.875  31.650  28.785  1.00  0.00     0.031 C 
ATOM     48  C   UNL A   1      40.805  33.336  31.683  1.00  0.00     0.029 A 
ATOM     49  C   UNL A   1      40.993  33.653  30.348  1.00  0.00     0.049 A 
ATOM     50  H   UNL A   1      39.559  33.994  28.844  1.00  0.00     0.167 HD
ATOM     51  C   UNL A   1      43.023  32.964  29.283  1.00  0.00     0.074 A 
ATOM     52  C   UNL A   1      44.420  32.911  28.881  1.00  0.00     0.031 C 
ATOM     53  C   UNL A   1      42.184  33.997  29.592  1.00  0.00     0.034 A 
BRANCH  40  54
ATOM     54  C   UNL A   1      36.173  33.548  30.775  1.00  0.00     0.023 A 
ATOM     55  C   UNL A   1      35.293  34.203  29.884  1.00  0.00     0.031 A 
ATOM     56  C   UNL A   1      35.782  33.544  32.125  1.00  0.00     0.131 A 
ATOM     57  C   UNL A   1      34.153  34.887  30.338  1.00  0.00     0.055 A 
ATOM     58  C   UNL A   1      34.658  34.249  32.586  1.00  0.00     0.041 A 
ATOM     59  F   UNL A   1      36.459  32.838  33.043  1.00  0.00    -0.206 F 
ATOM     60  C   UNL A   1      33.845  34.939  31.693  1.00  0.00     0.022 A 
BRANCH  57  61
ATOM     61  S   UNL A   1      33.088  35.723  29.127  1.00  0.00     0.124 S 
ATOM     62  O   UNL A   1      32.530  34.601  28.378  1.00  0.00    -0.237 OA
ATOM     63  O   UNL A   1      32.157  36.452  29.982  1.00  0.00    -0.237 OA
ATOM     64  O   UNL A   1      34.020  36.561  28.375  1.00  0.00    -0.744 OA
ENDBRANCH  57  61
ENDBRANCH  40  54
BRANCH  41  65
ATOM     65  C   UNL A   1      43.918  28.417  28.198  1.00  0.00     0.023 A 
ATOM     66  C   UNL A   1      44.325  27.099  28.517  1.00  0.00     0.031 A 
ATOM     67  C   UNL A   1      43.511  28.653  26.877  1.00  0.00     0.131 A 
ATOM     68  C   UNL A   1      44.188  26.055  27.588  1.00  0.00     0.055 A 
ATOM     69  C   UNL A   1      43.439  27.619  25.928  1.00  0.00     0.041 A 
ATOM     70  F   UNL A   1      43.095  29.868  26.492  1.00  0.00    -0.206 F 
ATOM     71  C   UNL A   1      43.748  26.308  26.290  1.00  0.00     0.022 A 
BRANCH  68  72
ATOM     72  S   UNL A   1      44.349  24.335  28.163  1.00  0.00     0.124 S 
ATOM     73  O   UNL A   1      42.983  24.020  28.563  1.00  0.00    -0.237 OA
ATOM     74  O   UNL A   1      44.843  23.646  26.975  1.00  0.00    -0.237 OA
ATOM     75  O   UNL A   1      45.320  24.438  29.249  1.00  0.00    -0.744 OA
ENDBRANCH  68  72
ENDBRANCH  41  65
BRANCH  53  76
ATOM     76  C   UNL A   1      42.476  35.452  29.331  1.00  0.00     0.023 A 
ATOM     77  C   UNL A   1      43.338  36.199  30.142  1.00  0.00     0.031 A 
ATOM     78  C   UNL A   1      41.966  36.113  28.188  1.00  0.00     0.131 A 
ATOM     79  C   UNL A   1      43.579  37.556  29.879  1.00  0.00     0.055 A 
ATOM     80  C   UNL A   1      42.283  37.435  27.876  1.00  0.00     0.041 A 
ATOM     81  F   UNL A   1      41.143  35.501  27.324  1.00  0.00    -0.206 F 
ATOM     82  C   UNL A   1      43.080  38.174  28.736  1.00  0.00     0.022 A 
BRANCH  79  83
ATOM     83  S   UNL A   1      44.491  38.507  31.117  1.00  0.00     0.124 S 
ATOM     84  O   UNL A   1      45.829  37.932  31.007  1.00  0.00    -0.237 OA
ATOM     85  O   UNL A   1      44.348  39.875  30.629  1.00  0.00    -0.237 OA
ATOM     86  O   UNL A   1      43.788  38.212  32.364  1.00  0.00    -0.744 OA
ENDBRANCH  79  83
ENDBRANCH  53  76
ENDBRANCH  27  28
ENDBRANCH  20  22
ENDBRANCH  19  20
ENDBRANCH   1  19
TORSDOF 15
ENDMDL
