MODEL 1
REMARK VINA RESULT:     -10.6      0.000      0.000
REMARK SMILES O=C(CCC(=O)OCCOC(=O)c1ccc(-c2c3nc(c(-c4cc(S(=O)(=O)[O-])ccc4F)c4ccc([nH]4)c(-c4cc(S(=O)(=O)[O-])ccc4F)c4nc(c(-c5cc(S(=O)(=O)[O-])ccc5F)c5ccc2[nH]5)C=C4)C=C3)cc1)Nc1cccc2c1C(=O)c1ccccc1C2=O
REMARK SMILES IDX 8 1 7 2 5 3 6 4 4 5 3 6 2 7 1 8 76 9 77 11 78 12 82 13 79 14
REMARK SMILES IDX 81 15 83 16 80 17 91 18 84 19 85 20 90 21 92 22 86 23 89 24
REMARK SMILES IDX 87 25 88 26 9 27 10 28 11 29 12 30 13 31 14 32 75 33 15 34
REMARK SMILES IDX 74 35 16 36 17 37 18 38 68 39 19 40 73 41 67 42 69 43 20 44
REMARK SMILES IDX 72 45 66 46 65 47 21 49 53 50 33 51 52 52 34 53 37 54 51 55
REMARK SMILES IDX 70 56 35 57 36 58 50 60 71 61 38 62 22 63 23 64 31 65 24 66
REMARK SMILES IDX 30 67 32 68 29 69 25 70 26 71 27 72 28 73 54 74 55 75 63 76
REMARK SMILES IDX 56 77 62 78 64 79 61 80 57 81 58 82 59 83 60 84 39 85 40 86
REMARK SMILES IDX 48 87 41 88 47 89 49 90 46 91 42 92 43 93 44 94 45 95
REMARK H PARENT 76 10 69 48 37 59
REMARK Flexibility Score: inf
ROOT
ATOM      1  C   UNL A   1      41.310  19.600  26.395  1.00  0.00     0.274 C 
ENDROOT
BRANCH   1   2
ATOM      2  O   UNL A   1      42.133  19.007  25.362  1.00  0.00    -0.462 OA
BRANCH   2   3
ATOM      3  C   UNL A   1      43.263  18.368  25.770  1.00  0.00     0.306 C 
ATOM      4  O   UNL A   1      43.370  17.762  26.828  1.00  0.00    -0.252 OA
BRANCH   3   5
ATOM      5  C   UNL A   1      44.434  18.621  24.836  1.00  0.00     0.132 C 
BRANCH   5   6
ATOM      6  C   UNL A   1      44.618  20.071  24.401  1.00  0.00     0.112 C 
BRANCH   6   7
ATOM      7  C   UNL A   1      45.434  21.003  25.304  1.00  0.00     0.224 C 
ATOM      8  O   UNL A   1      46.624  21.198  25.063  1.00  0.00    -0.275 OA
ATOM      9  N   UNL A   1      44.681  21.743  26.199  1.00  0.00    -0.325 N 
ATOM     10  H   UNL A   1      43.955  21.292  26.688  1.00  0.00     0.169 HD
BRANCH   9  11
ATOM     11  C   UNL A   1      44.908  23.123  26.444  1.00  0.00     0.053 A 
ATOM     12  C   UNL A   1      44.944  23.902  25.279  1.00  0.00     0.027 A 
ATOM     13  C   UNL A   1      45.472  23.644  27.611  1.00  0.00     0.057 A 
ATOM     14  C   UNL A   1      45.798  24.999  25.195  1.00  0.00     0.003 A 
ATOM     15  C   UNL A   1      46.429  24.646  27.485  1.00  0.00     0.036 A 
ATOM     16  C   UNL A   1      44.746  23.567  28.916  1.00  0.00     0.196 C 
ATOM     17  C   UNL A   1      46.621  25.309  26.272  1.00  0.00     0.013 A 
ATOM     18  C   UNL A   1      47.151  25.112  28.673  1.00  0.00     0.194 C 
ATOM     19  O   UNL A   1      43.721  22.911  29.051  1.00  0.00    -0.288 OA
ATOM     20  C   UNL A   1      45.160  24.506  30.000  1.00  0.00     0.034 A 
ATOM     21  C   UNL A   1      46.377  25.182  29.917  1.00  0.00     0.034 A 
ATOM     22  O   UNL A   1      48.295  25.539  28.593  1.00  0.00    -0.289 OA
ATOM     23  C   UNL A   1      44.288  24.816  31.051  1.00  0.00     0.013 A 
ATOM     24  C   UNL A   1      46.775  26.088  30.906  1.00  0.00     0.013 A 
ATOM     25  C   UNL A   1      44.652  25.774  32.006  1.00  0.00     0.001 A 
ATOM     26  C   UNL A   1      45.903  26.392  31.947  1.00  0.00     0.001 A 
ENDBRANCH   9  11
ENDBRANCH   6   7
ENDBRANCH   5   6
ENDBRANCH   3   5
ENDBRANCH   2   3
ENDBRANCH   1   2
BRANCH   1  27
ATOM     27  C   UNL A   1      41.095  21.101  26.189  1.00  0.00     0.275 C 
BRANCH  27  28
ATOM     28  O   UNL A   1      40.063  21.609  27.051  1.00  0.00    -0.458 OA
BRANCH  28  29
ATOM     29  C   UNL A   1      39.336  22.623  26.524  1.00  0.00     0.338 C 
ATOM     30  O   UNL A   1      38.297  22.515  25.896  1.00  0.00    -0.246 OA
BRANCH  29  31
ATOM     31  C   UNL A   1      39.911  23.922  26.922  1.00  0.00     0.060 A 
ATOM     32  C   UNL A   1      40.358  24.050  28.240  1.00  0.00     0.016 A 
ATOM     33  C   UNL A   1      39.954  25.013  26.048  1.00  0.00     0.016 A 
ATOM     34  C   UNL A   1      40.823  25.280  28.700  1.00  0.00     0.010 A 
ATOM     35  C   UNL A   1      40.416  26.248  26.512  1.00  0.00     0.010 A 
ATOM     36  C   UNL A   1      40.831  26.391  27.848  1.00  0.00    -0.014 A 
BRANCH  36  37
ATOM     37  C   UNL A   1      41.179  27.721  28.400  1.00  0.00     0.031 A 
ATOM     38  C   UNL A   1      42.625  28.119  28.500  1.00  0.00     0.074 A 
ATOM     39  C   UNL A   1      40.209  28.580  28.758  1.00  0.00     0.049 A 
ATOM     40  N   UNL A   1      43.150  29.235  28.935  1.00  0.00    -0.248 NA
ATOM     41  C   UNL A   1      43.609  27.122  28.052  1.00  0.00     0.031 C 
ATOM     42  C   UNL A   1      38.772  28.307  28.683  1.00  0.00     0.029 A 
ATOM     43  N   UNL A   1      40.284  29.857  29.250  1.00  0.00    -0.354 N 
ATOM     44  C   UNL A   1      44.526  29.083  28.802  1.00  0.00     0.074 A 
ATOM     45  C   UNL A   1      44.752  27.750  28.284  1.00  0.00     0.031 C 
ATOM     46  C   UNL A   1      38.101  29.387  29.122  1.00  0.00     0.029 A 
ATOM     47  C   UNL A   1      39.058  30.417  29.521  1.00  0.00     0.049 A 
ATOM     48  H   UNL A   1      41.135  30.330  29.394  1.00  0.00     0.167 HD
ATOM     49  C   UNL A   1      45.509  29.975  29.079  1.00  0.00     0.034 A 
ATOM     50  C   UNL A   1      38.746  31.621  30.040  1.00  0.00     0.034 A 
ATOM     51  C   UNL A   1      45.273  31.289  29.624  1.00  0.00     0.049 A 
ATOM     52  C   UNL A   1      39.856  32.590  30.355  1.00  0.00     0.074 A 
ATOM     53  C   UNL A   1      46.195  32.250  30.006  1.00  0.00     0.029 A 
ATOM     54  N   UNL A   1      44.017  31.831  29.864  1.00  0.00    -0.354 N 
ATOM     55  N   UNL A   1      41.155  32.423  30.245  1.00  0.00    -0.248 NA
ATOM     56  C   UNL A   1      39.458  33.918  30.841  1.00  0.00     0.031 C 
ATOM     57  C   UNL A   1      45.496  33.357  30.506  1.00  0.00     0.029 A 
ATOM     58  C   UNL A   1      44.138  33.109  30.387  1.00  0.00     0.049 A 
ATOM     59  H   UNL A   1      43.163  31.373  29.688  1.00  0.00     0.167 HD
ATOM     60  C   UNL A   1      41.725  33.634  30.628  1.00  0.00     0.074 A 
ATOM     61  C   UNL A   1      40.630  34.525  30.953  1.00  0.00     0.031 C 
ATOM     62  C   UNL A   1      43.034  33.980  30.704  1.00  0.00     0.034 A 
BRANCH  49  63
ATOM     63  C   UNL A   1      46.926  29.523  28.835  1.00  0.00     0.023 A 
ATOM     64  C   UNL A   1      47.403  29.285  27.534  1.00  0.00     0.031 A 
ATOM     65  C   UNL A   1      47.793  29.282  29.914  1.00  0.00     0.131 A 
ATOM     66  C   UNL A   1      48.691  28.759  27.349  1.00  0.00     0.055 A 
ATOM     67  C   UNL A   1      49.097  28.823  29.719  1.00  0.00     0.041 A 
ATOM     68  F   UNL A   1      47.381  29.471  31.177  1.00  0.00    -0.206 F 
ATOM     69  C   UNL A   1      49.548  28.547  28.430  1.00  0.00     0.022 A 
BRANCH  66  70
ATOM     70  S   UNL A   1      49.189  28.246  25.681  1.00  0.00     0.124 S 
ATOM     71  O   UNL A   1      47.946  28.427  24.936  1.00  0.00    -0.237 OA
ATOM     72  O   UNL A   1      50.264  29.181  25.370  1.00  0.00    -0.237 OA
ATOM     73  O   UNL A   1      49.605  26.856  25.862  1.00  0.00    -0.744 OA
ENDBRANCH  66  70
ENDBRANCH  49  63
BRANCH  50  74
ATOM     74  C   UNL A   1      37.328  31.974  30.321  1.00  0.00     0.023 A 
ATOM     75  C   UNL A   1      36.483  32.462  29.313  1.00  0.00     0.031 A 
ATOM     76  C   UNL A   1      36.816  31.880  31.627  1.00  0.00     0.131 A 
ATOM     77  C   UNL A   1      35.183  32.883  29.635  1.00  0.00     0.055 A 
ATOM     78  C   UNL A   1      35.509  32.260  31.935  1.00  0.00     0.041 A 
ATOM     79  F   UNL A   1      37.584  31.414  32.625  1.00  0.00    -0.206 F 
ATOM     80  C   UNL A   1      34.689  32.778  30.938  1.00  0.00     0.022 A 
BRANCH  77  81
ATOM     81  S   UNL A   1      34.173  33.657  28.342  1.00  0.00     0.124 S 
ATOM     82  O   UNL A   1      33.427  34.654  29.101  1.00  0.00    -0.237 OA
ATOM     83  O   UNL A   1      35.193  34.173  27.435  1.00  0.00    -0.237 OA
ATOM     84  O   UNL A   1      33.380  32.546  27.820  1.00  0.00    -0.744 OA
ENDBRANCH  77  81
ENDBRANCH  50  74
BRANCH  62  85
ATOM     85  C   UNL A   1      43.338  35.399  31.108  1.00  0.00     0.023 A 
ATOM     86  C   UNL A   1      43.482  36.422  30.156  1.00  0.00     0.031 A 
ATOM     87  C   UNL A   1      43.515  35.721  32.465  1.00  0.00     0.131 A 
ATOM     88  C   UNL A   1      43.848  37.713  30.569  1.00  0.00     0.055 A 
ATOM     89  C   UNL A   1      43.837  37.015  32.874  1.00  0.00     0.041 A 
ATOM     90  F   UNL A   1      43.389  34.779  33.412  1.00  0.00    -0.206 F 
ATOM     91  C   UNL A   1      44.018  38.017  31.923  1.00  0.00     0.022 A 
BRANCH  88  92
ATOM     92  S   UNL A   1      44.188  38.969  29.305  1.00  0.00     0.124 S 
ATOM     93  O   UNL A   1      45.103  38.265  28.411  1.00  0.00    -0.237 OA
ATOM     94  O   UNL A   1      42.858  39.240  28.772  1.00  0.00    -0.237 OA
ATOM     95  O   UNL A   1      44.788  40.065  30.065  1.00  0.00    -0.744 OA
ENDBRANCH  88  92
ENDBRANCH  62  85
ENDBRANCH  36  37
ENDBRANCH  29  31
ENDBRANCH  28  29
ENDBRANCH  27  28
ENDBRANCH   1  27
TORSDOF 17
ENDMDL
MODEL 2
REMARK VINA RESULT:     -10.5      1.653      2.017
REMARK SMILES O=C(CCC(=O)OCCOC(=O)c1ccc(-c2c3nc(c(-c4cc(S(=O)(=O)[O-])ccc4F)c4ccc([nH]4)c(-c4cc(S(=O)(=O)[O-])ccc4F)c4nc(c(-c5cc(S(=O)(=O)[O-])ccc5F)c5ccc2[nH]5)C=C4)C=C3)cc1)Nc1cccc2c1C(=O)c1ccccc1C2=O
REMARK SMILES IDX 8 1 7 2 5 3 6 4 4 5 3 6 2 7 1 8 76 9 77 11 78 12 82 13 79 14
REMARK SMILES IDX 81 15 83 16 80 17 91 18 84 19 85 20 90 21 92 22 86 23 89 24
REMARK SMILES IDX 87 25 88 26 9 27 10 28 11 29 12 30 13 31 14 32 75 33 15 34
REMARK SMILES IDX 74 35 16 36 17 37 18 38 68 39 19 40 73 41 67 42 69 43 20 44
REMARK SMILES IDX 72 45 66 46 65 47 21 49 53 50 33 51 52 52 34 53 37 54 51 55
REMARK SMILES IDX 70 56 35 57 36 58 50 60 71 61 38 62 22 63 23 64 31 65 24 66
REMARK SMILES IDX 30 67 32 68 29 69 25 70 26 71 27 72 28 73 54 74 55 75 63 76
REMARK SMILES IDX 56 77 62 78 64 79 61 80 57 81 58 82 59 83 60 84 39 85 40 86
REMARK SMILES IDX 48 87 41 88 47 89 49 90 46 91 42 92 43 93 44 94 45 95
REMARK H PARENT 76 10 69 48 37 59
REMARK Flexibility Score: inf
ROOT
ATOM      1  C   UNL A   1      41.303  19.703  26.656  1.00  0.00     0.274 C 
ENDROOT
BRANCH   1   2
ATOM      2  O   UNL A   1      42.034  19.084  25.571  1.00  0.00    -0.462 OA
BRANCH   2   3
ATOM      3  C   UNL A   1      43.128  18.350  25.908  1.00  0.00     0.306 C 
ATOM      4  O   UNL A   1      43.243  17.721  26.952  1.00  0.00    -0.252 OA
BRANCH   3   5
ATOM      5  C   UNL A   1      44.264  18.521  24.914  1.00  0.00     0.132 C 
BRANCH   5   6
ATOM      6  C   UNL A   1      44.532  19.956  24.472  1.00  0.00     0.112 C 
BRANCH   6   7
ATOM      7  C   UNL A   1      45.259  20.891  25.444  1.00  0.00     0.224 C 
ATOM      8  O   UNL A   1      46.480  21.022  25.366  1.00  0.00    -0.275 OA
ATOM      9  N   UNL A   1      44.427  21.706  26.193  1.00  0.00    -0.325 N 
ATOM     10  H   UNL A   1      43.618  21.310  26.592  1.00  0.00     0.169 HD
BRANCH   9  11
ATOM     11  C   UNL A   1      44.687  23.084  26.412  1.00  0.00     0.053 A 
ATOM     12  C   UNL A   1      44.750  23.838  25.232  1.00  0.00     0.027 A 
ATOM     13  C   UNL A   1      45.257  23.614  27.572  1.00  0.00     0.057 A 
ATOM     14  C   UNL A   1      45.632  24.911  25.132  1.00  0.00     0.003 A 
ATOM     15  C   UNL A   1      46.240  24.589  27.433  1.00  0.00     0.036 A 
ATOM     16  C   UNL A   1      44.521  23.581  28.874  1.00  0.00     0.196 C 
ATOM     17  C   UNL A   1      46.456  25.222  26.208  1.00  0.00     0.013 A 
ATOM     18  C   UNL A   1      46.966  25.060  28.617  1.00  0.00     0.194 C 
ATOM     19  O   UNL A   1      43.479  22.954  29.014  1.00  0.00    -0.288 OA
ATOM     20  C   UNL A   1      44.951  24.531  29.941  1.00  0.00     0.034 A 
ATOM     21  C   UNL A   1      46.186  25.175  29.853  1.00  0.00     0.034 A 
ATOM     22  O   UNL A   1      48.120  25.457  28.535  1.00  0.00    -0.289 OA
ATOM     23  C   UNL A   1      44.082  24.884  30.980  1.00  0.00     0.013 A 
ATOM     24  C   UNL A   1      46.601  26.090  30.827  1.00  0.00     0.013 A 
ATOM     25  C   UNL A   1      44.463  25.851  31.918  1.00  0.00     0.001 A 
ATOM     26  C   UNL A   1      45.730  26.436  31.855  1.00  0.00     0.001 A 
ENDBRANCH   9  11
ENDBRANCH   6   7
ENDBRANCH   5   6
ENDBRANCH   3   5
ENDBRANCH   2   3
ENDBRANCH   1   2
BRANCH   1  27
ATOM     27  C   UNL A   1      41.042  21.193  26.418  1.00  0.00     0.275 C 
BRANCH  27  28
ATOM     28  O   UNL A   1      39.852  21.633  27.093  1.00  0.00    -0.458 OA
BRANCH  28  29
ATOM     29  C   UNL A   1      39.206  22.659  26.487  1.00  0.00     0.338 C 
ATOM     30  O   UNL A   1      38.208  22.573  25.794  1.00  0.00    -0.246 OA
BRANCH  29  31
ATOM     31  C   UNL A   1      39.809  23.945  26.885  1.00  0.00     0.060 A 
ATOM     32  C   UNL A   1      40.065  24.143  28.244  1.00  0.00     0.016 A 
ATOM     33  C   UNL A   1      40.061  24.963  25.959  1.00  0.00     0.016 A 
ATOM     34  C   UNL A   1      40.545  25.372  28.689  1.00  0.00     0.010 A 
ATOM     35  C   UNL A   1      40.539  26.198  26.408  1.00  0.00     0.010 A 
ATOM     36  C   UNL A   1      40.761  26.414  27.779  1.00  0.00    -0.014 A 
BRANCH  36  37
ATOM     37  C   UNL A   1      41.120  27.757  28.291  1.00  0.00     0.031 A 
ATOM     38  C   UNL A   1      42.565  28.168  28.324  1.00  0.00     0.074 A 
ATOM     39  C   UNL A   1      40.157  28.615  28.672  1.00  0.00     0.049 A 
ATOM     40  N   UNL A   1      43.098  29.296  28.715  1.00  0.00    -0.248 NA
ATOM     41  C   UNL A   1      43.539  27.170  27.855  1.00  0.00     0.031 C 
ATOM     42  C   UNL A   1      38.722  28.330  28.661  1.00  0.00     0.029 A 
ATOM     43  N   UNL A   1      40.242  29.902  29.136  1.00  0.00    -0.354 N 
ATOM     44  C   UNL A   1      44.468  29.153  28.529  1.00  0.00     0.074 A 
ATOM     45  C   UNL A   1      44.685  27.811  28.027  1.00  0.00     0.031 C 
ATOM     46  C   UNL A   1      38.060  29.412  29.106  1.00  0.00     0.029 A 
ATOM     47  C   UNL A   1      39.023  30.457  29.447  1.00  0.00     0.049 A 
ATOM     48  H   UNL A   1      41.094  30.384  29.236  1.00  0.00     0.167 HD
ATOM     49  C   UNL A   1      45.454  30.058  28.748  1.00  0.00     0.034 A 
ATOM     50  C   UNL A   1      38.722  31.668  29.955  1.00  0.00     0.034 A 
ATOM     51  C   UNL A   1      45.229  31.380  29.278  1.00  0.00     0.049 A 
ATOM     52  C   UNL A   1      39.836  32.652  30.205  1.00  0.00     0.074 A 
ATOM     53  C   UNL A   1      46.157  32.355  29.603  1.00  0.00     0.029 A 
ATOM     54  N   UNL A   1      43.979  31.917  29.559  1.00  0.00    -0.354 N 
ATOM     55  N   UNL A   1      41.131  32.493  30.046  1.00  0.00    -0.248 NA
ATOM     56  C   UNL A   1      39.447  33.986  30.683  1.00  0.00     0.031 C 
ATOM     57  C   UNL A   1      45.471  33.466  30.110  1.00  0.00     0.029 A 
ATOM     58  C   UNL A   1      44.111  33.205  30.052  1.00  0.00     0.049 A 
ATOM     59  H   UNL A   1      43.123  31.448  29.426  1.00  0.00     0.167 HD
ATOM     60  C   UNL A   1      41.705  33.716  30.382  1.00  0.00     0.074 A 
ATOM     61  C   UNL A   1      40.617  34.604  30.734  1.00  0.00     0.031 C 
ATOM     62  C   UNL A   1      43.014  34.074  30.398  1.00  0.00     0.034 A 
BRANCH  49  63
ATOM     63  C   UNL A   1      46.864  29.612  28.455  1.00  0.00     0.023 A 
ATOM     64  C   UNL A   1      47.715  29.160  29.479  1.00  0.00     0.031 A 
ATOM     65  C   UNL A   1      47.377  29.685  27.149  1.00  0.00     0.131 A 
ATOM     66  C   UNL A   1      49.055  28.859  29.189  1.00  0.00     0.055 A 
ATOM     67  C   UNL A   1      48.692  29.319  26.856  1.00  0.00     0.041 A 
ATOM     68  F   UNL A   1      46.614  30.131  26.139  1.00  0.00    -0.206 F 
ATOM     69  C   UNL A   1      49.543  28.914  27.881  1.00  0.00     0.022 A 
BRANCH  66  70
ATOM     70  S   UNL A   1      50.183  28.504  30.565  1.00  0.00     0.124 S 
ATOM     71  O   UNL A   1      51.083  27.525  29.960  1.00  0.00    -0.237 OA
ATOM     72  O   UNL A   1      50.759  29.814  30.847  1.00  0.00    -0.237 OA
ATOM     73  O   UNL A   1      49.301  27.974  31.603  1.00  0.00    -0.744 OA
ENDBRANCH  66  70
ENDBRANCH  49  63
BRANCH  50  74
ATOM     74  C   UNL A   1      37.314  32.016  30.287  1.00  0.00     0.023 A 
ATOM     75  C   UNL A   1      36.408  32.424  29.296  1.00  0.00     0.031 A 
ATOM     76  C   UNL A   1      36.872  31.999  31.622  1.00  0.00     0.131 A 
ATOM     77  C   UNL A   1      35.119  32.843  29.659  1.00  0.00     0.055 A 
ATOM     78  C   UNL A   1      35.576  32.376  31.973  1.00  0.00     0.041 A 
ATOM     79  F   UNL A   1      37.700  31.611  32.606  1.00  0.00    -0.206 F 
ATOM     80  C   UNL A   1      34.695  32.815  30.990  1.00  0.00     0.022 A 
BRANCH  77  81
ATOM     81  S   UNL A   1      34.028  33.515  28.374  1.00  0.00     0.124 S 
ATOM     82  O   UNL A   1      34.947  34.347  27.605  1.00  0.00    -0.237 OA
ATOM     83  O   UNL A   1      33.560  32.300  27.715  1.00  0.00    -0.237 OA
ATOM     84  O   UNL A   1      33.014  34.241  29.134  1.00  0.00    -0.744 OA
ENDBRANCH  77  81
ENDBRANCH  50  74
BRANCH  62  85
ATOM     85  C   UNL A   1      43.321  35.503  30.762  1.00  0.00     0.023 A 
ATOM     86  C   UNL A   1      43.341  35.935  32.099  1.00  0.00     0.031 A 
ATOM     87  C   UNL A   1      43.567  36.448  29.751  1.00  0.00     0.131 A 
ATOM     88  C   UNL A   1      43.549  37.292  32.390  1.00  0.00     0.055 A 
ATOM     89  C   UNL A   1      43.815  37.788  30.048  1.00  0.00     0.041 A 
ATOM     90  F   UNL A   1      43.558  36.084  28.460  1.00  0.00    -0.206 F 
ATOM     91  C   UNL A   1      43.794  38.220  31.373  1.00  0.00     0.022 A 
BRANCH  88  92
ATOM     92  S   UNL A   1      43.403  37.847  34.110  1.00  0.00     0.124 S 
ATOM     93  O   UNL A   1      43.063  39.258  33.950  1.00  0.00    -0.237 OA
ATOM     94  O   UNL A   1      42.341  36.989  34.624  1.00  0.00    -0.237 OA
ATOM     95  O   UNL A   1      44.731  37.590  34.666  1.00  0.00    -0.744 OA
ENDBRANCH  88  92
ENDBRANCH  62  85
ENDBRANCH  36  37
ENDBRANCH  29  31
ENDBRANCH  28  29
ENDBRANCH  27  28
ENDBRANCH   1  27
TORSDOF 17
ENDMDL
MODEL 3
REMARK VINA RESULT:     -10.4      4.486      8.154
REMARK SMILES O=C(CCC(=O)OCCOC(=O)c1ccc(-c2c3nc(c(-c4cc(S(=O)(=O)[O-])ccc4F)c4ccc([nH]4)c(-c4cc(S(=O)(=O)[O-])ccc4F)c4nc(c(-c5cc(S(=O)(=O)[O-])ccc5F)c5ccc2[nH]5)C=C4)C=C3)cc1)Nc1cccc2c1C(=O)c1ccccc1C2=O
REMARK SMILES IDX 8 1 7 2 5 3 6 4 4 5 3 6 2 7 1 8 76 9 77 11 78 12 82 13 79 14
REMARK SMILES IDX 81 15 83 16 80 17 91 18 84 19 85 20 90 21 92 22 86 23 89 24
REMARK SMILES IDX 87 25 88 26 9 27 10 28 11 29 12 30 13 31 14 32 75 33 15 34
REMARK SMILES IDX 74 35 16 36 17 37 18 38 68 39 19 40 73 41 67 42 69 43 20 44
REMARK SMILES IDX 72 45 66 46 65 47 21 49 53 50 33 51 52 52 34 53 37 54 51 55
REMARK SMILES IDX 70 56 35 57 36 58 50 60 71 61 38 62 22 63 23 64 31 65 24 66
REMARK SMILES IDX 30 67 32 68 29 69 25 70 26 71 27 72 28 73 54 74 55 75 63 76
REMARK SMILES IDX 56 77 62 78 64 79 61 80 57 81 58 82 59 83 60 84 39 85 40 86
REMARK SMILES IDX 48 87 41 88 47 89 49 90 46 91 42 92 43 93 44 94 45 95
REMARK H PARENT 76 10 69 48 37 59
REMARK Flexibility Score: inf
ROOT
ATOM      1  C   UNL A   1      35.836  20.811  25.300  1.00  0.00     0.274 C 
ENDROOT
BRANCH   1   2
ATOM      2  O   UNL A   1      35.183  21.702  24.364  1.00  0.00    -0.462 OA
BRANCH   2   3
ATOM      3  C   UNL A   1      33.840  21.868  24.512  1.00  0.00     0.306 C 
ATOM      4  O   UNL A   1      33.047  21.939  23.582  1.00  0.00    -0.252 OA
BRANCH   3   5
ATOM      5  C   UNL A   1      33.447  22.112  25.958  1.00  0.00     0.132 C 
BRANCH   5   6
ATOM      6  C   UNL A   1      32.003  22.550  26.176  1.00  0.00     0.112 C 
BRANCH   6   7
ATOM      7  C   UNL A   1      31.659  24.033  25.999  1.00  0.00     0.224 C 
ATOM      8  O   UNL A   1      32.073  24.857  26.813  1.00  0.00    -0.275 OA
ATOM      9  N   UNL A   1      31.091  24.353  24.777  1.00  0.00    -0.325 N 
ATOM     10  H   UNL A   1      30.390  23.762  24.416  1.00  0.00     0.169 HD
BRANCH   9  11
ATOM     11  C   UNL A   1      31.473  25.492  24.021  1.00  0.00     0.053 A 
ATOM     12  C   UNL A   1      32.743  25.379  23.437  1.00  0.00     0.027 A 
ATOM     13  C   UNL A   1      30.914  26.765  24.159  1.00  0.00     0.057 A 
ATOM     14  C   UNL A   1      33.558  26.501  23.309  1.00  0.00     0.003 A 
ATOM     15  C   UNL A   1      31.774  27.860  24.168  1.00  0.00     0.036 A 
ATOM     16  C   UNL A   1      29.494  27.027  23.772  1.00  0.00     0.196 C 
ATOM     17  C   UNL A   1      33.107  27.731  23.773  1.00  0.00     0.013 A 
ATOM     18  C   UNL A   1      31.243  29.195  24.460  1.00  0.00     0.194 C 
ATOM     19  O   UNL A   1      28.724  26.122  23.480  1.00  0.00    -0.288 OA
ATOM     20  C   UNL A   1      29.093  28.441  23.510  1.00  0.00     0.034 A 
ATOM     21  C   UNL A   1      29.907  29.492  23.933  1.00  0.00     0.034 A 
ATOM     22  O   UNL A   1      31.935  30.048  24.999  1.00  0.00    -0.289 OA
ATOM     23  C   UNL A   1      27.964  28.734  22.737  1.00  0.00     0.013 A 
ATOM     24  C   UNL A   1      29.567  30.824  23.676  1.00  0.00     0.013 A 
ATOM     25  C   UNL A   1      27.657  30.062  22.416  1.00  0.00     0.001 A 
ATOM     26  C   UNL A   1      28.444  31.107  22.905  1.00  0.00     0.001 A 
ENDBRANCH   9  11
ENDBRANCH   6   7
ENDBRANCH   5   6
ENDBRANCH   3   5
ENDBRANCH   2   3
ENDBRANCH   1   2
BRANCH   1  27
ATOM     27  C   UNL A   1      37.321  20.610  24.985  1.00  0.00     0.275 C 
BRANCH  27  28
ATOM     28  O   UNL A   1      38.094  21.770  25.332  1.00  0.00    -0.458 OA
BRANCH  28  29
ATOM     29  C   UNL A   1      39.174  21.516  26.110  1.00  0.00     0.338 C 
ATOM     30  O   UNL A   1      39.754  20.449  26.211  1.00  0.00    -0.246 OA
BRANCH  29  31
ATOM     31  C   UNL A   1      39.649  22.760  26.744  1.00  0.00     0.060 A 
ATOM     32  C   UNL A   1      39.025  23.952  26.368  1.00  0.00     0.016 A 
ATOM     33  C   UNL A   1      40.725  22.772  27.638  1.00  0.00     0.016 A 
ATOM     34  C   UNL A   1      39.494  25.167  26.861  1.00  0.00     0.010 A 
ATOM     35  C   UNL A   1      41.197  23.993  28.129  1.00  0.00     0.010 A 
ATOM     36  C   UNL A   1      40.597  25.198  27.723  1.00  0.00    -0.014 A 
BRANCH  36  37
ATOM     37  C   UNL A   1      41.175  26.506  28.109  1.00  0.00     0.031 A 
ATOM     38  C   UNL A   1      42.603  26.812  27.753  1.00  0.00     0.074 A 
ATOM     39  C   UNL A   1      40.413  27.427  28.724  1.00  0.00     0.049 A 
ATOM     40  N   UNL A   1      43.300  27.895  27.978  1.00  0.00    -0.248 NA
ATOM     41  C   UNL A   1      43.342  25.751  27.051  1.00  0.00     0.031 C 
ATOM     42  C   UNL A   1      39.009  27.246  29.098  1.00  0.00     0.029 A 
ATOM     43  N   UNL A   1      40.710  28.700  29.137  1.00  0.00    -0.354 N 
ATOM     44  C   UNL A   1      44.558  27.655  27.436  1.00  0.00     0.074 A 
ATOM     45  C   UNL A   1      44.536  26.307  26.907  1.00  0.00     0.031 C 
ATOM     46  C   UNL A   1      38.569  28.369  29.693  1.00  0.00     0.029 A 
ATOM     47  C   UNL A   1      39.660  29.338  29.755  1.00  0.00     0.049 A 
ATOM     48  H   UNL A   1      41.590  29.119  29.002  1.00  0.00     0.167 HD
ATOM     49  C   UNL A   1      45.629  28.485  27.376  1.00  0.00     0.034 A 
ATOM     50  C   UNL A   1      39.594  30.562  30.314  1.00  0.00     0.034 A 
ATOM     51  C   UNL A   1      45.648  29.814  27.934  1.00  0.00     0.049 A 
ATOM     52  C   UNL A   1      40.802  31.461  30.250  1.00  0.00     0.074 A 
ATOM     53  C   UNL A   1      46.697  30.717  27.992  1.00  0.00     0.029 A 
ATOM     54  N   UNL A   1      44.560  30.437  28.532  1.00  0.00    -0.354 N 
ATOM     55  N   UNL A   1      41.992  31.211  29.754  1.00  0.00    -0.248 NA
ATOM     56  C   UNL A   1      40.650  32.815  30.801  1.00  0.00     0.031 C 
ATOM     57  C   UNL A   1      46.252  31.869  28.653  1.00  0.00     0.029 A 
ATOM     58  C   UNL A   1      44.910  31.707  28.960  1.00  0.00     0.049 A 
ATOM     59  H   UNL A   1      43.668  30.032  28.637  1.00  0.00     0.167 HD
ATOM     60  C   UNL A   1      42.722  32.386  29.913  1.00  0.00     0.074 A 
ATOM     61  C   UNL A   1      41.834  33.347  30.534  1.00  0.00     0.031 C 
ATOM     62  C   UNL A   1      44.010  32.649  29.577  1.00  0.00     0.034 A 
BRANCH  49  63
ATOM     63  C   UNL A   1      46.874  27.942  26.723  1.00  0.00     0.023 A 
ATOM     64  C   UNL A   1      47.092  28.078  25.341  1.00  0.00     0.031 A 
ATOM     65  C   UNL A   1      47.828  27.241  27.480  1.00  0.00     0.131 A 
ATOM     66  C   UNL A   1      48.206  27.465  24.747  1.00  0.00     0.055 A 
ATOM     67  C   UNL A   1      48.970  26.691  26.893  1.00  0.00     0.041 A 
ATOM     68  F   UNL A   1      47.657  27.062  28.799  1.00  0.00    -0.206 F 
ATOM     69  C   UNL A   1      49.158  26.792  25.517  1.00  0.00     0.022 A 
BRANCH  66  70
ATOM     70  S   UNL A   1      48.335  27.461  22.938  1.00  0.00     0.124 S 
ATOM     71  O   UNL A   1      48.298  26.030  22.645  1.00  0.00    -0.237 OA
ATOM     72  O   UNL A   1      47.162  28.227  22.534  1.00  0.00    -0.237 OA
ATOM     73  O   UNL A   1      49.621  28.109  22.685  1.00  0.00    -0.744 OA
ENDBRANCH  66  70
ENDBRANCH  49  63
BRANCH  50  74
ATOM     74  C   UNL A   1      38.353  31.007  31.005  1.00  0.00     0.023 A 
ATOM     75  C   UNL A   1      37.308  31.627  30.304  1.00  0.00     0.031 A 
ATOM     76  C   UNL A   1      38.225  30.866  32.398  1.00  0.00     0.131 A 
ATOM     77  C   UNL A   1      36.198  32.126  31.003  1.00  0.00     0.055 A 
ATOM     78  C   UNL A   1      37.100  31.326  33.084  1.00  0.00     0.041 A 
ATOM     79  F   UNL A   1      39.196  30.275  33.113  1.00  0.00    -0.206 F 
ATOM     80  C   UNL A   1      36.084  31.973  32.388  1.00  0.00     0.022 A 
BRANCH  77  81
ATOM     81  S   UNL A   1      34.942  33.063  30.089  1.00  0.00     0.124 S 
ATOM     82  O   UNL A   1      34.461  32.069  29.135  1.00  0.00    -0.237 OA
ATOM     83  O   UNL A   1      34.013  33.434  31.151  1.00  0.00    -0.237 OA
ATOM     84  O   UNL A   1      35.698  34.170  29.509  1.00  0.00    -0.744 OA
ENDBRANCH  77  81
ENDBRANCH  50  74
BRANCH  62  85
ATOM     85  C   UNL A   1      44.505  34.048  29.833  1.00  0.00     0.023 A 
ATOM     86  C   UNL A   1      44.353  35.070  28.881  1.00  0.00     0.031 A 
ATOM     87  C   UNL A   1      45.165  34.351  31.037  1.00  0.00     0.131 A 
ATOM     88  C   UNL A   1      44.903  36.338  29.124  1.00  0.00     0.055 A 
ATOM     89  C   UNL A   1      45.673  35.625  31.292  1.00  0.00     0.041 A 
ATOM     90  F   UNL A   1      45.336  33.409  31.977  1.00  0.00    -0.206 F 
ATOM     91  C   UNL A   1      45.555  36.623  30.328  1.00  0.00     0.022 A 
BRANCH  88  92
ATOM     92  S   UNL A   1      44.836  37.585  27.809  1.00  0.00     0.124 S 
ATOM     93  O   UNL A   1      44.419  38.779  28.538  1.00  0.00    -0.237 OA
ATOM     94  O   UNL A   1      46.209  37.587  27.314  1.00  0.00    -0.237 OA
ATOM     95  O   UNL A   1      43.843  37.049  26.879  1.00  0.00    -0.744 OA
ENDBRANCH  88  92
ENDBRANCH  62  85
ENDBRANCH  36  37
ENDBRANCH  29  31
ENDBRANCH  28  29
ENDBRANCH  27  28
ENDBRANCH   1  27
TORSDOF 17
ENDMDL
