MODEL 1
REMARK VINA RESULT:     -11.0      0.000      0.000
REMARK SMILES CCC(CC)(NC(=O)NC[C@H](C)[NH+]1CCCCC1)C(=O)OCCOC(=O)c1ccc(-c2c3nc(c(-c4cc(S(=O)(=O)[O-])ccc4F)c4ccc([nH]4)c(-c4cc(S(=O)(=O)[O-])ccc4F)c4nc(c(-c5cc(S(=O)(=O)[O-])ccc5F)c5ccc2[nH]5)C=C4)C=C3)cc1
REMARK SMILES IDX 22 1 21 2 19 3 20 4 3 5 2 6 1 7 4 8 5 9 6 10 7 11 8 13 9 14
REMARK SMILES IDX 10 16 11 17 12 18 13 19 14 20 18 21 15 23 17 24 16 25 23 26
REMARK SMILES IDX 24 27 25 28 26 29 27 30 28 31 89 32 29 33 88 34 30 35 31 36
REMARK SMILES IDX 32 37 82 38 33 39 87 40 81 41 83 42 34 43 86 44 80 45 79 46
REMARK SMILES IDX 35 48 67 49 47 50 66 51 48 52 51 53 65 54 84 55 49 56 50 57
REMARK SMILES IDX 64 59 85 60 52 61 36 62 37 63 45 64 38 65 44 66 46 67 43 68
REMARK SMILES IDX 39 69 40 70 41 71 42 72 68 73 69 74 77 75 70 76 76 77 78 78
REMARK SMILES IDX 75 79 71 80 72 81 73 82 74 83 53 84 54 85 62 86 55 87 61 88
REMARK SMILES IDX 63 89 60 90 56 91 57 92 58 93 59 94
REMARK H PARENT 6 12 9 15 13 22 83 47 51 58
REMARK Flexibility Score: inf
ROOT
ATOM      1  C   UNL A   1      31.890  29.480  25.512  1.00  0.00     0.274 C 
ENDROOT
BRANCH   1   2
ATOM      2  O   UNL A   1      32.473  28.153  25.608  1.00  0.00    -0.460 OA
BRANCH   2   3
ATOM      3  C   UNL A   1      31.609  27.093  25.712  1.00  0.00     0.332 C 
ATOM      4  O   UNL A   1      31.271  26.627  26.795  1.00  0.00    -0.249 OA
BRANCH   3   5
ATOM      5  C   UNL A   1      31.168  26.491  24.307  1.00  0.00     0.139 C 
BRANCH   5   6
ATOM      6  C   UNL A   1      29.903  27.293  23.852  1.00  0.00     0.037 C 
ATOM      7  C   UNL A   1      30.046  28.087  22.548  1.00  0.00     0.007 C 
ENDBRANCH   5   6
BRANCH   5   8
ATOM      8  C   UNL A   1      30.769  24.992  24.402  1.00  0.00     0.037 C 
ATOM      9  C   UNL A   1      30.347  24.298  23.105  1.00  0.00     0.007 C 
ENDBRANCH   5   8
BRANCH   5  10
ATOM     10  N   UNL A   1      32.236  26.621  23.258  1.00  0.00    -0.322 N 
ATOM     11  C   UNL A   1      33.247  25.842  22.816  1.00  0.00     0.315 C 
ATOM     12  H   UNL A   1      32.187  27.480  22.778  1.00  0.00     0.166 HD
ATOM     13  O   UNL A   1      33.707  26.073  21.695  1.00  0.00    -0.249 OA
ATOM     14  N   UNL A   1      33.776  24.800  23.505  1.00  0.00    -0.332 N 
ATOM     15  H   UNL A   1      34.083  24.030  22.974  1.00  0.00     0.165 HD
BRANCH  14  16
ATOM     16  C   UNL A   1      33.933  24.702  24.938  1.00  0.00     0.182 C 
BRANCH  16  17
ATOM     17  C   UNL A   1      33.834  23.368  25.742  1.00  0.00     0.200 C 
ATOM     18  C   UNL A   1      33.028  23.524  27.028  1.00  0.00     0.077 C 
BRANCH  17  19
ATOM     19  N   UNL A   1      35.100  22.563  25.908  1.00  0.00    -0.331 N 
ATOM     20  C   UNL A   1      35.089  21.327  25.101  1.00  0.00     0.262 C 
ATOM     21  C   UNL A   1      36.322  23.353  25.737  1.00  0.00     0.262 C 
ATOM     22  H   UNL A   1      35.116  22.265  26.884  1.00  0.00     0.348 HD
ATOM     23  C   UNL A   1      36.371  20.502  25.058  1.00  0.00     0.062 C 
ATOM     24  C   UNL A   1      37.620  22.539  25.708  1.00  0.00     0.062 C 
ATOM     25  C   UNL A   1      37.567  21.374  24.732  1.00  0.00     0.012 C 
ENDBRANCH  17  19
ENDBRANCH  16  17
ENDBRANCH  14  16
ENDBRANCH   5  10
ENDBRANCH   3   5
ENDBRANCH   2   3
ENDBRANCH   1   2
BRANCH   1  26
ATOM     26  C   UNL A   1      32.205  30.320  26.761  1.00  0.00     0.275 C 
BRANCH  26  27
ATOM     27  O   UNL A   1      33.624  30.406  26.924  1.00  0.00    -0.458 OA
BRANCH  27  28
ATOM     28  C   UNL A   1      34.015  31.584  27.475  1.00  0.00     0.338 C 
ATOM     29  O   UNL A   1      33.311  32.537  27.742  1.00  0.00    -0.246 OA
BRANCH  28  30
ATOM     30  C   UNL A   1      35.328  31.307  28.076  1.00  0.00     0.060 A 
ATOM     31  C   UNL A   1      35.559  29.985  28.458  1.00  0.00     0.016 A 
ATOM     32  C   UNL A   1      36.339  32.260  28.150  1.00  0.00     0.016 A 
ATOM     33  C   UNL A   1      36.815  29.584  28.879  1.00  0.00     0.010 A 
ATOM     34  C   UNL A   1      37.589  31.874  28.632  1.00  0.00     0.010 A 
ATOM     35  C   UNL A   1      37.824  30.536  29.001  1.00  0.00    -0.014 A 
BRANCH  35  36
ATOM     36  C   UNL A   1      39.034  30.175  29.760  1.00  0.00     0.031 A 
ATOM     37  C   UNL A   1      39.960  29.186  29.118  1.00  0.00     0.074 A 
ATOM     38  C   UNL A   1      39.325  30.761  30.933  1.00  0.00     0.049 A 
ATOM     39  N   UNL A   1      40.956  28.525  29.633  1.00  0.00    -0.248 NA
ATOM     40  C   UNL A   1      39.713  28.901  27.693  1.00  0.00     0.031 C 
ATOM     41  C   UNL A   1      38.565  31.849  31.550  1.00  0.00     0.029 A 
ATOM     42  N   UNL A   1      40.338  30.513  31.821  1.00  0.00    -0.354 N 
ATOM     43  C   UNL A   1      41.430  27.713  28.609  1.00  0.00     0.074 A 
ATOM     44  C   UNL A   1      40.610  27.961  27.446  1.00  0.00     0.031 C 
ATOM     45  C   UNL A   1      39.125  32.154  32.733  1.00  0.00     0.029 A 
ATOM     46  C   UNL A   1      40.230  31.235  32.988  1.00  0.00     0.049 A 
ATOM     47  H   UNL A   1      41.072  29.881  31.642  1.00  0.00     0.167 HD
ATOM     48  C   UNL A   1      42.455  26.831  28.656  1.00  0.00     0.034 A 
ATOM     49  C   UNL A   1      40.912  31.106  34.143  1.00  0.00     0.034 A 
ATOM     50  C   UNL A   1      43.240  26.619  29.844  1.00  0.00     0.049 A 
ATOM     51  C   UNL A   1      41.973  30.029  34.213  1.00  0.00     0.074 A 
ATOM     52  C   UNL A   1      44.267  25.723  30.057  1.00  0.00     0.029 A 
ATOM     53  N   UNL A   1      43.075  27.329  31.030  1.00  0.00    -0.354 N 
ATOM     54  N   UNL A   1      42.364  29.190  33.277  1.00  0.00    -0.248 NA
ATOM     55  C   UNL A   1      42.679  29.877  35.489  1.00  0.00     0.031 C 
ATOM     56  C   UNL A   1      44.678  25.843  31.389  1.00  0.00     0.029 A 
ATOM     57  C   UNL A   1      43.968  26.875  31.984  1.00  0.00     0.049 A 
ATOM     58  H   UNL A   1      42.418  28.050  31.169  1.00  0.00     0.167 HD
ATOM     59  C   UNL A   1      43.383  28.431  33.847  1.00  0.00     0.074 A 
ATOM     60  C   UNL A   1      43.561  28.934  35.195  1.00  0.00     0.031 C 
ATOM     61  C   UNL A   1      44.107  27.408  33.319  1.00  0.00     0.034 A 
BRANCH  48  62
ATOM     62  C   UNL A   1      42.705  25.992  27.428  1.00  0.00     0.023 A 
ATOM     63  C   UNL A   1      42.260  24.663  27.328  1.00  0.00     0.031 A 
ATOM     64  C   UNL A   1      43.454  26.518  26.360  1.00  0.00     0.131 A 
ATOM     65  C   UNL A   1      42.622  23.886  26.216  1.00  0.00     0.055 A 
ATOM     66  C   UNL A   1      43.742  25.764  25.221  1.00  0.00     0.041 A 
ATOM     67  F   UNL A   1      43.937  27.768  26.415  1.00  0.00    -0.206 F 
ATOM     68  C   UNL A   1      43.336  24.435  25.150  1.00  0.00     0.022 A 
BRANCH  65  69
ATOM     69  S   UNL A   1      42.264  22.108  26.243  1.00  0.00     0.124 S 
ATOM     70  O   UNL A   1      42.638  21.754  27.611  1.00  0.00    -0.237 OA
ATOM     71  O   UNL A   1      40.838  22.067  25.940  1.00  0.00    -0.237 OA
ATOM     72  O   UNL A   1      43.139  21.566  25.206  1.00  0.00    -0.744 OA
ENDBRANCH  65  69
ENDBRANCH  48  62
BRANCH  49  73
ATOM     73  C   UNL A   1      40.570  31.928  35.343  1.00  0.00     0.023 A 
ATOM     74  C   UNL A   1      39.532  31.554  36.211  1.00  0.00     0.031 A 
ATOM     75  C   UNL A   1      41.222  33.151  35.598  1.00  0.00     0.131 A 
ATOM     76  C   UNL A   1      39.135  32.414  37.248  1.00  0.00     0.055 A 
ATOM     77  C   UNL A   1      40.870  33.970  36.673  1.00  0.00     0.041 A 
ATOM     78  F   UNL A   1      42.213  33.574  34.798  1.00  0.00    -0.206 F 
ATOM     79  C   UNL A   1      39.808  33.612  37.495  1.00  0.00     0.022 A 
BRANCH  76  80
ATOM     80  S   UNL A   1      37.640  32.006  38.192  1.00  0.00     0.124 S 
ATOM     81  O   UNL A   1      38.115  32.126  39.565  1.00  0.00    -0.237 OA
ATOM     82  O   UNL A   1      36.709  33.035  37.742  1.00  0.00    -0.237 OA
ATOM     83  O   UNL A   1      37.324  30.647  37.757  1.00  0.00    -0.744 OA
ENDBRANCH  76  80
ENDBRANCH  49  73
BRANCH  61  84
ATOM     84  C   UNL A   1      45.182  26.819  34.199  1.00  0.00     0.023 A 
ATOM     85  C   UNL A   1      44.927  25.724  35.040  1.00  0.00     0.031 A 
ATOM     86  C   UNL A   1      46.470  27.381  34.210  1.00  0.00     0.131 A 
ATOM     87  C   UNL A   1      45.922  25.278  35.919  1.00  0.00     0.055 A 
ATOM     88  C   UNL A   1      47.481  26.880  35.029  1.00  0.00     0.041 A 
ATOM     89  F   UNL A   1      46.766  28.430  33.425  1.00  0.00    -0.206 F 
ATOM     90  C   UNL A   1      47.204  25.833  35.904  1.00  0.00     0.022 A 
BRANCH  87  91
ATOM     91  S   UNL A   1      45.477  24.047  37.173  1.00  0.00     0.124 S 
ATOM     92  O   UNL A   1      45.017  22.932  36.352  1.00  0.00    -0.237 OA
ATOM     93  O   UNL A   1      46.741  23.844  37.874  1.00  0.00    -0.237 OA
ATOM     94  O   UNL A   1      44.436  24.714  37.953  1.00  0.00    -0.744 OA
ENDBRANCH  87  91
ENDBRANCH  61  84
ENDBRANCH  35  36
ENDBRANCH  28  30
ENDBRANCH  27  28
ENDBRANCH  26  27
ENDBRANCH   1  26
TORSDOF 20
ENDMDL
MODEL 2
REMARK VINA RESULT:     -11.0      1.938      2.551
REMARK SMILES CCC(CC)(NC(=O)NC[C@H](C)[NH+]1CCCCC1)C(=O)OCCOC(=O)c1ccc(-c2c3nc(c(-c4cc(S(=O)(=O)[O-])ccc4F)c4ccc([nH]4)c(-c4cc(S(=O)(=O)[O-])ccc4F)c4nc(c(-c5cc(S(=O)(=O)[O-])ccc5F)c5ccc2[nH]5)C=C4)C=C3)cc1
REMARK SMILES IDX 22 1 21 2 19 3 20 4 3 5 2 6 1 7 4 8 5 9 6 10 7 11 8 13 9 14
REMARK SMILES IDX 10 16 11 17 12 18 13 19 14 20 18 21 15 23 17 24 16 25 23 26
REMARK SMILES IDX 24 27 25 28 26 29 27 30 28 31 89 32 29 33 88 34 30 35 31 36
REMARK SMILES IDX 32 37 82 38 33 39 87 40 81 41 83 42 34 43 86 44 80 45 79 46
REMARK SMILES IDX 35 48 67 49 47 50 66 51 48 52 51 53 65 54 84 55 49 56 50 57
REMARK SMILES IDX 64 59 85 60 52 61 36 62 37 63 45 64 38 65 44 66 46 67 43 68
REMARK SMILES IDX 39 69 40 70 41 71 42 72 68 73 69 74 77 75 70 76 76 77 78 78
REMARK SMILES IDX 75 79 71 80 72 81 73 82 74 83 53 84 54 85 62 86 55 87 61 88
REMARK SMILES IDX 63 89 60 90 56 91 57 92 58 93 59 94
REMARK H PARENT 6 12 9 15 13 22 83 47 51 58
REMARK Flexibility Score: inf
ROOT
ATOM      1  C   UNL A   1      31.601  28.046  26.058  1.00  0.00     0.274 C 
ENDROOT
BRANCH   1   2
ATOM      2  O   UNL A   1      31.319  27.512  24.736  1.00  0.00    -0.460 OA
BRANCH   2   3
ATOM      3  C   UNL A   1      32.367  26.953  24.048  1.00  0.00     0.332 C 
ATOM      4  O   UNL A   1      33.174  27.631  23.420  1.00  0.00    -0.249 OA
BRANCH   3   5
ATOM      5  C   UNL A   1      32.373  25.363  24.080  1.00  0.00     0.139 C 
BRANCH   5   6
ATOM      6  C   UNL A   1      30.876  24.908  24.091  1.00  0.00     0.037 C 
ATOM      7  C   UNL A   1      30.308  24.504  25.456  1.00  0.00     0.007 C 
ENDBRANCH   5   6
BRANCH   5   8
ATOM      8  C   UNL A   1      33.049  24.798  25.361  1.00  0.00     0.037 C 
ATOM      9  C   UNL A   1      34.476  25.261  25.661  1.00  0.00     0.007 C 
ENDBRANCH   5   8
BRANCH   5  10
ATOM     10  N   UNL A   1      33.062  24.760  22.889  1.00  0.00    -0.322 N 
ATOM     11  C   UNL A   1      32.959  23.598  22.207  1.00  0.00     0.315 C 
ATOM     12  H   UNL A   1      33.754  25.353  22.516  1.00  0.00     0.166 HD
ATOM     13  O   UNL A   1      33.400  23.562  21.055  1.00  0.00    -0.249 OA
ATOM     14  N   UNL A   1      32.376  22.471  22.687  1.00  0.00    -0.332 N 
ATOM     15  H   UNL A   1      31.896  21.910  22.035  1.00  0.00     0.165 HD
BRANCH  14  16
ATOM     16  C   UNL A   1      32.383  22.010  24.055  1.00  0.00     0.182 C 
BRANCH  16  17
ATOM     17  C   UNL A   1      33.500  21.110  24.671  1.00  0.00     0.200 C 
ATOM     18  C   UNL A   1      34.901  21.617  24.343  1.00  0.00     0.077 C 
BRANCH  17  19
ATOM     19  N   UNL A   1      33.344  19.615  24.530  1.00  0.00    -0.331 N 
ATOM     20  C   UNL A   1      32.569  19.243  23.331  1.00  0.00     0.262 C 
ATOM     21  C   UNL A   1      34.607  18.882  24.652  1.00  0.00     0.262 C 
ATOM     22  H   UNL A   1      32.789  19.315  25.332  1.00  0.00     0.348 HD
ATOM     23  C   UNL A   1      32.470  17.760  22.986  1.00  0.00     0.062 C 
ATOM     24  C   UNL A   1      34.520  17.387  24.325  1.00  0.00     0.062 C 
ATOM     25  C   UNL A   1      33.839  17.109  22.994  1.00  0.00     0.012 C 
ENDBRANCH  17  19
ENDBRANCH  16  17
ENDBRANCH  14  16
ENDBRANCH   5  10
ENDBRANCH   3   5
ENDBRANCH   2   3
ENDBRANCH   1   2
BRANCH   1  26
ATOM     26  C   UNL A   1      31.782  29.572  26.016  1.00  0.00     0.275 C 
BRANCH  26  27
ATOM     27  O   UNL A   1      33.155  29.889  26.261  1.00  0.00    -0.458 OA
BRANCH  27  28
ATOM     28  C   UNL A   1      33.311  31.087  26.882  1.00  0.00     0.338 C 
ATOM     29  O   UNL A   1      32.447  31.905  27.121  1.00  0.00    -0.246 OA
BRANCH  28  30
ATOM     30  C   UNL A   1      34.602  30.989  27.581  1.00  0.00     0.060 A 
ATOM     31  C   UNL A   1      35.012  29.701  27.930  1.00  0.00     0.016 A 
ATOM     32  C   UNL A   1      35.438  32.083  27.776  1.00  0.00     0.016 A 
ATOM     33  C   UNL A   1      36.279  29.481  28.441  1.00  0.00     0.010 A 
ATOM     34  C   UNL A   1      36.692  31.874  28.348  1.00  0.00     0.010 A 
ATOM     35  C   UNL A   1      37.110  30.572  28.683  1.00  0.00    -0.014 A 
BRANCH  35  36
ATOM     36  C   UNL A   1      38.300  30.368  29.527  1.00  0.00     0.031 A 
ATOM     37  C   UNL A   1      39.378  29.491  28.966  1.00  0.00     0.074 A 
ATOM     38  C   UNL A   1      38.438  30.996  30.707  1.00  0.00     0.049 A 
ATOM     39  N   UNL A   1      40.409  28.959  29.558  1.00  0.00    -0.248 NA
ATOM     40  C   UNL A   1      39.265  29.164  27.534  1.00  0.00     0.031 C 
ATOM     41  C   UNL A   1      37.513  31.991  31.252  1.00  0.00     0.029 A 
ATOM     42  N   UNL A   1      39.411  30.881  31.664  1.00  0.00    -0.354 N 
ATOM     43  C   UNL A   1      41.045  28.200  28.583  1.00  0.00     0.074 A 
ATOM     44  C   UNL A   1      40.283  28.336  27.364  1.00  0.00     0.031 C 
ATOM     45  C   UNL A   1      37.951  32.373  32.463  1.00  0.00     0.029 A 
ATOM     46  C   UNL A   1      39.138  31.596  32.808  1.00  0.00     0.049 A 
ATOM     47  H   UNL A   1      40.225  30.340  31.546  1.00  0.00     0.167 HD
ATOM     48  C   UNL A   1      42.163  27.449  28.714  1.00  0.00     0.034 A 
ATOM     49  C   UNL A   1      39.750  31.562  34.008  1.00  0.00     0.034 A 
ATOM     50  C   UNL A   1      42.884  27.345  29.956  1.00  0.00     0.049 A 
ATOM     51  C   UNL A   1      40.925  30.621  34.168  1.00  0.00     0.074 A 
ATOM     52  C   UNL A   1      43.995  26.581  30.252  1.00  0.00     0.029 A 
ATOM     53  N   UNL A   1      42.555  28.042  31.115  1.00  0.00    -0.354 N 
ATOM     54  N   UNL A   1      41.477  29.826  33.276  1.00  0.00    -0.248 NA
ATOM     55  C   UNL A   1      41.555  30.569  35.490  1.00  0.00     0.031 C 
ATOM     56  C   UNL A   1      44.297  26.763  31.606  1.00  0.00     0.029 A 
ATOM     57  C   UNL A   1      43.429  27.708  32.134  1.00  0.00     0.049 A 
ATOM     58  H   UNL A   1      41.810  28.679  31.197  1.00  0.00     0.167 HD
ATOM     59  C   UNL A   1      42.537  29.201  33.926  1.00  0.00     0.074 A 
ATOM     60  C   UNL A   1      42.561  29.735  35.273  1.00  0.00     0.031 C 
ATOM     61  C   UNL A   1      43.412  28.267  33.466  1.00  0.00     0.034 A 
BRANCH  48  62
ATOM     62  C   UNL A   1      42.594  26.634  27.521  1.00  0.00     0.023 A 
ATOM     63  C   UNL A   1      42.152  25.316  27.317  1.00  0.00     0.031 A 
ATOM     64  C   UNL A   1      43.513  27.170  26.601  1.00  0.00     0.131 A 
ATOM     65  C   UNL A   1      42.676  24.558  26.258  1.00  0.00     0.055 A 
ATOM     66  C   UNL A   1      43.970  26.437  25.504  1.00  0.00     0.041 A 
ATOM     67  F   UNL A   1      44.000  28.409  26.765  1.00  0.00    -0.206 F 
ATOM     68  C   UNL A   1      43.560  25.118  25.334  1.00  0.00     0.022 A 
BRANCH  65  69
ATOM     69  S   UNL A   1      42.291  22.786  26.182  1.00  0.00     0.124 S 
ATOM     70  O   UNL A   1      42.795  22.434  24.856  1.00  0.00    -0.237 OA
ATOM     71  O   UNL A   1      43.040  22.251  27.313  1.00  0.00    -0.237 OA
ATOM     72  O   UNL A   1      40.837  22.745  26.319  1.00  0.00    -0.744 OA
ENDBRANCH  65  69
ENDBRANCH  48  62
BRANCH  49  73
ATOM     73  C   UNL A   1      39.231  32.349  35.168  1.00  0.00     0.023 A 
ATOM     74  C   UNL A   1      39.675  33.657  35.417  1.00  0.00     0.031 A 
ATOM     75  C   UNL A   1      38.344  31.775  36.099  1.00  0.00     0.131 A 
ATOM     76  C   UNL A   1      39.283  34.323  36.591  1.00  0.00     0.055 A 
ATOM     77  C   UNL A   1      37.902  32.466  37.228  1.00  0.00     0.041 A 
ATOM     78  F   UNL A   1      37.893  30.522  35.927  1.00  0.00    -0.206 F 
ATOM     79  C   UNL A   1      38.387  33.743  37.490  1.00  0.00     0.022 A 
BRANCH  76  80
ATOM     80  S   UNL A   1      40.066  35.910  36.990  1.00  0.00     0.124 S 
ATOM     81  O   UNL A   1      39.742  36.705  35.811  1.00  0.00    -0.237 OA
ATOM     82  O   UNL A   1      39.380  36.282  38.223  1.00  0.00    -0.237 OA
ATOM     83  O   UNL A   1      41.478  35.565  37.143  1.00  0.00    -0.744 OA
ENDBRANCH  76  80
ENDBRANCH  49  73
BRANCH  61  84
ATOM     84  C   UNL A   1      44.487  27.821  34.425  1.00  0.00     0.023 A 
ATOM     85  C   UNL A   1      44.201  26.981  35.514  1.00  0.00     0.031 A 
ATOM     86  C   UNL A   1      45.810  28.267  34.259  1.00  0.00     0.131 A 
ATOM     87  C   UNL A   1      45.206  26.678  36.440  1.00  0.00     0.055 A 
ATOM     88  C   UNL A   1      46.824  27.896  35.141  1.00  0.00     0.041 A 
ATOM     89  F   UNL A   1      46.138  29.073  33.235  1.00  0.00    -0.206 F 
ATOM     90  C   UNL A   1      46.521  27.112  36.250  1.00  0.00     0.022 A 
BRANCH  87  91
ATOM     91  S   UNL A   1      44.742  25.819  37.968  1.00  0.00     0.124 S 
ATOM     92  O   UNL A   1      43.343  26.207  38.118  1.00  0.00    -0.237 OA
ATOM     93  O   UNL A   1      44.983  24.421  37.626  1.00  0.00    -0.237 OA
ATOM     94  O   UNL A   1      45.652  26.380  38.966  1.00  0.00    -0.744 OA
ENDBRANCH  87  91
ENDBRANCH  61  84
ENDBRANCH  35  36
ENDBRANCH  28  30
ENDBRANCH  27  28
ENDBRANCH  26  27
ENDBRANCH   1  26
TORSDOF 20
ENDMDL
MODEL 3
REMARK VINA RESULT:     -10.9      5.006     10.136
REMARK SMILES CCC(CC)(NC(=O)NC[C@H](C)[NH+]1CCCCC1)C(=O)OCCOC(=O)c1ccc(-c2c3nc(c(-c4cc(S(=O)(=O)[O-])ccc4F)c4ccc([nH]4)c(-c4cc(S(=O)(=O)[O-])ccc4F)c4nc(c(-c5cc(S(=O)(=O)[O-])ccc5F)c5ccc2[nH]5)C=C4)C=C3)cc1
REMARK SMILES IDX 22 1 21 2 19 3 20 4 3 5 2 6 1 7 4 8 5 9 6 10 7 11 8 13 9 14
REMARK SMILES IDX 10 16 11 17 12 18 13 19 14 20 18 21 15 23 17 24 16 25 23 26
REMARK SMILES IDX 24 27 25 28 26 29 27 30 28 31 89 32 29 33 88 34 30 35 31 36
REMARK SMILES IDX 32 37 82 38 33 39 87 40 81 41 83 42 34 43 86 44 80 45 79 46
REMARK SMILES IDX 35 48 67 49 47 50 66 51 48 52 51 53 65 54 84 55 49 56 50 57
REMARK SMILES IDX 64 59 85 60 52 61 36 62 37 63 45 64 38 65 44 66 46 67 43 68
REMARK SMILES IDX 39 69 40 70 41 71 42 72 68 73 69 74 77 75 70 76 76 77 78 78
REMARK SMILES IDX 75 79 71 80 72 81 73 82 74 83 53 84 54 85 62 86 55 87 61 88
REMARK SMILES IDX 63 89 60 90 56 91 57 92 58 93 59 94
REMARK H PARENT 6 12 9 15 13 22 83 47 51 58
REMARK Flexibility Score: inf
ROOT
ATOM      1  C   UNL A   1      35.821  20.494  25.084  1.00  0.00     0.274 C 
ENDROOT
BRANCH   1   2
ATOM      2  O   UNL A   1      34.589  20.836  24.392  1.00  0.00    -0.460 OA
BRANCH   2   3
ATOM      3  C   UNL A   1      33.425  20.781  25.117  1.00  0.00     0.332 C 
ATOM      4  O   UNL A   1      32.995  19.733  25.587  1.00  0.00    -0.249 OA
BRANCH   3   5
ATOM      5  C   UNL A   1      32.668  22.177  25.209  1.00  0.00     0.139 C 
BRANCH   5   6
ATOM      6  C   UNL A   1      32.072  22.458  23.790  1.00  0.00     0.037 C 
ATOM      7  C   UNL A   1      32.049  21.268  22.824  1.00  0.00     0.007 C 
ENDBRANCH   5   6
BRANCH   5   8
ATOM      8  C   UNL A   1      33.624  23.350  25.562  1.00  0.00     0.037 C 
ATOM      9  C   UNL A   1      34.344  23.282  26.911  1.00  0.00     0.007 C 
ENDBRANCH   5   8
BRANCH   5  10
ATOM     10  N   UNL A   1      31.553  22.168  26.217  1.00  0.00    -0.322 N 
ATOM     11  C   UNL A   1      30.453  22.920  26.438  1.00  0.00     0.315 C 
ATOM     12  H   UNL A   1      31.648  21.440  26.874  1.00  0.00     0.166 HD
ATOM     13  O   UNL A   1      29.543  22.430  27.112  1.00  0.00    -0.249 OA
ATOM     14  N   UNL A   1      30.260  24.169  25.945  1.00  0.00    -0.332 N 
ATOM     15  H   UNL A   1      29.337  24.411  25.704  1.00  0.00     0.165 HD
BRANCH  14  16
ATOM     16  C   UNL A   1      31.270  25.179  25.733  1.00  0.00     0.182 C 
BRANCH  16  17
ATOM     17  C   UNL A   1      31.001  26.559  25.054  1.00  0.00     0.200 C 
ATOM     18  C   UNL A   1      30.446  26.411  23.640  1.00  0.00     0.077 C 
BRANCH  17  19
ATOM     19  N   UNL A   1      32.071  27.616  25.182  1.00  0.00    -0.331 N 
ATOM     20  C   UNL A   1      31.518  28.930  25.565  1.00  0.00     0.262 C 
ATOM     21  C   UNL A   1      33.205  27.203  26.013  1.00  0.00     0.262 C 
ATOM     22  H   UNL A   1      32.462  27.733  24.247  1.00  0.00     0.348 HD
ATOM     23  C   UNL A   1      32.508  30.047  25.880  1.00  0.00     0.062 C 
ATOM     24  C   UNL A   1      34.216  28.311  26.325  1.00  0.00     0.062 C 
ATOM     25  C   UNL A   1      33.565  29.576  26.859  1.00  0.00     0.012 C 
ENDBRANCH  17  19
ENDBRANCH  16  17
ENDBRANCH  14  16
ENDBRANCH   5  10
ENDBRANCH   3   5
ENDBRANCH   2   3
ENDBRANCH   1   2
BRANCH   1  26
ATOM     26  C   UNL A   1      37.021  21.252  24.493  1.00  0.00     0.275 C 
BRANCH  26  27
ATOM     27  O   UNL A   1      37.621  22.053  25.516  1.00  0.00    -0.458 OA
BRANCH  27  28
ATOM     28  C   UNL A   1      38.761  21.503  26.007  1.00  0.00     0.338 C 
ATOM     29  O   UNL A   1      39.231  20.419  25.727  1.00  0.00    -0.246 OA
BRANCH  28  30
ATOM     30  C   UNL A   1      39.514  22.631  26.577  1.00  0.00     0.060 A 
ATOM     31  C   UNL A   1      39.137  23.901  26.138  1.00  0.00     0.016 A 
ATOM     32  C   UNL A   1      40.459  22.473  27.586  1.00  0.00     0.016 A 
ATOM     33  C   UNL A   1      39.666  25.035  26.731  1.00  0.00     0.010 A 
ATOM     34  C   UNL A   1      41.040  23.612  28.142  1.00  0.00     0.010 A 
ATOM     35  C   UNL A   1      40.645  24.892  27.711  1.00  0.00    -0.014 A 
BRANCH  35  36
ATOM     36  C   UNL A   1      41.433  26.079  28.085  1.00  0.00     0.031 A 
ATOM     37  C   UNL A   1      40.727  27.127  28.892  1.00  0.00     0.074 A 
ATOM     38  C   UNL A   1      42.737  26.179  27.779  1.00  0.00     0.049 A 
ATOM     39  N   UNL A   1      41.086  28.348  29.164  1.00  0.00    -0.248 NA
ATOM     40  C   UNL A   1      39.426  26.734  29.463  1.00  0.00     0.031 C 
ATOM     41  C   UNL A   1      43.541  25.136  27.140  1.00  0.00     0.029 A 
ATOM     42  N   UNL A   1      43.614  27.215  27.960  1.00  0.00    -0.354 N 
ATOM     43  C   UNL A   1      40.038  28.887  29.902  1.00  0.00     0.074 A 
ATOM     44  C   UNL A   1      39.029  27.862  30.030  1.00  0.00     0.031 C 
ATOM     45  C   UNL A   1      44.788  25.600  26.956  1.00  0.00     0.029 A 
ATOM     46  C   UNL A   1      44.847  26.992  27.391  1.00  0.00     0.049 A 
ATOM     47  H   UNL A   1      43.385  28.039  28.448  1.00  0.00     0.167 HD
ATOM     48  C   UNL A   1      39.937  30.137  30.410  1.00  0.00     0.034 A 
ATOM     49  C   UNL A   1      45.869  27.848  27.195  1.00  0.00     0.034 A 
ATOM     50  C   UNL A   1      40.974  31.123  30.249  1.00  0.00     0.049 A 
ATOM     51  C   UNL A   1      45.687  29.275  27.663  1.00  0.00     0.074 A 
ATOM     52  C   UNL A   1      40.987  32.442  30.658  1.00  0.00     0.029 A 
ATOM     53  N   UNL A   1      42.194  30.885  29.623  1.00  0.00    -0.354 N 
ATOM     54  N   UNL A   1      44.658  29.820  28.278  1.00  0.00    -0.248 NA
ATOM     55  C   UNL A   1      46.794  30.202  27.409  1.00  0.00     0.031 C 
ATOM     56  C   UNL A   1      42.184  33.018  30.221  1.00  0.00     0.029 A 
ATOM     57  C   UNL A   1      42.958  32.038  29.616  1.00  0.00     0.049 A 
ATOM     58  H   UNL A   1      42.473  30.021  29.242  1.00  0.00     0.167 HD
ATOM     59  C   UNL A   1      45.010  31.148  28.508  1.00  0.00     0.074 A 
ATOM     60  C   UNL A   1      46.355  31.308  27.991  1.00  0.00     0.031 C 
ATOM     61  C   UNL A   1      44.296  32.151  29.085  1.00  0.00     0.034 A 
BRANCH  48  62
ATOM     62  C   UNL A   1      38.643  30.507  31.088  1.00  0.00     0.023 A 
ATOM     63  C   UNL A   1      37.594  31.143  30.403  1.00  0.00     0.031 A 
ATOM     64  C   UNL A   1      38.480  30.268  32.465  1.00  0.00     0.131 A 
ATOM     65  C   UNL A   1      36.459  31.576  31.106  1.00  0.00     0.055 A 
ATOM     66  C   UNL A   1      37.314  30.629  33.143  1.00  0.00     0.041 A 
ATOM     67  F   UNL A   1      39.462  29.698  33.180  1.00  0.00    -0.206 F 
ATOM     68  C   UNL A   1      36.300  31.299  32.465  1.00  0.00     0.022 A 
BRANCH  65  69
ATOM     69  S   UNL A   1      35.253  32.626  30.250  1.00  0.00     0.124 S 
ATOM     70  O   UNL A   1      34.226  32.789  31.277  1.00  0.00    -0.237 OA
ATOM     71  O   UNL A   1      36.036  33.816  29.936  1.00  0.00    -0.237 OA
ATOM     72  O   UNL A   1      34.852  31.820  29.099  1.00  0.00    -0.744 OA
ENDBRANCH  65  69
ENDBRANCH  48  62
BRANCH  49  73
ATOM     73  C   UNL A   1      47.101  27.432  26.458  1.00  0.00     0.023 A 
ATOM     74  C   UNL A   1      47.288  27.763  25.106  1.00  0.00     0.031 A 
ATOM     75  C   UNL A   1      48.077  26.621  27.069  1.00  0.00     0.131 A 
ATOM     76  C   UNL A   1      48.382  27.240  24.397  1.00  0.00     0.055 A 
ATOM     77  C   UNL A   1      49.200  26.161  26.379  1.00  0.00     0.041 A 
ATOM     78  F   UNL A   1      47.952  26.256  28.355  1.00  0.00    -0.206 F 
ATOM     79  C   UNL A   1      49.348  26.455  25.028  1.00  0.00     0.022 A 
BRANCH  76  80
ATOM     80  S   UNL A   1      48.455  27.496  22.602  1.00  0.00     0.124 S 
ATOM     81  O   UNL A   1      47.206  28.207  22.353  1.00  0.00    -0.237 OA
ATOM     82  O   UNL A   1      49.677  28.278  22.458  1.00  0.00    -0.237 OA
ATOM     83  O   UNL A   1      48.518  26.138  22.067  1.00  0.00    -0.744 OA
ENDBRANCH  76  80
ENDBRANCH  49  73
BRANCH  61  84
ATOM     84  C   UNL A   1      44.994  33.481  29.223  1.00  0.00     0.023 A 
ATOM     85  C   UNL A   1      45.040  34.402  28.163  1.00  0.00     0.031 A 
ATOM     86  C   UNL A   1      45.642  33.816  30.424  1.00  0.00     0.131 A 
ATOM     87  C   UNL A   1      45.789  35.577  28.298  1.00  0.00     0.055 A 
ATOM     88  C   UNL A   1      46.319  35.025  30.579  1.00  0.00     0.041 A 
ATOM     89  F   UNL A   1      45.629  32.971  31.468  1.00  0.00    -0.206 F 
ATOM     90  C   UNL A   1      46.410  35.906  29.505  1.00  0.00     0.022 A 
BRANCH  87  91
ATOM     91  S   UNL A   1      46.048  36.608  26.829  1.00  0.00     0.124 S 
ATOM     92  O   UNL A   1      45.833  35.651  25.748  1.00  0.00    -0.237 OA
ATOM     93  O   UNL A   1      45.024  37.636  26.984  1.00  0.00    -0.237 OA
ATOM     94  O   UNL A   1      47.425  37.077  26.979  1.00  0.00    -0.744 OA
ENDBRANCH  87  91
ENDBRANCH  61  84
ENDBRANCH  35  36
ENDBRANCH  28  30
ENDBRANCH  27  28
ENDBRANCH  26  27
ENDBRANCH   1  26
TORSDOF 20
ENDMDL
