MODEL 1
REMARK VINA RESULT:     -14.6      0.000      0.000
REMARK SMILES Cc1ccc(C[C@@H](Cc2cc(F)cc(Br)c2)C(=O)OCCOC(=O)c2ccc(-c3c4nc(c(-c5cc(S(=O)(=O)[O-])ccc5F)c5ccc([nH]5)c(-c5cc(S(=O)(=O)[O-])ccc5F)c5nc(c(-c6cc(S(=O)(=O)[O-])ccc6F)c6ccc3[nH]6)C=C5)C=C4)cc2)cc1
REMARK SMILES IDX 21 1 20 2 19 3 17 4 18 5 7 6 6 7 5 8 1 9 2 10 3 11 89 12
REMARK SMILES IDX 4 13 88 14 8 15 9 16 10 17 16 18 11 19 14 20 12 21 13 22
REMARK SMILES IDX 15 23 22 24 23 25 24 26 25 27 26 28 87 29 27 30 86 31 28 32
REMARK SMILES IDX 29 33 30 34 80 35 31 36 85 37 79 38 81 39 32 40 84 41 78 42
REMARK SMILES IDX 77 43 33 45 65 46 45 47 64 48 46 49 49 50 63 51 82 52 47 53
REMARK SMILES IDX 48 54 62 56 83 57 50 58 34 59 35 60 43 61 36 62 42 63 44 64
REMARK SMILES IDX 41 65 37 66 38 67 39 68 40 69 66 70 67 71 75 72 68 73 74 74
REMARK SMILES IDX 76 75 73 76 69 77 70 78 71 79 72 80 51 81 52 82 60 83 53 84
REMARK SMILES IDX 59 85 61 86 58 87 54 88 55 89 56 90 57 91
REMARK H PARENT 81 44 49 55
REMARK Flexibility Score: inf
ROOT
ATOM      1  C   UNL A   1      38.759  21.699  25.737  1.00  0.00     0.275 C 
ENDROOT
BRANCH   1   2
ATOM      2  C   UNL A   1      37.471  21.228  25.050  1.00  0.00     0.274 C 
BRANCH   2   3
ATOM      3  O   UNL A   1      36.536  22.291  25.108  1.00  0.00    -0.462 OA
BRANCH   3   4
ATOM      4  C   UNL A   1      35.759  22.530  23.902  1.00  0.00     0.309 C 
ATOM      5  O   UNL A   1      36.629  22.836  23.034  1.00  0.00    -0.252 OA
BRANCH   4   6
ATOM      6  C   UNL A   1      33.584  22.391  23.827  1.00  0.00     0.108 C 
BRANCH   6   7
ATOM      7  C   UNL A   1      32.462  21.039  23.451  1.00  0.00     0.051 C 
BRANCH   7   8
ATOM      8  C   UNL A   1      32.762  19.587  23.894  1.00  0.00    -0.047 A 
ATOM      9  C   UNL A   1      33.069  15.495  25.372  1.00  0.00     0.044 C 
ATOM     10  C   UNL A   1      32.969  16.907  24.872  1.00  0.00    -0.051 A 
ATOM     11  C   UNL A   1      32.943  17.167  23.502  1.00  0.00     0.004 A 
ATOM     12  C   UNL A   1      32.902  17.990  25.751  1.00  0.00     0.004 A 
ATOM     13  C   UNL A   1      32.821  18.483  23.022  1.00  0.00     0.004 A 
ATOM     14  C   UNL A   1      32.811  19.307  25.269  1.00  0.00     0.004 A 
ENDBRANCH   7   8
ENDBRANCH   6   7
BRANCH   6  15
ATOM     15  C   UNL A   1      32.411  22.963  25.089  1.00  0.00     0.051 C 
BRANCH  15  16
ATOM     16  C   UNL A   1      31.764  24.327  25.013  1.00  0.00    -0.043 A 
ATOM     17  C   UNL A   1      31.542  24.811  23.289  1.00  0.00     0.043 A 
ATOM     18  C   UNL A   1      31.854  25.665  26.338  1.00  0.00     0.019 A 
ATOM     19  C   UNL A   1      31.387  26.518  22.873  1.00  0.00     0.124 A 
ATOM     20  C   UNL A   1      31.594  27.378  25.889  1.00  0.00     0.021 A 
ATOM     21  F   UNL A   1      31.020  26.767  21.612  1.00  0.00    -0.207 F 
ATOM     22  C   UNL A   1      31.339  27.790  24.160  1.00  0.00     0.055 A 
ATOM     23  Br  UNL A   1      31.778  28.679  27.252  1.00  0.00    -0.051 Br
ENDBRANCH  15  16
ENDBRANCH   6  15
ENDBRANCH   4   6
ENDBRANCH   3   4
ENDBRANCH   2   3
ENDBRANCH   1   2
BRANCH   1  24
ATOM     24  O   UNL A   1      39.725  20.729  26.329  1.00  0.00    -0.458 OA
BRANCH  24  25
ATOM     25  C   UNL A   1      41.013  20.298  26.119  1.00  0.00     0.338 C 
ATOM     26  O   UNL A   1      41.253  19.251  25.529  1.00  0.00    -0.246 OA
BRANCH  25  27
ATOM     27  C   UNL A   1      42.182  21.116  26.596  1.00  0.00     0.060 A 
ATOM     28  C   UNL A   1      42.372  21.290  28.374  1.00  0.00     0.016 A 
ATOM     29  C   UNL A   1      42.408  22.491  25.529  1.00  0.00     0.016 A 
ATOM     30  C   UNL A   1      42.505  22.953  29.108  1.00  0.00     0.010 A 
ATOM     31  C   UNL A   1      42.653  24.108  26.210  1.00  0.00     0.010 A 
ATOM     32  C   UNL A   1      42.504  24.403  28.043  1.00  0.00    -0.014 A 
BRANCH  32  33
ATOM     33  C   UNL A   1      42.512  26.033  28.708  1.00  0.00     0.031 A 
ATOM     34  C   UNL A   1      40.819  27.348  28.499  1.00  0.00     0.074 A 
ATOM     35  C   UNL A   1      43.751  25.928  29.482  1.00  0.00     0.049 A 
ATOM     36  N   UNL A   1      40.691  28.686  28.308  1.00  0.00    -0.248 NA
ATOM     37  C   UNL A   1      39.147  27.007  28.374  1.00  0.00     0.031 C 
ATOM     38  C   UNL A   1      44.239  26.636  30.729  1.00  0.00     0.029 A 
ATOM     39  N   UNL A   1      45.014  25.595  28.916  1.00  0.00    -0.354 N 
ATOM     40  C   UNL A   1      39.473  29.177  28.691  1.00  0.00     0.074 A 
ATOM     41  C   UNL A   1      38.524  28.167  28.411  1.00  0.00     0.031 C 
ATOM     42  C   UNL A   1      45.492  27.075  30.590  1.00  0.00     0.029 A 
ATOM     43  C   UNL A   1      45.948  26.589  29.334  1.00  0.00     0.049 A 
ATOM     44  H   UNL A   1      45.208  24.820  28.342  1.00  0.00     0.167 HD
ATOM     45  C   UNL A   1      39.431  30.292  29.469  1.00  0.00     0.034 A 
ATOM     46  C   UNL A   1      46.818  27.257  28.545  1.00  0.00     0.034 A 
ATOM     47  C   UNL A   1      40.800  30.774  29.835  1.00  0.00     0.049 A 
ATOM     48  C   UNL A   1      46.470  28.762  28.480  1.00  0.00     0.074 A 
ATOM     49  C   UNL A   1      41.485  30.828  31.045  1.00  0.00     0.029 A 
ATOM     50  N   UNL A   1      41.780  31.026  28.862  1.00  0.00    -0.354 N 
ATOM     51  N   UNL A   1      45.371  29.333  28.957  1.00  0.00    -0.248 NA
ATOM     52  C   UNL A   1      47.391  29.754  27.926  1.00  0.00     0.031 C 
ATOM     53  C   UNL A   1      42.866  31.097  30.788  1.00  0.00     0.029 A 
ATOM     54  C   UNL A   1      43.056  31.175  29.418  1.00  0.00     0.049 A 
ATOM     55  H   UNL A   1      41.590  31.092  27.898  1.00  0.00     0.167 HD
ATOM     56  C   UNL A   1      45.332  30.673  28.573  1.00  0.00     0.074 A 
ATOM     57  C   UNL A   1      46.685  30.890  28.071  1.00  0.00     0.031 C 
ATOM     58  C   UNL A   1      44.224  31.516  28.585  1.00  0.00     0.034 A 
BRANCH  45  59
ATOM     59  C   UNL A   1      38.165  30.721  30.203  1.00  0.00     0.023 A 
ATOM     60  C   UNL A   1      37.189  31.387  29.453  1.00  0.00     0.031 A 
ATOM     61  C   UNL A   1      37.824  30.539  31.567  1.00  0.00     0.131 A 
ATOM     62  C   UNL A   1      36.022  31.905  30.034  1.00  0.00     0.055 A 
ATOM     63  C   UNL A   1      36.682  31.093  32.164  1.00  0.00     0.041 A 
ATOM     64  F   UNL A   1      38.517  29.754  32.396  1.00  0.00    -0.206 F 
ATOM     65  C   UNL A   1      35.766  31.784  31.394  1.00  0.00     0.022 A 
BRANCH  62  66
ATOM     66  S   UNL A   1      34.837  32.715  28.942  1.00  0.00     0.124 S 
ATOM     67  O   UNL A   1      34.120  31.572  28.383  1.00  0.00    -0.237 OA
ATOM     68  O   UNL A   1      34.090  33.556  29.870  1.00  0.00    -0.237 OA
ATOM     69  O   UNL A   1      35.688  33.438  27.999  1.00  0.00    -0.744 OA
ENDBRANCH  62  66
ENDBRANCH  45  59
BRANCH  46  70
ATOM     70  C   UNL A   1      47.430  26.274  27.591  1.00  0.00     0.023 A 
ATOM     71  C   UNL A   1      47.281  26.617  26.208  1.00  0.00     0.031 A 
ATOM     72  C   UNL A   1      48.566  25.541  27.945  1.00  0.00     0.131 A 
ATOM     73  C   UNL A   1      48.374  26.513  25.328  1.00  0.00     0.055 A 
ATOM     74  C   UNL A   1      49.602  25.328  27.018  1.00  0.00     0.041 A 
ATOM     75  F   UNL A   1      48.791  25.216  29.225  1.00  0.00    -0.206 F 
ATOM     76  C   UNL A   1      49.550  25.895  25.740  1.00  0.00     0.022 A 
BRANCH  73  77
ATOM     77  S   UNL A   1      48.336  27.449  23.757  1.00  0.00     0.124 S 
ATOM     78  O   UNL A   1      47.119  28.240  23.904  1.00  0.00    -0.237 OA
ATOM     79  O   UNL A   1      49.589  28.201  23.811  1.00  0.00    -0.237 OA
ATOM     80  O   UNL A   1      48.276  26.417  22.726  1.00  0.00    -0.744 OA
ENDBRANCH  73  77
ENDBRANCH  46  70
BRANCH  58  81
ATOM     81  C   UNL A   1      44.152  32.853  27.823  1.00  0.00     0.023 A 
ATOM     82  C   UNL A   1      44.011  34.090  28.460  1.00  0.00     0.031 A 
ATOM     83  C   UNL A   1      44.268  32.935  26.408  1.00  0.00     0.131 A 
ATOM     84  C   UNL A   1      43.790  35.274  27.737  1.00  0.00     0.055 A 
ATOM     85  C   UNL A   1      44.199  34.139  25.694  1.00  0.00     0.041 A 
ATOM     86  F   UNL A   1      44.455  31.856  25.635  1.00  0.00    -0.206 F 
ATOM     87  C   UNL A   1      43.909  35.317  26.354  1.00  0.00     0.022 A 
BRANCH  84  88
ATOM     88  S   UNL A   1      43.177  36.709  28.655  1.00  0.00     0.124 S 
ATOM     89  O   UNL A   1      41.738  36.454  28.673  1.00  0.00    -0.237 OA
ATOM     90  O   UNL A   1      43.858  36.579  29.938  1.00  0.00    -0.237 OA
ATOM     91  O   UNL A   1      43.594  37.846  27.838  1.00  0.00    -0.744 OA
ENDBRANCH  84  88
ENDBRANCH  58  81
ENDBRANCH  32  33
ENDBRANCH  25  27
ENDBRANCH  24  25
ENDBRANCH   1  24
TORSDOF 18
ENDMDL
MODEL 2
REMARK VINA RESULT:     -14.5      2.813      3.973
REMARK SMILES Cc1ccc(C[C@@H](Cc2cc(F)cc(Br)c2)C(=O)OCCOC(=O)c2ccc(-c3c4nc(c(-c5cc(S(=O)(=O)[O-])ccc5F)c5ccc([nH]5)c(-c5cc(S(=O)(=O)[O-])ccc5F)c5nc(c(-c6cc(S(=O)(=O)[O-])ccc6F)c6ccc3[nH]6)C=C5)C=C4)cc2)cc1
REMARK SMILES IDX 21 1 20 2 19 3 17 4 18 5 7 6 6 7 5 8 1 9 2 10 3 11 89 12
REMARK SMILES IDX 4 13 88 14 8 15 9 16 10 17 16 18 11 19 14 20 12 21 13 22
REMARK SMILES IDX 15 23 22 24 23 25 24 26 25 27 26 28 87 29 27 30 86 31 28 32
REMARK SMILES IDX 29 33 30 34 80 35 31 36 85 37 79 38 81 39 32 40 84 41 78 42
REMARK SMILES IDX 77 43 33 45 65 46 45 47 64 48 46 49 49 50 63 51 82 52 47 53
REMARK SMILES IDX 48 54 62 56 83 57 50 58 34 59 35 60 43 61 36 62 42 63 44 64
REMARK SMILES IDX 41 65 37 66 38 67 39 68 40 69 66 70 67 71 75 72 68 73 74 74
REMARK SMILES IDX 76 75 73 76 69 77 70 78 71 79 72 80 51 81 52 82 60 83 53 84
REMARK SMILES IDX 59 85 61 86 58 87 54 88 55 89 56 90 57 91
REMARK H PARENT 81 44 49 55
REMARK Flexibility Score: inf
ROOT
ATOM      1  C   UNL A   1      38.855  21.578  25.778  1.00  0.00     0.275 C 
ENDROOT
BRANCH   1   2
ATOM      2  C   UNL A   1      37.653  22.472  25.446  1.00  0.00     0.274 C 
BRANCH   2   3
ATOM      3  O   UNL A   1      37.064  21.980  24.256  1.00  0.00    -0.462 OA
BRANCH   3   4
ATOM      4  C   UNL A   1      36.223  22.912  23.522  1.00  0.00     0.309 C 
ATOM      5  O   UNL A   1      37.030  23.506  22.746  1.00  0.00    -0.252 OA
BRANCH   4   6
ATOM      6  C   UNL A   1      34.080  23.126  23.867  1.00  0.00     0.108 C 
BRANCH   6   7
ATOM      7  C   UNL A   1      32.786  21.945  24.266  1.00  0.00     0.051 C 
BRANCH   7   8
ATOM      8  C   UNL A   1      33.035  20.418  24.210  1.00  0.00    -0.047 A 
ATOM      9  C   UNL A   1      33.898  16.203  23.499  1.00  0.00     0.044 C 
ATOM     10  C   UNL A   1      33.591  17.652  23.742  1.00  0.00    -0.051 A 
ATOM     11  C   UNL A   1      34.370  18.397  24.628  1.00  0.00     0.004 A 
ATOM     12  C   UNL A   1      32.528  18.291  23.101  1.00  0.00     0.004 A 
ATOM     13  C   UNL A   1      34.109  19.761  24.842  1.00  0.00     0.004 A 
ATOM     14  C   UNL A   1      32.249  19.647  23.340  1.00  0.00     0.004 A 
ENDBRANCH   7   8
ENDBRANCH   6   7
BRANCH   6  15
ATOM     15  C   UNL A   1      33.267  24.327  24.959  1.00  0.00     0.051 C 
BRANCH  15  16
ATOM     16  C   UNL A   1      33.136  25.785  24.579  1.00  0.00    -0.043 A 
ATOM     17  C   UNL A   1      34.022  26.815  25.766  1.00  0.00     0.043 A 
ATOM     18  C   UNL A   1      31.730  26.540  23.577  1.00  0.00     0.019 A 
ATOM     19  C   UNL A   1      33.579  28.513  25.952  1.00  0.00     0.124 A 
ATOM     20  C   UNL A   1      31.375  28.289  23.723  1.00  0.00     0.021 A 
ATOM     21  F   UNL A   1      34.418  29.243  26.694  1.00  0.00    -0.207 F 
ATOM     22  C   UNL A   1      32.319  29.268  24.894  1.00  0.00     0.055 A 
ATOM     23  Br  UNL A   1      29.898  28.968  22.750  1.00  0.00    -0.051 Br
ENDBRANCH  15  16
ENDBRANCH   6  15
ENDBRANCH   4   6
ENDBRANCH   3   4
ENDBRANCH   2   3
ENDBRANCH   1   2
BRANCH   1  24
ATOM     24  O   UNL A   1      40.085  22.133  26.416  1.00  0.00    -0.458 OA
BRANCH  24  25
ATOM     25  C   UNL A   1      40.469  23.254  27.110  1.00  0.00     0.338 C 
ATOM     26  O   UNL A   1      41.472  23.265  27.813  1.00  0.00    -0.246 OA
BRANCH  25  27
ATOM     27  C   UNL A   1      39.669  24.526  27.015  1.00  0.00     0.060 A 
ATOM     28  C   UNL A   1      40.403  25.870  26.077  1.00  0.00     0.016 A 
ATOM     29  C   UNL A   1      38.871  24.830  28.548  1.00  0.00     0.016 A 
ATOM     30  C   UNL A   1      40.588  27.512  26.847  1.00  0.00     0.010 A 
ATOM     31  C   UNL A   1      38.934  26.445  29.273  1.00  0.00     0.010 A 
ATOM     32  C   UNL A   1      39.982  27.789  28.519  1.00  0.00    -0.014 A 
BRANCH  32  33
ATOM     33  C   UNL A   1      40.240  29.318  29.351  1.00  0.00     0.031 A 
ATOM     34  C   UNL A   1      38.696  30.816  29.467  1.00  0.00     0.074 A 
ATOM     35  C   UNL A   1      41.525  28.995  29.971  1.00  0.00     0.049 A 
ATOM     36  N   UNL A   1      38.704  32.173  29.437  1.00  0.00    -0.248 NA
ATOM     37  C   UNL A   1      36.992  30.666  29.487  1.00  0.00     0.031 C 
ATOM     38  C   UNL A   1      42.208  29.495  31.228  1.00  0.00     0.029 A 
ATOM     39  N   UNL A   1      42.683  28.603  29.241  1.00  0.00    -0.354 N 
ATOM     40  C   UNL A   1      37.593  32.738  29.999  1.00  0.00     0.074 A 
ATOM     41  C   UNL A   1      36.512  31.872  29.716  1.00  0.00     0.031 C 
ATOM     42  C   UNL A   1      43.484  29.816  31.004  1.00  0.00     0.029 A 
ATOM     43  C   UNL A   1      43.760  29.439  29.661  1.00  0.00     0.049 A 
ATOM     44  H   UNL A   1      42.731  27.885  28.569  1.00  0.00     0.167 HD
ATOM     45  C   UNL A   1      37.753  33.751  30.892  1.00  0.00     0.034 A 
ATOM     46  C   UNL A   1      44.622  30.103  28.861  1.00  0.00     0.034 A 
ATOM     47  C   UNL A   1      39.197  34.042  31.160  1.00  0.00     0.049 A 
ATOM     48  C   UNL A   1      44.445  31.633  28.995  1.00  0.00     0.074 A 
ATOM     49  C   UNL A   1      39.995  33.881  32.289  1.00  0.00     0.029 A 
ATOM     50  N   UNL A   1      40.102  34.306  30.120  1.00  0.00    -0.354 N 
ATOM     51  N   UNL A   1      43.469  32.253  29.646  1.00  0.00    -0.248 NA
ATOM     52  C   UNL A   1      45.416  32.583  28.456  1.00  0.00     0.031 C 
ATOM     53  C   UNL A   1      41.366  34.035  31.915  1.00  0.00     0.029 A 
ATOM     54  C   UNL A   1      41.434  34.256  30.549  1.00  0.00     0.049 A 
ATOM     55  H   UNL A   1      39.830  34.505  29.195  1.00  0.00     0.167 HD
ATOM     56  C   UNL A   1      43.547  33.626  29.416  1.00  0.00     0.074 A 
ATOM     57  C   UNL A   1      44.862  33.760  28.798  1.00  0.00     0.031 C 
ATOM     58  C   UNL A   1      42.549  34.571  29.638  1.00  0.00     0.034 A 
BRANCH  45  59
ATOM     59  C   UNL A   1      36.620  34.217  31.800  1.00  0.00     0.023 A 
ATOM     60  C   UNL A   1      35.448  34.662  31.178  1.00  0.00     0.031 A 
ATOM     61  C   UNL A   1      36.578  34.267  33.216  1.00  0.00     0.131 A 
ATOM     62  C   UNL A   1      34.370  35.195  31.901  1.00  0.00     0.055 A 
ATOM     63  C   UNL A   1      35.524  34.840  33.944  1.00  0.00     0.041 A 
ATOM     64  F   UNL A   1      37.503  33.700  33.996  1.00  0.00    -0.206 F 
ATOM     65  C   UNL A   1      34.405  35.309  33.285  1.00  0.00     0.022 A 
BRANCH  62  66
ATOM     66  S   UNL A   1      32.911  35.703  30.970  1.00  0.00     0.124 S 
ATOM     67  O   UNL A   1      32.986  34.829  29.803  1.00  0.00    -0.237 OA
ATOM     68  O   UNL A   1      31.834  35.429  31.915  1.00  0.00    -0.237 OA
ATOM     69  O   UNL A   1      33.158  37.119  30.705  1.00  0.00    -0.744 OA
ENDBRANCH  62  66
ENDBRANCH  45  59
BRANCH  46  70
ATOM     70  C   UNL A   1      45.024  29.182  27.746  1.00  0.00     0.023 A 
ATOM     71  C   UNL A   1      45.898  28.119  28.141  1.00  0.00     0.031 A 
ATOM     72  C   UNL A   1      44.162  28.931  26.675  1.00  0.00     0.131 A 
ATOM     73  C   UNL A   1      45.665  26.803  27.697  1.00  0.00     0.055 A 
ATOM     74  C   UNL A   1      44.028  27.634  26.148  1.00  0.00     0.041 A 
ATOM     75  F   UNL A   1      43.290  29.866  26.273  1.00  0.00    -0.206 F 
ATOM     76  C   UNL A   1      44.707  26.553  26.720  1.00  0.00     0.022 A 
BRANCH  73  77
ATOM     77  S   UNL A   1      46.415  25.413  28.618  1.00  0.00     0.124 S 
ATOM     78  O   UNL A   1      45.983  25.686  29.985  1.00  0.00    -0.237 OA
ATOM     79  O   UNL A   1      45.801  24.249  27.981  1.00  0.00    -0.237 OA
ATOM     80  O   UNL A   1      47.850  25.563  28.386  1.00  0.00    -0.744 OA
ENDBRANCH  73  77
ENDBRANCH  46  70
BRANCH  58  81
ATOM     81  C   UNL A   1      42.559  35.989  29.036  1.00  0.00     0.023 A 
ATOM     82  C   UNL A   1      43.244  37.061  29.617  1.00  0.00     0.031 A 
ATOM     83  C   UNL A   1      41.904  36.307  27.814  1.00  0.00     0.131 A 
ATOM     84  C   UNL A   1      43.108  38.375  29.136  1.00  0.00     0.055 A 
ATOM     85  C   UNL A   1      41.895  37.591  27.253  1.00  0.00     0.041 A 
ATOM     86  F   UNL A   1      41.236  35.396  27.095  1.00  0.00    -0.206 F 
ATOM     87  C   UNL A   1      42.459  38.649  27.940  1.00  0.00     0.022 A 
BRANCH  84  88
ATOM     88  S   UNL A   1      43.660  39.719  30.215  1.00  0.00     0.124 S 
ATOM     89  O   UNL A   1      42.429  40.491  30.377  1.00  0.00    -0.237 OA
ATOM     90  O   UNL A   1      44.117  39.005  31.402  1.00  0.00    -0.237 OA
ATOM     91  O   UNL A   1      44.707  40.378  29.439  1.00  0.00    -0.744 OA
ENDBRANCH  84  88
ENDBRANCH  58  81
ENDBRANCH  32  33
ENDBRANCH  25  27
ENDBRANCH  24  25
ENDBRANCH   1  24
TORSDOF 18
ENDMDL
MODEL 3
REMARK VINA RESULT:     -14.1      3.165      5.277
REMARK SMILES Cc1ccc(C[C@@H](Cc2cc(F)cc(Br)c2)C(=O)OCCOC(=O)c2ccc(-c3c4nc(c(-c5cc(S(=O)(=O)[O-])ccc5F)c5ccc([nH]5)c(-c5cc(S(=O)(=O)[O-])ccc5F)c5nc(c(-c6cc(S(=O)(=O)[O-])ccc6F)c6ccc3[nH]6)C=C5)C=C4)cc2)cc1
REMARK SMILES IDX 21 1 20 2 19 3 17 4 18 5 7 6 6 7 5 8 1 9 2 10 3 11 89 12
REMARK SMILES IDX 4 13 88 14 8 15 9 16 10 17 16 18 11 19 14 20 12 21 13 22
REMARK SMILES IDX 15 23 22 24 23 25 24 26 25 27 26 28 87 29 27 30 86 31 28 32
REMARK SMILES IDX 29 33 30 34 80 35 31 36 85 37 79 38 81 39 32 40 84 41 78 42
REMARK SMILES IDX 77 43 33 45 65 46 45 47 64 48 46 49 49 50 63 51 82 52 47 53
REMARK SMILES IDX 48 54 62 56 83 57 50 58 34 59 35 60 43 61 36 62 42 63 44 64
REMARK SMILES IDX 41 65 37 66 38 67 39 68 40 69 66 70 67 71 75 72 68 73 74 74
REMARK SMILES IDX 76 75 73 76 69 77 70 78 71 79 72 80 51 81 52 82 60 83 53 84
REMARK SMILES IDX 59 85 61 86 58 87 54 88 55 89 56 90 57 91
REMARK H PARENT 81 44 49 55
REMARK Flexibility Score: inf
ROOT
ATOM      1  C   UNL A   1      39.503  21.370  25.776  1.00  0.00     0.275 C 
ENDROOT
BRANCH   1   2
ATOM      2  C   UNL A   1      37.996  21.108  25.888  1.00  0.00     0.274 C 
BRANCH   2   3
ATOM      3  O   UNL A   1      37.345  21.903  24.913  1.00  0.00    -0.462 OA
BRANCH   3   4
ATOM      4  C   UNL A   1      36.691  23.108  25.399  1.00  0.00     0.309 C 
ATOM      5  O   UNL A   1      37.527  24.029  25.154  1.00  0.00    -0.252 OA
BRANCH   4   6
ATOM      6  C   UNL A   1      34.730  23.111  26.351  1.00  0.00     0.108 C 
BRANCH   6   7
ATOM      7  C   UNL A   1      33.371  24.286  26.338  1.00  0.00     0.051 C 
BRANCH   7   8
ATOM      8  C   UNL A   1      33.351  25.495  25.372  1.00  0.00    -0.047 A 
ATOM      9  C   UNL A   1      33.857  28.977  22.796  1.00  0.00     0.044 C 
ATOM     10  C   UNL A   1      33.678  27.785  23.690  1.00  0.00    -0.051 A 
ATOM     11  C   UNL A   1      33.457  26.522  23.141  1.00  0.00     0.004 A 
ATOM     12  C   UNL A   1      33.724  27.901  25.081  1.00  0.00     0.004 A 
ATOM     13  C   UNL A   1      33.317  25.393  23.968  1.00  0.00     0.004 A 
ATOM     14  C   UNL A   1      33.553  26.777  25.906  1.00  0.00     0.004 A 
ENDBRANCH   7   8
ENDBRANCH   6   7
BRANCH   6  15
ATOM     15  C   UNL A   1      33.515  21.763  26.346  1.00  0.00     0.051 C 
BRANCH  15  16
ATOM     16  C   UNL A   1      33.549  20.666  25.305  1.00  0.00    -0.043 A 
ATOM     17  C   UNL A   1      32.839  21.261  23.757  1.00  0.00     0.043 A 
ATOM     18  C   UNL A   1      33.566  18.815  25.656  1.00  0.00     0.019 A 
ATOM     19  C   UNL A   1      32.198  20.105  22.588  1.00  0.00     0.124 A 
ATOM     20  C   UNL A   1      32.997  17.668  24.404  1.00  0.00     0.021 A 
ATOM     21  F   UNL A   1      31.887  20.617  21.392  1.00  0.00    -0.207 F 
ATOM     22  C   UNL A   1      32.338  18.323  22.868  1.00  0.00     0.055 A 
ATOM     23  Br  UNL A   1      32.965  15.828  24.850  1.00  0.00    -0.051 Br
ENDBRANCH  15  16
ENDBRANCH   6  15
ENDBRANCH   4   6
ENDBRANCH   3   4
ENDBRANCH   2   3
ENDBRANCH   1   2
BRANCH   1  24
ATOM     24  O   UNL A   1      40.255  22.067  26.861  1.00  0.00    -0.458 OA
BRANCH  24  25
ATOM     25  C   UNL A   1      40.799  23.304  27.106  1.00  0.00     0.338 C 
ATOM     26  O   UNL A   1      41.978  23.440  27.413  1.00  0.00    -0.246 OA
BRANCH  25  27
ATOM     27  C   UNL A   1      39.960  24.548  26.988  1.00  0.00     0.060 A 
ATOM     28  C   UNL A   1      40.672  25.915  26.066  1.00  0.00     0.016 A 
ATOM     29  C   UNL A   1      39.113  24.827  28.499  1.00  0.00     0.016 A 
ATOM     30  C   UNL A   1      40.782  27.563  26.839  1.00  0.00     0.010 A 
ATOM     31  C   UNL A   1      39.104  26.444  29.223  1.00  0.00     0.010 A 
ATOM     32  C   UNL A   1      40.124  27.821  28.494  1.00  0.00    -0.014 A 
BRANCH  32  33
ATOM     33  C   UNL A   1      40.309  29.359  29.329  1.00  0.00     0.031 A 
ATOM     34  C   UNL A   1      38.747  30.841  29.327  1.00  0.00     0.074 A 
ATOM     35  C   UNL A   1      41.552  29.053  30.039  1.00  0.00     0.049 A 
ATOM     36  N   UNL A   1      38.744  32.198  29.285  1.00  0.00    -0.248 NA
ATOM     37  C   UNL A   1      37.047  30.674  29.229  1.00  0.00     0.031 C 
ATOM     38  C   UNL A   1      42.141  29.570  31.336  1.00  0.00     0.029 A 
ATOM     39  N   UNL A   1      42.761  28.668  29.394  1.00  0.00    -0.354 N 
ATOM     40  C   UNL A   1      37.591  32.756  29.765  1.00  0.00     0.074 A 
ATOM     41  C   UNL A   1      36.541  31.876  29.415  1.00  0.00     0.031 C 
ATOM     42  C   UNL A   1      43.426  29.902  31.198  1.00  0.00     0.029 A 
ATOM     43  C   UNL A   1      43.799  29.518  29.881  1.00  0.00     0.049 A 
ATOM     44  H   UNL A   1      42.863  27.946  28.733  1.00  0.00     0.167 HD
ATOM     45  C   UNL A   1      37.679  33.777  30.659  1.00  0.00     0.034 A 
ATOM     46  C   UNL A   1      44.707  30.185  29.136  1.00  0.00     0.034 A 
ATOM     47  C   UNL A   1      39.098  34.085  31.024  1.00  0.00     0.049 A 
ATOM     48  C   UNL A   1      44.506  31.714  29.246  1.00  0.00     0.074 A 
ATOM     49  C   UNL A   1      39.818  33.941  32.206  1.00  0.00     0.029 A 
ATOM     50  N   UNL A   1      40.070  34.351  30.047  1.00  0.00    -0.354 N 
ATOM     51  N   UNL A   1      43.482  32.328  29.823  1.00  0.00    -0.248 NA
ATOM     52  C   UNL A   1      45.503  32.670  28.767  1.00  0.00     0.031 C 
ATOM     53  C   UNL A   1      41.210  34.106  31.926  1.00  0.00     0.029 A 
ATOM     54  C   UNL A   1      41.370  34.317  30.567  1.00  0.00     0.049 A 
ATOM     55  H   UNL A   1      39.861  34.540  29.104  1.00  0.00     0.167 HD
ATOM     56  C   UNL A   1      43.563  33.700  29.587  1.00  0.00     0.074 A 
ATOM     57  C   UNL A   1      44.916  33.843  29.060  1.00  0.00     0.031 C 
ATOM     58  C   UNL A   1      42.542  34.637  29.732  1.00  0.00     0.034 A 
BRANCH  45  59
ATOM     59  C   UNL A   1      36.481  34.238  31.483  1.00  0.00     0.023 A 
ATOM     60  C   UNL A   1      35.402  34.789  30.783  1.00  0.00     0.031 A 
ATOM     61  C   UNL A   1      36.297  34.190  32.887  1.00  0.00     0.131 A 
ATOM     62  C   UNL A   1      34.281  35.326  31.434  1.00  0.00     0.055 A 
ATOM     63  C   UNL A   1      35.201  34.766  33.549  1.00  0.00     0.041 A 
ATOM     64  F   UNL A   1      37.109  33.520  33.710  1.00  0.00    -0.206 F 
ATOM     65  C   UNL A   1      34.178  35.341  32.820  1.00  0.00     0.022 A 
BRANCH  62  66
ATOM     66  S   UNL A   1      32.951  35.977  30.405  1.00  0.00     0.124 S 
ATOM     67  O   UNL A   1      32.004  36.453  31.409  1.00  0.00    -0.237 OA
ATOM     68  O   UNL A   1      33.639  37.002  29.628  1.00  0.00    -0.237 OA
ATOM     69  O   UNL A   1      32.515  34.809  29.642  1.00  0.00    -0.744 OA
ENDBRANCH  62  66
ENDBRANCH  45  59
BRANCH  46  70
ATOM     70  C   UNL A   1      45.195  29.260  28.059  1.00  0.00     0.023 A 
ATOM     71  C   UNL A   1      45.979  28.159  28.532  1.00  0.00     0.031 A 
ATOM     72  C   UNL A   1      44.447  29.054  26.897  1.00  0.00     0.131 A 
ATOM     73  C   UNL A   1      45.746  26.859  28.047  1.00  0.00     0.055 A 
ATOM     74  C   UNL A   1      44.322  27.768  26.340  1.00  0.00     0.041 A 
ATOM     75  F   UNL A   1      43.660  30.026  26.415  1.00  0.00    -0.206 F 
ATOM     76  C   UNL A   1      44.892  26.655  26.968  1.00  0.00     0.022 A 
BRANCH  73  77
ATOM     77  S   UNL A   1      46.337  25.431  29.025  1.00  0.00     0.124 S 
ATOM     78  O   UNL A   1      47.785  25.605  28.971  1.00  0.00    -0.237 OA
ATOM     79  O   UNL A   1      45.720  25.668  30.329  1.00  0.00    -0.237 OA
ATOM     80  O   UNL A   1      45.832  24.267  28.301  1.00  0.00    -0.744 OA
ENDBRANCH  73  77
ENDBRANCH  46  70
BRANCH  58  81
ATOM     81  C   UNL A   1      42.580  36.050  29.121  1.00  0.00     0.023 A 
ATOM     82  C   UNL A   1      43.305  37.107  29.682  1.00  0.00     0.031 A 
ATOM     83  C   UNL A   1      41.911  36.380  27.910  1.00  0.00     0.131 A 
ATOM     84  C   UNL A   1      43.197  38.421  29.195  1.00  0.00     0.055 A 
ATOM     85  C   UNL A   1      41.926  37.660  27.341  1.00  0.00     0.041 A 
ATOM     86  F   UNL A   1      41.204  35.483  27.209  1.00  0.00    -0.206 F 
ATOM     87  C   UNL A   1      42.533  38.706  28.009  1.00  0.00     0.022 A 
BRANCH  84  88
ATOM     88  S   UNL A   1      43.806  39.756  30.255  1.00  0.00     0.124 S 
ATOM     89  O   UNL A   1      42.847  40.820  29.968  1.00  0.00    -0.237 OA
ATOM     90  O   UNL A   1      43.717  39.168  31.587  1.00  0.00    -0.237 OA
ATOM     91  O   UNL A   1      45.162  39.995  29.766  1.00  0.00    -0.744 OA
ENDBRANCH  84  88
ENDBRANCH  58  81
ENDBRANCH  32  33
ENDBRANCH  25  27
ENDBRANCH  24  25
ENDBRANCH   1  24
TORSDOF 18
ENDMDL
