MODEL 1
REMARK VINA RESULT:     -12.3      0.000      0.000
REMARK SMILES O=C(OCCOC(=O)[C@@H](c1c[nH]c2cc(OCc3ccccc3)ccc12)[NH+]1CCSCC1)c1ccc(-c2c3nc(c(-c4cc(S(=O)(=O)[O-])ccc4F)c4ccc([nH]4)c(-c4cc(S(=O)(=O)[O-])ccc4F)c4nc(c(-c5cc(S(=O)(=O)[O-])ccc5F)c5ccc2[nH]5)C=C4)C=C3)cc1
REMARK SMILES IDX 5 1 4 2 3 3 2 4 1 5 33 6 34 7 95 8 35 9 94 10 36 11 37 12
REMARK SMILES IDX 38 13 88 14 39 15 93 16 87 17 89 18 40 19 92 20 86 21 85 22
REMARK SMILES IDX 41 24 73 25 53 26 72 27 54 28 57 29 71 30 90 31 55 32 56 33
REMARK SMILES IDX 70 35 91 36 58 37 42 38 43 39 51 40 44 41 50 42 52 43 49 44
REMARK SMILES IDX 45 45 46 46 47 47 48 48 74 49 75 50 83 51 76 52 82 53 84 54
REMARK SMILES IDX 81 55 77 56 78 57 79 58 80 59 59 60 60 61 68 62 61 63 67 64
REMARK SMILES IDX 69 65 66 66 62 67 63 68 64 69 65 70 6 71 7 72 8 73 9 74
REMARK SMILES IDX 10 75 11 76 26 77 12 78 13 79 25 80 14 82 24 83 15 84 16 85
REMARK SMILES IDX 17 86 18 87 19 88 23 89 20 90 22 91 21 92 27 93 28 94 32 95
REMARK SMILES IDX 29 97 31 98 30 99
REMARK H PARENT 89 23 57 34 12 81 27 96
REMARK Flexibility Score: inf
ROOT
ATOM      1  C   UNL A   1      33.905  29.261  26.638  1.00  0.00     0.274 C 
ENDROOT
BRANCH   1   2
ATOM      2  C   UNL A   1      33.411  30.704  26.662  1.00  0.00     0.275 C 
BRANCH   2   3
ATOM      3  O   UNL A   1      33.394  31.316  27.955  1.00  0.00    -0.458 OA
BRANCH   3   4
ATOM      4  C   UNL A   1      34.413  31.917  28.612  1.00  0.00     0.338 C 
ATOM      5  O   UNL A   1      34.278  33.095  28.937  1.00  0.00    -0.246 OA
BRANCH   4   6
ATOM      6  C   UNL A   1      35.744  31.263  28.825  1.00  0.00     0.060 A 
ATOM      7  C   UNL A   1      36.994  31.697  28.368  1.00  0.00     0.016 A 
ATOM      8  C   UNL A   1      35.711  30.082  29.565  1.00  0.00     0.016 A 
ATOM      9  C   UNL A   1      38.182  31.052  28.756  1.00  0.00     0.010 A 
ATOM     10  C   UNL A   1      36.889  29.453  29.963  1.00  0.00     0.010 A 
ATOM     11  C   UNL A   1      38.150  29.943  29.600  1.00  0.00    -0.014 A 
BRANCH  11  12
ATOM     12  C   UNL A   1      39.388  29.245  30.063  1.00  0.00     0.031 A 
ATOM     13  C   UNL A   1      40.170  29.825  31.217  1.00  0.00     0.074 A 
ATOM     14  C   UNL A   1      39.888  28.176  29.402  1.00  0.00     0.049 A 
ATOM     15  N   UNL A   1      41.359  29.508  31.665  1.00  0.00    -0.248 NA
ATOM     16  C   UNL A   1      39.561  30.975  31.901  1.00  0.00     0.031 C 
ATOM     17  C   UNL A   1      39.315  27.561  28.203  1.00  0.00     0.029 A 
ATOM     18  N   UNL A   1      41.030  27.442  29.626  1.00  0.00    -0.354 N 
ATOM     19  C   UNL A   1      41.629  30.432  32.670  1.00  0.00     0.074 A 
ATOM     20  C   UNL A   1      40.577  31.422  32.618  1.00  0.00     0.031 C 
ATOM     21  C   UNL A   1      40.119  26.566  27.784  1.00  0.00     0.029 A 
ATOM     22  C   UNL A   1      41.261  26.464  28.684  1.00  0.00     0.049 A 
ATOM     23  H   UNL A   1      41.629  27.602  30.392  1.00  0.00     0.167 HD
ATOM     24  C   UNL A   1      42.589  30.408  33.630  1.00  0.00     0.034 A 
ATOM     25  C   UNL A   1      42.278  25.584  28.564  1.00  0.00     0.034 A 
ATOM     26  C   UNL A   1      43.585  29.375  33.731  1.00  0.00     0.049 A 
ATOM     27  C   UNL A   1      43.338  25.547  29.639  1.00  0.00     0.074 A 
ATOM     28  C   UNL A   1      44.552  29.190  34.702  1.00  0.00     0.029 A 
ATOM     29  N   UNL A   1      43.720  28.329  32.829  1.00  0.00    -0.354 N 
ATOM     30  N   UNL A   1      43.516  26.364  30.652  1.00  0.00    -0.248 NA
ATOM     31  C   UNL A   1      44.300  24.438  29.586  1.00  0.00     0.031 C 
ATOM     32  C   UNL A   1      45.278  28.036  34.381  1.00  0.00     0.029 A 
ATOM     33  C   UNL A   1      44.740  27.484  33.230  1.00  0.00     0.049 A 
ATOM     34  H   UNL A   1      43.169  28.205  32.021  1.00  0.00     0.167 HD
ATOM     35  C   UNL A   1      44.564  25.823  31.393  1.00  0.00     0.074 A 
ATOM     36  C   UNL A   1      44.985  24.622  30.704  1.00  0.00     0.031 C 
ATOM     37  C   UNL A   1      45.119  26.270  32.549  1.00  0.00     0.034 A 
BRANCH  24  38
ATOM     38  C   UNL A   1      42.520  31.498  34.673  1.00  0.00     0.023 A 
ATOM     39  C   UNL A   1      41.517  31.468  35.661  1.00  0.00     0.031 A 
ATOM     40  C   UNL A   1      43.360  32.620  34.626  1.00  0.00     0.131 A 
ATOM     41  C   UNL A   1      41.272  32.601  36.446  1.00  0.00     0.055 A 
ATOM     42  C   UNL A   1      43.186  33.701  35.497  1.00  0.00     0.041 A 
ATOM     43  F   UNL A   1      44.335  32.709  33.708  1.00  0.00    -0.206 F 
ATOM     44  C   UNL A   1      42.116  33.709  36.392  1.00  0.00     0.022 A 
BRANCH  41  45
ATOM     45  S   UNL A   1      39.710  32.673  37.365  1.00  0.00     0.124 S 
ATOM     46  O   UNL A   1      39.149  33.936  36.885  1.00  0.00    -0.237 OA
ATOM     47  O   UNL A   1      39.025  31.467  36.930  1.00  0.00    -0.237 OA
ATOM     48  O   UNL A   1      40.139  32.681  38.765  1.00  0.00    -0.744 OA
ENDBRANCH  41  45
ENDBRANCH  24  38
BRANCH  25  49
ATOM     49  C   UNL A   1      42.341  24.634  27.415  1.00  0.00     0.023 A 
ATOM     50  C   UNL A   1      41.583  23.453  27.411  1.00  0.00     0.031 A 
ATOM     51  C   UNL A   1      43.226  24.855  26.345  1.00  0.00     0.131 A 
ATOM     52  C   UNL A   1      41.778  22.498  26.399  1.00  0.00     0.055 A 
ATOM     53  C   UNL A   1      43.381  23.923  25.314  1.00  0.00     0.041 A 
ATOM     54  F   UNL A   1      43.960  25.978  26.292  1.00  0.00    -0.206 F 
ATOM     55  C   UNL A   1      42.670  22.727  25.350  1.00  0.00     0.022 A 
BRANCH  52  56
ATOM     56  S   UNL A   1      40.925  20.902  26.540  1.00  0.00     0.124 S 
ATOM     57  O   UNL A   1      40.988  20.654  27.976  1.00  0.00    -0.237 OA
ATOM     58  O   UNL A   1      39.606  21.219  26.002  1.00  0.00    -0.237 OA
ATOM     59  O   UNL A   1      41.735  20.007  25.715  1.00  0.00    -0.744 OA
ENDBRANCH  52  56
ENDBRANCH  25  49
BRANCH  37  60
ATOM     60  C   UNL A   1      46.162  25.396  33.192  1.00  0.00     0.023 A 
ATOM     61  C   UNL A   1      45.828  24.400  34.123  1.00  0.00     0.031 A 
ATOM     62  C   UNL A   1      47.520  25.577  32.871  1.00  0.00     0.131 A 
ATOM     63  C   UNL A   1      46.844  23.658  34.743  1.00  0.00     0.055 A 
ATOM     64  C   UNL A   1      48.521  24.799  33.449  1.00  0.00     0.041 A 
ATOM     65  F   UNL A   1      47.892  26.518  31.986  1.00  0.00    -0.206 F 
ATOM     66  C   UNL A   1      48.187  23.840  34.401  1.00  0.00     0.022 A 
BRANCH  63  67
ATOM     67  S   UNL A   1      46.393  22.503  36.065  1.00  0.00     0.124 S 
ATOM     68  O   UNL A   1      46.517  23.340  37.255  1.00  0.00    -0.237 OA
ATOM     69  O   UNL A   1      45.033  22.120  35.696  1.00  0.00    -0.237 OA
ATOM     70  O   UNL A   1      47.388  21.440  35.947  1.00  0.00    -0.744 OA
ENDBRANCH  63  67
ENDBRANCH  37  60
ENDBRANCH  11  12
ENDBRANCH   4   6
ENDBRANCH   3   4
ENDBRANCH   2   3
ENDBRANCH   1   2
BRANCH   1  71
ATOM     71  O   UNL A   1      33.264  28.351  27.553  1.00  0.00    -0.457 OA
BRANCH  71  72
ATOM     72  C   UNL A   1      32.007  27.961  27.179  1.00  0.00     0.370 C 
ATOM     73  O   UNL A   1      31.025  28.090  27.914  1.00  0.00    -0.245 OA
BRANCH  72  74
ATOM     74  C   UNL A   1      31.916  27.209  25.831  1.00  0.00     0.328 C 
BRANCH  74  75
ATOM     75  C   UNL A   1      31.528  25.741  25.967  1.00  0.00     0.046 A 
ATOM     76  C   UNL A   1      30.239  25.224  25.980  1.00  0.00     0.094 A 
ATOM     77  C   UNL A   1      32.398  24.590  26.003  1.00  0.00     0.009 A 
ATOM     78  N   UNL A   1      30.285  23.864  25.919  1.00  0.00    -0.361 N 
ATOM     79  C   UNL A   1      31.591  23.448  25.938  1.00  0.00     0.050 A 
ATOM     80  C   UNL A   1      33.793  24.400  26.106  1.00  0.00     0.015 A 
ATOM     81  H   UNL A   1      29.501  23.272  25.868  1.00  0.00     0.166 HD
ATOM     82  C   UNL A   1      32.099  22.145  25.941  1.00  0.00     0.073 A 
ATOM     83  C   UNL A   1      34.316  23.095  26.148  1.00  0.00     0.047 A 
ATOM     84  C   UNL A   1      33.480  21.987  26.014  1.00  0.00     0.121 A 
BRANCH  84  85
ATOM     85  O   UNL A   1      33.927  20.692  25.968  1.00  0.00    -0.489 OA
BRANCH  85  86
ATOM     86  C   UNL A   1      33.942  20.095  24.665  1.00  0.00     0.265 C 
BRANCH  86  87
ATOM     87  C   UNL A   1      33.648  18.609  24.679  1.00  0.00    -0.011 A 
ATOM     88  C   UNL A   1      32.720  18.077  25.589  1.00  0.00     0.007 A 
ATOM     89  C   UNL A   1      34.338  17.730  23.833  1.00  0.00     0.007 A 
ATOM     90  C   UNL A   1      32.508  16.703  25.675  1.00  0.00     0.000 A 
ATOM     91  C   UNL A   1      34.105  16.354  23.902  1.00  0.00     0.000 A 
ATOM     92  C   UNL A   1      33.198  15.841  24.829  1.00  0.00     0.000 A 
ENDBRANCH  86  87
ENDBRANCH  85  86
ENDBRANCH  84  85
ENDBRANCH  74  75
BRANCH  74  93
ATOM     93  N   UNL A   1      31.064  27.865  24.774  1.00  0.00    -0.318 N 
ATOM     94  C   UNL A   1      31.489  27.382  23.426  1.00  0.00     0.274 C 
ATOM     95  C   UNL A   1      31.065  29.339  24.768  1.00  0.00     0.274 C 
ATOM     96  H   UNL A   1      30.107  27.593  25.004  1.00  0.00     0.349 HD
ATOM     97  C   UNL A   1      30.473  27.696  22.325  1.00  0.00     0.131 C 
ATOM     98  C   UNL A   1      30.039  29.941  23.788  1.00  0.00     0.131 C 
ATOM     99  S   UNL A   1      30.360  29.488  22.059  1.00  0.00    -0.150 SA
ENDBRANCH  74  93
ENDBRANCH  72  74
ENDBRANCH  71  72
ENDBRANCH   1  71
TORSDOF 19
ENDMDL
MODEL 2
REMARK VINA RESULT:     -12.1      1.873      2.380
REMARK SMILES O=C(OCCOC(=O)[C@@H](c1c[nH]c2cc(OCc3ccccc3)ccc12)[NH+]1CCSCC1)c1ccc(-c2c3nc(c(-c4cc(S(=O)(=O)[O-])ccc4F)c4ccc([nH]4)c(-c4cc(S(=O)(=O)[O-])ccc4F)c4nc(c(-c5cc(S(=O)(=O)[O-])ccc5F)c5ccc2[nH]5)C=C4)C=C3)cc1
REMARK SMILES IDX 5 1 4 2 3 3 2 4 1 5 33 6 34 7 95 8 35 9 94 10 36 11 37 12
REMARK SMILES IDX 38 13 88 14 39 15 93 16 87 17 89 18 40 19 92 20 86 21 85 22
REMARK SMILES IDX 41 24 73 25 53 26 72 27 54 28 57 29 71 30 90 31 55 32 56 33
REMARK SMILES IDX 70 35 91 36 58 37 42 38 43 39 51 40 44 41 50 42 52 43 49 44
REMARK SMILES IDX 45 45 46 46 47 47 48 48 74 49 75 50 83 51 76 52 82 53 84 54
REMARK SMILES IDX 81 55 77 56 78 57 79 58 80 59 59 60 60 61 68 62 61 63 67 64
REMARK SMILES IDX 69 65 66 66 62 67 63 68 64 69 65 70 6 71 7 72 8 73 9 74
REMARK SMILES IDX 10 75 11 76 26 77 12 78 13 79 25 80 14 82 24 83 15 84 16 85
REMARK SMILES IDX 17 86 18 87 19 88 23 89 20 90 22 91 21 92 27 93 28 94 32 95
REMARK SMILES IDX 29 97 31 98 30 99
REMARK H PARENT 89 23 57 34 12 81 27 96
REMARK Flexibility Score: inf
ROOT
ATOM      1  C   UNL A   1      32.172  28.594  26.353  1.00  0.00     0.274 C 
ENDROOT
BRANCH   1   2
ATOM      2  C   UNL A   1      32.136  29.997  26.950  1.00  0.00     0.275 C 
BRANCH   2   3
ATOM      3  O   UNL A   1      33.290  30.798  26.680  1.00  0.00    -0.458 OA
BRANCH   3   4
ATOM      4  C   UNL A   1      34.072  31.466  27.560  1.00  0.00     0.338 C 
ATOM      5  O   UNL A   1      33.712  32.585  27.922  1.00  0.00    -0.246 OA
BRANCH   4   6
ATOM      6  C   UNL A   1      35.419  30.974  27.991  1.00  0.00     0.060 A 
ATOM      7  C   UNL A   1      36.574  31.730  28.221  1.00  0.00     0.016 A 
ATOM      8  C   UNL A   1      35.513  29.595  28.175  1.00  0.00     0.016 A 
ATOM      9  C   UNL A   1      37.740  31.148  28.751  1.00  0.00     0.010 A 
ATOM     10  C   UNL A   1      36.663  29.022  28.716  1.00  0.00     0.010 A 
ATOM     11  C   UNL A   1      37.786  29.788  29.051  1.00  0.00    -0.014 A 
BRANCH  11  12
ATOM     12  C   UNL A   1      38.992  29.132  29.645  1.00  0.00     0.031 A 
ATOM     13  C   UNL A   1      39.554  29.667  30.939  1.00  0.00     0.074 A 
ATOM     14  C   UNL A   1      39.657  28.151  28.994  1.00  0.00     0.049 A 
ATOM     15  N   UNL A   1      40.687  29.389  31.537  1.00  0.00    -0.248 NA
ATOM     16  C   UNL A   1      38.772  30.721  31.602  1.00  0.00     0.031 C 
ATOM     17  C   UNL A   1      39.309  27.598  27.683  1.00  0.00     0.029 A 
ATOM     18  N   UNL A   1      40.805  27.473  29.335  1.00  0.00    -0.354 N 
ATOM     19  C   UNL A   1      40.742  30.246  32.632  1.00  0.00     0.074 A 
ATOM     20  C   UNL A   1      39.639  31.171  32.491  1.00  0.00     0.031 C 
ATOM     21  C   UNL A   1      40.234  26.690  27.322  1.00  0.00     0.029 A 
ATOM     22  C   UNL A   1      41.239  26.587  28.373  1.00  0.00     0.049 A 
ATOM     23  H   UNL A   1      41.274  27.609  30.191  1.00  0.00     0.167 HD
ATOM     24  C   UNL A   1      41.553  30.205  33.720  1.00  0.00     0.034 A 
ATOM     25  C   UNL A   1      42.323  25.784  28.346  1.00  0.00     0.034 A 
ATOM     26  C   UNL A   1      42.595  29.231  33.898  1.00  0.00     0.049 A 
ATOM     27  C   UNL A   1      43.217  25.728  29.562  1.00  0.00     0.074 A 
ATOM     28  C   UNL A   1      43.422  29.030  34.987  1.00  0.00     0.029 A 
ATOM     29  N   UNL A   1      42.933  28.269  32.956  1.00  0.00    -0.354 N 
ATOM     30  N   UNL A   1      43.187  26.472  30.644  1.00  0.00    -0.248 NA
ATOM     31  C   UNL A   1      44.254  24.687  29.577  1.00  0.00     0.031 C 
ATOM     32  C   UNL A   1      44.269  27.951  34.699  1.00  0.00     0.029 A 
ATOM     33  C   UNL A   1      43.943  27.458  33.446  1.00  0.00     0.049 A 
ATOM     34  H   UNL A   1      42.515  28.175  32.069  1.00  0.00     0.167 HD
ATOM     35  C   UNL A   1      44.154  25.940  31.494  1.00  0.00     0.074 A 
ATOM     36  C   UNL A   1      44.755  24.824  30.795  1.00  0.00     0.031 C 
ATOM     37  C   UNL A   1      44.502  26.327  32.748  1.00  0.00     0.034 A 
BRANCH  24  38
ATOM     38  C   UNL A   1      41.255  31.204  34.814  1.00  0.00     0.023 A 
ATOM     39  C   UNL A   1      40.066  31.102  35.560  1.00  0.00     0.031 A 
ATOM     40  C   UNL A   1      42.078  32.317  35.041  1.00  0.00     0.131 A 
ATOM     41  C   UNL A   1      39.651  32.167  36.368  1.00  0.00     0.055 A 
ATOM     42  C   UNL A   1      41.715  33.322  35.944  1.00  0.00     0.041 A 
ATOM     43  F   UNL A   1      43.225  32.473  34.361  1.00  0.00    -0.206 F 
ATOM     44  C   UNL A   1      40.479  33.267  36.589  1.00  0.00     0.022 A 
BRANCH  41  45
ATOM     45  S   UNL A   1      37.929  32.179  36.938  1.00  0.00     0.124 S 
ATOM     46  O   UNL A   1      37.778  30.810  37.431  1.00  0.00    -0.237 OA
ATOM     47  O   UNL A   1      37.933  33.223  37.950  1.00  0.00    -0.237 OA
ATOM     48  O   UNL A   1      37.170  32.484  35.723  1.00  0.00    -0.744 OA
ENDBRANCH  41  45
ENDBRANCH  24  38
BRANCH  25  49
ATOM     49  C   UNL A   1      42.619  24.932  27.157  1.00  0.00     0.023 A 
ATOM     50  C   UNL A   1      42.202  23.593  27.104  1.00  0.00     0.031 A 
ATOM     51  C   UNL A   1      43.398  25.423  26.095  1.00  0.00     0.131 A 
ATOM     52  C   UNL A   1      42.628  22.766  26.051  1.00  0.00     0.055 A 
ATOM     53  C   UNL A   1      43.781  24.609  25.025  1.00  0.00     0.041 A 
ATOM     54  F   UNL A   1      43.808  26.702  26.088  1.00  0.00    -0.206 F 
ATOM     55  C   UNL A   1      43.412  23.267  25.010  1.00  0.00     0.022 A 
BRANCH  52  56
ATOM     56  S   UNL A   1      42.231  20.997  26.125  1.00  0.00     0.124 S 
ATOM     57  O   UNL A   1      43.310  20.414  25.336  1.00  0.00    -0.237 OA
ATOM     58  O   UNL A   1      42.277  20.740  27.561  1.00  0.00    -0.237 OA
ATOM     59  O   UNL A   1      40.903  20.919  25.521  1.00  0.00    -0.744 OA
ENDBRANCH  52  56
ENDBRANCH  25  49
BRANCH  37  60
ATOM     60  C   UNL A   1      45.503  25.471  33.478  1.00  0.00     0.023 A 
ATOM     61  C   UNL A   1      46.887  25.642  33.317  1.00  0.00     0.031 A 
ATOM     62  C   UNL A   1      45.054  24.454  34.340  1.00  0.00     0.131 A 
ATOM     63  C   UNL A   1      47.775  24.774  33.968  1.00  0.00     0.055 A 
ATOM     64  C   UNL A   1      45.943  23.630  35.028  1.00  0.00     0.041 A 
ATOM     65  F   UNL A   1      43.739  24.248  34.527  1.00  0.00    -0.206 F 
ATOM     66  C   UNL A   1      47.314  23.779  34.834  1.00  0.00     0.022 A 
BRANCH  63  67
ATOM     67  S   UNL A   1      49.546  24.911  33.605  1.00  0.00     0.124 S 
ATOM     68  O   UNL A   1      49.540  25.629  32.333  1.00  0.00    -0.237 OA
ATOM     69  O   UNL A   1      50.044  25.658  34.755  1.00  0.00    -0.237 OA
ATOM     70  O   UNL A   1      49.990  23.521  33.530  1.00  0.00    -0.744 OA
ENDBRANCH  63  67
ENDBRANCH  37  60
ENDBRANCH  11  12
ENDBRANCH   4   6
ENDBRANCH   3   4
ENDBRANCH   2   3
ENDBRANCH   1   2
BRANCH   1  71
ATOM     71  O   UNL A   1      31.591  28.442  25.043  1.00  0.00    -0.457 OA
BRANCH  71  72
ATOM     72  C   UNL A   1      32.497  28.227  24.041  1.00  0.00     0.370 C 
ATOM     73  O   UNL A   1      33.701  28.461  24.171  1.00  0.00    -0.245 OA
BRANCH  72  74
ATOM     74  C   UNL A   1      31.896  27.813  22.678  1.00  0.00     0.328 C 
BRANCH  74  75
ATOM     75  C   UNL A   1      32.058  26.331  22.356  1.00  0.00     0.046 A 
ATOM     76  C   UNL A   1      32.500  25.790  21.155  1.00  0.00     0.094 A 
ATOM     77  C   UNL A   1      31.894  25.205  23.242  1.00  0.00     0.009 A 
ATOM     78  N   UNL A   1      32.705  24.450  21.299  1.00  0.00    -0.361 N 
ATOM     79  C   UNL A   1      32.337  24.063  22.562  1.00  0.00     0.050 A 
ATOM     80  C   UNL A   1      31.395  25.032  24.551  1.00  0.00     0.015 A 
ATOM     81  H   UNL A   1      33.062  23.853  20.603  1.00  0.00     0.166 HD
ATOM     82  C   UNL A   1      32.333  22.782  23.122  1.00  0.00     0.073 A 
ATOM     83  C   UNL A   1      31.350  23.745  25.114  1.00  0.00     0.047 A 
ATOM     84  C   UNL A   1      31.861  22.646  24.425  1.00  0.00     0.121 A 
BRANCH  84  85
ATOM     85  O   UNL A   1      31.921  21.378  24.942  1.00  0.00    -0.489 OA
BRANCH  85  86
ATOM     86  C   UNL A   1      33.236  20.814  25.030  1.00  0.00     0.265 C 
BRANCH  86  87
ATOM     87  C   UNL A   1      33.348  19.443  24.393  1.00  0.00    -0.011 A 
ATOM     88  C   UNL A   1      34.452  18.621  24.668  1.00  0.00     0.007 A 
ATOM     89  C   UNL A   1      32.392  18.997  23.471  1.00  0.00     0.007 A 
ATOM     90  C   UNL A   1      34.615  17.399  24.019  1.00  0.00     0.000 A 
ATOM     91  C   UNL A   1      32.541  17.759  22.841  1.00  0.00     0.000 A 
ATOM     92  C   UNL A   1      33.657  16.966  23.108  1.00  0.00     0.000 A 
ENDBRANCH  86  87
ENDBRANCH  85  86
ENDBRANCH  84  85
ENDBRANCH  74  75
BRANCH  74  93
ATOM     93  N   UNL A   1      30.466  28.232  22.441  1.00  0.00    -0.318 N 
ATOM     94  C   UNL A   1      30.414  29.709  22.226  1.00  0.00     0.274 C 
ATOM     95  C   UNL A   1      29.507  27.876  23.502  1.00  0.00     0.274 C 
ATOM     96  H   UNL A   1      30.172  27.704  21.618  1.00  0.00     0.349 HD
ATOM     97  C   UNL A   1      29.088  30.183  21.626  1.00  0.00     0.131 C 
ATOM     98  C   UNL A   1      28.043  28.169  23.118  1.00  0.00     0.131 C 
ATOM     99  S   UNL A   1      27.732  29.932  22.808  1.00  0.00    -0.150 SA
ENDBRANCH  74  93
ENDBRANCH  72  74
ENDBRANCH  71  72
ENDBRANCH   1  71
TORSDOF 19
ENDMDL
MODEL 3
REMARK VINA RESULT:     -11.9      1.932      2.241
REMARK SMILES O=C(OCCOC(=O)[C@@H](c1c[nH]c2cc(OCc3ccccc3)ccc12)[NH+]1CCSCC1)c1ccc(-c2c3nc(c(-c4cc(S(=O)(=O)[O-])ccc4F)c4ccc([nH]4)c(-c4cc(S(=O)(=O)[O-])ccc4F)c4nc(c(-c5cc(S(=O)(=O)[O-])ccc5F)c5ccc2[nH]5)C=C4)C=C3)cc1
REMARK SMILES IDX 5 1 4 2 3 3 2 4 1 5 33 6 34 7 95 8 35 9 94 10 36 11 37 12
REMARK SMILES IDX 38 13 88 14 39 15 93 16 87 17 89 18 40 19 92 20 86 21 85 22
REMARK SMILES IDX 41 24 73 25 53 26 72 27 54 28 57 29 71 30 90 31 55 32 56 33
REMARK SMILES IDX 70 35 91 36 58 37 42 38 43 39 51 40 44 41 50 42 52 43 49 44
REMARK SMILES IDX 45 45 46 46 47 47 48 48 74 49 75 50 83 51 76 52 82 53 84 54
REMARK SMILES IDX 81 55 77 56 78 57 79 58 80 59 59 60 60 61 68 62 61 63 67 64
REMARK SMILES IDX 69 65 66 66 62 67 63 68 64 69 65 70 6 71 7 72 8 73 9 74
REMARK SMILES IDX 10 75 11 76 26 77 12 78 13 79 25 80 14 82 24 83 15 84 16 85
REMARK SMILES IDX 17 86 18 87 19 88 23 89 20 90 22 91 21 92 27 93 28 94 32 95
REMARK SMILES IDX 29 97 31 98 30 99
REMARK H PARENT 89 23 57 34 12 81 27 96
REMARK Flexibility Score: inf
ROOT
ATOM      1  C   UNL A   1      33.673  29.873  26.647  1.00  0.00     0.274 C 
ENDROOT
BRANCH   1   2
ATOM      2  C   UNL A   1      32.999  31.084  27.284  1.00  0.00     0.275 C 
BRANCH   2   3
ATOM      3  O   UNL A   1      33.894  32.098  27.750  1.00  0.00    -0.458 OA
BRANCH   3   4
ATOM      4  C   UNL A   1      34.584  32.138  28.913  1.00  0.00     0.338 C 
ATOM      5  O   UNL A   1      34.163  32.862  29.813  1.00  0.00    -0.246 OA
BRANCH   4   6
ATOM      6  C   UNL A   1      35.910  31.464  29.097  1.00  0.00     0.060 A 
ATOM      7  C   UNL A   1      37.163  31.905  28.656  1.00  0.00     0.016 A 
ATOM      8  C   UNL A   1      35.866  30.255  29.790  1.00  0.00     0.016 A 
ATOM      9  C   UNL A   1      38.345  31.233  29.016  1.00  0.00     0.010 A 
ATOM     10  C   UNL A   1      37.040  29.600  30.161  1.00  0.00     0.010 A 
ATOM     11  C   UNL A   1      38.304  30.092  29.815  1.00  0.00    -0.014 A 
BRANCH  11  12
ATOM     12  C   UNL A   1      39.537  29.365  30.249  1.00  0.00     0.031 A 
ATOM     13  C   UNL A   1      40.342  29.909  31.403  1.00  0.00     0.074 A 
ATOM     14  C   UNL A   1      40.011  28.302  29.560  1.00  0.00     0.049 A 
ATOM     15  N   UNL A   1      41.532  29.564  31.829  1.00  0.00    -0.248 NA
ATOM     16  C   UNL A   1      39.761  31.055  32.118  1.00  0.00     0.031 C 
ATOM     17  C   UNL A   1      39.412  27.720  28.356  1.00  0.00     0.029 A 
ATOM     18  N   UNL A   1      41.143  27.545  29.754  1.00  0.00    -0.354 N 
ATOM     19  C   UNL A   1      41.830  30.463  32.849  1.00  0.00     0.074 A 
ATOM     20  C   UNL A   1      40.793  31.471  32.830  1.00  0.00     0.031 C 
ATOM     21  C   UNL A   1      40.194  26.721  27.907  1.00  0.00     0.029 A 
ATOM     22  C   UNL A   1      41.346  26.582  28.790  1.00  0.00     0.049 A 
ATOM     23  H   UNL A   1      41.754  27.680  30.515  1.00  0.00     0.167 HD
ATOM     24  C   UNL A   1      42.802  30.404  33.795  1.00  0.00     0.034 A 
ATOM     25  C   UNL A   1      42.346  25.689  28.639  1.00  0.00     0.034 A 
ATOM     26  C   UNL A   1      43.781  29.353  33.863  1.00  0.00     0.049 A 
ATOM     27  C   UNL A   1      43.420  25.613  29.699  1.00  0.00     0.074 A 
ATOM     28  C   UNL A   1      44.758  29.134  34.817  1.00  0.00     0.029 A 
ATOM     29  N   UNL A   1      43.888  28.324  32.938  1.00  0.00    -0.354 N 
ATOM     30  N   UNL A   1      43.623  26.406  30.726  1.00  0.00    -0.248 NA
ATOM     31  C   UNL A   1      44.363  24.490  29.611  1.00  0.00     0.031 C 
ATOM     32  C   UNL A   1      45.461  27.974  34.463  1.00  0.00     0.029 A 
ATOM     33  C   UNL A   1      44.899  27.454  33.309  1.00  0.00     0.049 A 
ATOM     34  H   UNL A   1      43.325  28.225  32.136  1.00  0.00     0.167 HD
ATOM     35  C   UNL A   1      44.672  25.834  31.442  1.00  0.00     0.074 A 
ATOM     36  C   UNL A   1      45.064  24.640  30.724  1.00  0.00     0.031 C 
ATOM     37  C   UNL A   1      45.249  26.248  32.599  1.00  0.00     0.034 A 
BRANCH  24  38
ATOM     38  C   UNL A   1      42.764  31.474  34.861  1.00  0.00     0.023 A 
ATOM     39  C   UNL A   1      43.515  32.654  34.705  1.00  0.00     0.031 A 
ATOM     40  C   UNL A   1      42.088  31.283  36.075  1.00  0.00     0.131 A 
ATOM     41  C   UNL A   1      43.709  33.511  35.794  1.00  0.00     0.055 A 
ATOM     42  C   UNL A   1      42.188  32.208  37.120  1.00  0.00     0.041 A 
ATOM     43  F   UNL A   1      41.354  30.179  36.286  1.00  0.00    -0.206 F 
ATOM     44  C   UNL A   1      43.029  33.313  36.995  1.00  0.00     0.022 A 
BRANCH  41  45
ATOM     45  S   UNL A   1      45.029  34.750  35.673  1.00  0.00     0.124 S 
ATOM     46  O   UNL A   1      44.260  35.993  35.660  1.00  0.00    -0.237 OA
ATOM     47  O   UNL A   1      45.814  34.500  36.872  1.00  0.00    -0.237 OA
ATOM     48  O   UNL A   1      45.692  34.420  34.410  1.00  0.00    -0.744 OA
ENDBRANCH  41  45
ENDBRANCH  24  38
BRANCH  25  49
ATOM     49  C   UNL A   1      42.379  24.761  27.471  1.00  0.00     0.023 A 
ATOM     50  C   UNL A   1      41.635  23.571  27.471  1.00  0.00     0.031 A 
ATOM     51  C   UNL A   1      43.222  25.012  26.374  1.00  0.00     0.131 A 
ATOM     52  C   UNL A   1      41.804  22.637  26.435  1.00  0.00     0.055 A 
ATOM     53  C   UNL A   1      43.351  24.102  25.321  1.00  0.00     0.041 A 
ATOM     54  F   UNL A   1      43.942  26.145  26.316  1.00  0.00    -0.206 F 
ATOM     55  C   UNL A   1      42.655  22.896  25.359  1.00  0.00     0.022 A 
BRANCH  52  56
ATOM     56  S   UNL A   1      40.976  21.029  26.576  1.00  0.00     0.124 S 
ATOM     57  O   UNL A   1      39.759  21.250  25.803  1.00  0.00    -0.237 OA
ATOM     58  O   UNL A   1      41.960  20.132  25.979  1.00  0.00    -0.237 OA
ATOM     59  O   UNL A   1      40.781  20.869  28.015  1.00  0.00    -0.744 OA
ENDBRANCH  52  56
ENDBRANCH  25  49
BRANCH  37  60
ATOM     60  C   UNL A   1      46.286  25.344  33.211  1.00  0.00     0.023 A 
ATOM     61  C   UNL A   1      47.651  25.465  32.905  1.00  0.00     0.031 A 
ATOM     62  C   UNL A   1      45.891  24.335  34.107  1.00  0.00     0.131 A 
ATOM     63  C   UNL A   1      48.568  24.554  33.450  1.00  0.00     0.055 A 
ATOM     64  C   UNL A   1      46.815  23.468  34.689  1.00  0.00     0.041 A 
ATOM     65  F   UNL A   1      44.597  24.177  34.431  1.00  0.00    -0.206 F 
ATOM     66  C   UNL A   1      48.162  23.567  34.352  1.00  0.00     0.022 A 
BRANCH  63  67
ATOM     67  S   UNL A   1      50.295  24.628  32.902  1.00  0.00     0.124 S 
ATOM     68  O   UNL A   1      50.756  23.269  33.168  1.00  0.00    -0.237 OA
ATOM     69  O   UNL A   1      50.160  24.991  31.494  1.00  0.00    -0.237 OA
ATOM     70  O   UNL A   1      50.882  25.661  33.753  1.00  0.00    -0.744 OA
ENDBRANCH  63  67
ENDBRANCH  37  60
ENDBRANCH  11  12
ENDBRANCH   4   6
ENDBRANCH   3   4
ENDBRANCH   2   3
ENDBRANCH   1   2
BRANCH   1  71
ATOM     71  O   UNL A   1      33.406  28.597  27.259  1.00  0.00    -0.457 OA
BRANCH  71  72
ATOM     72  C   UNL A   1      32.137  28.126  27.064  1.00  0.00     0.370 C 
ATOM     73  O   UNL A   1      31.257  28.213  27.923  1.00  0.00    -0.245 OA
BRANCH  72  74
ATOM     74  C   UNL A   1      31.912  27.343  25.750  1.00  0.00     0.328 C 
BRANCH  74  75
ATOM     75  C   UNL A   1      31.460  25.902  25.960  1.00  0.00     0.046 A 
ATOM     76  C   UNL A   1      30.149  25.443  25.990  1.00  0.00     0.094 A 
ATOM     77  C   UNL A   1      32.278  24.718  26.063  1.00  0.00     0.009 A 
ATOM     78  N   UNL A   1      30.135  24.080  26.000  1.00  0.00    -0.361 N 
ATOM     79  C   UNL A   1      31.422  23.609  26.051  1.00  0.00     0.050 A 
ATOM     80  C   UNL A   1      33.663  24.473  26.186  1.00  0.00     0.015 A 
ATOM     81  H   UNL A   1      29.327  23.521  25.974  1.00  0.00     0.166 HD
ATOM     82  C   UNL A   1      31.872  22.288  26.126  1.00  0.00     0.073 A 
ATOM     83  C   UNL A   1      34.127  23.151  26.300  1.00  0.00     0.047 A 
ATOM     84  C   UNL A   1      33.245  22.074  26.218  1.00  0.00     0.121 A 
BRANCH  84  85
ATOM     85  O   UNL A   1      33.635  20.761  26.244  1.00  0.00    -0.489 OA
BRANCH  85  86
ATOM     86  C   UNL A   1      34.521  20.364  25.189  1.00  0.00     0.265 C 
BRANCH  86  87
ATOM     87  C   UNL A   1      34.060  19.125  24.448  1.00  0.00    -0.011 A 
ATOM     88  C   UNL A   1      34.841  17.958  24.463  1.00  0.00     0.007 A 
ATOM     89  C   UNL A   1      32.886  19.138  23.684  1.00  0.00     0.007 A 
ATOM     90  C   UNL A   1      34.476  16.843  23.712  1.00  0.00     0.000 A 
ATOM     91  C   UNL A   1      32.506  18.010  22.952  1.00  0.00     0.000 A 
ATOM     92  C   UNL A   1      33.307  16.868  22.959  1.00  0.00     0.000 A 
ENDBRANCH  86  87
ENDBRANCH  85  86
ENDBRANCH  84  85
ENDBRANCH  74  75
BRANCH  74  93
ATOM     93  N   UNL A   1      31.022  28.013  24.735  1.00  0.00    -0.318 N 
ATOM     94  C   UNL A   1      31.383  27.532  23.368  1.00  0.00     0.274 C 
ATOM     95  C   UNL A   1      31.040  29.487  24.736  1.00  0.00     0.274 C 
ATOM     96  H   UNL A   1      30.073  27.750  25.005  1.00  0.00     0.349 HD
ATOM     97  C   UNL A   1      30.323  27.864  22.313  1.00  0.00     0.131 C 
ATOM     98  C   UNL A   1      29.978  30.106  23.804  1.00  0.00     0.131 C 
ATOM     99  S   UNL A   1      30.219  29.658  22.061  1.00  0.00    -0.150 SA
ENDBRANCH  74  93
ENDBRANCH  72  74
ENDBRANCH  71  72
ENDBRANCH   1  71
TORSDOF 19
ENDMDL
