MODEL 1
REMARK VINA RESULT:     -11.2      0.000      0.000
REMARK SMILES CN1CC[N@H+](CC(=O)OCCOC(=O)c2ccc(-c3c4nc(c(-c5cc(S(=O)(=O)[O-])ccc5F)c5ccc([nH]5)c(-c5cc(S(=O)(=O)[O-])ccc5F)c5nc(c(-c6cc(S(=O)(=O)[O-])ccc6F)c6ccc3[nH]6)C=C5)C=C4)cc2)C(C)(C)C1=O
REMARK SMILES IDX 11 1 10 2 9 3 7 4 8 5 6 6 5 7 1 8 2 9 3 10 81 11 4 12 78 13
REMARK SMILES IDX 82 14 79 15 80 16 12 18 13 19 14 20 15 21 16 22 77 23 17 24
REMARK SMILES IDX 76 25 18 26 19 27 20 28 70 29 21 30 75 31 69 32 71 33 22 34
REMARK SMILES IDX 74 35 68 36 67 37 23 39 55 40 35 41 54 42 36 43 39 44 53 45
REMARK SMILES IDX 72 46 37 47 38 48 52 50 73 51 40 52 24 53 25 54 33 55 26 56
REMARK SMILES IDX 32 57 34 58 31 59 27 60 28 61 29 62 30 63 56 64 57 65 65 66
REMARK SMILES IDX 58 67 64 68 66 69 63 70 59 71 60 72 61 73 62 74 41 75 42 76
REMARK SMILES IDX 50 77 43 78 49 79 51 80 48 81 44 82 45 83 46 84 47 85
REMARK H PARENT 5 17 71 38 39 49
REMARK Flexibility Score: inf
ROOT
ATOM      1  C   UNL A   1      36.441  20.615  25.073  1.00  0.00     0.275 C 
ENDROOT
BRANCH   1   2
ATOM      2  C   UNL A   1      35.060  21.187  24.774  1.00  0.00     0.274 C 
BRANCH   2   3
ATOM      3  O   UNL A   1      35.105  22.627  24.757  1.00  0.00    -0.458 OA
BRANCH   3   4
ATOM      4  C   UNL A   1      34.858  23.233  23.571  1.00  0.00     0.361 C 
ATOM      5  O   UNL A   1      35.635  23.228  22.621  1.00  0.00    -0.245 OA
BRANCH   4   6
ATOM      6  C   UNL A   1      33.524  23.976  23.505  1.00  0.00     0.387 C 
BRANCH   6   7
ATOM      7  N   UNL A   1      33.513  25.428  23.761  1.00  0.00    -0.312 N 
ATOM      8  C   UNL A   1      30.124  27.955  23.012  1.00  0.00     0.147 C 
ATOM      9  N   UNL A   1      31.343  27.275  23.401  1.00  0.00    -0.335 N 
ATOM     10  C   UNL A   1      32.523  27.470  22.574  1.00  0.00     0.180 C 
ATOM     11  C   UNL A   1      31.416  26.560  24.591  1.00  0.00     0.283 C 
ATOM     12  C   UNL A   1      33.448  26.243  22.542  1.00  0.00     0.285 C 
ATOM     13  C   UNL A   1      32.816  25.964  24.954  1.00  0.00     0.172 C 
ATOM     14  O   UNL A   1      30.449  26.454  25.349  1.00  0.00    -0.268 OA
ATOM     15  C   UNL A   1      33.688  27.091  25.551  1.00  0.00     0.090 C 
ATOM     16  C   UNL A   1      32.643  24.921  26.082  1.00  0.00     0.090 C 
ATOM     17  H   UNL A   1      34.455  25.553  24.131  1.00  0.00     0.349 HD
ENDBRANCH   6   7
ENDBRANCH   4   6
ENDBRANCH   3   4
ENDBRANCH   2   3
ENDBRANCH   1   2
BRANCH   1  18
ATOM     18  O   UNL A   1      37.310  21.671  25.514  1.00  0.00    -0.458 OA
BRANCH  18  19
ATOM     19  C   UNL A   1      38.572  21.295  25.819  1.00  0.00     0.338 C 
ATOM     20  O   UNL A   1      39.082  20.198  25.686  1.00  0.00    -0.246 OA
BRANCH  19  21
ATOM     21  C   UNL A   1      39.293  22.435  26.394  1.00  0.00     0.060 A 
ATOM     22  C   UNL A   1      40.340  22.232  27.298  1.00  0.00     0.016 A 
ATOM     23  C   UNL A   1      38.857  23.721  26.078  1.00  0.00     0.016 A 
ATOM     24  C   UNL A   1      40.953  23.327  27.898  1.00  0.00     0.010 A 
ATOM     25  C   UNL A   1      39.511  24.816  26.636  1.00  0.00     0.010 A 
ATOM     26  C   UNL A   1      40.565  24.626  27.545  1.00  0.00    -0.014 A 
BRANCH  26  27
ATOM     27  C   UNL A   1      41.314  25.804  28.036  1.00  0.00     0.031 A 
ATOM     28  C   UNL A   1      40.611  26.895  28.785  1.00  0.00     0.074 A 
ATOM     29  C   UNL A   1      42.617  25.912  27.711  1.00  0.00     0.049 A 
ATOM     30  N   UNL A   1      41.038  28.088  29.097  1.00  0.00    -0.248 NA
ATOM     31  C   UNL A   1      39.241  26.603  29.232  1.00  0.00     0.031 C 
ATOM     32  C   UNL A   1      43.395  24.889  27.006  1.00  0.00     0.029 A 
ATOM     33  N   UNL A   1      43.505  26.937  27.898  1.00  0.00    -0.354 N 
ATOM     34  C   UNL A   1      39.986  28.706  29.765  1.00  0.00     0.074 A 
ATOM     35  C   UNL A   1      38.894  27.754  29.794  1.00  0.00     0.031 C 
ATOM     36  C   UNL A   1      44.640  25.345  26.806  1.00  0.00     0.029 A 
ATOM     37  C   UNL A   1      44.722  26.715  27.297  1.00  0.00     0.049 A 
ATOM     38  H   UNL A   1      43.295  27.750  28.411  1.00  0.00     0.167 HD
ATOM     39  C   UNL A   1      39.946  29.954  30.294  1.00  0.00     0.034 A 
ATOM     40  C   UNL A   1      45.765  27.544  27.103  1.00  0.00     0.034 A 
ATOM     41  C   UNL A   1      41.052  30.881  30.230  1.00  0.00     0.049 A 
ATOM     42  C   UNL A   1      45.659  28.955  27.606  1.00  0.00     0.074 A 
ATOM     43  C   UNL A   1      41.148  32.153  30.764  1.00  0.00     0.029 A 
ATOM     44  N   UNL A   1      42.255  30.638  29.574  1.00  0.00    -0.354 N 
ATOM     45  N   UNL A   1      44.660  29.532  28.236  1.00  0.00    -0.248 NA
ATOM     46  C   UNL A   1      46.811  29.831  27.363  1.00  0.00     0.031 C 
ATOM     47  C   UNL A   1      42.375  32.704  30.374  1.00  0.00     0.029 A 
ATOM     48  C   UNL A   1      43.076  31.751  29.650  1.00  0.00     0.049 A 
ATOM     49  H   UNL A   1      42.488  29.795  29.121  1.00  0.00     0.167 HD
ATOM     50  C   UNL A   1      45.066  30.841  28.467  1.00  0.00     0.074 A 
ATOM     51  C   UNL A   1      46.408  30.959  27.929  1.00  0.00     0.031 C 
ATOM     52  C   UNL A   1      44.394  31.855  29.069  1.00  0.00     0.034 A 
BRANCH  39  53
ATOM     53  C   UNL A   1      38.652  30.401  30.929  1.00  0.00     0.023 A 
ATOM     54  C   UNL A   1      37.639  31.033  30.187  1.00  0.00     0.031 A 
ATOM     55  C   UNL A   1      38.437  30.211  32.306  1.00  0.00     0.131 A 
ATOM     56  C   UNL A   1      36.485  31.503  30.835  1.00  0.00     0.055 A 
ATOM     57  C   UNL A   1      37.259  30.621  32.932  1.00  0.00     0.041 A 
ATOM     58  F   UNL A   1      39.378  29.634  33.070  1.00  0.00    -0.206 F 
ATOM     59  C   UNL A   1      36.279  31.283  32.199  1.00  0.00     0.022 A 
BRANCH  56  60
ATOM     60  S   UNL A   1      35.312  32.519  29.894  1.00  0.00     0.124 S 
ATOM     61  O   UNL A   1      34.358  32.907  30.930  1.00  0.00    -0.237 OA
ATOM     62  O   UNL A   1      36.162  33.585  29.376  1.00  0.00    -0.237 OA
ATOM     63  O   UNL A   1      34.787  31.596  28.890  1.00  0.00    -0.744 OA
ENDBRANCH  56  60
ENDBRANCH  39  53
BRANCH  40  64
ATOM     64  C   UNL A   1      46.952  27.081  26.334  1.00  0.00     0.023 A 
ATOM     65  C   UNL A   1      48.036  26.468  26.977  1.00  0.00     0.031 A 
ATOM     66  C   UNL A   1      47.017  27.246  24.938  1.00  0.00     0.131 A 
ATOM     67  C   UNL A   1      49.151  26.061  26.229  1.00  0.00     0.055 A 
ATOM     68  C   UNL A   1      48.107  26.798  24.192  1.00  0.00     0.041 A 
ATOM     69  F   UNL A   1      46.001  27.823  24.274  1.00  0.00    -0.206 F 
ATOM     70  C   UNL A   1      49.187  26.208  24.839  1.00  0.00     0.022 A 
BRANCH  67  71
ATOM     71  S   UNL A   1      50.586  25.386  27.107  1.00  0.00     0.124 S 
ATOM     72  O   UNL A   1      51.025  26.536  27.890  1.00  0.00    -0.237 OA
ATOM     73  O   UNL A   1      49.989  24.287  27.860  1.00  0.00    -0.237 OA
ATOM     74  O   UNL A   1      51.487  24.984  26.029  1.00  0.00    -0.744 OA
ENDBRANCH  67  71
ENDBRANCH  40  64
BRANCH  52  75
ATOM     75  C   UNL A   1      45.121  33.169  29.172  1.00  0.00     0.023 A 
ATOM     76  C   UNL A   1      45.032  34.133  28.153  1.00  0.00     0.031 A 
ATOM     77  C   UNL A   1      45.939  33.444  30.281  1.00  0.00     0.131 A 
ATOM     78  C   UNL A   1      45.789  35.310  28.241  1.00  0.00     0.055 A 
ATOM     79  C   UNL A   1      46.649  34.640  30.388  1.00  0.00     0.041 A 
ATOM     80  F   UNL A   1      46.061  32.552  31.277  1.00  0.00    -0.206 F 
ATOM     81  C   UNL A   1      46.585  35.576  29.359  1.00  0.00     0.022 A 
BRANCH  78  82
ATOM     82  S   UNL A   1      45.778  36.458  26.838  1.00  0.00     0.124 S 
ATOM     83  O   UNL A   1      46.103  35.575  25.722  1.00  0.00    -0.237 OA
ATOM     84  O   UNL A   1      44.415  36.977  26.865  1.00  0.00    -0.237 OA
ATOM     85  O   UNL A   1      46.815  37.430  27.182  1.00  0.00    -0.744 OA
ENDBRANCH  78  82
ENDBRANCH  52  75
ENDBRANCH  26  27
ENDBRANCH  19  21
ENDBRANCH  18  19
ENDBRANCH   1  18
TORSDOF 15
ENDMDL
MODEL 2
REMARK VINA RESULT:     -11.1      1.664      2.173
REMARK SMILES CN1CC[N@H+](CC(=O)OCCOC(=O)c2ccc(-c3c4nc(c(-c5cc(S(=O)(=O)[O-])ccc5F)c5ccc([nH]5)c(-c5cc(S(=O)(=O)[O-])ccc5F)c5nc(c(-c6cc(S(=O)(=O)[O-])ccc6F)c6ccc3[nH]6)C=C5)C=C4)cc2)C(C)(C)C1=O
REMARK SMILES IDX 11 1 10 2 9 3 7 4 8 5 6 6 5 7 1 8 2 9 3 10 81 11 4 12 78 13
REMARK SMILES IDX 82 14 79 15 80 16 12 18 13 19 14 20 15 21 16 22 77 23 17 24
REMARK SMILES IDX 76 25 18 26 19 27 20 28 70 29 21 30 75 31 69 32 71 33 22 34
REMARK SMILES IDX 74 35 68 36 67 37 23 39 55 40 35 41 54 42 36 43 39 44 53 45
REMARK SMILES IDX 72 46 37 47 38 48 52 50 73 51 40 52 24 53 25 54 33 55 26 56
REMARK SMILES IDX 32 57 34 58 31 59 27 60 28 61 29 62 30 63 56 64 57 65 65 66
REMARK SMILES IDX 58 67 64 68 66 69 63 70 59 71 60 72 61 73 62 74 41 75 42 76
REMARK SMILES IDX 50 77 43 78 49 79 51 80 48 81 44 82 45 83 46 84 47 85
REMARK H PARENT 5 17 71 38 39 49
REMARK Flexibility Score: inf
ROOT
ATOM      1  C   UNL A   1      36.971  20.604  24.944  1.00  0.00     0.275 C 
ENDROOT
BRANCH   1   2
ATOM      2  C   UNL A   1      35.474  20.846  25.095  1.00  0.00     0.274 C 
BRANCH   2   3
ATOM      3  O   UNL A   1      35.210  21.647  26.264  1.00  0.00    -0.458 OA
BRANCH   3   4
ATOM      4  C   UNL A   1      34.134  22.467  26.214  1.00  0.00     0.361 C 
ATOM      5  O   UNL A   1      33.027  22.178  26.661  1.00  0.00    -0.245 OA
BRANCH   4   6
ATOM      6  C   UNL A   1      34.385  23.802  25.513  1.00  0.00     0.387 C 
BRANCH   6   7
ATOM      7  N   UNL A   1      33.228  24.555  24.997  1.00  0.00    -0.312 N 
ATOM      8  C   UNL A   1      33.549  28.331  22.978  1.00  0.00     0.147 C 
ATOM      9  N   UNL A   1      33.230  27.044  23.563  1.00  0.00    -0.335 N 
ATOM     10  C   UNL A   1      32.589  27.031  24.868  1.00  0.00     0.180 C 
ATOM     11  C   UNL A   1      33.415  25.866  22.849  1.00  0.00     0.283 C 
ATOM     12  C   UNL A   1      32.968  25.808  25.716  1.00  0.00     0.285 C 
ATOM     13  C   UNL A   1      32.931  24.552  23.544  1.00  0.00     0.172 C 
ATOM     14  O   UNL A   1      33.880  25.862  21.706  1.00  0.00    -0.268 OA
ATOM     15  C   UNL A   1      31.399  24.442  23.370  1.00  0.00     0.090 C 
ATOM     16  C   UNL A   1      33.529  23.336  22.800  1.00  0.00     0.090 C 
ATOM     17  H   UNL A   1      32.472  23.922  25.254  1.00  0.00     0.349 HD
ENDBRANCH   6   7
ENDBRANCH   4   6
ENDBRANCH   3   4
ENDBRANCH   2   3
ENDBRANCH   1   2
BRANCH   1  18
ATOM     18  O   UNL A   1      37.695  21.627  25.647  1.00  0.00    -0.458 OA
BRANCH  18  19
ATOM     19  C   UNL A   1      38.971  21.320  25.968  1.00  0.00     0.338 C 
ATOM     20  O   UNL A   1      39.540  20.250  25.845  1.00  0.00    -0.246 OA
BRANCH  19  21
ATOM     21  C   UNL A   1      39.624  22.499  26.545  1.00  0.00     0.060 A 
ATOM     22  C   UNL A   1      40.589  22.358  27.547  1.00  0.00     0.016 A 
ATOM     23  C   UNL A   1      39.203  23.760  26.126  1.00  0.00     0.016 A 
ATOM     24  C   UNL A   1      41.134  23.492  28.142  1.00  0.00     0.010 A 
ATOM     25  C   UNL A   1      39.792  24.892  26.683  1.00  0.00     0.010 A 
ATOM     26  C   UNL A   1      40.762  24.765  27.689  1.00  0.00    -0.014 A 
BRANCH  26  27
ATOM     27  C   UNL A   1      41.451  25.979  28.182  1.00  0.00     0.031 A 
ATOM     28  C   UNL A   1      40.687  27.046  28.905  1.00  0.00     0.074 A 
ATOM     29  C   UNL A   1      42.755  26.138  27.884  1.00  0.00     0.049 A 
ATOM     30  N   UNL A   1      41.057  28.260  29.213  1.00  0.00    -0.248 NA
ATOM     31  C   UNL A   1      39.321  26.701  29.327  1.00  0.00     0.031 C 
ATOM     32  C   UNL A   1      43.590  25.143  27.206  1.00  0.00     0.029 A 
ATOM     33  N   UNL A   1      43.595  27.202  28.078  1.00  0.00    -0.354 N 
ATOM     34  C   UNL A   1      39.966  28.839  29.853  1.00  0.00     0.074 A 
ATOM     35  C   UNL A   1      38.914  27.842  29.870  1.00  0.00     0.031 C 
ATOM     36  C   UNL A   1      44.818  25.649  27.027  1.00  0.00     0.029 A 
ATOM     37  C   UNL A   1      44.832  27.026  27.505  1.00  0.00     0.049 A 
ATOM     38  H   UNL A   1      43.340  28.011  28.578  1.00  0.00     0.167 HD
ATOM     39  C   UNL A   1      39.862  30.089  30.368  1.00  0.00     0.034 A 
ATOM     40  C   UNL A   1      45.844  27.896  27.324  1.00  0.00     0.034 A 
ATOM     41  C   UNL A   1      40.930  31.061  30.317  1.00  0.00     0.049 A 
ATOM     42  C   UNL A   1      45.668  29.307  27.810  1.00  0.00     0.074 A 
ATOM     43  C   UNL A   1      40.960  32.342  30.840  1.00  0.00     0.029 A 
ATOM     44  N   UNL A   1      42.155  30.863  29.689  1.00  0.00    -0.354 N 
ATOM     45  N   UNL A   1      44.632  29.847  28.412  1.00  0.00    -0.248 NA
ATOM     46  C   UNL A   1      46.787  30.228  27.581  1.00  0.00     0.031 C 
ATOM     47  C   UNL A   1      42.171  32.940  30.469  1.00  0.00     0.029 A 
ATOM     48  C   UNL A   1      42.926  32.011  29.770  1.00  0.00     0.049 A 
ATOM     49  H   UNL A   1      42.433  30.026  29.250  1.00  0.00     0.167 HD
ATOM     50  C   UNL A   1      44.978  31.174  28.638  1.00  0.00     0.074 A 
ATOM     51  C   UNL A   1      46.325  31.344  28.126  1.00  0.00     0.031 C 
ATOM     52  C   UNL A   1      44.251  32.164  29.215  1.00  0.00     0.034 A 
BRANCH  39  53
ATOM     53  C   UNL A   1      38.538  30.487  30.971  1.00  0.00     0.023 A 
ATOM     54  C   UNL A   1      37.544  31.139  30.220  1.00  0.00     0.031 A 
ATOM     55  C   UNL A   1      38.272  30.228  32.327  1.00  0.00     0.131 A 
ATOM     56  C   UNL A   1      36.359  31.563  30.843  1.00  0.00     0.055 A 
ATOM     57  C   UNL A   1      37.064  30.592  32.925  1.00  0.00     0.041 A 
ATOM     58  F   UNL A   1      39.191  29.629  33.101  1.00  0.00    -0.206 F 
ATOM     59  C   UNL A   1      36.103  31.274  32.186  1.00  0.00     0.022 A 
BRANCH  56  60
ATOM     60  S   UNL A   1      35.208  32.606  29.905  1.00  0.00     0.124 S 
ATOM     61  O   UNL A   1      36.088  33.673  29.437  1.00  0.00    -0.237 OA
ATOM     62  O   UNL A   1      34.713  31.691  28.884  1.00  0.00    -0.237 OA
ATOM     63  O   UNL A   1      34.224  33.017  30.905  1.00  0.00    -0.744 OA
ENDBRANCH  56  60
ENDBRANCH  39  53
BRANCH  40  64
ATOM     64  C   UNL A   1      47.066  27.476  26.585  1.00  0.00     0.023 A 
ATOM     65  C   UNL A   1      47.197  27.718  25.210  1.00  0.00     0.031 A 
ATOM     66  C   UNL A   1      48.123  26.827  27.248  1.00  0.00     0.131 A 
ATOM     67  C   UNL A   1      48.351  27.292  24.536  1.00  0.00     0.055 A 
ATOM     68  C   UNL A   1      49.288  26.447  26.582  1.00  0.00     0.041 A 
ATOM     69  F   UNL A   1      48.047  26.576  28.566  1.00  0.00    -0.206 F 
ATOM     70  C   UNL A   1      49.404  26.672  25.215  1.00  0.00     0.022 A 
BRANCH  67  71
ATOM     71  S   UNL A   1      48.435  27.509  22.738  1.00  0.00     0.124 S 
ATOM     72  O   UNL A   1      47.222  28.276  22.473  1.00  0.00    -0.237 OA
ATOM     73  O   UNL A   1      49.695  28.227  22.579  1.00  0.00    -0.237 OA
ATOM     74  O   UNL A   1      48.431  26.139  22.228  1.00  0.00    -0.744 OA
ENDBRANCH  67  71
ENDBRANCH  40  64
BRANCH  52  75
ATOM     75  C   UNL A   1      44.921  33.509  29.319  1.00  0.00     0.023 A 
ATOM     76  C   UNL A   1      44.645  34.533  28.397  1.00  0.00     0.031 A 
ATOM     77  C   UNL A   1      45.868  33.755  30.328  1.00  0.00     0.131 A 
ATOM     78  C   UNL A   1      45.348  35.744  28.472  1.00  0.00     0.055 A 
ATOM     79  C   UNL A   1      46.526  34.981  30.429  1.00  0.00     0.041 A 
ATOM     80  F   UNL A   1      46.169  32.806  31.228  1.00  0.00    -0.206 F 
ATOM     81  C   UNL A   1      46.275  35.980  29.491  1.00  0.00     0.022 A 
BRANCH  78  82
ATOM     82  S   UNL A   1      45.089  36.982  27.173  1.00  0.00     0.124 S 
ATOM     83  O   UNL A   1      45.109  38.227  27.934  1.00  0.00    -0.237 OA
ATOM     84  O   UNL A   1      46.229  36.756  26.290  1.00  0.00    -0.237 OA
ATOM     85  O   UNL A   1      43.790  36.620  26.608  1.00  0.00    -0.744 OA
ENDBRANCH  78  82
ENDBRANCH  52  75
ENDBRANCH  26  27
ENDBRANCH  19  21
ENDBRANCH  18  19
ENDBRANCH   1  18
TORSDOF 15
ENDMDL
MODEL 3
REMARK VINA RESULT:     -11.1      4.773     10.070
REMARK SMILES CN1CC[N@H+](CC(=O)OCCOC(=O)c2ccc(-c3c4nc(c(-c5cc(S(=O)(=O)[O-])ccc5F)c5ccc([nH]5)c(-c5cc(S(=O)(=O)[O-])ccc5F)c5nc(c(-c6cc(S(=O)(=O)[O-])ccc6F)c6ccc3[nH]6)C=C5)C=C4)cc2)C(C)(C)C1=O
REMARK SMILES IDX 11 1 10 2 9 3 7 4 8 5 6 6 5 7 1 8 2 9 3 10 81 11 4 12 78 13
REMARK SMILES IDX 82 14 79 15 80 16 12 18 13 19 14 20 15 21 16 22 77 23 17 24
REMARK SMILES IDX 76 25 18 26 19 27 20 28 70 29 21 30 75 31 69 32 71 33 22 34
REMARK SMILES IDX 74 35 68 36 67 37 23 39 55 40 35 41 54 42 36 43 39 44 53 45
REMARK SMILES IDX 72 46 37 47 38 48 52 50 73 51 40 52 24 53 25 54 33 55 26 56
REMARK SMILES IDX 32 57 34 58 31 59 27 60 28 61 29 62 30 63 56 64 57 65 65 66
REMARK SMILES IDX 58 67 64 68 66 69 63 70 59 71 60 72 61 73 62 74 41 75 42 76
REMARK SMILES IDX 50 77 43 78 49 79 51 80 48 81 44 82 45 83 46 84 47 85
REMARK H PARENT 5 17 71 38 39 49
REMARK Flexibility Score: inf
ROOT
ATOM      1  C   UNL A   1      31.767  30.022  25.678  1.00  0.00     0.275 C 
ENDROOT
BRANCH   1   2
ATOM      2  C   UNL A   1      31.738  29.338  24.315  1.00  0.00     0.274 C 
BRANCH   2   3
ATOM      3  O   UNL A   1      30.480  28.664  24.119  1.00  0.00    -0.458 OA
BRANCH   3   4
ATOM      4  C   UNL A   1      30.188  28.267  22.857  1.00  0.00     0.361 C 
ATOM      5  O   UNL A   1      29.696  29.000  22.003  1.00  0.00    -0.245 OA
BRANCH   4   6
ATOM      6  C   UNL A   1      30.486  26.797  22.569  1.00  0.00     0.387 C 
BRANCH   6   7
ATOM      7  N   UNL A   1      31.359  26.060  23.500  1.00  0.00    -0.312 N 
ATOM      8  C   UNL A   1      32.302  21.891  23.092  1.00  0.00     0.147 C 
ATOM      9  N   UNL A   1      32.171  23.308  23.368  1.00  0.00    -0.335 N 
ATOM     10  C   UNL A   1      31.358  23.705  24.507  1.00  0.00     0.180 C 
ATOM     11  C   UNL A   1      32.895  24.249  22.647  1.00  0.00     0.283 C 
ATOM     12  C   UNL A   1      30.653  25.055  24.304  1.00  0.00     0.285 C 
ATOM     13  C   UNL A   1      32.752  25.736  23.110  1.00  0.00     0.172 C 
ATOM     14  O   UNL A   1      33.656  23.925  21.731  1.00  0.00    -0.268 OA
ATOM     15  C   UNL A   1      33.657  25.953  24.344  1.00  0.00     0.090 C 
ATOM     16  C   UNL A   1      33.311  26.665  22.008  1.00  0.00     0.090 C 
ATOM     17  H   UNL A   1      31.608  26.809  24.145  1.00  0.00     0.349 HD
ENDBRANCH   6   7
ENDBRANCH   4   6
ENDBRANCH   3   4
ENDBRANCH   2   3
ENDBRANCH   1   2
BRANCH   1  18
ATOM     18  O   UNL A   1      33.129  30.157  26.116  1.00  0.00    -0.458 OA
BRANCH  18  19
ATOM     19  C   UNL A   1      33.354  31.138  27.016  1.00  0.00     0.338 C 
ATOM     20  O   UNL A   1      32.642  32.088  27.287  1.00  0.00    -0.246 OA
BRANCH  19  21
ATOM     21  C   UNL A   1      34.659  30.924  27.651  1.00  0.00     0.060 A 
ATOM     22  C   UNL A   1      35.537  31.995  27.848  1.00  0.00     0.016 A 
ATOM     23  C   UNL A   1      35.030  29.621  27.979  1.00  0.00     0.016 A 
ATOM     24  C   UNL A   1      36.804  31.757  28.373  1.00  0.00     0.010 A 
ATOM     25  C   UNL A   1      36.276  29.395  28.557  1.00  0.00     0.010 A 
ATOM     26  C   UNL A   1      37.168  30.461  28.761  1.00  0.00    -0.014 A 
BRANCH  26  27
ATOM     27  C   UNL A   1      38.438  30.209  29.479  1.00  0.00     0.031 A 
ATOM     28  C   UNL A   1      39.444  29.245  28.928  1.00  0.00     0.074 A 
ATOM     29  C   UNL A   1      38.621  30.797  30.676  1.00  0.00     0.049 A 
ATOM     30  N   UNL A   1      40.495  28.731  29.507  1.00  0.00    -0.248 NA
ATOM     31  C   UNL A   1      39.229  28.793  27.545  1.00  0.00     0.031 C 
ATOM     32  C   UNL A   1      37.709  31.771  31.283  1.00  0.00     0.029 A 
ATOM     33  N   UNL A   1      39.609  30.638  31.611  1.00  0.00    -0.354 N 
ATOM     34  C   UNL A   1      41.066  27.877  28.569  1.00  0.00     0.074 A 
ATOM     35  C   UNL A   1      40.228  27.933  27.388  1.00  0.00     0.031 C 
ATOM     36  C   UNL A   1      38.172  32.111  32.494  1.00  0.00     0.029 A 
ATOM     37  C   UNL A   1      39.365  31.323  32.778  1.00  0.00     0.049 A 
ATOM     38  H   UNL A   1      40.413  30.090  31.462  1.00  0.00     0.167 HD
ATOM     39  C   UNL A   1      42.183  27.119  28.695  1.00  0.00     0.034 A 
ATOM     40  C   UNL A   1      39.993  31.273  33.968  1.00  0.00     0.034 A 
ATOM     41  C   UNL A   1      42.985  27.078  29.897  1.00  0.00     0.049 A 
ATOM     42  C   UNL A   1      41.166  30.347  34.119  1.00  0.00     0.074 A 
ATOM     43  C   UNL A   1      44.158  26.383  30.132  1.00  0.00     0.029 A 
ATOM     44  N   UNL A   1      42.683  27.751  31.076  1.00  0.00    -0.354 N 
ATOM     45  N   UNL A   1      41.699  29.541  33.227  1.00  0.00    -0.248 NA
ATOM     46  C   UNL A   1      41.813  30.310  35.435  1.00  0.00     0.031 C 
ATOM     47  C   UNL A   1      44.526  26.580  31.469  1.00  0.00     0.029 A 
ATOM     48  C   UNL A   1      43.619  27.451  32.053  1.00  0.00     0.049 A 
ATOM     49  H   UNL A   1      41.914  28.354  31.198  1.00  0.00     0.167 HD
ATOM     50  C   UNL A   1      42.749  28.903  33.875  1.00  0.00     0.074 A 
ATOM     51  C   UNL A   1      42.786  29.435  35.225  1.00  0.00     0.031 C 
ATOM     52  C   UNL A   1      43.607  27.964  33.402  1.00  0.00     0.034 A 
BRANCH  39  53
ATOM     53  C   UNL A   1      42.562  26.235  27.533  1.00  0.00     0.023 A 
ATOM     54  C   UNL A   1      42.104  24.910  27.425  1.00  0.00     0.031 A 
ATOM     55  C   UNL A   1      43.413  26.720  26.524  1.00  0.00     0.131 A 
ATOM     56  C   UNL A   1      42.546  24.099  26.367  1.00  0.00     0.055 A 
ATOM     57  C   UNL A   1      43.796  25.930  25.438  1.00  0.00     0.041 A 
ATOM     58  F   UNL A   1      43.900  27.969  26.584  1.00  0.00    -0.206 F 
ATOM     59  C   UNL A   1      43.372  24.607  25.361  1.00  0.00     0.022 A 
BRANCH  56  60
ATOM     60  S   UNL A   1      42.127  22.334  26.390  1.00  0.00     0.124 S 
ATOM     61  O   UNL A   1      42.869  21.837  25.234  1.00  0.00    -0.237 OA
ATOM     62  O   UNL A   1      42.619  21.910  27.695  1.00  0.00    -0.237 OA
ATOM     63  O   UNL A   1      40.674  22.324  26.237  1.00  0.00    -0.744 OA
ENDBRANCH  56  60
ENDBRANCH  39  53
BRANCH  40  64
ATOM     64  C   UNL A   1      39.472  32.060  35.119  1.00  0.00     0.023 A 
ATOM     65  C   UNL A   1      39.880  33.384  35.333  1.00  0.00     0.031 A 
ATOM     66  C   UNL A   1      38.555  31.494  36.024  1.00  0.00     0.131 A 
ATOM     67  C   UNL A   1      39.389  34.093  36.439  1.00  0.00     0.055 A 
ATOM     68  C   UNL A   1      38.033  32.219  37.095  1.00  0.00     0.041 A 
ATOM     69  F   UNL A   1      38.130  30.230  35.860  1.00  0.00    -0.206 F 
ATOM     70  C   UNL A   1      38.457  33.526  37.313  1.00  0.00     0.022 A 
BRANCH  67  71
ATOM     71  S   UNL A   1      40.031  35.759  36.755  1.00  0.00     0.124 S 
ATOM     72  O   UNL A   1      41.455  35.501  36.935  1.00  0.00    -0.237 OA
ATOM     73  O   UNL A   1      39.656  36.464  35.534  1.00  0.00    -0.237 OA
ATOM     74  O   UNL A   1      39.315  36.177  37.959  1.00  0.00    -0.744 OA
ENDBRANCH  67  71
ENDBRANCH  40  64
BRANCH  52  75
ATOM     75  C   UNL A   1      44.654  27.471  34.366  1.00  0.00     0.023 A 
ATOM     76  C   UNL A   1      44.380  26.429  35.268  1.00  0.00     0.031 A 
ATOM     77  C   UNL A   1      45.923  28.073  34.406  1.00  0.00     0.131 A 
ATOM     78  C   UNL A   1      45.348  26.051  36.209  1.00  0.00     0.055 A 
ATOM     79  C   UNL A   1      46.902  27.656  35.309  1.00  0.00     0.041 A 
ATOM     80  F   UNL A   1      46.230  29.075  33.568  1.00  0.00    -0.206 F 
ATOM     81  C   UNL A   1      46.613  26.648  36.225  1.00  0.00     0.022 A 
BRANCH  78  82
ATOM     82  S   UNL A   1      44.909  24.818  37.463  1.00  0.00     0.124 S 
ATOM     83  O   UNL A   1      43.451  24.829  37.401  1.00  0.00    -0.237 OA
ATOM     84  O   UNL A   1      45.560  23.612  36.962  1.00  0.00    -0.237 OA
ATOM     85  O   UNL A   1      45.482  25.361  38.694  1.00  0.00    -0.744 OA
ENDBRANCH  78  82
ENDBRANCH  52  75
ENDBRANCH  26  27
ENDBRANCH  19  21
ENDBRANCH  18  19
ENDBRANCH   1  18
TORSDOF 15
ENDMDL
