MODEL 1
REMARK VINA RESULT:     -10.7      0.000      0.000
REMARK SMILES O=C(OCCOC(=O)c1ncoc1-c1cc(F)cc(F)c1)c1ccc(-c2c3nc(c(-c4cc(S(=O)(=O)[O-])ccc4F)c4ccc([nH]4)c(-c4cc(S(=O)(=O)[O-])ccc4F)c4nc(c(-c5cc(S(=O)(=O)[O-])ccc5F)c5ccc2[nH]5)C=C4)C=C3)cc1
REMARK SMILES IDX 4 1 3 2 2 3 1 4 22 5 23 6 84 7 24 8 83 9 25 10 26 11 27 12
REMARK SMILES IDX 77 13 28 14 82 15 76 16 78 17 29 18 81 19 75 20 74 21 30 23
REMARK SMILES IDX 62 24 42 25 61 26 43 27 46 28 60 29 79 30 44 31 45 32 59 34
REMARK SMILES IDX 80 35 47 36 31 37 32 38 40 39 33 40 39 41 41 42 38 43 34 44
REMARK SMILES IDX 35 45 36 46 37 47 63 48 64 49 72 50 65 51 71 52 73 53 70 54
REMARK SMILES IDX 66 55 67 56 68 57 69 58 48 59 49 60 57 61 50 62 56 63 58 64
REMARK SMILES IDX 55 65 51 66 52 67 53 68 54 69 5 70 6 71 7 72 8 73 9 74 10 75
REMARK SMILES IDX 13 76 11 77 12 78 14 79 15 80 21 81 16 82 19 83 17 84 18 85
REMARK SMILES IDX 20 86
REMARK H PARENT 78 22 46 33
REMARK Flexibility Score: inf
ROOT
ATOM      1  C   UNL A   1      33.934  33.658  28.336  1.00  0.00     0.275 C 
ENDROOT
BRANCH   1   2
ATOM      2  O   UNL A   1      34.653  32.736  27.491  1.00  0.00    -0.458 OA
BRANCH   2   3
ATOM      3  C   UNL A   1      34.551  31.413  27.718  1.00  0.00     0.338 C 
ATOM      4  O   UNL A   1      33.529  30.776  27.521  1.00  0.00    -0.246 OA
BRANCH   3   5
ATOM      5  C   UNL A   1      35.819  30.820  28.228  1.00  0.00     0.060 A 
ATOM      6  C   UNL A   1      35.841  29.567  28.847  1.00  0.00     0.016 A 
ATOM      7  C   UNL A   1      37.026  31.487  27.984  1.00  0.00     0.016 A 
ATOM      8  C   UNL A   1      37.049  28.980  29.197  1.00  0.00     0.010 A 
ATOM      9  C   UNL A   1      38.243  30.875  28.276  1.00  0.00     0.010 A 
ATOM     10  C   UNL A   1      38.254  29.629  28.915  1.00  0.00    -0.014 A 
BRANCH  10  11
ATOM     11  C   UNL A   1      39.502  29.075  29.477  1.00  0.00     0.031 A 
ATOM     12  C   UNL A   1      39.971  29.612  30.800  1.00  0.00     0.074 A 
ATOM     13  C   UNL A   1      40.132  28.064  28.851  1.00  0.00     0.049 A 
ATOM     14  N   UNL A   1      40.968  29.224  31.546  1.00  0.00    -0.248 NA
ATOM     15  C   UNL A   1      39.211  30.746  31.354  1.00  0.00     0.031 C 
ATOM     16  C   UNL A   1      39.725  27.480  27.570  1.00  0.00     0.029 A 
ATOM     17  N   UNL A   1      41.231  27.333  29.213  1.00  0.00    -0.354 N 
ATOM     18  C   UNL A   1      40.945  30.058  32.660  1.00  0.00     0.074 A 
ATOM     19  C   UNL A   1      39.896  31.026  32.449  1.00  0.00     0.031 C 
ATOM     20  C   UNL A   1      40.560  26.475  27.259  1.00  0.00     0.029 A 
ATOM     21  C   UNL A   1      41.562  26.346  28.313  1.00  0.00     0.049 A 
ATOM     22  H   UNL A   1      41.738  27.498  30.042  1.00  0.00     0.167 HD
ATOM     23  C   UNL A   1      41.707  29.990  33.779  1.00  0.00     0.034 A 
ATOM     24  C   UNL A   1      42.556  25.438  28.354  1.00  0.00     0.034 A 
ATOM     25  C   UNL A   1      42.745  29.009  33.950  1.00  0.00     0.049 A 
ATOM     26  C   UNL A   1      43.425  25.409  29.589  1.00  0.00     0.074 A 
ATOM     27  C   UNL A   1      43.601  28.827  35.018  1.00  0.00     0.029 A 
ATOM     28  N   UNL A   1      43.066  28.037  33.007  1.00  0.00    -0.354 N 
ATOM     29  N   UNL A   1      43.367  26.179  30.656  1.00  0.00    -0.248 NA
ATOM     30  C   UNL A   1      44.464  24.377  29.646  1.00  0.00     0.031 C 
ATOM     31  C   UNL A   1      44.474  27.781  34.698  1.00  0.00     0.029 A 
ATOM     32  C   UNL A   1      44.119  27.264  33.460  1.00  0.00     0.049 A 
ATOM     33  H   UNL A   1      42.609  27.916  32.143  1.00  0.00     0.167 HD
ATOM     34  C   UNL A   1      44.341  25.698  31.526  1.00  0.00     0.074 A 
ATOM     35  C   UNL A   1      44.958  24.564  30.862  1.00  0.00     0.031 C 
ATOM     36  C   UNL A   1      44.697  26.141  32.759  1.00  0.00     0.034 A 
BRANCH  23  37
ATOM     37  C   UNL A   1      41.447  31.026  34.846  1.00  0.00     0.023 A 
ATOM     38  C   UNL A   1      40.287  30.986  35.644  1.00  0.00     0.031 A 
ATOM     39  C   UNL A   1      42.315  32.118  35.007  1.00  0.00     0.131 A 
ATOM     40  C   UNL A   1      39.978  32.063  36.489  1.00  0.00     0.055 A 
ATOM     41  C   UNL A   1      42.045  33.145  35.915  1.00  0.00     0.041 A 
ATOM     42  F   UNL A   1      43.423  32.227  34.258  1.00  0.00    -0.206 F 
ATOM     43  C   UNL A   1      40.861  33.132  36.648  1.00  0.00     0.022 A 
BRANCH  40  44
ATOM     44  S   UNL A   1      38.330  32.125  37.247  1.00  0.00     0.124 S 
ATOM     45  O   UNL A   1      37.703  33.213  36.499  1.00  0.00    -0.237 OA
ATOM     46  O   UNL A   1      37.809  30.789  36.985  1.00  0.00    -0.237 OA
ATOM     47  O   UNL A   1      38.610  32.422  38.650  1.00  0.00    -0.744 OA
ENDBRANCH  40  44
ENDBRANCH  23  37
BRANCH  24  48
ATOM     48  C   UNL A   1      42.778  24.493  27.220  1.00  0.00     0.023 A 
ATOM     49  C   UNL A   1      42.208  23.208  27.207  1.00  0.00     0.031 A 
ATOM     50  C   UNL A   1      43.602  24.853  26.137  1.00  0.00     0.131 A 
ATOM     51  C   UNL A   1      42.504  22.319  26.160  1.00  0.00     0.055 A 
ATOM     52  C   UNL A   1      43.857  23.981  25.077  1.00  0.00     0.041 A 
ATOM     53  F   UNL A   1      44.168  26.070  26.090  1.00  0.00    -0.206 F 
ATOM     54  C   UNL A   1      43.317  22.699  25.091  1.00  0.00     0.022 A 
BRANCH  51  55
ATOM     55  S   UNL A   1      41.878  20.617  26.257  1.00  0.00     0.124 S 
ATOM     56  O   UNL A   1      40.457  20.806  25.986  1.00  0.00    -0.237 OA
ATOM     57  O   UNL A   1      42.650  19.954  25.211  1.00  0.00    -0.237 OA
ATOM     58  O   UNL A   1      42.204  20.212  27.622  1.00  0.00    -0.744 OA
ENDBRANCH  51  55
ENDBRANCH  24  48
BRANCH  36  59
ATOM     59  C   UNL A   1      45.769  25.361  33.471  1.00  0.00     0.023 A 
ATOM     60  C   UNL A   1      45.453  24.273  34.302  1.00  0.00     0.031 A 
ATOM     61  C   UNL A   1      47.121  25.711  33.312  1.00  0.00     0.131 A 
ATOM     62  C   UNL A   1      46.477  23.607  34.990  1.00  0.00     0.055 A 
ATOM     63  C   UNL A   1      48.139  25.005  33.950  1.00  0.00     0.041 A 
ATOM     64  F   UNL A   1      47.472  26.742  32.526  1.00  0.00    -0.206 F 
ATOM     65  C   UNL A   1      47.818  23.953  34.806  1.00  0.00     0.022 A 
BRANCH  62  66
ATOM     66  S   UNL A   1      46.018  22.336  36.199  1.00  0.00     0.124 S 
ATOM     67  O   UNL A   1      45.121  21.489  35.420  1.00  0.00    -0.237 OA
ATOM     68  O   UNL A   1      47.310  21.750  36.542  1.00  0.00    -0.237 OA
ATOM     69  O   UNL A   1      45.380  23.099  37.270  1.00  0.00    -0.744 OA
ENDBRANCH  62  66
ENDBRANCH  36  59
ENDBRANCH  10  11
ENDBRANCH   3   5
ENDBRANCH   2   3
ENDBRANCH   1   2
BRANCH   1  70
ATOM     70  C   UNL A   1      34.363  33.889  29.797  1.00  0.00     0.275 C 
BRANCH  70  71
ATOM     71  O   UNL A   1      34.065  32.797  30.678  1.00  0.00    -0.457 OA
BRANCH  71  72
ATOM     72  C   UNL A   1      35.036  32.493  31.602  1.00  0.00     0.361 C 
ATOM     73  O   UNL A   1      35.635  31.423  31.647  1.00  0.00    -0.244 OA
BRANCH  72  74
ATOM     74  C   UNL A   1      35.305  33.584  32.524  1.00  0.00     0.194 A 
ATOM     75  N   UNL A   1      34.357  34.137  33.378  1.00  0.00    -0.209 NA
ATOM     76  C   UNL A   1      36.517  34.228  32.710  1.00  0.00     0.169 A 
ATOM     77  C   UNL A   1      35.027  35.055  34.037  1.00  0.00     0.309 A 
ATOM     78  O   UNL A   1      36.340  35.161  33.700  1.00  0.00    -0.443 OA
BRANCH  76  79
ATOM     79  C   UNL A   1      37.831  34.243  32.089  1.00  0.00     0.026 A 
ATOM     80  C   UNL A   1      37.964  34.238  30.696  1.00  0.00     0.051 A 
ATOM     81  C   UNL A   1      38.991  34.360  32.861  1.00  0.00     0.051 A 
ATOM     82  C   UNL A   1      39.207  34.403  30.094  1.00  0.00     0.126 A 
ATOM     83  C   UNL A   1      40.234  34.487  32.238  1.00  0.00     0.126 A 
ATOM     84  F   UNL A   1      39.291  34.463  28.758  1.00  0.00    -0.207 F 
ATOM     85  C   UNL A   1      40.353  34.528  30.857  1.00  0.00     0.078 A 
ATOM     86  F   UNL A   1      41.337  34.590  32.992  1.00  0.00    -0.207 F 
ENDBRANCH  76  79
ENDBRANCH  72  74
ENDBRANCH  71  72
ENDBRANCH  70  71
ENDBRANCH   1  70
TORSDOF 15
ENDMDL
MODEL 2
REMARK VINA RESULT:     -10.7      5.044     12.562
REMARK SMILES O=C(OCCOC(=O)c1ncoc1-c1cc(F)cc(F)c1)c1ccc(-c2c3nc(c(-c4cc(S(=O)(=O)[O-])ccc4F)c4ccc([nH]4)c(-c4cc(S(=O)(=O)[O-])ccc4F)c4nc(c(-c5cc(S(=O)(=O)[O-])ccc5F)c5ccc2[nH]5)C=C4)C=C3)cc1
REMARK SMILES IDX 4 1 3 2 2 3 1 4 22 5 23 6 84 7 24 8 83 9 25 10 26 11 27 12
REMARK SMILES IDX 77 13 28 14 82 15 76 16 78 17 29 18 81 19 75 20 74 21 30 23
REMARK SMILES IDX 62 24 42 25 61 26 43 27 46 28 60 29 79 30 44 31 45 32 59 34
REMARK SMILES IDX 80 35 47 36 31 37 32 38 40 39 33 40 39 41 41 42 38 43 34 44
REMARK SMILES IDX 35 45 36 46 37 47 63 48 64 49 72 50 65 51 71 52 73 53 70 54
REMARK SMILES IDX 66 55 67 56 68 57 69 58 48 59 49 60 57 61 50 62 56 63 58 64
REMARK SMILES IDX 55 65 51 66 52 67 53 68 54 69 5 70 6 71 7 72 8 73 9 74 10 75
REMARK SMILES IDX 13 76 11 77 12 78 14 79 15 80 21 81 16 82 19 83 17 84 18 85
REMARK SMILES IDX 20 86
REMARK H PARENT 78 22 46 33
REMARK Flexibility Score: inf
ROOT
ATOM      1  C   UNL A   1      39.909  20.628  26.057  1.00  0.00     0.275 C 
ENDROOT
BRANCH   1   2
ATOM      2  O   UNL A   1      39.789  21.814  26.868  1.00  0.00    -0.458 OA
BRANCH   2   3
ATOM      3  C   UNL A   1      38.942  22.790  26.492  1.00  0.00     0.338 C 
ATOM      4  O   UNL A   1      37.934  22.587  25.835  1.00  0.00    -0.246 OA
BRANCH   3   5
ATOM      5  C   UNL A   1      39.368  24.134  26.972  1.00  0.00     0.060 A 
ATOM      6  C   UNL A   1      39.760  25.136  26.080  1.00  0.00     0.016 A 
ATOM      7  C   UNL A   1      39.270  24.430  28.337  1.00  0.00     0.016 A 
ATOM      8  C   UNL A   1      40.029  26.418  26.540  1.00  0.00     0.010 A 
ATOM      9  C   UNL A   1      39.478  25.729  28.796  1.00  0.00     0.010 A 
ATOM     10  C   UNL A   1      39.891  26.721  27.897  1.00  0.00    -0.014 A 
BRANCH  10  11
ATOM     11  C   UNL A   1      40.374  28.030  28.381  1.00  0.00     0.031 A 
ATOM     12  C   UNL A   1      41.837  28.337  28.219  1.00  0.00     0.074 A 
ATOM     13  C   UNL A   1      39.503  28.933  28.865  1.00  0.00     0.049 A 
ATOM     14  N   UNL A   1      42.485  29.442  28.464  1.00  0.00    -0.248 NA
ATOM     15  C   UNL A   1      42.685  27.243  27.713  1.00  0.00     0.031 C 
ATOM     16  C   UNL A   1      38.065  28.711  29.036  1.00  0.00     0.029 A 
ATOM     17  N   UNL A   1      39.690  30.225  29.279  1.00  0.00    -0.354 N 
ATOM     18  C   UNL A   1      43.810  29.178  28.132  1.00  0.00     0.074 A 
ATOM     19  C   UNL A   1      43.888  27.787  27.755  1.00  0.00     0.031 C 
ATOM     20  C   UNL A   1      37.500  29.833  29.513  1.00  0.00     0.029 A 
ATOM     21  C   UNL A   1      38.532  30.850  29.685  1.00  0.00     0.049 A 
ATOM     22  H   UNL A   1      40.570  30.666  29.285  1.00  0.00     0.167 HD
ATOM     23  C   UNL A   1      44.858  30.036  28.103  1.00  0.00     0.034 A 
ATOM     24  C   UNL A   1      38.341  32.106  30.131  1.00  0.00     0.034 A 
ATOM     25  C   UNL A   1      44.739  31.417  28.488  1.00  0.00     0.049 A 
ATOM     26  C   UNL A   1      39.532  33.034  30.136  1.00  0.00     0.074 A 
ATOM     27  C   UNL A   1      45.711  32.397  28.522  1.00  0.00     0.029 A 
ATOM     28  N   UNL A   1      43.554  32.011  28.915  1.00  0.00    -0.354 N 
ATOM     29  N   UNL A   1      40.775  32.783  29.781  1.00  0.00    -0.248 NA
ATOM     30  C   UNL A   1      39.296  34.416  30.566  1.00  0.00     0.031 C 
ATOM     31  C   UNL A   1      45.126  33.568  29.020  1.00  0.00     0.029 A 
ATOM     32  C   UNL A   1      43.774  33.338  29.232  1.00  0.00     0.049 A 
ATOM     33  H   UNL A   1      42.685  31.552  28.981  1.00  0.00     0.167 HD
ATOM     34  C   UNL A   1      41.459  33.988  29.910  1.00  0.00     0.074 A 
ATOM     35  C   UNL A   1      40.485  34.964  30.363  1.00  0.00     0.031 C 
ATOM     36  C   UNL A   1      42.767  34.272  29.678  1.00  0.00     0.034 A 
BRANCH  23  37
ATOM     37  C   UNL A   1      46.192  29.471  27.679  1.00  0.00     0.023 A 
ATOM     38  C   UNL A   1      46.458  29.137  26.337  1.00  0.00     0.031 A 
ATOM     39  C   UNL A   1      47.177  29.173  28.635  1.00  0.00     0.131 A 
ATOM     40  C   UNL A   1      47.627  28.437  26.005  1.00  0.00     0.055 A 
ATOM     41  C   UNL A   1      48.380  28.554  28.284  1.00  0.00     0.041 A 
ATOM     42  F   UNL A   1      46.973  29.443  29.933  1.00  0.00    -0.206 F 
ATOM     43  C   UNL A   1      48.603  28.164  26.966  1.00  0.00     0.022 A 
BRANCH  40  44
ATOM     44  S   UNL A   1      47.779  27.742  24.335  1.00  0.00     0.124 S 
ATOM     45  O   UNL A   1      46.821  28.557  23.590  1.00  0.00    -0.237 OA
ATOM     46  O   UNL A   1      49.185  27.968  24.023  1.00  0.00    -0.237 OA
ATOM     47  O   UNL A   1      47.394  26.343  24.510  1.00  0.00    -0.744 OA
ENDBRANCH  40  44
ENDBRANCH  23  37
BRANCH  24  48
ATOM     48  C   UNL A   1      36.995  32.559  30.591  1.00  0.00     0.023 A 
ATOM     49  C   UNL A   1      36.055  33.106  29.701  1.00  0.00     0.031 A 
ATOM     50  C   UNL A   1      36.638  32.482  31.951  1.00  0.00     0.131 A 
ATOM     51  C   UNL A   1      34.829  33.594  30.184  1.00  0.00     0.055 A 
ATOM     52  C   UNL A   1      35.401  32.927  32.420  1.00  0.00     0.041 A 
ATOM     53  F   UNL A   1      37.493  31.961  32.847  1.00  0.00    -0.206 F 
ATOM     54  C   UNL A   1      34.493  33.500  31.536  1.00  0.00     0.022 A 
BRANCH  51  55
ATOM     55  S   UNL A   1      33.708  34.436  29.031  1.00  0.00     0.124 S 
ATOM     56  O   UNL A   1      32.658  34.909  29.927  1.00  0.00    -0.237 OA
ATOM     57  O   UNL A   1      34.577  35.459  28.461  1.00  0.00    -0.237 OA
ATOM     58  O   UNL A   1      33.309  33.374  28.109  1.00  0.00    -0.744 OA
ENDBRANCH  51  55
ENDBRANCH  24  48
BRANCH  36  59
ATOM     59  C   UNL A   1      43.189  35.704  29.868  1.00  0.00     0.023 A 
ATOM     60  C   UNL A   1      43.020  36.658  28.851  1.00  0.00     0.031 A 
ATOM     61  C   UNL A   1      43.763  36.116  31.083  1.00  0.00     0.131 A 
ATOM     62  C   UNL A   1      43.475  37.969  29.048  1.00  0.00     0.055 A 
ATOM     63  C   UNL A   1      44.158  37.435  31.295  1.00  0.00     0.041 A 
ATOM     64  F   UNL A   1      43.943  35.239  32.084  1.00  0.00    -0.206 F 
ATOM     65  C   UNL A   1      44.027  38.368  30.269  1.00  0.00     0.022 A 
BRANCH  62  66
ATOM     66  S   UNL A   1      43.417  39.122  27.651  1.00  0.00     0.124 S 
ATOM     67  O   UNL A   1      42.695  40.253  28.223  1.00  0.00    -0.237 OA
ATOM     68  O   UNL A   1      44.832  39.345  27.371  1.00  0.00    -0.237 OA
ATOM     69  O   UNL A   1      42.692  38.377  26.624  1.00  0.00    -0.744 OA
ENDBRANCH  62  66
ENDBRANCH  36  59
ENDBRANCH  10  11
ENDBRANCH   3   5
ENDBRANCH   2   3
ENDBRANCH   1   2
BRANCH   1  70
ATOM     70  C   UNL A   1      40.883  19.500  26.446  1.00  0.00     0.275 C 
BRANCH  70  71
ATOM     71  O   UNL A   1      41.815  19.144  25.416  1.00  0.00    -0.457 OA
BRANCH  71  72
ATOM     72  C   UNL A   1      42.973  18.540  25.842  1.00  0.00     0.361 C 
ATOM     73  O   UNL A   1      43.011  17.579  26.605  1.00  0.00    -0.244 OA
BRANCH  72  74
ATOM     74  C   UNL A   1      44.170  19.145  25.281  1.00  0.00     0.194 A 
ATOM     75  N   UNL A   1      45.222  18.426  24.724  1.00  0.00    -0.209 NA
ATOM     76  C   UNL A   1      44.450  20.499  25.198  1.00  0.00     0.169 A 
ATOM     77  C   UNL A   1      46.060  19.356  24.325  1.00  0.00     0.309 A 
ATOM     78  O   UNL A   1      45.658  20.633  24.563  1.00  0.00    -0.443 OA
BRANCH  76  79
ATOM     79  C   UNL A   1      43.874  21.745  25.677  1.00  0.00     0.026 A 
ATOM     80  C   UNL A   1      43.405  21.858  26.990  1.00  0.00     0.051 A 
ATOM     81  C   UNL A   1      43.863  22.889  24.873  1.00  0.00     0.051 A 
ATOM     82  C   UNL A   1      42.992  23.084  27.501  1.00  0.00     0.126 A 
ATOM     83  C   UNL A   1      43.410  24.103  25.393  1.00  0.00     0.126 A 
ATOM     84  F   UNL A   1      42.613  23.172  28.783  1.00  0.00    -0.207 F 
ATOM     85  C   UNL A   1      42.989  24.217  26.709  1.00  0.00     0.078 A 
ATOM     86  F   UNL A   1      43.397  25.188  24.607  1.00  0.00    -0.207 F 
ENDBRANCH  76  79
ENDBRANCH  72  74
ENDBRANCH  71  72
ENDBRANCH  70  71
ENDBRANCH   1  70
TORSDOF 15
ENDMDL
MODEL 3
REMARK VINA RESULT:     -10.4      6.384     12.490
REMARK SMILES O=C(OCCOC(=O)c1ncoc1-c1cc(F)cc(F)c1)c1ccc(-c2c3nc(c(-c4cc(S(=O)(=O)[O-])ccc4F)c4ccc([nH]4)c(-c4cc(S(=O)(=O)[O-])ccc4F)c4nc(c(-c5cc(S(=O)(=O)[O-])ccc5F)c5ccc2[nH]5)C=C4)C=C3)cc1
REMARK SMILES IDX 4 1 3 2 2 3 1 4 22 5 23 6 84 7 24 8 83 9 25 10 26 11 27 12
REMARK SMILES IDX 77 13 28 14 82 15 76 16 78 17 29 18 81 19 75 20 74 21 30 23
REMARK SMILES IDX 62 24 42 25 61 26 43 27 46 28 60 29 79 30 44 31 45 32 59 34
REMARK SMILES IDX 80 35 47 36 31 37 32 38 40 39 33 40 39 41 41 42 38 43 34 44
REMARK SMILES IDX 35 45 36 46 37 47 63 48 64 49 72 50 65 51 71 52 73 53 70 54
REMARK SMILES IDX 66 55 67 56 68 57 69 58 48 59 49 60 57 61 50 62 56 63 58 64
REMARK SMILES IDX 55 65 51 66 52 67 53 68 54 69 5 70 6 71 7 72 8 73 9 74 10 75
REMARK SMILES IDX 13 76 11 77 12 78 14 79 15 80 21 81 16 82 19 83 17 84 18 85
REMARK SMILES IDX 20 86
REMARK H PARENT 78 22 46 33
REMARK Flexibility Score: inf
ROOT
ATOM      1  C   UNL A   1      37.771  20.695  24.985  1.00  0.00     0.275 C 
ENDROOT
BRANCH   1   2
ATOM      2  O   UNL A   1      38.309  21.838  25.681  1.00  0.00    -0.458 OA
BRANCH   2   3
ATOM      3  C   UNL A   1      39.507  21.742  26.286  1.00  0.00     0.338 C 
ATOM      4  O   UNL A   1      40.117  20.691  26.403  1.00  0.00    -0.246 OA
BRANCH   3   5
ATOM      5  C   UNL A   1      40.004  23.054  26.786  1.00  0.00     0.060 A 
ATOM      6  C   UNL A   1      39.435  24.259  26.362  1.00  0.00     0.016 A 
ATOM      7  C   UNL A   1      40.988  23.072  27.782  1.00  0.00     0.016 A 
ATOM      8  C   UNL A   1      39.826  25.459  26.938  1.00  0.00     0.010 A 
ATOM      9  C   UNL A   1      41.339  24.267  28.406  1.00  0.00     0.010 A 
ATOM     10  C   UNL A   1      40.780  25.470  27.961  1.00  0.00    -0.014 A 
BRANCH  10  11
ATOM     11  C   UNL A   1      41.317  26.771  28.410  1.00  0.00     0.031 A 
ATOM     12  C   UNL A   1      42.745  27.091  28.066  1.00  0.00     0.074 A 
ATOM     13  C   UNL A   1      40.513  27.656  29.025  1.00  0.00     0.049 A 
ATOM     14  N   UNL A   1      43.415  28.194  28.253  1.00  0.00    -0.248 NA
ATOM     15  C   UNL A   1      43.524  26.016  27.428  1.00  0.00     0.031 C 
ATOM     16  C   UNL A   1      39.110  27.420  29.376  1.00  0.00     0.029 A 
ATOM     17  N   UNL A   1      40.748  28.938  29.444  1.00  0.00    -0.354 N 
ATOM     18  C   UNL A   1      44.687  27.948  27.744  1.00  0.00     0.074 A 
ATOM     19  C   UNL A   1      44.720  26.567  27.326  1.00  0.00     0.031 C 
ATOM     20  C   UNL A   1      38.608  28.526  29.950  1.00  0.00     0.029 A 
ATOM     21  C   UNL A   1      39.651  29.545  30.012  1.00  0.00     0.049 A 
ATOM     22  H   UNL A   1      41.620  29.385  29.346  1.00  0.00     0.167 HD
ATOM     23  C   UNL A   1      45.719  28.813  27.601  1.00  0.00     0.034 A 
ATOM     24  C   UNL A   1      39.514  30.790  30.510  1.00  0.00     0.034 A 
ATOM     25  C   UNL A   1      45.646  30.184  28.033  1.00  0.00     0.049 A 
ATOM     26  C   UNL A   1      40.693  31.725  30.383  1.00  0.00     0.074 A 
ATOM     27  C   UNL A   1      46.611  31.169  27.965  1.00  0.00     0.029 A 
ATOM     28  N   UNL A   1      44.525  30.759  28.625  1.00  0.00    -0.354 N 
ATOM     29  N   UNL A   1      41.879  31.491  29.863  1.00  0.00    -0.248 NA
ATOM     30  C   UNL A   1      40.510  33.094  30.875  1.00  0.00     0.031 C 
ATOM     31  C   UNL A   1      46.092  32.323  28.563  1.00  0.00     0.029 A 
ATOM     32  C   UNL A   1      44.780  32.079  28.943  1.00  0.00     0.049 A 
ATOM     33  H   UNL A   1      43.674  30.293  28.792  1.00  0.00     0.167 HD
ATOM     34  C   UNL A   1      42.571  32.697  29.933  1.00  0.00     0.074 A 
ATOM     35  C   UNL A   1      41.660  33.655  30.533  1.00  0.00     0.031 C 
ATOM     36  C   UNL A   1      43.836  32.995  29.539  1.00  0.00     0.034 A 
BRANCH  23  37
ATOM     37  C   UNL A   1      46.989  28.267  26.993  1.00  0.00     0.023 A 
ATOM     38  C   UNL A   1      47.205  28.282  25.601  1.00  0.00     0.031 A 
ATOM     39  C   UNL A   1      47.954  27.640  27.799  1.00  0.00     0.131 A 
ATOM     40  C   UNL A   1      48.299  27.596  25.053  1.00  0.00     0.055 A 
ATOM     41  C   UNL A   1      49.088  27.034  27.252  1.00  0.00     0.041 A 
ATOM     42  F   UNL A   1      47.793  27.571  29.129  1.00  0.00    -0.206 F 
ATOM     43  C   UNL A   1      49.257  26.993  25.870  1.00  0.00     0.022 A 
BRANCH  40  44
ATOM     44  S   UNL A   1      48.363  27.362  23.254  1.00  0.00     0.124 S 
ATOM     45  O   UNL A   1      47.166  28.079  22.822  1.00  0.00    -0.237 OA
ATOM     46  O   UNL A   1      49.637  27.976  22.899  1.00  0.00    -0.237 OA
ATOM     47  O   UNL A   1      48.304  25.910  23.095  1.00  0.00    -0.744 OA
ENDBRANCH  40  44
ENDBRANCH  23  37
BRANCH  24  48
ATOM     48  C   UNL A   1      38.238  31.222  31.152  1.00  0.00     0.023 A 
ATOM     49  C   UNL A   1      37.207  31.826  30.413  1.00  0.00     0.031 A 
ATOM     50  C   UNL A   1      38.044  31.066  32.538  1.00  0.00     0.131 A 
ATOM     51  C   UNL A   1      36.053  32.291  31.067  1.00  0.00     0.055 A 
ATOM     52  C   UNL A   1      36.877  31.490  33.176  1.00  0.00     0.041 A 
ATOM     53  F   UNL A   1      38.992  30.489  33.295  1.00  0.00    -0.206 F 
ATOM     54  C   UNL A   1      35.877  32.119  32.442  1.00  0.00     0.022 A 
BRANCH  51  55
ATOM     55  S   UNL A   1      34.814  33.206  30.106  1.00  0.00     0.124 S 
ATOM     56  O   UNL A   1      33.916  33.683  31.153  1.00  0.00    -0.237 OA
ATOM     57  O   UNL A   1      35.632  34.220  29.450  1.00  0.00    -0.237 OA
ATOM     58  O   UNL A   1      34.253  32.189  29.219  1.00  0.00    -0.744 OA
ENDBRANCH  51  55
ENDBRANCH  24  48
BRANCH  36  59
ATOM     59  C   UNL A   1      44.274  34.425  29.709  1.00  0.00     0.023 A 
ATOM     60  C   UNL A   1      44.162  35.354  28.661  1.00  0.00     0.031 A 
ATOM     61  C   UNL A   1      44.807  34.860  30.935  1.00  0.00     0.131 A 
ATOM     62  C   UNL A   1      44.631  36.662  28.843  1.00  0.00     0.055 A 
ATOM     63  C   UNL A   1      45.214  36.178  31.128  1.00  0.00     0.041 A 
ATOM     64  F   UNL A   1      44.932  34.008  31.965  1.00  0.00    -0.206 F 
ATOM     65  C   UNL A   1      45.140  37.086  30.073  1.00  0.00     0.022 A 
BRANCH  62  66
ATOM     66  S   UNL A   1      44.648  37.778  27.414  1.00  0.00     0.124 S 
ATOM     67  O   UNL A   1      44.929  39.066  28.041  1.00  0.00    -0.237 OA
ATOM     68  O   UNL A   1      45.718  37.221  26.594  1.00  0.00    -0.237 OA
ATOM     69  O   UNL A   1      43.304  37.640  26.857  1.00  0.00    -0.744 OA
ENDBRANCH  62  66
ENDBRANCH  36  59
ENDBRANCH  10  11
ENDBRANCH   3   5
ENDBRANCH   2   3
ENDBRANCH   1   2
BRANCH   1  70
ATOM     70  C   UNL A   1      36.263  20.388  25.019  1.00  0.00     0.275 C 
BRANCH  70  71
ATOM     71  O   UNL A   1      35.497  21.282  25.838  1.00  0.00    -0.457 OA
BRANCH  71  72
ATOM     72  C   UNL A   1      34.740  22.209  25.164  1.00  0.00     0.361 C 
ATOM     73  O   UNL A   1      35.190  22.998  24.337  1.00  0.00    -0.244 OA
BRANCH  72  74
ATOM     74  C   UNL A   1      33.331  22.157  25.514  1.00  0.00     0.194 A 
ATOM     75  N   UNL A   1      32.654  23.168  26.188  1.00  0.00    -0.209 NA
ATOM     76  C   UNL A   1      32.448  21.127  25.232  1.00  0.00     0.169 A 
ATOM     77  C   UNL A   1      31.421  22.721  26.265  1.00  0.00     0.309 A 
ATOM     78  O   UNL A   1      31.214  21.503  25.699  1.00  0.00    -0.443 OA
BRANCH  76  79
ATOM     79  C   UNL A   1      32.509  19.779  24.692  1.00  0.00     0.026 A 
ATOM     80  C   UNL A   1      32.323  19.548  23.325  1.00  0.00     0.051 A 
ATOM     81  C   UNL A   1      32.851  18.693  25.504  1.00  0.00     0.051 A 
ATOM     82  C   UNL A   1      32.527  18.285  22.777  1.00  0.00     0.126 A 
ATOM     83  C   UNL A   1      33.016  17.426  24.941  1.00  0.00     0.126 A 
ATOM     84  F   UNL A   1      32.408  18.112  21.454  1.00  0.00    -0.207 F 
ATOM     85  C   UNL A   1      32.875  17.213  23.578  1.00  0.00     0.078 A 
ATOM     86  F   UNL A   1      33.335  16.394  25.733  1.00  0.00    -0.207 F 
ENDBRANCH  76  79
ENDBRANCH  72  74
ENDBRANCH  71  72
ENDBRANCH  70  71
ENDBRANCH   1  70
TORSDOF 15
ENDMDL
