MODEL 1
REMARK VINA RESULT:     -12.8      0.000      0.000
REMARK SMILES CC[NH2+][C@@]1(C(=O)OCCOC(=O)c2ccc(-c3c4nc(c(-c5cc(S(=O)(=O)[O-])ccc5F)c5ccc([nH]5)c(-c5cc(S(=O)(=O)[O-])ccc5F)c5nc(c(-c6cc(S(=O)(=O)[O-])ccc6F)c6ccc3[nH]6)C=C5)C=C4)cc2)CC[C@@H](n2cnc3ccccc32)C1
REMARK SMILES IDX 9 1 8 2 7 3 5 4 6 5 4 6 76 7 88 8 77 9 78 10 3 11 2 14 1 15
REMARK SMILES IDX 79 16 80 17 87 18 81 19 82 20 86 21 83 22 85 23 84 24 10 25
REMARK SMILES IDX 11 26 12 27 13 28 14 29 75 30 15 31 74 32 16 33 17 34 18 35
REMARK SMILES IDX 68 36 19 37 73 38 67 39 69 40 20 41 72 42 66 43 65 44 21 46
REMARK SMILES IDX 53 47 33 48 52 49 34 50 37 51 51 52 70 53 35 54 36 55 50 57
REMARK SMILES IDX 71 58 38 59 22 60 23 61 31 62 24 63 30 64 32 65 29 66 25 67
REMARK SMILES IDX 26 68 27 69 28 70 54 71 55 72 63 73 56 74 62 75 64 76 61 77
REMARK SMILES IDX 57 78 58 79 59 80 60 81 39 82 40 83 48 84 41 85 47 86 49 87
REMARK SMILES IDX 46 88 42 89 43 90 44 91 45 92
REMARK H PARENT 3 12 3 13 69 45 37 56
REMARK Flexibility Score: inf
ROOT
ATOM      1  C   UNL A   1      31.824  33.196  26.510  1.00  0.00     0.275 C 
ENDROOT
BRANCH   1   2
ATOM      2  C   UNL A   1      31.064  31.893  26.259  1.00  0.00     0.274 C 
BRANCH   2   3
ATOM      3  O   UNL A   1      31.778  30.868  26.978  1.00  0.00    -0.457 OA
BRANCH   3   4
ATOM      4  C   UNL A   1      32.756  30.127  26.370  1.00  0.00     0.368 C 
ATOM      5  O   UNL A   1      33.938  30.341  26.623  1.00  0.00    -0.245 OA
BRANCH   4   6
ATOM      6  C   UNL A   1      32.015  28.977  25.126  1.00  0.00     0.196 C 
ATOM      7  C   UNL A   1      31.696  27.740  26.367  1.00  0.00     0.083 C 
ATOM      8  C   UNL A   1      33.636  28.065  24.927  1.00  0.00     0.106 C 
ATOM      9  C   UNL A   1      32.458  26.424  26.036  1.00  0.00     0.033 C 
ATOM     10  C   UNL A   1      33.233  26.633  24.723  1.00  0.00     0.096 C 
BRANCH   6  11
ATOM     11  N   UNL A   1      30.769  29.554  23.558  1.00  0.00    -0.332 N 
ATOM     12  H   UNL A   1      31.355  30.251  23.099  1.00  0.00     0.347 HD
ATOM     13  H   UNL A   1      30.442  28.596  23.434  1.00  0.00     0.347 HD
BRANCH  11  14
ATOM     14  C   UNL A   1      29.328  30.127  23.238  1.00  0.00     0.257 C 
ATOM     15  C   UNL A   1      28.302  29.044  22.869  1.00  0.00     0.071 C 
ENDBRANCH  11  14
ENDBRANCH   6  11
BRANCH  10  16
ATOM     16  N   UNL A   1      32.438  26.645  23.495  1.00  0.00    -0.327 N 
ATOM     17  C   UNL A   1      33.039  26.977  22.280  1.00  0.00     0.200 A 
ATOM     18  C   UNL A   1      31.812  25.406  23.308  1.00  0.00     0.068 A 
ATOM     19  N   UNL A   1      33.686  25.966  21.715  1.00  0.00    -0.237 NA
ATOM     20  C   UNL A   1      33.201  24.858  22.363  1.00  0.00     0.088 A 
ATOM     21  C   UNL A   1      30.920  24.212  24.384  1.00  0.00     0.028 A 
ATOM     22  C   UNL A   1      33.821  23.174  22.529  1.00  0.00     0.030 A 
ATOM     23  C   UNL A   1      31.538  22.500  24.543  1.00  0.00     0.002 A 
ATOM     24  C   UNL A   1      33.046  22.013  23.648  1.00  0.00     0.002 A 
ENDBRANCH  10  16
ENDBRANCH   4   6
ENDBRANCH   3   4
ENDBRANCH   2   3
ENDBRANCH   1   2
BRANCH   1  25
ATOM     25  O   UNL A   1      32.018  33.397  27.932  1.00  0.00    -0.458 OA
BRANCH  25  26
ATOM     26  C   UNL A   1      32.988  34.289  28.276  1.00  0.00     0.338 C 
ATOM     27  O   UNL A   1      32.833  35.478  28.499  1.00  0.00    -0.246 OA
BRANCH  26  28
ATOM     28  C   UNL A   1      34.278  33.602  28.525  1.00  0.00     0.060 A 
ATOM     29  C   UNL A   1      34.177  32.363  29.116  1.00  0.00     0.016 A 
ATOM     30  C   UNL A   1      35.535  34.186  28.446  1.00  0.00     0.016 A 
ATOM     31  C   UNL A   1      35.258  31.720  29.708  1.00  0.00     0.010 A 
ATOM     32  C   UNL A   1      36.668  33.485  28.935  1.00  0.00     0.010 A 
ATOM     33  C   UNL A   1      36.541  32.242  29.592  1.00  0.00    -0.014 A 
BRANCH  33  34
ATOM     34  C   UNL A   1      37.665  31.491  30.246  1.00  0.00     0.031 A 
ATOM     35  C   UNL A   1      37.933  31.665  31.720  1.00  0.00     0.074 A 
ATOM     36  C   UNL A   1      38.354  30.539  29.572  1.00  0.00     0.049 A 
ATOM     37  N   UNL A   1      38.912  31.190  32.447  1.00  0.00    -0.248 NA
ATOM     38  C   UNL A   1      36.961  32.469  32.475  1.00  0.00     0.031 C 
ATOM     39  C   UNL A   1      38.116  30.150  28.179  1.00  0.00     0.029 A 
ATOM     40  N   UNL A   1      39.372  29.695  29.967  1.00  0.00    -0.354 N 
ATOM     41  C   UNL A   1      38.697  31.665  33.737  1.00  0.00     0.074 A 
ATOM     42  C   UNL A   1      37.498  32.476  33.687  1.00  0.00     0.031 C 
ATOM     43  C   UNL A   1      38.922  29.126  27.856  1.00  0.00     0.029 A 
ATOM     44  C   UNL A   1      39.820  28.852  28.970  1.00  0.00     0.049 A 
ATOM     45  H   UNL A   1      39.744  29.695  30.879  1.00  0.00     0.167 HD
ATOM     46  C   UNL A   1      39.433  31.447  34.856  1.00  0.00     0.034 A 
ATOM     47  C   UNL A   1      40.869  27.998  28.930  1.00  0.00     0.034 A 
ATOM     48  C   UNL A   1      40.616  30.622  34.901  1.00  0.00     0.049 A 
ATOM     49  C   UNL A   1      41.754  27.892  30.153  1.00  0.00     0.074 A 
ATOM     50  C   UNL A   1      41.471  30.395  35.967  1.00  0.00     0.029 A 
ATOM     51  N   UNL A   1      41.107  29.872  33.839  1.00  0.00    -0.354 N 
ATOM     52  N   UNL A   1      41.604  28.444  31.335  1.00  0.00    -0.248 NA
ATOM     53  C   UNL A   1      42.959  27.059  30.030  1.00  0.00     0.031 C 
ATOM     54  C   UNL A   1      42.516  29.576  35.530  1.00  0.00     0.029 A 
ATOM     55  C   UNL A   1      42.265  29.208  34.220  1.00  0.00     0.049 A 
ATOM     56  H   UNL A   1      40.694  29.820  32.948  1.00  0.00     0.167 HD
ATOM     57  C   UNL A   1      42.680  27.997  32.100  1.00  0.00     0.074 A 
ATOM     58  C   UNL A   1      43.442  27.098  31.261  1.00  0.00     0.031 C 
ATOM     59  C   UNL A   1      43.018  28.311  33.378  1.00  0.00     0.034 A 
BRANCH  46  60
ATOM     60  C   UNL A   1      39.024  32.178  36.111  1.00  0.00     0.023 A 
ATOM     61  C   UNL A   1      38.211  31.585  37.090  1.00  0.00     0.031 A 
ATOM     62  C   UNL A   1      39.450  33.503  36.321  1.00  0.00     0.131 A 
ATOM     63  C   UNL A   1      37.803  32.333  38.206  1.00  0.00     0.055 A 
ATOM     64  C   UNL A   1      39.109  34.214  37.473  1.00  0.00     0.041 A 
ATOM     65  F   UNL A   1      40.205  34.132  35.406  1.00  0.00    -0.206 F 
ATOM     66  C   UNL A   1      38.271  33.633  38.419  1.00  0.00     0.022 A 
BRANCH  63  67
ATOM     67  S   UNL A   1      36.544  31.632  39.307  1.00  0.00     0.124 S 
ATOM     68  O   UNL A   1      37.240  31.638  40.591  1.00  0.00    -0.237 OA
ATOM     69  O   UNL A   1      35.444  32.579  39.172  1.00  0.00    -0.237 OA
ATOM     70  O   UNL A   1      36.298  30.306  38.745  1.00  0.00    -0.744 OA
ENDBRANCH  63  67
ENDBRANCH  46  60
BRANCH  47  71
ATOM     71  C   UNL A   1      41.238  27.252  27.679  1.00  0.00     0.023 A 
ATOM     72  C   UNL A   1      41.061  25.860  27.576  1.00  0.00     0.031 A 
ATOM     73  C   UNL A   1      41.918  27.894  26.626  1.00  0.00     0.131 A 
ATOM     74  C   UNL A   1      41.633  25.153  26.502  1.00  0.00     0.055 A 
ATOM     75  C   UNL A   1      42.400  27.199  25.515  1.00  0.00     0.041 A 
ATOM     76  F   UNL A   1      42.150  29.216  26.668  1.00  0.00    -0.206 F 
ATOM     77  C   UNL A   1      42.282  25.816  25.461  1.00  0.00     0.022 A 
BRANCH  74  78
ATOM     78  S   UNL A   1      41.680  23.339  26.579  1.00  0.00     0.124 S 
ATOM     79  O   UNL A   1      42.459  23.015  25.390  1.00  0.00    -0.237 OA
ATOM     80  O   UNL A   1      42.337  23.106  27.861  1.00  0.00    -0.237 OA
ATOM     81  O   UNL A   1      40.269  22.959  26.526  1.00  0.00    -0.744 OA
ENDBRANCH  74  78
ENDBRANCH  47  71
BRANCH  59  82
ATOM     82  C   UNL A   1      44.236  27.623  33.955  1.00  0.00     0.023 A 
ATOM     83  C   UNL A   1      44.137  26.402  34.648  1.00  0.00     0.031 A 
ATOM     84  C   UNL A   1      45.504  28.221  33.856  1.00  0.00     0.131 A 
ATOM     85  C   UNL A   1      45.265  25.871  35.292  1.00  0.00     0.055 A 
ATOM     86  C   UNL A   1      46.639  27.642  34.424  1.00  0.00     0.041 A 
ATOM     87  F   UNL A   1      45.663  29.388  33.210  1.00  0.00    -0.206 F 
ATOM     88  C   UNL A   1      46.519  26.471  35.167  1.00  0.00     0.022 A 
BRANCH  85  89
ATOM     89  S   UNL A   1      45.036  24.470  36.423  1.00  0.00     0.124 S 
ATOM     90  O   UNL A   1      44.158  25.042  37.438  1.00  0.00    -0.237 OA
ATOM     91  O   UNL A   1      44.435  23.463  35.554  1.00  0.00    -0.237 OA
ATOM     92  O   UNL A   1      46.394  24.168  36.873  1.00  0.00    -0.744 OA
ENDBRANCH  85  89
ENDBRANCH  59  82
ENDBRANCH  33  34
ENDBRANCH  26  28
ENDBRANCH  25  26
ENDBRANCH   1  25
TORSDOF 17
ENDMDL
MODEL 2
REMARK VINA RESULT:     -12.6      1.459      1.723
REMARK SMILES CC[NH2+][C@@]1(C(=O)OCCOC(=O)c2ccc(-c3c4nc(c(-c5cc(S(=O)(=O)[O-])ccc5F)c5ccc([nH]5)c(-c5cc(S(=O)(=O)[O-])ccc5F)c5nc(c(-c6cc(S(=O)(=O)[O-])ccc6F)c6ccc3[nH]6)C=C5)C=C4)cc2)CC[C@@H](n2cnc3ccccc32)C1
REMARK SMILES IDX 9 1 8 2 7 3 5 4 6 5 4 6 76 7 88 8 77 9 78 10 3 11 2 14 1 15
REMARK SMILES IDX 79 16 80 17 87 18 81 19 82 20 86 21 83 22 85 23 84 24 10 25
REMARK SMILES IDX 11 26 12 27 13 28 14 29 75 30 15 31 74 32 16 33 17 34 18 35
REMARK SMILES IDX 68 36 19 37 73 38 67 39 69 40 20 41 72 42 66 43 65 44 21 46
REMARK SMILES IDX 53 47 33 48 52 49 34 50 37 51 51 52 70 53 35 54 36 55 50 57
REMARK SMILES IDX 71 58 38 59 22 60 23 61 31 62 24 63 30 64 32 65 29 66 25 67
REMARK SMILES IDX 26 68 27 69 28 70 54 71 55 72 63 73 56 74 62 75 64 76 61 77
REMARK SMILES IDX 57 78 58 79 59 80 60 81 39 82 40 83 48 84 41 85 47 86 49 87
REMARK SMILES IDX 46 88 42 89 43 90 44 91 45 92
REMARK H PARENT 3 12 3 13 69 45 37 56
REMARK Flexibility Score: inf
ROOT
ATOM      1  C   UNL A   1      31.781  33.284  26.498  1.00  0.00     0.275 C 
ENDROOT
BRANCH   1   2
ATOM      2  C   UNL A   1      31.052  31.970  26.210  1.00  0.00     0.274 C 
BRANCH   2   3
ATOM      3  O   UNL A   1      31.749  30.954  26.959  1.00  0.00    -0.457 OA
BRANCH   3   4
ATOM      4  C   UNL A   1      32.727  30.193  26.378  1.00  0.00     0.368 C 
ATOM      5  O   UNL A   1      33.906  30.378  26.666  1.00  0.00    -0.245 OA
BRANCH   4   6
ATOM      6  C   UNL A   1      31.997  29.064  25.107  1.00  0.00     0.196 C 
ATOM      7  C   UNL A   1      31.709  27.788  26.316  1.00  0.00     0.083 C 
ATOM      8  C   UNL A   1      33.632  28.187  24.872  1.00  0.00     0.106 C 
ATOM      9  C   UNL A   1      32.491  26.495  25.943  1.00  0.00     0.033 C 
ATOM     10  C   UNL A   1      33.253  26.754  24.630  1.00  0.00     0.096 C 
BRANCH   6  11
ATOM     11  N   UNL A   1      30.730  29.662  23.564  1.00  0.00    -0.332 N 
ATOM     12  H   UNL A   1      31.041  30.623  23.427  1.00  0.00     0.347 HD
ATOM     13  H   UNL A   1      30.793  28.744  23.125  1.00  0.00     0.347 HD
BRANCH  11  14
ATOM     14  C   UNL A   1      29.203  29.790  23.165  1.00  0.00     0.257 C 
ATOM     15  C   UNL A   1      28.596  31.166  23.482  1.00  0.00     0.071 C 
ENDBRANCH  11  14
ENDBRANCH   6  11
BRANCH  10  16
ATOM     16  N   UNL A   1      32.448  26.786  23.409  1.00  0.00    -0.327 N 
ATOM     17  C   UNL A   1      33.051  27.082  22.187  1.00  0.00     0.200 A 
ATOM     18  C   UNL A   1      31.772  25.571  23.239  1.00  0.00     0.068 A 
ATOM     19  N   UNL A   1      33.653  26.041  21.626  1.00  0.00    -0.237 NA
ATOM     20  C   UNL A   1      33.130  24.959  22.288  1.00  0.00     0.088 A 
ATOM     21  C   UNL A   1      30.843  24.423  24.334  1.00  0.00     0.028 A 
ATOM     22  C   UNL A   1      33.685  23.254  22.465  1.00  0.00     0.030 A 
ATOM     23  C   UNL A   1      31.394  22.690  24.504  1.00  0.00     0.002 A 
ATOM     24  C   UNL A   1      32.874  22.135  23.602  1.00  0.00     0.002 A 
ENDBRANCH  10  16
ENDBRANCH   4   6
ENDBRANCH   3   4
ENDBRANCH   2   3
ENDBRANCH   1   2
BRANCH   1  25
ATOM     25  O   UNL A   1      32.035  33.415  27.919  1.00  0.00    -0.458 OA
BRANCH  25  26
ATOM     26  C   UNL A   1      32.998  34.312  28.267  1.00  0.00     0.338 C 
ATOM     27  O   UNL A   1      32.838  35.501  28.487  1.00  0.00    -0.246 OA
BRANCH  26  28
ATOM     28  C   UNL A   1      34.290  33.631  28.525  1.00  0.00     0.060 A 
ATOM     29  C   UNL A   1      34.190  32.396  29.127  1.00  0.00     0.016 A 
ATOM     30  C   UNL A   1      35.546  34.217  28.444  1.00  0.00     0.016 A 
ATOM     31  C   UNL A   1      35.271  31.762  29.727  1.00  0.00     0.010 A 
ATOM     32  C   UNL A   1      36.679  33.523  28.943  1.00  0.00     0.010 A 
ATOM     33  C   UNL A   1      36.553  32.286  29.611  1.00  0.00    -0.014 A 
BRANCH  33  34
ATOM     34  C   UNL A   1      37.678  31.544  30.274  1.00  0.00     0.031 A 
ATOM     35  C   UNL A   1      37.994  31.793  31.727  1.00  0.00     0.074 A 
ATOM     36  C   UNL A   1      38.323  30.538  29.636  1.00  0.00     0.049 A 
ATOM     37  N   UNL A   1      38.983  31.335  32.452  1.00  0.00    -0.248 NA
ATOM     38  C   UNL A   1      37.065  32.664  32.462  1.00  0.00     0.031 C 
ATOM     39  C   UNL A   1      38.034  30.077  28.275  1.00  0.00     0.029 A 
ATOM     40  N   UNL A   1      39.331  29.691  30.049  1.00  0.00    -0.354 N 
ATOM     41  C   UNL A   1      38.818  31.888  33.718  1.00  0.00     0.074 A 
ATOM     42  C   UNL A   1      37.639  32.726  33.656  1.00  0.00     0.031 C 
ATOM     43  C   UNL A   1      38.804  29.015  27.988  1.00  0.00     0.029 A 
ATOM     44  C   UNL A   1      39.728  28.781  29.089  1.00  0.00     0.049 A 
ATOM     45  H   UNL A   1      39.730  29.732  30.948  1.00  0.00     0.167 HD
ATOM     46  C   UNL A   1      39.582  31.714  34.826  1.00  0.00     0.034 A 
ATOM     47  C   UNL A   1      40.754  27.899  29.069  1.00  0.00     0.034 A 
ATOM     48  C   UNL A   1      40.745  30.862  34.884  1.00  0.00     0.049 A 
ATOM     49  C   UNL A   1      41.672  27.839  30.270  1.00  0.00     0.074 A 
ATOM     50  C   UNL A   1      41.626  30.673  35.936  1.00  0.00     0.029 A 
ATOM     51  N   UNL A   1      41.185  30.040  33.854  1.00  0.00    -0.354 N 
ATOM     52  N   UNL A   1      41.572  28.460  31.423  1.00  0.00    -0.248 NA
ATOM     53  C   UNL A   1      42.852  26.969  30.161  1.00  0.00     0.031 C 
ATOM     54  C   UNL A   1      42.636  29.803  35.518  1.00  0.00     0.029 A 
ATOM     55  C   UNL A   1      42.337  29.369  34.238  1.00  0.00     0.049 A 
ATOM     56  H   UNL A   1      40.745  29.949  32.979  1.00  0.00     0.167 HD
ATOM     57  C   UNL A   1      42.658  28.029  32.181  1.00  0.00     0.074 A 
ATOM     58  C   UNL A   1      43.373  27.064  31.373  1.00  0.00     0.031 C 
ATOM     59  C   UNL A   1      43.043  28.406  33.428  1.00  0.00     0.034 A 
BRANCH  46  60
ATOM     60  C   UNL A   1      39.229  32.526  36.048  1.00  0.00     0.023 A 
ATOM     61  C   UNL A   1      39.757  33.807  36.273  1.00  0.00     0.031 A 
ATOM     62  C   UNL A   1      38.351  31.995  37.013  1.00  0.00     0.131 A 
ATOM     63  C   UNL A   1      39.449  34.491  37.460  1.00  0.00     0.055 A 
ATOM     64  C   UNL A   1      37.984  32.714  38.150  1.00  0.00     0.041 A 
ATOM     65  F   UNL A   1      37.837  30.764  36.865  1.00  0.00    -0.206 F 
ATOM     66  C   UNL A   1      38.543  33.966  38.386  1.00  0.00     0.022 A 
BRANCH  63  67
ATOM     67  S   UNL A   1      40.355  36.015  37.843  1.00  0.00     0.124 S 
ATOM     68  O   UNL A   1      39.279  36.886  38.312  1.00  0.00    -0.237 OA
ATOM     69  O   UNL A   1      41.306  35.572  38.854  1.00  0.00    -0.237 OA
ATOM     70  O   UNL A   1      40.940  36.396  36.559  1.00  0.00    -0.744 OA
ENDBRANCH  63  67
ENDBRANCH  46  60
BRANCH  47  71
ATOM     71  C   UNL A   1      41.067  27.074  27.852  1.00  0.00     0.023 A 
ATOM     72  C   UNL A   1      40.728  25.710  27.785  1.00  0.00     0.031 A 
ATOM     73  C   UNL A   1      41.848  27.597  26.803  1.00  0.00     0.131 A 
ATOM     74  C   UNL A   1      41.242  24.906  26.751  1.00  0.00     0.055 A 
ATOM     75  C   UNL A   1      42.275  26.814  25.729  1.00  0.00     0.041 A 
ATOM     76  F   UNL A   1      42.234  28.883  26.814  1.00  0.00    -0.206 F 
ATOM     77  C   UNL A   1      41.994  25.453  25.711  1.00  0.00     0.022 A 
BRANCH  74  78
ATOM     78  S   UNL A   1      41.072  23.102  26.882  1.00  0.00     0.124 S 
ATOM     79  O   UNL A   1      39.627  22.935  26.773  1.00  0.00    -0.237 OA
ATOM     80  O   UNL A   1      41.860  22.639  25.745  1.00  0.00    -0.237 OA
ATOM     81  O   UNL A   1      41.639  22.802  28.196  1.00  0.00    -0.744 OA
ENDBRANCH  74  78
ENDBRANCH  47  71
BRANCH  59  82
ATOM     82  C   UNL A   1      44.260  27.720  34.009  1.00  0.00     0.023 A 
ATOM     83  C   UNL A   1      44.152  26.544  34.774  1.00  0.00     0.031 A 
ATOM     84  C   UNL A   1      45.539  28.277  33.838  1.00  0.00     0.131 A 
ATOM     85  C   UNL A   1      45.285  26.021  35.415  1.00  0.00     0.055 A 
ATOM     86  C   UNL A   1      46.676  27.701  34.406  1.00  0.00     0.041 A 
ATOM     87  F   UNL A   1      45.707  29.401  33.120  1.00  0.00    -0.206 F 
ATOM     88  C   UNL A   1      46.550  26.578  35.218  1.00  0.00     0.022 A 
BRANCH  85  89
ATOM     89  S   UNL A   1      45.056  24.694  36.632  1.00  0.00     0.124 S 
ATOM     90  O   UNL A   1      46.010  25.067  37.670  1.00  0.00    -0.237 OA
ATOM     91  O   UNL A   1      43.646  24.834  36.982  1.00  0.00    -0.237 OA
ATOM     92  O   UNL A   1      45.390  23.483  35.885  1.00  0.00    -0.744 OA
ENDBRANCH  85  89
ENDBRANCH  59  82
ENDBRANCH  33  34
ENDBRANCH  26  28
ENDBRANCH  25  26
ENDBRANCH   1  25
TORSDOF 17
ENDMDL
MODEL 3
REMARK VINA RESULT:     -12.6      5.393     11.227
REMARK SMILES CC[NH2+][C@@]1(C(=O)OCCOC(=O)c2ccc(-c3c4nc(c(-c5cc(S(=O)(=O)[O-])ccc5F)c5ccc([nH]5)c(-c5cc(S(=O)(=O)[O-])ccc5F)c5nc(c(-c6cc(S(=O)(=O)[O-])ccc6F)c6ccc3[nH]6)C=C5)C=C4)cc2)CC[C@@H](n2cnc3ccccc32)C1
REMARK SMILES IDX 9 1 8 2 7 3 5 4 6 5 4 6 76 7 88 8 77 9 78 10 3 11 2 14 1 15
REMARK SMILES IDX 79 16 80 17 87 18 81 19 82 20 86 21 83 22 85 23 84 24 10 25
REMARK SMILES IDX 11 26 12 27 13 28 14 29 75 30 15 31 74 32 16 33 17 34 18 35
REMARK SMILES IDX 68 36 19 37 73 38 67 39 69 40 20 41 72 42 66 43 65 44 21 46
REMARK SMILES IDX 53 47 33 48 52 49 34 50 37 51 51 52 70 53 35 54 36 55 50 57
REMARK SMILES IDX 71 58 38 59 22 60 23 61 31 62 24 63 30 64 32 65 29 66 25 67
REMARK SMILES IDX 26 68 27 69 28 70 54 71 55 72 63 73 56 74 62 75 64 76 61 77
REMARK SMILES IDX 57 78 58 79 59 80 60 81 39 82 40 83 48 84 41 85 47 86 49 87
REMARK SMILES IDX 46 88 42 89 43 90 44 91 45 92
REMARK H PARENT 3 12 3 13 69 45 37 56
REMARK Flexibility Score: inf
ROOT
ATOM      1  C   UNL A   1      39.116  19.515  26.030  1.00  0.00     0.275 C 
ENDROOT
BRANCH   1   2
ATOM      2  C   UNL A   1      37.991  19.636  25.000  1.00  0.00     0.274 C 
BRANCH   2   3
ATOM      3  O   UNL A   1      37.960  21.021  24.602  1.00  0.00    -0.457 OA
BRANCH   3   4
ATOM      4  C   UNL A   1      37.345  21.967  25.378  1.00  0.00     0.368 C 
ATOM      5  O   UNL A   1      38.010  22.676  26.128  1.00  0.00    -0.245 OA
BRANCH   4   6
ATOM      6  C   UNL A   1      35.508  21.858  25.192  1.00  0.00     0.196 C 
ATOM      7  C   UNL A   1      35.519  22.984  23.811  1.00  0.00     0.083 C 
ATOM      8  C   UNL A   1      35.264  23.417  26.197  1.00  0.00     0.106 C 
ATOM      9  C   UNL A   1      34.672  24.249  24.130  1.00  0.00     0.033 C 
ATOM     10  C   UNL A   1      34.091  24.096  25.548  1.00  0.00     0.096 C 
BRANCH   6  11
ATOM     11  N   UNL A   1      34.386  20.115  25.401  1.00  0.00    -0.332 N 
ATOM     12  H   UNL A   1      35.123  19.411  25.370  1.00  0.00     0.347 HD
ATOM     13  H   UNL A   1      33.759  20.569  26.065  1.00  0.00     0.347 HD
BRANCH  11  14
ATOM     14  C   UNL A   1      33.184  19.306  24.763  1.00  0.00     0.257 C 
ATOM     15  C   UNL A   1      32.461  20.062  23.637  1.00  0.00     0.071 C 
ENDBRANCH  11  14
ENDBRANCH   6  11
BRANCH  10  16
ATOM     16  N   UNL A   1      32.987  23.149  25.698  1.00  0.00    -0.327 N 
ATOM     17  C   UNL A   1      32.472  22.875  26.965  1.00  0.00     0.200 A 
ATOM     18  C   UNL A   1      31.903  23.534  24.898  1.00  0.00     0.068 A 
ATOM     19  N   UNL A   1      31.601  23.781  27.390  1.00  0.00    -0.237 NA
ATOM     20  C   UNL A   1      31.247  24.461  26.252  1.00  0.00     0.088 A 
ATOM     21  C   UNL A   1      31.696  24.165  23.184  1.00  0.00     0.028 A 
ATOM     22  C   UNL A   1      30.480  26.069  25.982  1.00  0.00     0.030 A 
ATOM     23  C   UNL A   1      30.906  25.788  22.905  1.00  0.00     0.002 A 
ATOM     24  C   UNL A   1      30.357  26.766  24.339  1.00  0.00     0.002 A 
ENDBRANCH  10  16
ENDBRANCH   4   6
ENDBRANCH   3   4
ENDBRANCH   2   3
ENDBRANCH   1   2
BRANCH   1  25
ATOM     25  O   UNL A   1      40.363  19.182  25.373  1.00  0.00    -0.458 OA
BRANCH  25  26
ATOM     26  C   UNL A   1      41.488  19.347  26.122  1.00  0.00     0.338 C 
ATOM     27  O   UNL A   1      42.413  18.559  26.226  1.00  0.00    -0.246 OA
BRANCH  26  28
ATOM     28  C   UNL A   1      41.552  20.715  26.690  1.00  0.00     0.060 A 
ATOM     29  C   UNL A   1      41.390  21.735  25.779  1.00  0.00     0.016 A 
ATOM     30  C   UNL A   1      41.994  21.044  27.964  1.00  0.00     0.016 A 
ATOM     31  C   UNL A   1      41.730  23.054  26.056  1.00  0.00     0.010 A 
ATOM     32  C   UNL A   1      42.227  22.403  28.299  1.00  0.00     0.010 A 
ATOM     33  C   UNL A   1      42.114  23.431  27.338  1.00  0.00    -0.014 A 
BRANCH  33  34
ATOM     34  C   UNL A   1      42.457  24.874  27.572  1.00  0.00     0.031 A 
ATOM     35  C   UNL A   1      43.775  25.425  27.088  1.00  0.00     0.074 A 
ATOM     36  C   UNL A   1      41.542  25.737  28.076  1.00  0.00     0.049 A 
ATOM     37  N   UNL A   1      44.301  26.608  27.280  1.00  0.00    -0.248 NA
ATOM     38  C   UNL A   1      44.602  24.527  26.268  1.00  0.00     0.031 C 
ATOM     39  C   UNL A   1      40.171  25.388  28.458  1.00  0.00     0.029 A 
ATOM     40  N   UNL A   1      41.604  27.092  28.324  1.00  0.00    -0.354 N 
ATOM     41  C   UNL A   1      45.535  26.588  26.638  1.00  0.00     0.074 A 
ATOM     42  C   UNL A   1      45.682  25.267  26.060  1.00  0.00     0.031 C 
ATOM     43  C   UNL A   1      39.517  26.495  28.842  1.00  0.00     0.029 A 
ATOM     44  C   UNL A   1      40.442  27.621  28.852  1.00  0.00     0.049 A 
ATOM     45  H   UNL A   1      42.406  27.635  28.141  1.00  0.00     0.167 HD
ATOM     46  C   UNL A   1      46.459  27.577  26.542  1.00  0.00     0.034 A 
ATOM     47  C   UNL A   1      40.165  28.850  29.343  1.00  0.00     0.034 A 
ATOM     48  C   UNL A   1      46.295  28.896  27.104  1.00  0.00     0.049 A 
ATOM     49  C   UNL A   1      41.270  29.885  29.352  1.00  0.00     0.074 A 
ATOM     50  C   UNL A   1      47.201  29.944  27.123  1.00  0.00     0.029 A 
ATOM     51  N   UNL A   1      45.147  29.359  27.733  1.00  0.00    -0.354 N 
ATOM     52  N   UNL A   1      42.479  29.811  28.845  1.00  0.00    -0.248 NA
ATOM     53  C   UNL A   1      40.977  31.164  30.014  1.00  0.00     0.031 C 
ATOM     54  C   UNL A   1      46.632  31.008  27.829  1.00  0.00     0.029 A 
ATOM     55  C   UNL A   1      45.334  30.664  28.167  1.00  0.00     0.049 A 
ATOM     56  H   UNL A   1      44.322  28.838  27.855  1.00  0.00     0.167 HD
ATOM     57  C   UNL A   1      43.073  31.045  29.102  1.00  0.00     0.074 A 
ATOM     58  C   UNL A   1      42.077  31.856  29.767  1.00  0.00     0.031 C 
ATOM     59  C   UNL A   1      44.334  31.467  28.827  1.00  0.00     0.034 A 
BRANCH  46  60
ATOM     60  C   UNL A   1      47.767  27.244  25.868  1.00  0.00     0.023 A 
ATOM     61  C   UNL A   1      47.999  27.517  24.511  1.00  0.00     0.031 A 
ATOM     62  C   UNL A   1      48.798  26.628  26.604  1.00  0.00     0.131 A 
ATOM     63  C   UNL A   1      49.210  27.124  23.917  1.00  0.00     0.055 A 
ATOM     64  C   UNL A   1      50.029  26.315  26.028  1.00  0.00     0.041 A 
ATOM     65  F   UNL A   1      48.622  26.318  27.898  1.00  0.00    -0.206 F 
ATOM     66  C   UNL A   1      50.237  26.552  24.672  1.00  0.00     0.022 A 
BRANCH  63  67
ATOM     67  S   UNL A   1      49.371  27.245  22.115  1.00  0.00     0.124 S 
ATOM     68  O   UNL A   1      48.727  28.529  21.848  1.00  0.00    -0.237 OA
ATOM     69  O   UNL A   1      50.815  27.201  21.922  1.00  0.00    -0.237 OA
ATOM     70  O   UNL A   1      48.641  26.077  21.627  1.00  0.00    -0.744 OA
ENDBRANCH  63  67
ENDBRANCH  46  60
BRANCH  47  71
ATOM     71  C   UNL A   1      38.842  29.172  29.979  1.00  0.00     0.023 A 
ATOM     72  C   UNL A   1      37.854  29.897  29.288  1.00  0.00     0.031 A 
ATOM     73  C   UNL A   1      38.604  28.894  31.339  1.00  0.00     0.131 A 
ATOM     74  C   UNL A   1      36.732  30.393  29.976  1.00  0.00     0.055 A 
ATOM     75  C   UNL A   1      37.442  29.308  31.993  1.00  0.00     0.041 A 
ATOM     76  F   UNL A   1      39.515  28.231  32.070  1.00  0.00    -0.206 F 
ATOM     77  C   UNL A   1      36.509  30.085  31.318  1.00  0.00     0.022 A 
BRANCH  74  78
ATOM     78  S   UNL A   1      35.663  31.603  29.144  1.00  0.00     0.124 S 
ATOM     79  O   UNL A   1      34.975  30.765  28.169  1.00  0.00    -0.237 OA
ATOM     80  O   UNL A   1      34.852  32.103  30.249  1.00  0.00    -0.237 OA
ATOM     81  O   UNL A   1      36.610  32.565  28.583  1.00  0.00    -0.744 OA
ENDBRANCH  74  78
ENDBRANCH  47  71
BRANCH  59  82
ATOM     82  C   UNL A   1      44.676  32.895  29.195  1.00  0.00     0.023 A 
ATOM     83  C   UNL A   1      44.335  33.976  28.363  1.00  0.00     0.031 A 
ATOM     84  C   UNL A   1      45.397  33.173  30.371  1.00  0.00     0.131 A 
ATOM     85  C   UNL A   1      44.796  35.267  28.667  1.00  0.00     0.055 A 
ATOM     86  C   UNL A   1      45.776  34.471  30.713  1.00  0.00     0.041 A 
ATOM     87  F   UNL A   1      45.755  32.183  31.205  1.00  0.00    -0.206 F 
ATOM     88  C   UNL A   1      45.495  35.525  29.848  1.00  0.00     0.022 A 
BRANCH  85  89
ATOM     89  S   UNL A   1      44.601  36.572  27.422  1.00  0.00     0.124 S 
ATOM     90  O   UNL A   1      43.529  36.038  26.590  1.00  0.00    -0.237 OA
ATOM     91  O   UNL A   1      44.258  37.732  28.238  1.00  0.00    -0.237 OA
ATOM     92  O   UNL A   1      45.914  36.632  26.781  1.00  0.00    -0.744 OA
ENDBRANCH  85  89
ENDBRANCH  59  82
ENDBRANCH  33  34
ENDBRANCH  26  28
ENDBRANCH  25  26
ENDBRANCH   1  25
TORSDOF 17
ENDMDL
