MODEL 1
REMARK VINA RESULT:     -10.6      0.000      0.000
REMARK SMILES CCCCCCNC(=O)Oc1cccc(-c2ccc([C@@H](C)C(=O)OCCOC(=O)c3ccc(-c4c5nc(c(-c6cc(S(=O)(=O)[O-])ccc6F)c6ccc([nH]6)c(-c6cc(S(=O)(=O)[O-])ccc6F)c6nc(c(-c7cc(S(=O)(=O)[O-])ccc7F)c7ccc4[nH]7)C=C6)C=C5)cc3)cc2F)c1
REMARK SMILES IDX 20 1 21 2 19 3 16 4 17 5 94 6 18 7 93 8 95 9 15 10 11 11
REMARK SMILES IDX 12 12 96 13 13 14 14 15 10 16 8 17 7 18 9 20 6 21 5 22 4 23
REMARK SMILES IDX 3 24 2 25 1 26 22 27 23 28 24 29 25 30 26 31 27 32 28 33
REMARK SMILES IDX 29 34 30 35 31 36 92 37 32 38 91 39 33 40 34 41 35 42 85 43
REMARK SMILES IDX 36 44 90 45 84 46 86 47 37 48 89 49 83 50 82 51 38 53 70 54
REMARK SMILES IDX 50 55 69 56 51 57 54 58 68 59 87 60 52 61 53 62 67 64 88 65
REMARK SMILES IDX 55 66 39 67 40 68 48 69 41 70 47 71 49 72 46 73 42 74 43 75
REMARK SMILES IDX 44 76 45 77 71 78 72 79 80 80 73 81 79 82 81 83 78 84 74 85
REMARK SMILES IDX 75 86 76 87 77 88 56 89 57 90 65 91 58 92 64 93 66 94 63 95
REMARK SMILES IDX 59 96 60 97 61 98 62 99
REMARK H PARENT 7 19 86 52 54 63
REMARK Flexibility Score: inf
ROOT
ATOM      1  C   UNL A   1      31.934  27.113  23.391  1.00  0.00     0.126 C 
ATOM      2  C   UNL A   1      31.340  27.118  21.983  1.00  0.00     0.025 C 
ENDROOT
BRANCH   1   3
ATOM      3  C   UNL A   1      32.761  25.866  23.660  1.00  0.00    -0.031 A 
ATOM      4  C   UNL A   1      34.232  23.473  24.157  1.00  0.00     0.018 A 
ATOM      5  C   UNL A   1      34.307  24.572  25.028  1.00  0.00     0.012 A 
ATOM      6  C   UNL A   1      33.426  23.614  23.019  1.00  0.00     0.131 A 
ATOM      7  C   UNL A   1      33.578  25.744  24.791  1.00  0.00     0.005 A 
ATOM      8  C   UNL A   1      32.702  24.783  22.770  1.00  0.00     0.044 A 
ATOM      9  F   UNL A   1      33.293  22.597  22.154  1.00  0.00    -0.206 F 
BRANCH   4  10
ATOM     10  C   UNL A   1      34.937  22.215  24.468  1.00  0.00    -0.012 A 
ATOM     11  C   UNL A   1      36.953  20.955  24.957  1.00  0.00     0.133 A 
ATOM     12  C   UNL A   1      36.234  19.762  25.001  1.00  0.00     0.047 A 
ATOM     13  C   UNL A   1      36.325  22.172  24.684  1.00  0.00     0.056 A 
ATOM     14  C   UNL A   1      34.860  19.788  24.791  1.00  0.00     0.004 A 
ATOM     15  C   UNL A   1      34.222  21.002  24.527  1.00  0.00     0.009 A 
BRANCH  11  16
ATOM     16  O   UNL A   1      38.349  20.846  25.067  1.00  0.00    -0.410 OA
BRANCH  16  17
ATOM     17  C   UNL A   1      39.017  21.728  25.903  1.00  0.00     0.412 C 
ATOM     18  N   UNL A   1      40.195  21.219  26.382  1.00  0.00    -0.321 N 
ATOM     19  H   UNL A   1      40.733  21.814  26.953  1.00  0.00     0.167 HD
ATOM     20  O   UNL A   1      38.625  22.838  26.242  1.00  0.00    -0.224 OA
BRANCH  18  21
ATOM     21  C   UNL A   1      40.733  19.895  26.135  1.00  0.00     0.119 C 
BRANCH  21  22
ATOM     22  C   UNL A   1      41.853  19.526  27.106  1.00  0.00     0.021 C 
BRANCH  22  23
ATOM     23  C   UNL A   1      42.960  18.646  26.514  1.00  0.00     0.002 C 
BRANCH  23  24
ATOM     24  C   UNL A   1      43.627  19.179  25.240  1.00  0.00    -0.000 C 
BRANCH  24  25
ATOM     25  C   UNL A   1      45.099  18.800  25.055  1.00  0.00    -0.003 C 
ATOM     26  C   UNL A   1      46.027  20.002  24.978  1.00  0.00     0.004 C 
ENDBRANCH  24  25
ENDBRANCH  23  24
ENDBRANCH  22  23
ENDBRANCH  21  22
ENDBRANCH  18  21
ENDBRANCH  16  17
ENDBRANCH  11  16
ENDBRANCH   4  10
ENDBRANCH   1   3
BRANCH   1  27
ATOM     27  C   UNL A   1      30.846  27.438  24.407  1.00  0.00     0.313 C 
ATOM     28  O   UNL A   1      29.681  27.081  24.250  1.00  0.00    -0.252 OA
BRANCH  27  29
ATOM     29  O   UNL A   1      31.294  28.104  25.502  1.00  0.00    -0.462 OA
BRANCH  29  30
ATOM     30  C   UNL A   1      31.629  29.493  25.327  1.00  0.00     0.274 C 
BRANCH  30  31
ATOM     31  C   UNL A   1      33.116  29.736  25.597  1.00  0.00     0.275 C 
BRANCH  31  32
ATOM     32  O   UNL A   1      33.365  29.963  26.996  1.00  0.00    -0.458 OA
BRANCH  32  33
ATOM     33  C   UNL A   1      33.880  31.179  27.296  1.00  0.00     0.338 C 
ATOM     34  O   UNL A   1      33.434  32.268  26.986  1.00  0.00    -0.246 OA
BRANCH  33  35
ATOM     35  C   UNL A   1      35.051  31.005  28.164  1.00  0.00     0.060 A 
ATOM     36  C   UNL A   1      36.039  31.993  28.170  1.00  0.00     0.016 A 
ATOM     37  C   UNL A   1      35.206  29.836  28.907  1.00  0.00     0.016 A 
ATOM     38  C   UNL A   1      37.199  31.815  28.921  1.00  0.00     0.010 A 
ATOM     39  C   UNL A   1      36.364  29.663  29.666  1.00  0.00     0.010 A 
ATOM     40  C   UNL A   1      37.372  30.645  29.671  1.00  0.00    -0.014 A 
BRANCH  40  41
ATOM     41  C   UNL A   1      38.622  30.400  30.427  1.00  0.00     0.031 A 
ATOM     42  C   UNL A   1      39.607  29.396  29.905  1.00  0.00     0.074 A 
ATOM     43  C   UNL A   1      38.849  31.043  31.588  1.00  0.00     0.049 A 
ATOM     44  N   UNL A   1      40.629  28.846  30.506  1.00  0.00    -0.248 NA
ATOM     45  C   UNL A   1      39.404  28.947  28.519  1.00  0.00     0.031 C 
ATOM     46  C   UNL A   1      37.999  32.093  32.152  1.00  0.00     0.029 A 
ATOM     47  N   UNL A   1      39.847  30.886  32.516  1.00  0.00    -0.354 N 
ATOM     48  C   UNL A   1      41.184  27.970  29.580  1.00  0.00     0.074 A 
ATOM     49  C   UNL A   1      40.370  28.050  28.384  1.00  0.00     0.031 C 
ATOM     50  C   UNL A   1      38.496  32.463  33.343  1.00  0.00     0.029 A 
ATOM     51  C   UNL A   1      39.654  31.632  33.656  1.00  0.00     0.049 A 
ATOM     52  H   UNL A   1      40.624  30.297  32.380  1.00  0.00     0.167 HD
ATOM     53  C   UNL A   1      42.270  27.172  29.723  1.00  0.00     0.034 A 
ATOM     54  C   UNL A   1      40.300  31.601  34.840  1.00  0.00     0.034 A 
ATOM     55  C   UNL A   1      43.055  27.103  30.933  1.00  0.00     0.049 A 
ATOM     56  C   UNL A   1      41.446  30.633  35.015  1.00  0.00     0.074 A 
ATOM     57  C   UNL A   1      44.147  26.301  31.212  1.00  0.00     0.029 A 
ATOM     58  N   UNL A   1      42.825  27.869  32.069  1.00  0.00    -0.354 N 
ATOM     59  N   UNL A   1      41.926  29.761  34.158  1.00  0.00    -0.248 NA
ATOM     60  C   UNL A   1      42.133  30.638  36.314  1.00  0.00     0.031 C 
ATOM     61  C   UNL A   1      44.547  26.547  32.530  1.00  0.00     0.029 A 
ATOM     62  C   UNL A   1      43.748  27.552  33.051  1.00  0.00     0.049 A 
ATOM     63  H   UNL A   1      42.110  28.541  32.162  1.00  0.00     0.167 HD
ATOM     64  C   UNL A   1      42.996  29.144  34.803  1.00  0.00     0.074 A 
ATOM     65  C   UNL A   1      43.089  29.742  36.118  1.00  0.00     0.031 C 
ATOM     66  C   UNL A   1      43.830  28.175  34.349  1.00  0.00     0.034 A 
BRANCH  53  67
ATOM     67  C   UNL A   1      42.631  26.277  28.566  1.00  0.00     0.023 A 
ATOM     68  C   UNL A   1      43.776  26.504  27.783  1.00  0.00     0.031 A 
ATOM     69  C   UNL A   1      41.805  25.190  28.226  1.00  0.00     0.131 A 
ATOM     70  C   UNL A   1      44.032  25.693  26.666  1.00  0.00     0.055 A 
ATOM     71  C   UNL A   1      42.104  24.343  27.157  1.00  0.00     0.041 A 
ATOM     72  F   UNL A   1      40.686  24.938  28.925  1.00  0.00    -0.206 F 
ATOM     73  C   UNL A   1      43.217  24.599  26.363  1.00  0.00     0.022 A 
BRANCH  70  74
ATOM     74  S   UNL A   1      45.381  26.156  25.547  1.00  0.00     0.124 S 
ATOM     75  O   UNL A   1      44.868  27.392  24.961  1.00  0.00    -0.237 OA
ATOM     76  O   UNL A   1      46.513  26.300  26.456  1.00  0.00    -0.237 OA
ATOM     77  O   UNL A   1      45.464  25.025  24.624  1.00  0.00    -0.744 OA
ENDBRANCH  70  74
ENDBRANCH  53  67
BRANCH  54  78
ATOM     78  C   UNL A   1      39.841  32.450  35.977  1.00  0.00     0.023 A 
ATOM     79  C   UNL A   1      38.939  31.958  36.933  1.00  0.00     0.031 A 
ATOM     80  C   UNL A   1      40.251  33.791  36.089  1.00  0.00     0.131 A 
ATOM     81  C   UNL A   1      38.436  32.814  37.926  1.00  0.00     0.055 A 
ATOM     82  C   UNL A   1      39.795  34.622  37.113  1.00  0.00     0.041 A 
ATOM     83  F   UNL A   1      41.110  34.316  35.199  1.00  0.00    -0.206 F 
ATOM     84  C   UNL A   1      38.868  34.139  38.031  1.00  0.00     0.022 A 
BRANCH  81  85
ATOM     85  S   UNL A   1      37.118  32.202  39.012  1.00  0.00     0.124 S 
ATOM     86  O   UNL A   1      37.473  32.818  40.286  1.00  0.00    -0.237 OA
ATOM     87  O   UNL A   1      35.922  32.723  38.358  1.00  0.00    -0.237 OA
ATOM     88  O   UNL A   1      37.277  30.751  38.955  1.00  0.00    -0.744 OA
ENDBRANCH  81  85
ENDBRANCH  54  78
BRANCH  66  89
ATOM     89  C   UNL A   1      44.964  27.766  35.252  1.00  0.00     0.023 A 
ATOM     90  C   UNL A   1      44.893  26.623  36.065  1.00  0.00     0.031 A 
ATOM     91  C   UNL A   1      46.143  28.531  35.276  1.00  0.00     0.131 A 
ATOM     92  C   UNL A   1      45.975  26.295  36.897  1.00  0.00     0.055 A 
ATOM     93  C   UNL A   1      47.232  28.175  36.071  1.00  0.00     0.041 A 
ATOM     94  F   UNL A   1      46.259  29.631  34.514  1.00  0.00    -0.206 F 
ATOM     95  C   UNL A   1      47.149  27.055  36.893  1.00  0.00     0.022 A 
BRANCH  92  96
ATOM     96  S   UNL A   1      45.817  24.880  38.021  1.00  0.00     0.124 S 
ATOM     97  O   UNL A   1      47.210  24.501  38.232  1.00  0.00    -0.237 OA
ATOM     98  O   UNL A   1      45.133  25.465  39.169  1.00  0.00    -0.237 OA
ATOM     99  O   UNL A   1      45.022  23.921  37.254  1.00  0.00    -0.744 OA
ENDBRANCH  92  96
ENDBRANCH  66  89
ENDBRANCH  40  41
ENDBRANCH  33  35
ENDBRANCH  32  33
ENDBRANCH  31  32
ENDBRANCH  30  31
ENDBRANCH  29  30
ENDBRANCH  27  29
ENDBRANCH   1  27
TORSDOF 23
ENDMDL
MODEL 2
REMARK VINA RESULT:     -10.5      3.351      8.278
REMARK SMILES CCCCCCNC(=O)Oc1cccc(-c2ccc([C@@H](C)C(=O)OCCOC(=O)c3ccc(-c4c5nc(c(-c6cc(S(=O)(=O)[O-])ccc6F)c6ccc([nH]6)c(-c6cc(S(=O)(=O)[O-])ccc6F)c6nc(c(-c7cc(S(=O)(=O)[O-])ccc7F)c7ccc4[nH]7)C=C6)C=C5)cc3)cc2F)c1
REMARK SMILES IDX 20 1 21 2 19 3 16 4 17 5 94 6 18 7 93 8 95 9 15 10 11 11
REMARK SMILES IDX 12 12 96 13 13 14 14 15 10 16 8 17 7 18 9 20 6 21 5 22 4 23
REMARK SMILES IDX 3 24 2 25 1 26 22 27 23 28 24 29 25 30 26 31 27 32 28 33
REMARK SMILES IDX 29 34 30 35 31 36 92 37 32 38 91 39 33 40 34 41 35 42 85 43
REMARK SMILES IDX 36 44 90 45 84 46 86 47 37 48 89 49 83 50 82 51 38 53 70 54
REMARK SMILES IDX 50 55 69 56 51 57 54 58 68 59 87 60 52 61 53 62 67 64 88 65
REMARK SMILES IDX 55 66 39 67 40 68 48 69 41 70 47 71 49 72 46 73 42 74 43 75
REMARK SMILES IDX 44 76 45 77 71 78 72 79 80 80 73 81 79 82 81 83 78 84 74 85
REMARK SMILES IDX 75 86 76 87 77 88 56 89 57 90 65 91 58 92 64 93 66 94 63 95
REMARK SMILES IDX 59 96 60 97 61 98 62 99
REMARK H PARENT 7 19 86 52 54 63
REMARK Flexibility Score: inf
ROOT
ATOM      1  C   UNL A   1      31.512  29.666  24.362  1.00  0.00     0.126 C 
ATOM      2  C   UNL A   1      30.144  30.182  23.921  1.00  0.00     0.025 C 
ENDROOT
BRANCH   1   3
ATOM      3  C   UNL A   1      31.622  28.154  24.235  1.00  0.00    -0.031 A 
ATOM      4  C   UNL A   1      31.905  25.331  23.940  1.00  0.00     0.018 A 
ATOM      5  C   UNL A   1      30.679  25.973  23.696  1.00  0.00     0.012 A 
ATOM      6  C   UNL A   1      32.972  26.134  24.362  1.00  0.00     0.131 A 
ATOM      7  C   UNL A   1      30.541  27.361  23.832  1.00  0.00     0.005 A 
ATOM      8  C   UNL A   1      32.841  27.517  24.508  1.00  0.00     0.044 A 
ATOM      9  F   UNL A   1      34.177  25.589  24.594  1.00  0.00    -0.206 F 
BRANCH   4  10
ATOM     10  C   UNL A   1      32.055  23.883  23.708  1.00  0.00    -0.012 A 
ATOM     11  C   UNL A   1      31.926  21.572  24.439  1.00  0.00     0.133 A 
ATOM     12  C   UNL A   1      32.423  21.124  23.216  1.00  0.00     0.047 A 
ATOM     13  C   UNL A   1      31.750  22.933  24.697  1.00  0.00     0.056 A 
ATOM     14  C   UNL A   1      32.729  22.051  22.227  1.00  0.00     0.004 A 
ATOM     15  C   UNL A   1      32.546  23.414  22.472  1.00  0.00     0.009 A 
BRANCH  11  16
ATOM     16  O   UNL A   1      31.743  20.596  25.432  1.00  0.00    -0.410 OA
BRANCH  16  17
ATOM     17  C   UNL A   1      32.811  19.774  25.758  1.00  0.00     0.412 C 
ATOM     18  N   UNL A   1      33.596  20.290  26.755  1.00  0.00    -0.321 N 
ATOM     19  H   UNL A   1      34.351  19.733  27.054  1.00  0.00     0.167 HD
ATOM     20  O   UNL A   1      33.093  18.711  25.219  1.00  0.00    -0.224 OA
BRANCH  18  21
ATOM     21  C   UNL A   1      33.431  21.569  27.415  1.00  0.00     0.119 C 
BRANCH  21  22
ATOM     22  C   UNL A   1      34.522  22.571  27.037  1.00  0.00     0.021 C 
BRANCH  22  23
ATOM     23  C   UNL A   1      35.472  22.105  25.928  1.00  0.00     0.002 C 
BRANCH  23  24
ATOM     24  C   UNL A   1      36.023  23.208  25.016  1.00  0.00    -0.000 C 
BRANCH  24  25
ATOM     25  C   UNL A   1      37.549  23.332  24.974  1.00  0.00    -0.003 C 
ATOM     26  C   UNL A   1      38.143  23.921  26.243  1.00  0.00     0.004 C 
ENDBRANCH  24  25
ENDBRANCH  23  24
ENDBRANCH  22  23
ENDBRANCH  21  22
ENDBRANCH  18  21
ENDBRANCH  16  17
ENDBRANCH  11  16
ENDBRANCH   4  10
ENDBRANCH   1   3
BRANCH   1  27
ATOM     27  C   UNL A   1      31.872  30.261  25.718  1.00  0.00     0.313 C 
ATOM     28  O   UNL A   1      31.017  30.694  26.486  1.00  0.00    -0.252 OA
BRANCH  27  29
ATOM     29  O   UNL A   1      33.199  30.219  26.004  1.00  0.00    -0.462 OA
BRANCH  29  30
ATOM     30  C   UNL A   1      33.571  30.371  27.386  1.00  0.00     0.274 C 
BRANCH  30  31
ATOM     31  C   UNL A   1      33.789  31.845  27.736  1.00  0.00     0.275 C 
BRANCH  31  32
ATOM     32  O   UNL A   1      35.145  32.092  28.146  1.00  0.00    -0.458 OA
BRANCH  32  33
ATOM     33  C   UNL A   1      35.375  31.957  29.474  1.00  0.00     0.338 C 
ATOM     34  O   UNL A   1      34.661  32.322  30.389  1.00  0.00    -0.246 OA
BRANCH  33  35
ATOM     35  C   UNL A   1      36.613  31.194  29.672  1.00  0.00     0.060 A 
ATOM     36  C   UNL A   1      36.605  30.114  30.559  1.00  0.00     0.016 A 
ATOM     37  C   UNL A   1      37.792  31.592  29.044  1.00  0.00     0.016 A 
ATOM     38  C   UNL A   1      37.786  29.425  30.830  1.00  0.00     0.010 A 
ATOM     39  C   UNL A   1      38.972  30.895  29.308  1.00  0.00     0.010 A 
ATOM     40  C   UNL A   1      38.978  29.814  30.209  1.00  0.00    -0.014 A 
BRANCH  40  41
ATOM     41  C   UNL A   1      40.260  29.140  30.526  1.00  0.00     0.031 A 
ATOM     42  C   UNL A   1      41.164  29.741  31.562  1.00  0.00     0.074 A 
ATOM     43  C   UNL A   1      40.622  28.027  29.862  1.00  0.00     0.049 A 
ATOM     44  N   UNL A   1      42.416  29.474  31.824  1.00  0.00    -0.248 NA
ATOM     45  C   UNL A   1      40.576  30.790  32.409  1.00  0.00     0.031 C 
ATOM     46  C   UNL A   1      39.790  27.315  28.891  1.00  0.00     0.029 A 
ATOM     47  N   UNL A   1      41.796  27.317  29.881  1.00  0.00    -0.354 N 
ATOM     48  C   UNL A   1      42.776  30.334  32.856  1.00  0.00     0.074 A 
ATOM     49  C   UNL A   1      41.612  31.143  33.155  1.00  0.00     0.031 C 
ATOM     50  C   UNL A   1      40.492  26.287  28.386  1.00  0.00     0.029 A 
ATOM     51  C   UNL A   1      41.840  26.310  28.944  1.00  0.00     0.049 A 
ATOM     52  H   UNL A   1      42.533  27.509  30.506  1.00  0.00     0.167 HD
ATOM     53  C   UNL A   1      43.971  30.436  33.488  1.00  0.00     0.034 A 
ATOM     54  C   UNL A   1      42.871  25.539  28.540  1.00  0.00     0.034 A 
ATOM     55  C   UNL A   1      45.119  29.625  33.159  1.00  0.00     0.049 A 
ATOM     56  C   UNL A   1      44.222  25.737  29.185  1.00  0.00     0.074 A 
ATOM     57  C   UNL A   1      46.392  29.668  33.697  1.00  0.00     0.029 A 
ATOM     58  N   UNL A   1      45.127  28.620  32.199  1.00  0.00    -0.354 N 
ATOM     59  N   UNL A   1      44.573  26.596  30.115  1.00  0.00    -0.248 NA
ATOM     60  C   UNL A   1      45.315  24.869  28.727  1.00  0.00     0.031 C 
ATOM     61  C   UNL A   1      47.183  28.725  33.031  1.00  0.00     0.029 A 
ATOM     62  C   UNL A   1      46.385  28.045  32.124  1.00  0.00     0.049 A 
ATOM     63  H   UNL A   1      44.352  28.355  31.652  1.00  0.00     0.167 HD
ATOM     64  C   UNL A   1      45.917  26.341  30.378  1.00  0.00     0.074 A 
ATOM     65  C   UNL A   1      46.312  25.253  29.510  1.00  0.00     0.031 C 
ATOM     66  C   UNL A   1      46.749  26.949  31.261  1.00  0.00     0.034 A 
BRANCH  53  67
ATOM     67  C   UNL A   1      44.105  31.497  34.550  1.00  0.00     0.023 A 
ATOM     68  C   UNL A   1      43.831  31.228  35.903  1.00  0.00     0.031 A 
ATOM     69  C   UNL A   1      44.494  32.803  34.203  1.00  0.00     0.131 A 
ATOM     70  C   UNL A   1      43.892  32.263  36.848  1.00  0.00     0.055 A 
ATOM     71  C   UNL A   1      44.623  33.812  35.160  1.00  0.00     0.041 A 
ATOM     72  F   UNL A   1      44.747  33.123  32.924  1.00  0.00    -0.206 F 
ATOM     73  C   UNL A   1      44.310  33.547  36.490  1.00  0.00     0.022 A 
BRANCH  70  74
ATOM     74  S   UNL A   1      43.307  31.938  38.533  1.00  0.00     0.124 S 
ATOM     75  O   UNL A   1      44.158  30.819  38.930  1.00  0.00    -0.237 OA
ATOM     76  O   UNL A   1      43.561  33.206  39.208  1.00  0.00    -0.237 OA
ATOM     77  O   UNL A   1      41.896  31.603  38.348  1.00  0.00    -0.744 OA
ENDBRANCH  70  74
ENDBRANCH  53  67
BRANCH  54  78
ATOM     78  C   UNL A   1      42.697  24.567  27.422  1.00  0.00     0.023 A 
ATOM     79  C   UNL A   1      42.008  23.359  27.609  1.00  0.00     0.031 A 
ATOM     80  C   UNL A   1      43.275  24.806  26.161  1.00  0.00     0.131 A 
ATOM     81  C   UNL A   1      41.959  22.413  26.572  1.00  0.00     0.055 A 
ATOM     82  C   UNL A   1      43.172  23.889  25.114  1.00  0.00     0.041 A 
ATOM     83  F   UNL A   1      43.950  25.944  25.926  1.00  0.00    -0.206 F 
ATOM     84  C   UNL A   1      42.524  22.676  25.322  1.00  0.00     0.022 A 
BRANCH  81  85
ATOM     85  S   UNL A   1      41.243  20.783  26.919  1.00  0.00     0.124 S 
ATOM     86  O   UNL A   1      40.763  20.954  28.286  1.00  0.00    -0.237 OA
ATOM     87  O   UNL A   1      40.218  20.679  25.886  1.00  0.00    -0.237 OA
ATOM     88  O   UNL A   1      42.377  19.874  26.765  1.00  0.00    -0.744 OA
ENDBRANCH  81  85
ENDBRANCH  54  78
BRANCH  66  89
ATOM     89  C   UNL A   1      48.142  26.390  31.388  1.00  0.00     0.023 A 
ATOM     90  C   UNL A   1      48.455  25.370  32.302  1.00  0.00     0.031 A 
ATOM     91  C   UNL A   1      49.165  26.881  30.558  1.00  0.00     0.131 A 
ATOM     92  C   UNL A   1      49.773  24.895  32.387  1.00  0.00     0.055 A 
ATOM     93  C   UNL A   1      50.463  26.373  30.616  1.00  0.00     0.041 A 
ATOM     94  F   UNL A   1      48.914  27.854  29.668  1.00  0.00    -0.206 F 
ATOM     95  C   UNL A   1      50.775  25.379  31.540  1.00  0.00     0.022 A 
BRANCH  92  96
ATOM     96  S   UNL A   1      50.177  23.659  33.651  1.00  0.00     0.124 S 
ATOM     97  O   UNL A   1      48.875  23.412  34.263  1.00  0.00    -0.237 OA
ATOM     98  O   UNL A   1      50.726  22.564  32.858  1.00  0.00    -0.237 OA
ATOM     99  O   UNL A   1      51.144  24.346  34.506  1.00  0.00    -0.744 OA
ENDBRANCH  92  96
ENDBRANCH  66  89
ENDBRANCH  40  41
ENDBRANCH  33  35
ENDBRANCH  32  33
ENDBRANCH  31  32
ENDBRANCH  30  31
ENDBRANCH  29  30
ENDBRANCH  27  29
ENDBRANCH   1  27
TORSDOF 23
ENDMDL
MODEL 3
REMARK VINA RESULT:     -10.5      3.820      5.938
REMARK SMILES CCCCCCNC(=O)Oc1cccc(-c2ccc([C@@H](C)C(=O)OCCOC(=O)c3ccc(-c4c5nc(c(-c6cc(S(=O)(=O)[O-])ccc6F)c6ccc([nH]6)c(-c6cc(S(=O)(=O)[O-])ccc6F)c6nc(c(-c7cc(S(=O)(=O)[O-])ccc7F)c7ccc4[nH]7)C=C6)C=C5)cc3)cc2F)c1
REMARK SMILES IDX 20 1 21 2 19 3 16 4 17 5 94 6 18 7 93 8 95 9 15 10 11 11
REMARK SMILES IDX 12 12 96 13 13 14 14 15 10 16 8 17 7 18 9 20 6 21 5 22 4 23
REMARK SMILES IDX 3 24 2 25 1 26 22 27 23 28 24 29 25 30 26 31 27 32 28 33
REMARK SMILES IDX 29 34 30 35 31 36 92 37 32 38 91 39 33 40 34 41 35 42 85 43
REMARK SMILES IDX 36 44 90 45 84 46 86 47 37 48 89 49 83 50 82 51 38 53 70 54
REMARK SMILES IDX 50 55 69 56 51 57 54 58 68 59 87 60 52 61 53 62 67 64 88 65
REMARK SMILES IDX 55 66 39 67 40 68 48 69 41 70 47 71 49 72 46 73 42 74 43 75
REMARK SMILES IDX 44 76 45 77 71 78 72 79 80 80 73 81 79 82 81 83 78 84 74 85
REMARK SMILES IDX 75 86 76 87 77 88 56 89 57 90 65 91 58 92 64 93 66 94 63 95
REMARK SMILES IDX 59 96 60 97 61 98 62 99
REMARK H PARENT 7 19 86 52 54 63
REMARK Flexibility Score: inf
ROOT
ATOM      1  C   UNL A   1      35.470  33.014  28.792  1.00  0.00     0.126 C 
ATOM      2  C   UNL A   1      36.995  33.084  28.753  1.00  0.00     0.025 C 
ENDROOT
BRANCH   1   3
ATOM      3  C   UNL A   1      34.940  31.721  28.192  1.00  0.00    -0.031 A 
ATOM      4  C   UNL A   1      33.868  29.302  27.125  1.00  0.00     0.018 A 
ATOM      5  C   UNL A   1      35.176  29.361  27.635  1.00  0.00     0.012 A 
ATOM      6  C   UNL A   1      33.126  30.490  27.136  1.00  0.00     0.131 A 
ATOM      7  C   UNL A   1      35.701  30.545  28.168  1.00  0.00     0.005 A 
ATOM      8  C   UNL A   1      33.644  31.678  27.658  1.00  0.00     0.044 A 
ATOM      9  F   UNL A   1      31.863  30.502  26.681  1.00  0.00    -0.206 F 
BRANCH   4  10
ATOM     10  C   UNL A   1      33.302  28.027  26.648  1.00  0.00    -0.012 A 
ATOM     11  C   UNL A   1      33.466  25.932  25.433  1.00  0.00     0.133 A 
ATOM     12  C   UNL A   1      32.137  25.627  25.717  1.00  0.00     0.047 A 
ATOM     13  C   UNL A   1      34.050  27.120  25.878  1.00  0.00     0.056 A 
ATOM     14  C   UNL A   1      31.384  26.512  26.478  1.00  0.00     0.004 A 
ATOM     15  C   UNL A   1      31.962  27.698  26.937  1.00  0.00     0.009 A 
BRANCH  11  16
ATOM     16  O   UNL A   1      34.137  25.052  24.568  1.00  0.00    -0.410 OA
BRANCH  16  17
ATOM     17  C   UNL A   1      33.401  24.384  23.602  1.00  0.00     0.412 C 
ATOM     18  N   UNL A   1      33.369  23.029  23.798  1.00  0.00    -0.321 N 
ATOM     19  H   UNL A   1      32.831  22.504  23.162  1.00  0.00     0.167 HD
ATOM     20  O   UNL A   1      32.851  24.895  22.633  1.00  0.00    -0.224 OA
BRANCH  18  21
ATOM     21  C   UNL A   1      34.045  22.287  24.844  1.00  0.00     0.119 C 
BRANCH  21  22
ATOM     22  C   UNL A   1      33.287  21.024  25.252  1.00  0.00     0.021 C 
BRANCH  22  23
ATOM     23  C   UNL A   1      33.639  19.768  24.445  1.00  0.00     0.002 C 
BRANCH  23  24
ATOM     24  C   UNL A   1      32.588  18.651  24.457  1.00  0.00    -0.000 C 
BRANCH  24  25
ATOM     25  C   UNL A   1      32.572  17.771  25.710  1.00  0.00    -0.003 C 
ATOM     26  C   UNL A   1      32.681  16.285  25.406  1.00  0.00     0.004 C 
ENDBRANCH  24  25
ENDBRANCH  23  24
ENDBRANCH  22  23
ENDBRANCH  21  22
ENDBRANCH  18  21
ENDBRANCH  16  17
ENDBRANCH  11  16
ENDBRANCH   4  10
ENDBRANCH   1   3
BRANCH   1  27
ATOM     27  C   UNL A   1      34.884  34.308  28.239  1.00  0.00     0.313 C 
ATOM     28  O   UNL A   1      34.844  34.542  27.034  1.00  0.00    -0.252 OA
BRANCH  27  29
ATOM     29  O   UNL A   1      34.378  35.134  29.191  1.00  0.00    -0.462 OA
BRANCH  29  30
ATOM     30  C   UNL A   1      32.945  35.253  29.253  1.00  0.00     0.274 C 
BRANCH  30  31
ATOM     31  C   UNL A   1      32.526  36.299  30.289  1.00  0.00     0.275 C 
BRANCH  31  32
ATOM     32  O   UNL A   1      33.405  36.291  31.428  1.00  0.00    -0.458 OA
BRANCH  32  33
ATOM     33  C   UNL A   1      33.187  35.291  32.314  1.00  0.00     0.338 C 
ATOM     34  O   UNL A   1      32.115  34.830  32.659  1.00  0.00    -0.246 OA
BRANCH  33  35
ATOM     35  C   UNL A   1      34.478  34.748  32.755  1.00  0.00     0.060 A 
ATOM     36  C   UNL A   1      35.653  35.280  32.217  1.00  0.00     0.016 A 
ATOM     37  C   UNL A   1      34.520  33.669  33.636  1.00  0.00     0.016 A 
ATOM     38  C   UNL A   1      36.887  34.728  32.556  1.00  0.00     0.010 A 
ATOM     39  C   UNL A   1      35.758  33.123  33.982  1.00  0.00     0.010 A 
ATOM     40  C   UNL A   1      36.947  33.642  33.437  1.00  0.00    -0.014 A 
BRANCH  40  41
ATOM     41  C   UNL A   1      38.239  32.995  33.765  1.00  0.00     0.031 A 
ATOM     42  C   UNL A   1      38.703  31.830  32.941  1.00  0.00     0.074 A 
ATOM     43  C   UNL A   1      38.965  33.425  34.815  1.00  0.00     0.049 A 
ATOM     44  N   UNL A   1      39.654  30.969  33.185  1.00  0.00    -0.248 NA
ATOM     45  C   UNL A   1      37.989  31.605  31.675  1.00  0.00     0.031 C 
ATOM     46  C   UNL A   1      38.649  34.592  35.638  1.00  0.00     0.029 A 
ATOM     47  N   UNL A   1      40.101  32.909  35.386  1.00  0.00    -0.354 N 
ATOM     48  C   UNL A   1      39.645  30.084  32.112  1.00  0.00     0.074 A 
ATOM     49  C   UNL A   1      38.578  30.506  31.228  1.00  0.00     0.031 C 
ATOM     50  C   UNL A   1      39.553  34.686  36.627  1.00  0.00     0.029 A 
ATOM     51  C   UNL A   1      40.466  33.550  36.547  1.00  0.00     0.049 A 
ATOM     52  H   UNL A   1      40.605  32.155  35.002  1.00  0.00     0.167 HD
ATOM     53  C   UNL A   1      40.452  29.017  31.894  1.00  0.00     0.034 A 
ATOM     54  C   UNL A   1      41.391  33.221  37.473  1.00  0.00     0.034 A 
ATOM     55  C   UNL A   1      41.499  28.612  32.801  1.00  0.00     0.049 A 
ATOM     56  C   UNL A   1      42.213  31.971  37.263  1.00  0.00     0.074 A 
ATOM     57  C   UNL A   1      42.351  27.525  32.710  1.00  0.00     0.029 A 
ATOM     58  N   UNL A   1      41.836  29.282  33.970  1.00  0.00    -0.354 N 
ATOM     59  N   UNL A   1      42.156  31.103  36.279  1.00  0.00    -0.248 NA
ATOM     60  C   UNL A   1      43.218  31.654  38.286  1.00  0.00     0.031 C 
ATOM     61  C   UNL A   1      43.168  27.511  33.846  1.00  0.00     0.029 A 
ATOM     62  C   UNL A   1      42.873  28.627  34.612  1.00  0.00     0.049 A 
ATOM     63  H   UNL A   1      41.401  30.104  34.295  1.00  0.00     0.167 HD
ATOM     64  C   UNL A   1      43.146  30.160  36.548  1.00  0.00     0.074 A 
ATOM     65  C   UNL A   1      43.781  30.564  37.785  1.00  0.00     0.031 C 
ATOM     66  C   UNL A   1      43.501  29.061  35.836  1.00  0.00     0.034 A 
BRANCH  53  67
ATOM     67  C   UNL A   1      40.192  28.191  30.661  1.00  0.00     0.023 A 
ATOM     68  C   UNL A   1      40.926  28.379  29.476  1.00  0.00     0.031 A 
ATOM     69  C   UNL A   1      39.181  27.213  30.663  1.00  0.00     0.131 A 
ATOM     70  C   UNL A   1      40.598  27.642  28.327  1.00  0.00     0.055 A 
ATOM     71  C   UNL A   1      38.909  26.433  29.537  1.00  0.00     0.041 A 
ATOM     72  F   UNL A   1      38.434  27.005  31.759  1.00  0.00    -0.206 F 
ATOM     73  C   UNL A   1      39.611  26.654  28.356  1.00  0.00     0.022 A 
BRANCH  70  74
ATOM     74  S   UNL A   1      41.402  28.073  26.760  1.00  0.00     0.124 S 
ATOM     75  O   UNL A   1      42.701  28.558  27.218  1.00  0.00    -0.237 OA
ATOM     76  O   UNL A   1      41.408  26.802  26.046  1.00  0.00    -0.237 OA
ATOM     77  O   UNL A   1      40.526  29.099  26.196  1.00  0.00    -0.744 OA
ENDBRANCH  70  74
ENDBRANCH  53  67
BRANCH  54  78
ATOM     78  C   UNL A   1      41.541  34.030  38.716  1.00  0.00     0.023 A 
ATOM     79  C   UNL A   1      42.438  35.107  38.779  1.00  0.00     0.031 A 
ATOM     80  C   UNL A   1      40.832  33.697  39.885  1.00  0.00     0.131 A 
ATOM     81  C   UNL A   1      42.643  35.779  39.995  1.00  0.00     0.055 A 
ATOM     82  C   UNL A   1      40.994  34.405  41.077  1.00  0.00     0.041 A 
ATOM     83  F   UNL A   1      39.963  32.672  39.885  1.00  0.00    -0.206 F 
ATOM     84  C   UNL A   1      41.917  35.444  41.141  1.00  0.00     0.022 A 
BRANCH  81  85
ATOM     85  S   UNL A   1      43.958  37.025  40.087  1.00  0.00     0.124 S 
ATOM     86  O   UNL A   1      43.442  38.067  39.206  1.00  0.00    -0.237 OA
ATOM     87  O   UNL A   1      43.976  37.338  41.512  1.00  0.00    -0.237 OA
ATOM     88  O   UNL A   1      45.134  36.314  39.591  1.00  0.00    -0.744 OA
ENDBRANCH  81  85
ENDBRANCH  54  78
BRANCH  66  89
ATOM     89  C   UNL A   1      44.683  28.271  36.335  1.00  0.00     0.023 A 
ATOM     90  C   UNL A   1      44.547  27.257  37.297  1.00  0.00     0.031 A 
ATOM     91  C   UNL A   1      45.963  28.534  35.816  1.00  0.00     0.131 A 
ATOM     92  C   UNL A   1      45.684  26.560  37.735  1.00  0.00     0.055 A 
ATOM     93  C   UNL A   1      47.081  27.808  36.223  1.00  0.00     0.041 A 
ATOM     94  F   UNL A   1      46.142  29.492  34.894  1.00  0.00    -0.206 F 
ATOM     95  C   UNL A   1      46.947  26.818  37.194  1.00  0.00     0.022 A 
BRANCH  92  96
ATOM     96  S   UNL A   1      45.501  25.333  39.059  1.00  0.00     0.124 S 
ATOM     97  O   UNL A   1      46.863  24.828  39.196  1.00  0.00    -0.237 OA
ATOM     98  O   UNL A   1      45.004  26.139  40.169  1.00  0.00    -0.237 OA
ATOM     99  O   UNL A   1      44.538  24.379  38.511  1.00  0.00    -0.744 OA
ENDBRANCH  92  96
ENDBRANCH  66  89
ENDBRANCH  40  41
ENDBRANCH  33  35
ENDBRANCH  32  33
ENDBRANCH  31  32
ENDBRANCH  30  31
ENDBRANCH  29  30
ENDBRANCH  27  29
ENDBRANCH   1  27
TORSDOF 23
ENDMDL
