MODEL 1
REMARK VINA RESULT:     -10.9      0.000      0.000
REMARK SMILES Cc1nc2sc3c(c2c2nc(CCC(=O)OCCOC(=O)c4ccc(-c5c6nc(c(-c7cc(S(=O)(=O)[O-])ccc7F)c7ccc([nH]7)c(-c7cc(S(=O)(=O)[O-])ccc7F)c7nc(c(-c8cc(S(=O)(=O)[O-])ccc8F)c8ccc5[nH]8)C=C7)C=C6)cc4)nn12)[C@@H](C)CCC3
REMARK SMILES IDX 18 1 17 2 16 3 14 4 15 5 13 6 12 7 11 8 1 9 2 10 3 11 86 12
REMARK SMILES IDX 4 13 9 14 85 15 5 16 8 17 10 18 6 19 7 20 91 21 87 22 90 23
REMARK SMILES IDX 88 24 89 25 19 26 20 27 21 28 22 29 23 30 84 31 24 32 83 33
REMARK SMILES IDX 25 34 26 35 27 36 77 37 28 38 82 39 76 40 78 41 29 42 81 43
REMARK SMILES IDX 75 44 74 45 30 47 62 48 42 49 61 50 43 51 46 52 60 53 79 54
REMARK SMILES IDX 44 55 45 56 59 58 80 59 47 60 31 61 32 62 40 63 33 64 39 65
REMARK SMILES IDX 41 66 38 67 34 68 35 69 36 70 37 71 63 72 64 73 72 74 65 75
REMARK SMILES IDX 71 76 73 77 70 78 66 79 67 80 68 81 69 82 48 83 49 84 57 85
REMARK SMILES IDX 50 86 56 87 58 88 55 89 51 90 52 91 53 92 54 93
REMARK H PARENT 78 46 46 57
REMARK Flexibility Score: inf
ROOT
ATOM      1  C   UNL A   1      34.021  33.286  28.955  1.00  0.00     0.275 C 
ENDROOT
BRANCH   1   2
ATOM      2  C   UNL A   1      34.541  34.280  29.987  1.00  0.00     0.274 C 
BRANCH   2   3
ATOM      3  O   UNL A   1      35.451  33.667  30.920  1.00  0.00    -0.462 OA
BRANCH   3   4
ATOM      4  C   UNL A   1      34.975  32.615  31.633  1.00  0.00     0.306 C 
ATOM      5  O   UNL A   1      34.077  32.681  32.464  1.00  0.00    -0.252 OA
BRANCH   4   6
ATOM      6  C   UNL A   1      35.770  31.358  31.377  1.00  0.00     0.131 C 
BRANCH   6   7
ATOM      7  C   UNL A   1      36.553  30.820  32.568  1.00  0.00     0.091 C 
BRANCH   7   8
ATOM      8  C   UNL A   1      37.604  31.749  33.075  1.00  0.00     0.152 A 
ATOM      9  C   UNL A   1      38.402  33.540  36.710  1.00  0.00     0.090 C 
ATOM     10  C   UNL A   1      39.203  33.681  35.455  1.00  0.00     0.131 A 
ATOM     11  N   UNL A   1      40.272  34.435  35.382  1.00  0.00    -0.222 NA
ATOM     12  N   UNL A   1      38.717  32.946  34.366  1.00  0.00    -0.199 N 
ATOM     13  C   UNL A   1      40.878  34.490  34.150  1.00  0.00     0.129 A 
ATOM     14  C   UNL A   1      39.311  32.976  33.137  1.00  0.00     0.168 A 
ATOM     15  N   UNL A   1      37.597  32.194  34.346  1.00  0.00    -0.150 NA
ATOM     16  S   UNL A   1      42.259  35.463  33.874  1.00  0.00    -0.120 S 
ATOM     17  C   UNL A   1      40.498  33.848  32.979  1.00  0.00     0.060 A 
ATOM     18  N   UNL A   1      38.643  32.218  32.303  1.00  0.00    -0.211 NA
ATOM     19  C   UNL A   1      42.293  35.061  32.216  1.00  0.00     0.011 A 
ATOM     20  C   UNL A   1      41.272  34.207  31.840  1.00  0.00    -0.018 A 
ATOM     21  C   UNL A   1      43.308  35.638  31.281  1.00  0.00     0.047 C 
ATOM     22  C   UNL A   1      41.058  33.802  30.404  1.00  0.00     0.018 C 
ATOM     23  C   UNL A   1      43.450  34.731  30.052  1.00  0.00     0.006 C 
ATOM     24  C   UNL A   1      39.672  34.239  29.935  1.00  0.00     0.013 C 
ATOM     25  C   UNL A   1      42.085  34.439  29.431  1.00  0.00     0.008 C 
ENDBRANCH   7   8
ENDBRANCH   6   7
ENDBRANCH   4   6
ENDBRANCH   3   4
ENDBRANCH   2   3
ENDBRANCH   1   2
BRANCH   1  26
ATOM     26  O   UNL A   1      35.041  32.876  28.055  1.00  0.00    -0.458 OA
BRANCH  26  27
ATOM     27  C   UNL A   1      34.986  31.556  27.768  1.00  0.00     0.338 C 
ATOM     28  O   UNL A   1      34.011  30.894  27.475  1.00  0.00    -0.246 OA
BRANCH  27  29
ATOM     29  C   UNL A   1      36.282  30.964  28.048  1.00  0.00     0.060 A 
ATOM     30  C   UNL A   1      36.392  29.574  28.041  1.00  0.00     0.016 A 
ATOM     31  C   UNL A   1      37.318  31.806  28.474  1.00  0.00     0.016 A 
ATOM     32  C   UNL A   1      37.570  29.016  28.488  1.00  0.00     0.010 A 
ATOM     33  C   UNL A   1      38.489  31.248  28.921  1.00  0.00     0.010 A 
ATOM     34  C   UNL A   1      38.597  29.858  28.936  1.00  0.00    -0.014 A 
BRANCH  34  35
ATOM     35  C   UNL A   1      39.882  29.261  29.226  1.00  0.00     0.031 A 
ATOM     36  C   UNL A   1      40.155  29.162  30.675  1.00  0.00     0.074 A 
ATOM     37  C   UNL A   1      40.673  28.705  28.292  1.00  0.00     0.049 A 
ATOM     38  N   UNL A   1      41.024  29.832  31.351  1.00  0.00    -0.248 NA
ATOM     39  C   UNL A   1      39.250  28.346  31.503  1.00  0.00     0.031 C 
ATOM     40  C   UNL A   1      40.350  28.488  26.881  1.00  0.00     0.029 A 
ATOM     41  N   UNL A   1      41.890  28.113  28.437  1.00  0.00    -0.354 N 
ATOM     42  C   UNL A   1      40.961  29.318  32.638  1.00  0.00     0.074 A 
ATOM     43  C   UNL A   1      39.728  28.582  32.726  1.00  0.00     0.031 C 
ATOM     44  C   UNL A   1      41.245  27.624  26.353  1.00  0.00     0.029 A 
ATOM     45  C   UNL A   1      42.275  27.352  27.342  1.00  0.00     0.049 A 
ATOM     46  H   UNL A   1      42.447  28.216  29.243  1.00  0.00     0.167 HD
ATOM     47  C   UNL A   1      42.077  29.275  33.412  1.00  0.00     0.034 A 
ATOM     48  C   UNL A   1      43.346  26.527  27.272  1.00  0.00     0.034 A 
ATOM     49  C   UNL A   1      43.131  30.089  32.862  1.00  0.00     0.049 A 
ATOM     50  C   UNL A   1      44.362  27.059  28.214  1.00  0.00     0.074 A 
ATOM     51  C   UNL A   1      43.450  31.428  32.818  1.00  0.00     0.029 A 
ATOM     52  N   UNL A   1      43.871  29.461  31.895  1.00  0.00    -0.354 N 
ATOM     53  N   UNL A   1      44.891  28.247  28.096  1.00  0.00    -0.248 NA
ATOM     54  C   UNL A   1      44.572  26.413  29.506  1.00  0.00     0.031 C 
ATOM     55  C   UNL A   1      44.296  31.602  31.679  1.00  0.00     0.029 A 
ATOM     56  C   UNL A   1      44.491  30.365  31.070  1.00  0.00     0.049 A 
ATOM     57  H   UNL A   1      43.949  28.484  31.804  1.00  0.00     0.167 HD
ATOM     58  C   UNL A   1      45.107  28.658  29.394  1.00  0.00     0.074 A 
ATOM     59  C   UNL A   1      45.068  27.444  30.196  1.00  0.00     0.031 C 
ATOM     60  C   UNL A   1      44.966  29.964  29.758  1.00  0.00     0.034 A 
BRANCH  47  61
ATOM     61  C   UNL A   1      42.389  28.166  34.386  1.00  0.00     0.023 A 
ATOM     62  C   UNL A   1      43.146  27.073  33.924  1.00  0.00     0.031 A 
ATOM     63  C   UNL A   1      41.738  27.990  35.630  1.00  0.00     0.131 A 
ATOM     64  C   UNL A   1      43.207  25.878  34.664  1.00  0.00     0.055 A 
ATOM     65  C   UNL A   1      41.851  26.825  36.389  1.00  0.00     0.041 A 
ATOM     66  F   UNL A   1      40.876  28.891  36.122  1.00  0.00    -0.206 F 
ATOM     67  C   UNL A   1      42.574  25.752  35.899  1.00  0.00     0.022 A 
BRANCH  64  68
ATOM     68  S   UNL A   1      44.032  24.440  33.932  1.00  0.00     0.124 S 
ATOM     69  O   UNL A   1      43.073  23.374  34.193  1.00  0.00    -0.237 OA
ATOM     70  O   UNL A   1      44.176  24.851  32.539  1.00  0.00    -0.237 OA
ATOM     71  O   UNL A   1      45.283  24.350  34.682  1.00  0.00    -0.744 OA
ENDBRANCH  64  68
ENDBRANCH  47  61
BRANCH  48  72
ATOM     72  C   UNL A   1      43.415  25.180  26.650  1.00  0.00     0.023 A 
ATOM     73  C   UNL A   1      42.542  24.154  27.062  1.00  0.00     0.031 A 
ATOM     74  C   UNL A   1      44.147  24.949  25.463  1.00  0.00     0.131 A 
ATOM     75  C   UNL A   1      42.393  22.987  26.284  1.00  0.00     0.055 A 
ATOM     76  C   UNL A   1      44.010  23.783  24.705  1.00  0.00     0.041 A 
ATOM     77  F   UNL A   1      44.956  25.884  24.942  1.00  0.00    -0.206 F 
ATOM     78  C   UNL A   1      43.113  22.805  25.102  1.00  0.00     0.022 A 
BRANCH  75  79
ATOM     79  S   UNL A   1      41.126  21.758  26.720  1.00  0.00     0.124 S 
ATOM     80  O   UNL A   1      41.646  20.553  26.083  1.00  0.00    -0.237 OA
ATOM     81  O   UNL A   1      41.145  21.780  28.178  1.00  0.00    -0.237 OA
ATOM     82  O   UNL A   1      39.912  22.306  26.116  1.00  0.00    -0.744 OA
ENDBRANCH  75  79
ENDBRANCH  48  72
BRANCH  60  83
ATOM     83  C   UNL A   1      45.204  31.020  28.715  1.00  0.00     0.023 A 
ATOM     84  C   UNL A   1      46.465  31.525  28.330  1.00  0.00     0.031 A 
ATOM     85  C   UNL A   1      44.067  31.503  28.043  1.00  0.00     0.131 A 
ATOM     86  C   UNL A   1      46.545  32.484  27.299  1.00  0.00     0.055 A 
ATOM     87  C   UNL A   1      44.153  32.437  27.014  1.00  0.00     0.041 A 
ATOM     88  F   UNL A   1      42.844  31.049  28.365  1.00  0.00    -0.206 F 
ATOM     89  C   UNL A   1      45.395  32.933  26.640  1.00  0.00     0.022 A 
BRANCH  86  90
ATOM     90  S   UNL A   1      48.159  33.157  26.786  1.00  0.00     0.124 S 
ATOM     91  O   UNL A   1      48.923  31.966  26.436  1.00  0.00    -0.237 OA
ATOM     92  O   UNL A   1      47.802  34.040  25.680  1.00  0.00    -0.237 OA
ATOM     93  O   UNL A   1      48.636  33.853  27.984  1.00  0.00    -0.744 OA
ENDBRANCH  86  90
ENDBRANCH  60  83
ENDBRANCH  34  35
ENDBRANCH  27  29
ENDBRANCH  26  27
ENDBRANCH   1  26
TORSDOF 16
ENDMDL
MODEL 2
REMARK VINA RESULT:     -10.7      1.390      1.773
REMARK SMILES Cc1nc2sc3c(c2c2nc(CCC(=O)OCCOC(=O)c4ccc(-c5c6nc(c(-c7cc(S(=O)(=O)[O-])ccc7F)c7ccc([nH]7)c(-c7cc(S(=O)(=O)[O-])ccc7F)c7nc(c(-c8cc(S(=O)(=O)[O-])ccc8F)c8ccc5[nH]8)C=C7)C=C6)cc4)nn12)[C@@H](C)CCC3
REMARK SMILES IDX 18 1 17 2 16 3 14 4 15 5 13 6 12 7 11 8 1 9 2 10 3 11 86 12
REMARK SMILES IDX 4 13 9 14 85 15 5 16 8 17 10 18 6 19 7 20 91 21 87 22 90 23
REMARK SMILES IDX 88 24 89 25 19 26 20 27 21 28 22 29 23 30 84 31 24 32 83 33
REMARK SMILES IDX 25 34 26 35 27 36 77 37 28 38 82 39 76 40 78 41 29 42 81 43
REMARK SMILES IDX 75 44 74 45 30 47 62 48 42 49 61 50 43 51 46 52 60 53 79 54
REMARK SMILES IDX 44 55 45 56 59 58 80 59 47 60 31 61 32 62 40 63 33 64 39 65
REMARK SMILES IDX 41 66 38 67 34 68 35 69 36 70 37 71 63 72 64 73 72 74 65 75
REMARK SMILES IDX 71 76 73 77 70 78 66 79 67 80 68 81 69 82 48 83 49 84 57 85
REMARK SMILES IDX 50 86 56 87 58 88 55 89 51 90 52 91 53 92 54 93
REMARK H PARENT 78 46 46 57
REMARK Flexibility Score: inf
ROOT
ATOM      1  C   UNL A   1      34.069  33.883  29.414  1.00  0.00     0.275 C 
ENDROOT
BRANCH   1   2
ATOM      2  C   UNL A   1      34.465  34.156  30.860  1.00  0.00     0.274 C 
BRANCH   2   3
ATOM      3  O   UNL A   1      34.029  33.109  31.749  1.00  0.00    -0.462 OA
BRANCH   3   4
ATOM      4  C   UNL A   1      34.876  32.773  32.754  1.00  0.00     0.306 C 
ATOM      5  O   UNL A   1      34.744  33.115  33.924  1.00  0.00    -0.252 OA
BRANCH   4   6
ATOM      6  C   UNL A   1      36.084  32.025  32.245  1.00  0.00     0.131 C 
BRANCH   6   7
ATOM      7  C   UNL A   1      37.045  31.521  33.313  1.00  0.00     0.091 C 
BRANCH   7   8
ATOM      8  C   UNL A   1      38.171  32.454  33.607  1.00  0.00     0.152 A 
ATOM      9  C   UNL A   1      39.306  34.710  36.874  1.00  0.00     0.090 C 
ATOM     10  C   UNL A   1      40.023  34.620  35.564  1.00  0.00     0.131 A 
ATOM     11  N   UNL A   1      41.118  35.293  35.312  1.00  0.00    -0.222 NA
ATOM     12  N   UNL A   1      39.428  33.762  34.631  1.00  0.00    -0.199 N 
ATOM     13  C   UNL A   1      41.638  35.132  34.050  1.00  0.00     0.129 A 
ATOM     14  C   UNL A   1      39.934  33.577  33.376  1.00  0.00     0.168 A 
ATOM     15  N   UNL A   1      38.275  33.080  34.795  1.00  0.00    -0.150 NA
ATOM     16  S   UNL A   1      43.040  35.974  33.544  1.00  0.00    -0.120 S 
ATOM     17  C   UNL A   1      41.146  34.347  33.015  1.00  0.00     0.060 A 
ATOM     18  N   UNL A   1      39.175  32.744  32.709  1.00  0.00    -0.211 NA
ATOM     19  C   UNL A   1      42.938  35.332  31.967  1.00  0.00     0.011 A 
ATOM     20  C   UNL A   1      41.854  34.490  31.789  1.00  0.00    -0.018 A 
ATOM     21  C   UNL A   1      43.910  35.706  30.894  1.00  0.00     0.047 C 
ATOM     22  C   UNL A   1      41.521  33.891  30.447  1.00  0.00     0.018 C 
ATOM     23  C   UNL A   1      43.923  34.622  29.809  1.00  0.00     0.006 C 
ATOM     24  C   UNL A   1      40.127  34.333  30.005  1.00  0.00     0.013 C 
ATOM     25  C   UNL A   1      42.505  34.320  29.326  1.00  0.00     0.008 C 
ENDBRANCH   7   8
ENDBRANCH   6   7
ENDBRANCH   4   6
ENDBRANCH   3   4
ENDBRANCH   2   3
ENDBRANCH   1   2
BRANCH   1  26
ATOM     26  O   UNL A   1      35.137  33.315  28.670  1.00  0.00    -0.458 OA
BRANCH  26  27
ATOM     27  C   UNL A   1      34.980  31.989  28.457  1.00  0.00     0.338 C 
ATOM     28  O   UNL A   1      33.958  31.391  28.189  1.00  0.00    -0.246 OA
BRANCH  27  29
ATOM     29  C   UNL A   1      36.223  31.314  28.786  1.00  0.00     0.060 A 
ATOM     30  C   UNL A   1      37.362  32.090  28.997  1.00  0.00     0.016 A 
ATOM     31  C   UNL A   1      36.259  29.916  28.713  1.00  0.00     0.016 A 
ATOM     32  C   UNL A   1      38.572  31.442  29.123  1.00  0.00     0.010 A 
ATOM     33  C   UNL A   1      37.465  29.273  28.837  1.00  0.00     0.010 A 
ATOM     34  C   UNL A   1      38.610  30.044  29.027  1.00  0.00    -0.014 A 
BRANCH  34  35
ATOM     35  C   UNL A   1      39.855  29.379  29.343  1.00  0.00     0.031 A 
ATOM     36  C   UNL A   1      40.126  29.328  30.795  1.00  0.00     0.074 A 
ATOM     37  C   UNL A   1      40.606  28.734  28.436  1.00  0.00     0.049 A 
ATOM     38  N   UNL A   1      41.037  29.971  31.441  1.00  0.00    -0.248 NA
ATOM     39  C   UNL A   1      39.173  28.609  31.659  1.00  0.00     0.031 C 
ATOM     40  C   UNL A   1      40.267  28.475  27.035  1.00  0.00     0.029 A 
ATOM     41  N   UNL A   1      41.784  28.073  28.607  1.00  0.00    -0.354 N 
ATOM     42  C   UNL A   1      40.946  29.520  32.749  1.00  0.00     0.074 A 
ATOM     43  C   UNL A   1      39.668  28.868  32.870  1.00  0.00     0.031 C 
ATOM     44  C   UNL A   1      41.103  27.534  26.546  1.00  0.00     0.029 A 
ATOM     45  C   UNL A   1      42.117  27.241  27.547  1.00  0.00     0.049 A 
ATOM     46  H   UNL A   1      42.349  28.176  29.407  1.00  0.00     0.167 HD
ATOM     47  C   UNL A   1      42.059  29.441  33.525  1.00  0.00     0.034 A 
ATOM     48  C   UNL A   1      43.133  26.347  27.513  1.00  0.00     0.034 A 
ATOM     49  C   UNL A   1      43.160  30.162  32.939  1.00  0.00     0.049 A 
ATOM     50  C   UNL A   1      44.184  26.855  28.430  1.00  0.00     0.074 A 
ATOM     51  C   UNL A   1      43.564  31.473  32.835  1.00  0.00     0.029 A 
ATOM     52  N   UNL A   1      43.857  29.445  32.001  1.00  0.00    -0.354 N 
ATOM     53  N   UNL A   1      44.786  28.001  28.259  1.00  0.00    -0.248 NA
ATOM     54  C   UNL A   1      44.357  26.255  29.750  1.00  0.00     0.031 C 
ATOM     55  C   UNL A   1      44.416  31.543  31.690  1.00  0.00     0.029 A 
ATOM     56  C   UNL A   1      44.530  30.270  31.137  1.00  0.00     0.049 A 
ATOM     57  H   UNL A   1      43.872  28.462  31.954  1.00  0.00     0.167 HD
ATOM     58  C   UNL A   1      45.032  28.455  29.538  1.00  0.00     0.074 A 
ATOM     59  C   UNL A   1      44.918  27.283  30.394  1.00  0.00     0.031 C 
ATOM     60  C   UNL A   1      44.975  29.782  29.844  1.00  0.00     0.034 A 
BRANCH  47  61
ATOM     61  C   UNL A   1      42.302  28.358  34.547  1.00  0.00     0.023 A 
ATOM     62  C   UNL A   1      43.029  27.221  34.147  1.00  0.00     0.031 A 
ATOM     63  C   UNL A   1      41.613  28.254  35.778  1.00  0.00     0.131 A 
ATOM     64  C   UNL A   1      43.025  26.054  34.932  1.00  0.00     0.055 A 
ATOM     65  C   UNL A   1      41.661  27.115  36.582  1.00  0.00     0.041 A 
ATOM     66  F   UNL A   1      40.773  29.204  36.213  1.00  0.00    -0.206 F 
ATOM     67  C   UNL A   1      42.355  25.999  36.153  1.00  0.00     0.022 A 
BRANCH  64  68
ATOM     68  S   UNL A   1      43.813  24.560  34.277  1.00  0.00     0.124 S 
ATOM     69  O   UNL A   1      44.003  24.905  32.874  1.00  0.00    -0.237 OA
ATOM     70  O   UNL A   1      45.023  24.475  35.089  1.00  0.00    -0.237 OA
ATOM     71  O   UNL A   1      42.824  23.515  34.533  1.00  0.00    -0.744 OA
ENDBRANCH  64  68
ENDBRANCH  47  61
BRANCH  48  72
ATOM     72  C   UNL A   1      43.116  24.972  26.952  1.00  0.00     0.023 A 
ATOM     73  C   UNL A   1      43.990  24.612  25.907  1.00  0.00     0.031 A 
ATOM     74  C   UNL A   1      42.438  23.916  27.603  1.00  0.00     0.131 A 
ATOM     75  C   UNL A   1      44.193  23.256  25.581  1.00  0.00     0.055 A 
ATOM     76  C   UNL A   1      42.629  22.574  27.263  1.00  0.00     0.041 A 
ATOM     77  F   UNL A   1      41.635  24.137  28.654  1.00  0.00    -0.206 F 
ATOM     78  C   UNL A   1      43.526  22.236  26.264  1.00  0.00     0.022 A 
BRANCH  75  79
ATOM     79  S   UNL A   1      45.463  22.792  24.366  1.00  0.00     0.124 S 
ATOM     80  O   UNL A   1      44.654  22.275  23.269  1.00  0.00    -0.237 OA
ATOM     81  O   UNL A   1      46.153  24.054  24.123  1.00  0.00    -0.237 OA
ATOM     82  O   UNL A   1      46.254  21.790  25.081  1.00  0.00    -0.744 OA
ENDBRANCH  75  79
ENDBRANCH  48  72
BRANCH  60  83
ATOM     83  C   UNL A   1      45.277  30.774  28.755  1.00  0.00     0.023 A 
ATOM     84  C   UNL A   1      46.562  31.229  28.391  1.00  0.00     0.031 A 
ATOM     85  C   UNL A   1      44.177  31.244  28.015  1.00  0.00     0.131 A 
ATOM     86  C   UNL A   1      46.704  32.127  27.313  1.00  0.00     0.055 A 
ATOM     87  C   UNL A   1      44.323  32.118  26.941  1.00  0.00     0.041 A 
ATOM     88  F   UNL A   1      42.932  30.835  28.314  1.00  0.00    -0.206 F 
ATOM     89  C   UNL A   1      45.589  32.565  26.587  1.00  0.00     0.022 A 
BRANCH  86  90
ATOM     90  S   UNL A   1      48.351  32.735  26.825  1.00  0.00     0.124 S 
ATOM     91  O   UNL A   1      48.791  33.484  27.996  1.00  0.00    -0.237 OA
ATOM     92  O   UNL A   1      49.077  31.501  26.541  1.00  0.00    -0.237 OA
ATOM     93  O   UNL A   1      48.076  33.559  25.645  1.00  0.00    -0.744 OA
ENDBRANCH  86  90
ENDBRANCH  60  83
ENDBRANCH  34  35
ENDBRANCH  27  29
ENDBRANCH  26  27
ENDBRANCH   1  26
TORSDOF 16
ENDMDL
MODEL 3
REMARK VINA RESULT:     -10.6      4.358      9.760
REMARK SMILES Cc1nc2sc3c(c2c2nc(CCC(=O)OCCOC(=O)c4ccc(-c5c6nc(c(-c7cc(S(=O)(=O)[O-])ccc7F)c7ccc([nH]7)c(-c7cc(S(=O)(=O)[O-])ccc7F)c7nc(c(-c8cc(S(=O)(=O)[O-])ccc8F)c8ccc5[nH]8)C=C7)C=C6)cc4)nn12)[C@@H](C)CCC3
REMARK SMILES IDX 18 1 17 2 16 3 14 4 15 5 13 6 12 7 11 8 1 9 2 10 3 11 86 12
REMARK SMILES IDX 4 13 9 14 85 15 5 16 8 17 10 18 6 19 7 20 91 21 87 22 90 23
REMARK SMILES IDX 88 24 89 25 19 26 20 27 21 28 22 29 23 30 84 31 24 32 83 33
REMARK SMILES IDX 25 34 26 35 27 36 77 37 28 38 82 39 76 40 78 41 29 42 81 43
REMARK SMILES IDX 75 44 74 45 30 47 62 48 42 49 61 50 43 51 46 52 60 53 79 54
REMARK SMILES IDX 44 55 45 56 59 58 80 59 47 60 31 61 32 62 40 63 33 64 39 65
REMARK SMILES IDX 41 66 38 67 34 68 35 69 36 70 37 71 63 72 64 73 72 74 65 75
REMARK SMILES IDX 71 76 73 77 70 78 66 79 67 80 68 81 69 82 48 83 49 84 57 85
REMARK SMILES IDX 50 86 56 87 58 88 55 89 51 90 52 91 53 92 54 93
REMARK H PARENT 78 46 46 57
REMARK Flexibility Score: inf
ROOT
ATOM      1  C   UNL A   1      36.384  31.793  29.134  1.00  0.00     0.275 C 
ENDROOT
BRANCH   1   2
ATOM      2  C   UNL A   1      35.524  32.417  28.041  1.00  0.00     0.274 C 
BRANCH   2   3
ATOM      3  O   UNL A   1      34.237  32.836  28.535  1.00  0.00    -0.462 OA
BRANCH   3   4
ATOM      4  C   UNL A   1      33.186  32.698  27.688  1.00  0.00     0.306 C 
ATOM      5  O   UNL A   1      32.301  33.531  27.529  1.00  0.00    -0.252 OA
BRANCH   4   6
ATOM      6  C   UNL A   1      33.156  31.332  27.047  1.00  0.00     0.131 C 
BRANCH   6   7
ATOM      7  C   UNL A   1      31.771  30.744  26.812  1.00  0.00     0.091 C 
BRANCH   7   8
ATOM      8  C   UNL A   1      31.693  29.818  25.645  1.00  0.00     0.152 A 
ATOM      9  C   UNL A   1      29.472  29.699  22.165  1.00  0.00     0.090 C 
ATOM     10  C   UNL A   1      30.516  28.715  22.588  1.00  0.00     0.131 A 
ATOM     11  N   UNL A   1      30.825  27.663  21.869  1.00  0.00    -0.222 NA
ATOM     12  N   UNL A   1      31.131  29.005  23.811  1.00  0.00    -0.199 N 
ATOM     13  C   UNL A   1      31.778  26.833  22.409  1.00  0.00     0.129 A 
ATOM     14  C   UNL A   1      32.090  28.201  24.360  1.00  0.00     0.168 A 
ATOM     15  N   UNL A   1      30.831  30.033  24.632  1.00  0.00    -0.150 NA
ATOM     16  S   UNL A   1      32.263  25.395  21.620  1.00  0.00    -0.120 S 
ATOM     17  C   UNL A   1      32.449  26.972  23.617  1.00  0.00     0.060 A 
ATOM     18  N   UNL A   1      32.477  28.694  25.510  1.00  0.00    -0.211 NA
ATOM     19  C   UNL A   1      33.301  24.961  22.903  1.00  0.00     0.011 A 
ATOM     20  C   UNL A   1      33.293  25.874  23.943  1.00  0.00    -0.018 A 
ATOM     21  C   UNL A   1      34.083  23.687  22.895  1.00  0.00     0.047 C 
ATOM     22  C   UNL A   1      34.063  25.638  25.217  1.00  0.00     0.018 C 
ATOM     23  C   UNL A   1      35.283  23.812  23.842  1.00  0.00     0.006 C 
ATOM     24  C   UNL A   1      33.110  25.606  26.410  1.00  0.00     0.013 C 
ATOM     25  C   UNL A   1      34.837  24.293  25.223  1.00  0.00     0.008 C 
ENDBRANCH   7   8
ENDBRANCH   6   7
ENDBRANCH   4   6
ENDBRANCH   3   4
ENDBRANCH   2   3
ENDBRANCH   1   2
BRANCH   1  26
ATOM     26  O   UNL A   1      35.999  30.455  29.411  1.00  0.00    -0.458 OA
BRANCH  26  27
ATOM     27  C   UNL A   1      36.261  29.612  28.386  1.00  0.00     0.338 C 
ATOM     28  O   UNL A   1      35.471  29.091  27.627  1.00  0.00    -0.246 OA
BRANCH  27  29
ATOM     29  C   UNL A   1      37.666  29.248  28.430  1.00  0.00     0.060 A 
ATOM     30  C   UNL A   1      38.470  29.575  27.339  1.00  0.00     0.016 A 
ATOM     31  C   UNL A   1      38.111  28.442  29.486  1.00  0.00     0.016 A 
ATOM     32  C   UNL A   1      39.750  29.067  27.302  1.00  0.00     0.010 A 
ATOM     33  C   UNL A   1      39.385  27.934  29.446  1.00  0.00     0.010 A 
ATOM     34  C   UNL A   1      40.186  28.241  28.348  1.00  0.00    -0.014 A 
BRANCH  34  35
ATOM     35  C   UNL A   1      41.584  27.872  28.378  1.00  0.00     0.031 A 
ATOM     36  C   UNL A   1      41.864  26.623  27.638  1.00  0.00     0.074 A 
ATOM     37  C   UNL A   1      42.551  28.657  28.880  1.00  0.00     0.049 A 
ATOM     38  N   UNL A   1      42.203  25.483  28.134  1.00  0.00    -0.248 NA
ATOM     39  C   UNL A   1      41.573  26.586  26.194  1.00  0.00     0.031 C 
ATOM     40  C   UNL A   1      42.409  30.033  29.358  1.00  0.00     0.029 A 
ATOM     41  N   UNL A   1      43.891  28.426  28.962  1.00  0.00    -0.354 N 
ATOM     42  C   UNL A   1      42.439  24.664  27.040  1.00  0.00     0.074 A 
ATOM     43  C   UNL A   1      41.834  25.310  25.906  1.00  0.00     0.031 C 
ATOM     44  C   UNL A   1      43.635  30.588  29.473  1.00  0.00     0.029 A 
ATOM     45  C   UNL A   1      44.639  29.567  29.222  1.00  0.00     0.049 A 
ATOM     46  H   UNL A   1      44.292  27.534  28.849  1.00  0.00     0.167 HD
ATOM     47  C   UNL A   1      43.384  23.690  27.107  1.00  0.00     0.034 A 
ATOM     48  C   UNL A   1      45.988  29.668  29.194  1.00  0.00     0.034 A 
ATOM     49  C   UNL A   1      43.799  23.450  28.466  1.00  0.00     0.049 A 
ATOM     50  C   UNL A   1      46.528  28.323  29.517  1.00  0.00     0.074 A 
ATOM     51  C   UNL A   1      43.309  22.777  29.563  1.00  0.00     0.029 A 
ATOM     52  N   UNL A   1      44.765  24.311  28.913  1.00  0.00    -0.354 N 
ATOM     53  N   UNL A   1      46.296  27.716  30.650  1.00  0.00    -0.248 NA
ATOM     54  C   UNL A   1      47.064  27.474  28.457  1.00  0.00     0.031 C 
ATOM     55  C   UNL A   1      43.912  23.384  30.708  1.00  0.00     0.029 A 
ATOM     56  C   UNL A   1      44.770  24.395  30.282  1.00  0.00     0.049 A 
ATOM     57  H   UNL A   1      45.379  24.808  28.325  1.00  0.00     0.167 HD
ATOM     58  C   UNL A   1      46.242  26.378  30.318  1.00  0.00     0.074 A 
ATOM     59  C   UNL A   1      46.892  26.275  29.020  1.00  0.00     0.031 C 
ATOM     60  C   UNL A   1      45.390  25.524  30.951  1.00  0.00     0.034 A 
BRANCH  47  61
ATOM     61  C   UNL A   1      44.265  23.286  25.950  1.00  0.00     0.023 A 
ATOM     62  C   UNL A   1      44.215  21.949  25.514  1.00  0.00     0.031 A 
ATOM     63  C   UNL A   1      45.347  24.058  25.464  1.00  0.00     0.131 A 
ATOM     64  C   UNL A   1      45.213  21.430  24.670  1.00  0.00     0.055 A 
ATOM     65  C   UNL A   1      46.301  23.556  24.578  1.00  0.00     0.041 A 
ATOM     66  F   UNL A   1      45.597  25.300  25.902  1.00  0.00    -0.206 F 
ATOM     67  C   UNL A   1      46.249  22.229  24.190  1.00  0.00     0.022 A 
BRANCH  64  68
ATOM     68  S   UNL A   1      45.208  19.656  24.300  1.00  0.00     0.124 S 
ATOM     69  O   UNL A   1      46.632  19.348  24.265  1.00  0.00    -0.237 OA
ATOM     70  O   UNL A   1      44.459  19.114  25.429  1.00  0.00    -0.237 OA
ATOM     71  O   UNL A   1      44.522  19.581  23.011  1.00  0.00    -0.744 OA
ENDBRANCH  64  68
ENDBRANCH  47  61
BRANCH  48  72
ATOM     72  C   UNL A   1      46.805  30.778  28.640  1.00  0.00     0.023 A 
ATOM     73  C   UNL A   1      46.295  31.602  27.617  1.00  0.00     0.031 A 
ATOM     74  C   UNL A   1      47.984  31.221  29.281  1.00  0.00     0.131 A 
ATOM     75  C   UNL A   1      46.924  32.824  27.303  1.00  0.00     0.055 A 
ATOM     76  C   UNL A   1      48.615  32.425  28.954  1.00  0.00     0.041 A 
ATOM     77  F   UNL A   1      48.518  30.551  30.313  1.00  0.00    -0.206 F 
ATOM     78  C   UNL A   1      48.074  33.243  27.976  1.00  0.00     0.022 A 
BRANCH  75  79
ATOM     79  S   UNL A   1      46.153  33.968  26.120  1.00  0.00     0.124 S 
ATOM     80  O   UNL A   1      45.463  34.897  27.007  1.00  0.00    -0.237 OA
ATOM     81  O   UNL A   1      47.300  34.500  25.391  1.00  0.00    -0.237 OA
ATOM     82  O   UNL A   1      45.282  33.094  25.335  1.00  0.00    -0.744 OA
ENDBRANCH  75  79
ENDBRANCH  48  72
BRANCH  60  83
ATOM     83  C   UNL A   1      44.994  25.838  32.368  1.00  0.00     0.023 A 
ATOM     84  C   UNL A   1      43.792  26.461  32.765  1.00  0.00     0.031 A 
ATOM     85  C   UNL A   1      45.888  25.429  33.373  1.00  0.00     0.131 A 
ATOM     86  C   UNL A   1      43.526  26.651  34.137  1.00  0.00     0.055 A 
ATOM     87  C   UNL A   1      45.615  25.604  34.727  1.00  0.00     0.041 A 
ATOM     88  F   UNL A   1      47.043  24.824  33.049  1.00  0.00    -0.206 F 
ATOM     89  C   UNL A   1      44.432  26.220  35.114  1.00  0.00     0.022 A 
BRANCH  86  90
ATOM     90  S   UNL A   1      41.984  27.458  34.678  1.00  0.00     0.124 S 
ATOM     91  O   UNL A   1      41.515  28.127  33.471  1.00  0.00    -0.237 OA
ATOM     92  O   UNL A   1      41.180  26.333  35.145  1.00  0.00    -0.237 OA
ATOM     93  O   UNL A   1      42.427  28.365  35.741  1.00  0.00    -0.744 OA
ENDBRANCH  86  90
ENDBRANCH  60  83
ENDBRANCH  34  35
ENDBRANCH  27  29
ENDBRANCH  26  27
ENDBRANCH   1  26
TORSDOF 16
ENDMDL
