MODEL 1
REMARK VINA RESULT:     -12.1      0.000      0.000
REMARK SMILES Cc1cccc(CS(=O)(=O)c2ccc(C(=O)OCCOC(=O)c3ccc(-c4c5nc(c(-c6cc(S(=O)(=O)[O-])ccc6F)c6ccc([nH]6)c(-c6cc(S(=O)(=O)[O-])ccc6F)c6nc(c(-c7cc(S(=O)(=O)[O-])ccc7F)c7ccc4[nH]7)C=C6)C=C5)cc3)cc2F)n1
REMARK SMILES IDX 18 1 17 2 15 3 16 4 14 5 11 6 12 7 87 8 13 9 86 10 88 11
REMARK SMILES IDX 8 12 9 13 10 14 7 15 6 16 1 17 2 18 3 19 89 20 4 21 5 22
REMARK SMILES IDX 19 23 20 24 21 25 22 26 23 27 24 28 85 29 25 30 84 31 26 32
REMARK SMILES IDX 27 33 28 34 78 35 29 36 83 37 77 38 79 39 30 40 82 41 76 42
REMARK SMILES IDX 75 43 31 45 63 46 43 47 62 48 44 49 47 50 61 51 80 52 45 53
REMARK SMILES IDX 46 54 60 56 81 57 48 58 32 59 33 60 41 61 34 62 40 63 42 64
REMARK SMILES IDX 39 65 35 66 36 67 37 68 38 69 64 70 65 71 73 72 66 73 72 74
REMARK SMILES IDX 74 75 71 76 67 77 68 78 69 79 70 80 49 81 50 82 58 83 51 84
REMARK SMILES IDX 57 85 59 86 56 87 52 88 53 89 54 90 55 91
REMARK H PARENT 79 44 47 55
REMARK Flexibility Score: inf
ROOT
ATOM      1  C   UNL A   1      34.752  20.677  25.514  1.00  0.00     0.275 C 
ENDROOT
BRANCH   1   2
ATOM      2  O   UNL A   1      33.815  20.340  24.467  1.00  0.00    -0.458 OA
BRANCH   2   3
ATOM      3  C   UNL A   1      32.579  20.884  24.614  1.00  0.00     0.338 C 
ATOM      4  O   UNL A   1      31.693  20.469  25.334  1.00  0.00    -0.246 OA
BRANCH   3   5
ATOM      5  C   UNL A   1      32.446  22.150  23.853  1.00  0.00     0.063 A 
ATOM      6  C   UNL A   1      32.383  24.537  22.363  1.00  0.00     0.103 A 
ATOM      7  C   UNL A   1      33.302  23.539  22.050  1.00  0.00     0.024 A 
ATOM      8  C   UNL A   1      31.523  24.347  23.448  1.00  0.00     0.142 A 
ATOM      9  C   UNL A   1      33.336  22.360  22.793  1.00  0.00     0.017 A 
ATOM     10  C   UNL A   1      31.538  23.155  24.187  1.00  0.00     0.056 A 
ATOM     11  F   UNL A   1      30.695  25.310  23.871  1.00  0.00    -0.206 F 
BRANCH   6  12
ATOM     12  S   UNL A   1      32.468  26.100  21.521  1.00  0.00     0.186 S 
ATOM     13  O   UNL A   1      31.130  26.661  21.587  1.00  0.00    -0.223 OA
ATOM     14  O   UNL A   1      33.042  25.841  20.208  1.00  0.00    -0.223 OA
BRANCH  12  15
ATOM     15  C   UNL A   1      33.647  27.160  22.324  1.00  0.00     0.198 C 
BRANCH  15  16
ATOM     16  C   UNL A   1      33.343  27.461  23.760  1.00  0.00     0.056 A 
ATOM     17  C   UNL A   1      31.621  30.138  25.628  1.00  0.00     0.067 C 
ATOM     18  C   UNL A   1      32.412  28.894  25.356  1.00  0.00     0.038 A 
ATOM     19  C   UNL A   1      32.870  28.102  26.401  1.00  0.00     0.023 A 
ATOM     20  N   UNL A   1      32.649  28.587  24.052  1.00  0.00    -0.257 NA
ATOM     21  C   UNL A   1      33.605  26.964  26.098  1.00  0.00     0.004 A 
ATOM     22  C   UNL A   1      33.852  26.640  24.766  1.00  0.00     0.025 A 
ENDBRANCH  15  16
ENDBRANCH  12  15
ENDBRANCH   6  12
ENDBRANCH   3   5
ENDBRANCH   2   3
ENDBRANCH   1   2
BRANCH   1  23
ATOM     23  C   UNL A   1      36.190  20.675  24.994  1.00  0.00     0.275 C 
BRANCH  23  24
ATOM     24  O   UNL A   1      36.996  21.604  25.741  1.00  0.00    -0.458 OA
BRANCH  24  25
ATOM     25  C   UNL A   1      38.306  21.287  25.856  1.00  0.00     0.338 C 
ATOM     26  O   UNL A   1      38.847  20.239  25.543  1.00  0.00    -0.246 OA
BRANCH  25  27
ATOM     27  C   UNL A   1      39.048  22.437  26.396  1.00  0.00     0.060 A 
ATOM     28  C   UNL A   1      38.643  23.720  26.044  1.00  0.00     0.016 A 
ATOM     29  C   UNL A   1      40.207  22.256  27.148  1.00  0.00     0.016 A 
ATOM     30  C   UNL A   1      39.429  24.822  26.369  1.00  0.00     0.010 A 
ATOM     31  C   UNL A   1      40.931  23.376  27.580  1.00  0.00     0.010 A 
ATOM     32  C   UNL A   1      40.559  24.675  27.186  1.00  0.00    -0.014 A 
BRANCH  32  33
ATOM     33  C   UNL A   1      41.311  25.874  27.663  1.00  0.00     0.031 A 
ATOM     34  C   UNL A   1      40.637  26.929  28.502  1.00  0.00     0.074 A 
ATOM     35  C   UNL A   1      42.613  26.028  27.335  1.00  0.00     0.049 A 
ATOM     36  N   UNL A   1      41.064  28.122  28.828  1.00  0.00    -0.248 NA
ATOM     37  C   UNL A   1      39.309  26.603  29.044  1.00  0.00     0.031 C 
ATOM     38  C   UNL A   1      43.416  25.065  26.575  1.00  0.00     0.029 A 
ATOM     39  N   UNL A   1      43.495  27.049  27.596  1.00  0.00    -0.354 N 
ATOM     40  C   UNL A   1      40.045  28.709  29.570  1.00  0.00     0.074 A 
ATOM     41  C   UNL A   1      38.976  27.735  29.650  1.00  0.00     0.031 C 
ATOM     42  C   UNL A   1      44.673  25.515  26.475  1.00  0.00     0.029 A 
ATOM     43  C   UNL A   1      44.744  26.850  27.050  1.00  0.00     0.049 A 
ATOM     44  H   UNL A   1      43.258  27.846  28.122  1.00  0.00     0.167 HD
ATOM     45  C   UNL A   1      40.004  29.948  30.121  1.00  0.00     0.034 A 
ATOM     46  C   UNL A   1      45.814  27.663  26.958  1.00  0.00     0.034 A 
ATOM     47  C   UNL A   1      41.084  30.903  30.047  1.00  0.00     0.049 A 
ATOM     48  C   UNL A   1      45.721  29.057  27.510  1.00  0.00     0.074 A 
ATOM     49  C   UNL A   1      41.132  32.191  30.556  1.00  0.00     0.029 A 
ATOM     50  N   UNL A   1      42.310  30.677  29.434  1.00  0.00    -0.354 N 
ATOM     51  N   UNL A   1      44.707  29.635  28.110  1.00  0.00    -0.248 NA
ATOM     52  C   UNL A   1      46.904  29.912  27.356  1.00  0.00     0.031 C 
ATOM     53  C   UNL A   1      42.359  32.761  30.205  1.00  0.00     0.029 A 
ATOM     54  C   UNL A   1      43.112  31.804  29.544  1.00  0.00     0.049 A 
ATOM     55  H   UNL A   1      42.572  29.841  28.987  1.00  0.00     0.167 HD
ATOM     56  C   UNL A   1      45.140  30.918  28.427  1.00  0.00     0.074 A 
ATOM     57  C   UNL A   1      46.506  31.026  27.954  1.00  0.00     0.031 C 
ATOM     58  C   UNL A   1      44.469  31.909  29.063  1.00  0.00     0.034 A 
BRANCH  45  59
ATOM     59  C   UNL A   1      38.730  30.373  30.808  1.00  0.00     0.023 A 
ATOM     60  C   UNL A   1      37.694  31.027  30.121  1.00  0.00     0.031 A 
ATOM     61  C   UNL A   1      38.537  30.081  32.172  1.00  0.00     0.131 A 
ATOM     62  C   UNL A   1      36.527  31.398  30.808  1.00  0.00     0.055 A 
ATOM     63  C   UNL A   1      37.349  30.396  32.834  1.00  0.00     0.041 A 
ATOM     64  F   UNL A   1      39.501  29.473  32.881  1.00  0.00    -0.206 F 
ATOM     65  C   UNL A   1      36.337  31.065  32.152  1.00  0.00     0.022 A 
BRANCH  62  66
ATOM     66  S   UNL A   1      35.288  32.398  29.940  1.00  0.00     0.124 S 
ATOM     67  O   UNL A   1      36.077  33.561  29.542  1.00  0.00    -0.237 OA
ATOM     68  O   UNL A   1      34.869  31.513  28.859  1.00  0.00    -0.237 OA
ATOM     69  O   UNL A   1      34.277  32.656  30.963  1.00  0.00    -0.744 OA
ENDBRANCH  62  66
ENDBRANCH  45  59
BRANCH  46  70
ATOM     70  C   UNL A   1      47.041  27.193  26.256  1.00  0.00     0.023 A 
ATOM     71  C   UNL A   1      48.064  26.534  26.953  1.00  0.00     0.031 A 
ATOM     72  C   UNL A   1      47.190  27.371  24.868  1.00  0.00     0.131 A 
ATOM     73  C   UNL A   1      49.198  26.083  26.260  1.00  0.00     0.055 A 
ATOM     74  C   UNL A   1      48.298  26.880  24.178  1.00  0.00     0.041 A 
ATOM     75  F   UNL A   1      46.235  27.991  24.157  1.00  0.00    -0.206 F 
ATOM     76  C   UNL A   1      49.314  26.235  24.876  1.00  0.00     0.022 A 
BRANCH  73  77
ATOM     77  S   UNL A   1      50.538  25.305  27.201  1.00  0.00     0.124 S 
ATOM     78  O   UNL A   1      51.451  24.905  26.137  1.00  0.00    -0.237 OA
ATOM     79  O   UNL A   1      50.988  26.400  28.054  1.00  0.00    -0.237 OA
ATOM     80  O   UNL A   1      49.871  24.208  27.898  1.00  0.00    -0.744 OA
ENDBRANCH  73  77
ENDBRANCH  46  70
BRANCH  58  81
ATOM     81  C   UNL A   1      45.224  33.182  29.343  1.00  0.00     0.023 A 
ATOM     82  C   UNL A   1      45.198  34.272  28.458  1.00  0.00     0.031 A 
ATOM     83  C   UNL A   1      45.974  33.301  30.526  1.00  0.00     0.131 A 
ATOM     84  C   UNL A   1      45.947  35.422  28.751  1.00  0.00     0.055 A 
ATOM     85  C   UNL A   1      46.674  34.466  30.837  1.00  0.00     0.041 A 
ATOM     86  F   UNL A   1      46.032  32.285  31.403  1.00  0.00    -0.206 F 
ATOM     87  C   UNL A   1      46.670  35.532  29.942  1.00  0.00     0.022 A 
BRANCH  84  88
ATOM     88  S   UNL A   1      46.015  36.754  27.522  1.00  0.00     0.124 S 
ATOM     89  O   UNL A   1      44.754  36.572  26.810  1.00  0.00    -0.237 OA
ATOM     90  O   UNL A   1      46.108  37.948  28.358  1.00  0.00    -0.237 OA
ATOM     91  O   UNL A   1      47.216  36.446  26.748  1.00  0.00    -0.744 OA
ENDBRANCH  84  88
ENDBRANCH  58  81
ENDBRANCH  32  33
ENDBRANCH  25  27
ENDBRANCH  24  25
ENDBRANCH  23  24
ENDBRANCH   1  23
TORSDOF 17
ENDMDL
MODEL 2
REMARK VINA RESULT:     -12.0      1.624      2.161
REMARK SMILES Cc1cccc(CS(=O)(=O)c2ccc(C(=O)OCCOC(=O)c3ccc(-c4c5nc(c(-c6cc(S(=O)(=O)[O-])ccc6F)c6ccc([nH]6)c(-c6cc(S(=O)(=O)[O-])ccc6F)c6nc(c(-c7cc(S(=O)(=O)[O-])ccc7F)c7ccc4[nH]7)C=C6)C=C5)cc3)cc2F)n1
REMARK SMILES IDX 18 1 17 2 15 3 16 4 14 5 11 6 12 7 87 8 13 9 86 10 88 11
REMARK SMILES IDX 8 12 9 13 10 14 7 15 6 16 1 17 2 18 3 19 89 20 4 21 5 22
REMARK SMILES IDX 19 23 20 24 21 25 22 26 23 27 24 28 85 29 25 30 84 31 26 32
REMARK SMILES IDX 27 33 28 34 78 35 29 36 83 37 77 38 79 39 30 40 82 41 76 42
REMARK SMILES IDX 75 43 31 45 63 46 43 47 62 48 44 49 47 50 61 51 80 52 45 53
REMARK SMILES IDX 46 54 60 56 81 57 48 58 32 59 33 60 41 61 34 62 40 63 42 64
REMARK SMILES IDX 39 65 35 66 36 67 37 68 38 69 64 70 65 71 73 72 66 73 72 74
REMARK SMILES IDX 74 75 71 76 67 77 68 78 69 79 70 80 49 81 50 82 58 83 51 84
REMARK SMILES IDX 57 85 59 86 56 87 52 88 53 89 54 90 55 91
REMARK H PARENT 79 44 47 55
REMARK Flexibility Score: inf
ROOT
ATOM      1  C   UNL A   1      34.734  21.335  24.933  1.00  0.00     0.275 C 
ENDROOT
BRANCH   1   2
ATOM      2  O   UNL A   1      34.573  21.895  23.612  1.00  0.00    -0.458 OA
BRANCH   2   3
ATOM      3  C   UNL A   1      35.285  23.029  23.384  1.00  0.00     0.338 C 
ATOM      4  O   UNL A   1      36.408  23.093  22.927  1.00  0.00    -0.246 OA
BRANCH   3   5
ATOM      5  C   UNL A   1      34.480  24.244  23.664  1.00  0.00     0.063 A 
ATOM      6  C   UNL A   1      32.948  26.580  24.003  1.00  0.00     0.103 A 
ATOM      7  C   UNL A   1      32.859  25.849  22.821  1.00  0.00     0.024 A 
ATOM      8  C   UNL A   1      33.835  26.155  24.996  1.00  0.00     0.142 A 
ATOM      9  C   UNL A   1      33.623  24.696  22.653  1.00  0.00     0.017 A 
ATOM     10  C   UNL A   1      34.591  24.984  24.841  1.00  0.00     0.056 A 
ATOM     11  F   UNL A   1      34.051  26.872  26.105  1.00  0.00    -0.206 F 
BRANCH   6  12
ATOM     12  S   UNL A   1      32.102  28.138  24.133  1.00  0.00     0.186 S 
ATOM     13  O   UNL A   1      33.125  29.123  24.436  1.00  0.00    -0.223 OA
ATOM     14  O   UNL A   1      31.022  27.952  25.092  1.00  0.00    -0.223 OA
BRANCH  12  15
ATOM     15  C   UNL A   1      31.282  28.515  22.603  1.00  0.00     0.198 C 
BRANCH  15  16
ATOM     16  C   UNL A   1      29.908  29.096  22.754  1.00  0.00     0.056 A 
ATOM     17  C   UNL A   1      28.436  32.473  22.954  1.00  0.00     0.067 C 
ATOM     18  C   UNL A   1      28.537  30.977  22.962  1.00  0.00     0.038 A 
ATOM     19  C   UNL A   1      27.408  30.191  23.150  1.00  0.00     0.023 A 
ATOM     20  N   UNL A   1      29.774  30.443  22.775  1.00  0.00    -0.257 NA
ATOM     21  C   UNL A   1      27.555  28.810  23.157  1.00  0.00     0.004 A 
ATOM     22  C   UNL A   1      28.817  28.253  22.964  1.00  0.00     0.025 A 
ENDBRANCH  15  16
ENDBRANCH  12  15
ENDBRANCH   6  12
ENDBRANCH   3   5
ENDBRANCH   2   3
ENDBRANCH   1   2
BRANCH   1  23
ATOM     23  C   UNL A   1      36.112  20.694  25.100  1.00  0.00     0.275 C 
BRANCH  23  24
ATOM     24  O   UNL A   1      36.959  21.526  25.913  1.00  0.00    -0.458 OA
BRANCH  24  25
ATOM     25  C   UNL A   1      38.287  21.293  25.811  1.00  0.00     0.338 C 
ATOM     26  O   UNL A   1      38.835  20.320  25.317  1.00  0.00    -0.246 OA
BRANCH  25  27
ATOM     27  C   UNL A   1      39.035  22.435  26.361  1.00  0.00     0.060 A 
ATOM     28  C   UNL A   1      38.615  23.723  26.047  1.00  0.00     0.016 A 
ATOM     29  C   UNL A   1      40.211  22.244  27.083  1.00  0.00     0.016 A 
ATOM     30  C   UNL A   1      39.402  24.822  26.379  1.00  0.00     0.010 A 
ATOM     31  C   UNL A   1      40.938  23.358  27.524  1.00  0.00     0.010 A 
ATOM     32  C   UNL A   1      40.550  24.663  27.168  1.00  0.00    -0.014 A 
BRANCH  32  33
ATOM     33  C   UNL A   1      41.306  25.856  27.656  1.00  0.00     0.031 A 
ATOM     34  C   UNL A   1      40.632  26.910  28.498  1.00  0.00     0.074 A 
ATOM     35  C   UNL A   1      42.610  26.005  27.335  1.00  0.00     0.049 A 
ATOM     36  N   UNL A   1      41.064  28.099  28.832  1.00  0.00    -0.248 NA
ATOM     37  C   UNL A   1      39.301  26.587  29.032  1.00  0.00     0.031 C 
ATOM     38  C   UNL A   1      43.412  25.043  26.573  1.00  0.00     0.029 A 
ATOM     39  N   UNL A   1      43.496  27.021  27.606  1.00  0.00    -0.354 N 
ATOM     40  C   UNL A   1      40.044  28.686  29.573  1.00  0.00     0.074 A 
ATOM     41  C   UNL A   1      38.970  27.717  29.643  1.00  0.00     0.031 C 
ATOM     42  C   UNL A   1      44.672  25.487  26.482  1.00  0.00     0.029 A 
ATOM     43  C   UNL A   1      44.746  26.819  27.065  1.00  0.00     0.049 A 
ATOM     44  H   UNL A   1      43.260  27.816  28.136  1.00  0.00     0.167 HD
ATOM     45  C   UNL A   1      40.006  29.923  30.131  1.00  0.00     0.034 A 
ATOM     46  C   UNL A   1      45.821  27.627  26.983  1.00  0.00     0.034 A 
ATOM     47  C   UNL A   1      41.092  30.872  30.068  1.00  0.00     0.049 A 
ATOM     48  C   UNL A   1      45.732  29.018  27.543  1.00  0.00     0.074 A 
ATOM     49  C   UNL A   1      41.143  32.157  30.585  1.00  0.00     0.029 A 
ATOM     50  N   UNL A   1      42.320  30.644  29.459  1.00  0.00    -0.354 N 
ATOM     51  N   UNL A   1      44.718  29.598  28.141  1.00  0.00    -0.248 NA
ATOM     52  C   UNL A   1      46.920  29.868  27.400  1.00  0.00     0.031 C 
ATOM     53  C   UNL A   1      42.375  32.723  30.243  1.00  0.00     0.029 A 
ATOM     54  C   UNL A   1      43.127  31.766  29.580  1.00  0.00     0.049 A 
ATOM     55  H   UNL A   1      42.579  29.809  29.009  1.00  0.00     0.167 HD
ATOM     56  C   UNL A   1      45.156  30.876  28.468  1.00  0.00     0.074 A 
ATOM     57  C   UNL A   1      46.525  30.981  28.002  1.00  0.00     0.031 C 
ATOM     58  C   UNL A   1      44.486  31.868  29.106  1.00  0.00     0.034 A 
BRANCH  45  59
ATOM     59  C   UNL A   1      38.731  30.350  30.815  1.00  0.00     0.023 A 
ATOM     60  C   UNL A   1      37.704  31.015  30.127  1.00  0.00     0.031 A 
ATOM     61  C   UNL A   1      38.529  30.048  32.175  1.00  0.00     0.131 A 
ATOM     62  C   UNL A   1      36.535  31.388  30.810  1.00  0.00     0.055 A 
ATOM     63  C   UNL A   1      37.339  30.365  32.833  1.00  0.00     0.041 A 
ATOM     64  F   UNL A   1      39.486  29.429  32.884  1.00  0.00    -0.206 F 
ATOM     65  C   UNL A   1      36.335  31.046  32.151  1.00  0.00     0.022 A 
BRANCH  62  66
ATOM     66  S   UNL A   1      35.307  32.402  29.943  1.00  0.00     0.124 S 
ATOM     67  O   UNL A   1      36.116  33.543  29.519  1.00  0.00    -0.237 OA
ATOM     68  O   UNL A   1      34.855  31.512  28.881  1.00  0.00    -0.237 OA
ATOM     69  O   UNL A   1      34.315  32.698  30.975  1.00  0.00    -0.744 OA
ENDBRANCH  62  66
ENDBRANCH  45  59
BRANCH  46  70
ATOM     70  C   UNL A   1      47.049  27.155  26.285  1.00  0.00     0.023 A 
ATOM     71  C   UNL A   1      48.075  26.506  26.986  1.00  0.00     0.031 A 
ATOM     72  C   UNL A   1      47.196  27.321  24.894  1.00  0.00     0.131 A 
ATOM     73  C   UNL A   1      49.210  26.053  26.297  1.00  0.00     0.055 A 
ATOM     74  C   UNL A   1      48.305  26.828  24.208  1.00  0.00     0.041 A 
ATOM     75  F   UNL A   1      46.238  27.930  24.178  1.00  0.00    -0.206 F 
ATOM     76  C   UNL A   1      49.324  26.192  24.911  1.00  0.00     0.022 A 
BRANCH  73  77
ATOM     77  S   UNL A   1      50.554  25.288  27.243  1.00  0.00     0.124 S 
ATOM     78  O   UNL A   1      51.482  24.910  26.184  1.00  0.00    -0.237 OA
ATOM     79  O   UNL A   1      50.979  26.383  28.109  1.00  0.00    -0.237 OA
ATOM     80  O   UNL A   1      49.897  24.176  27.927  1.00  0.00    -0.744 OA
ENDBRANCH  73  77
ENDBRANCH  46  70
BRANCH  58  81
ATOM     81  C   UNL A   1      45.246  33.135  29.398  1.00  0.00     0.023 A 
ATOM     82  C   UNL A   1      45.249  34.221  28.507  1.00  0.00     0.031 A 
ATOM     83  C   UNL A   1      45.972  33.252  30.596  1.00  0.00     0.131 A 
ATOM     84  C   UNL A   1      46.001  35.366  28.812  1.00  0.00     0.055 A 
ATOM     85  C   UNL A   1      46.675  34.413  30.917  1.00  0.00     0.041 A 
ATOM     86  F   UNL A   1      46.002  32.240  31.478  1.00  0.00    -0.206 F 
ATOM     87  C   UNL A   1      46.700  35.475  30.017  1.00  0.00     0.022 A 
BRANCH  84  88
ATOM     88  S   UNL A   1      46.107  36.692  27.579  1.00  0.00     0.124 S 
ATOM     89  O   UNL A   1      46.717  37.771  28.348  1.00  0.00    -0.237 OA
ATOM     90  O   UNL A   1      46.946  36.093  26.545  1.00  0.00    -0.237 OA
ATOM     91  O   UNL A   1      44.715  36.914  27.194  1.00  0.00    -0.744 OA
ENDBRANCH  84  88
ENDBRANCH  58  81
ENDBRANCH  32  33
ENDBRANCH  25  27
ENDBRANCH  24  25
ENDBRANCH  23  24
ENDBRANCH   1  23
TORSDOF 17
ENDMDL
MODEL 3
REMARK VINA RESULT:     -11.9      1.594      1.891
REMARK SMILES Cc1cccc(CS(=O)(=O)c2ccc(C(=O)OCCOC(=O)c3ccc(-c4c5nc(c(-c6cc(S(=O)(=O)[O-])ccc6F)c6ccc([nH]6)c(-c6cc(S(=O)(=O)[O-])ccc6F)c6nc(c(-c7cc(S(=O)(=O)[O-])ccc7F)c7ccc4[nH]7)C=C6)C=C5)cc3)cc2F)n1
REMARK SMILES IDX 18 1 17 2 15 3 16 4 14 5 11 6 12 7 87 8 13 9 86 10 88 11
REMARK SMILES IDX 8 12 9 13 10 14 7 15 6 16 1 17 2 18 3 19 89 20 4 21 5 22
REMARK SMILES IDX 19 23 20 24 21 25 22 26 23 27 24 28 85 29 25 30 84 31 26 32
REMARK SMILES IDX 27 33 28 34 78 35 29 36 83 37 77 38 79 39 30 40 82 41 76 42
REMARK SMILES IDX 75 43 31 45 63 46 43 47 62 48 44 49 47 50 61 51 80 52 45 53
REMARK SMILES IDX 46 54 60 56 81 57 48 58 32 59 33 60 41 61 34 62 40 63 42 64
REMARK SMILES IDX 39 65 35 66 36 67 37 68 38 69 64 70 65 71 73 72 66 73 72 74
REMARK SMILES IDX 74 75 71 76 67 77 68 78 69 79 70 80 49 81 50 82 58 83 51 84
REMARK SMILES IDX 57 85 59 86 56 87 52 88 53 89 54 90 55 91
REMARK H PARENT 79 44 47 55
REMARK Flexibility Score: inf
ROOT
ATOM      1  C   UNL A   1      34.900  20.258  25.055  1.00  0.00     0.275 C 
ENDROOT
BRANCH   1   2
ATOM      2  O   UNL A   1      34.138  20.908  24.013  1.00  0.00    -0.458 OA
BRANCH   2   3
ATOM      3  C   UNL A   1      33.001  21.518  24.437  1.00  0.00     0.338 C 
ATOM      4  O   UNL A   1      32.171  21.048  25.188  1.00  0.00    -0.246 OA
BRANCH   3   5
ATOM      5  C   UNL A   1      32.920  22.917  23.951  1.00  0.00     0.063 A 
ATOM      6  C   UNL A   1      32.961  25.579  23.038  1.00  0.00     0.103 A 
ATOM      7  C   UNL A   1      34.045  24.739  22.798  1.00  0.00     0.024 A 
ATOM      8  C   UNL A   1      31.875  25.089  23.769  1.00  0.00     0.142 A 
ATOM      9  C   UNL A   1      34.025  23.423  23.256  1.00  0.00     0.017 A 
ATOM     10  C   UNL A   1      31.840  23.760  24.215  1.00  0.00     0.056 A 
ATOM     11  F   UNL A   1      30.853  25.876  24.130  1.00  0.00    -0.206 F 
BRANCH   6  12
ATOM     12  S   UNL A   1      33.073  27.298  22.601  1.00  0.00     0.186 S 
ATOM     13  O   UNL A   1      31.705  27.773  22.497  1.00  0.00    -0.223 OA
ATOM     14  O   UNL A   1      33.921  27.379  21.420  1.00  0.00    -0.223 OA
BRANCH  12  15
ATOM     15  C   UNL A   1      33.966  28.187  23.854  1.00  0.00     0.198 C 
BRANCH  15  16
ATOM     16  C   UNL A   1      33.168  28.514  25.080  1.00  0.00     0.056 A 
ATOM     17  C   UNL A   1      31.450  31.481  26.444  1.00  0.00     0.067 C 
ATOM     18  C   UNL A   1      31.994  30.087  26.349  1.00  0.00     0.038 A 
ATOM     19  C   UNL A   1      31.796  29.177  27.379  1.00  0.00     0.023 A 
ATOM     20  N   UNL A   1      32.677  29.769  25.217  1.00  0.00    -0.257 NA
ATOM     21  C   UNL A   1      32.326  27.900  27.247  1.00  0.00     0.004 A 
ATOM     22  C   UNL A   1      33.025  27.563  26.091  1.00  0.00     0.025 A 
ENDBRANCH  15  16
ENDBRANCH  12  15
ENDBRANCH   6  12
ENDBRANCH   3   5
ENDBRANCH   2   3
ENDBRANCH   1   2
BRANCH   1  23
ATOM     23  C   UNL A   1      35.701  21.273  25.872  1.00  0.00     0.275 C 
BRANCH  23  24
ATOM     24  O   UNL A   1      36.832  21.745  25.117  1.00  0.00    -0.458 OA
BRANCH  24  25
ATOM     25  C   UNL A   1      38.042  21.306  25.533  1.00  0.00     0.338 C 
ATOM     26  O   UNL A   1      38.488  20.172  25.455  1.00  0.00    -0.246 OA
BRANCH  25  27
ATOM     27  C   UNL A   1      38.815  22.430  26.084  1.00  0.00     0.060 A 
ATOM     28  C   UNL A   1      38.390  23.727  25.817  1.00  0.00     0.016 A 
ATOM     29  C   UNL A   1      40.015  22.216  26.758  1.00  0.00     0.016 A 
ATOM     30  C   UNL A   1      39.195  24.815  26.147  1.00  0.00     0.010 A 
ATOM     31  C   UNL A   1      40.763  23.316  27.200  1.00  0.00     0.010 A 
ATOM     32  C   UNL A   1      40.369  24.631  26.890  1.00  0.00    -0.014 A 
BRANCH  32  33
ATOM     33  C   UNL A   1      41.149  25.808  27.380  1.00  0.00     0.031 A 
ATOM     34  C   UNL A   1      40.516  26.835  28.285  1.00  0.00     0.074 A 
ATOM     35  C   UNL A   1      42.436  25.968  27.003  1.00  0.00     0.049 A 
ATOM     36  N   UNL A   1      40.965  28.013  28.637  1.00  0.00    -0.248 NA
ATOM     37  C   UNL A   1      39.210  26.495  28.869  1.00  0.00     0.031 C 
ATOM     38  C   UNL A   1      43.201  25.030  26.176  1.00  0.00     0.029 A 
ATOM     39  N   UNL A   1      43.336  26.974  27.265  1.00  0.00    -0.354 N 
ATOM     40  C   UNL A   1      39.981  28.576  29.442  1.00  0.00     0.074 A 
ATOM     41  C   UNL A   1      38.909  27.605  29.531  1.00  0.00     0.031 C 
ATOM     42  C   UNL A   1      44.456  25.477  26.040  1.00  0.00     0.029 A 
ATOM     43  C   UNL A   1      44.559  26.790  26.661  1.00  0.00     0.049 A 
ATOM     44  H   UNL A   1      43.125  27.752  27.830  1.00  0.00     0.167 HD
ATOM     45  C   UNL A   1      39.970  29.795  30.039  1.00  0.00     0.034 A 
ATOM     46  C   UNL A   1      45.630  27.601  26.555  1.00  0.00     0.034 A 
ATOM     47  C   UNL A   1      41.053  30.746  29.956  1.00  0.00     0.049 A 
ATOM     48  C   UNL A   1      45.569  28.973  27.161  1.00  0.00     0.074 A 
ATOM     49  C   UNL A   1      41.130  32.013  30.510  1.00  0.00     0.029 A 
ATOM     50  N   UNL A   1      42.251  30.537  29.284  1.00  0.00    -0.354 N 
ATOM     51  N   UNL A   1      44.585  29.534  27.824  1.00  0.00    -0.248 NA
ATOM     52  C   UNL A   1      46.750  29.827  26.990  1.00  0.00     0.031 C 
ATOM     53  C   UNL A   1      42.345  32.590  30.130  1.00  0.00     0.029 A 
ATOM     54  C   UNL A   1      43.064  31.655  29.402  1.00  0.00     0.049 A 
ATOM     55  H   UNL A   1      42.489  29.716  28.797  1.00  0.00     0.167 HD
ATOM     56  C   UNL A   1      45.039  30.801  28.170  1.00  0.00     0.074 A 
ATOM     57  C   UNL A   1      46.385  30.921  27.645  1.00  0.00     0.031 C 
ATOM     58  C   UNL A   1      44.400  31.772  28.870  1.00  0.00     0.034 A 
BRANCH  45  59
ATOM     59  C   UNL A   1      38.729  30.200  30.795  1.00  0.00     0.023 A 
ATOM     60  C   UNL A   1      37.690  30.924  30.188  1.00  0.00     0.031 A 
ATOM     61  C   UNL A   1      38.569  29.817  32.140  1.00  0.00     0.131 A 
ATOM     62  C   UNL A   1      36.554  31.273  30.935  1.00  0.00     0.055 A 
ATOM     63  C   UNL A   1      37.411  30.112  32.860  1.00  0.00     0.041 A 
ATOM     64  F   UNL A   1      39.539  29.139  32.775  1.00  0.00    -0.206 F 
ATOM     65  C   UNL A   1      36.396  30.851  32.258  1.00  0.00     0.022 A 
BRANCH  62  66
ATOM     66  S   UNL A   1      35.315  32.360  30.178  1.00  0.00     0.124 S 
ATOM     67  O   UNL A   1      34.403  32.588  31.297  1.00  0.00    -0.237 OA
ATOM     68  O   UNL A   1      36.113  33.508  29.763  1.00  0.00    -0.237 OA
ATOM     69  O   UNL A   1      34.769  31.552  29.090  1.00  0.00    -0.744 OA
ENDBRANCH  62  66
ENDBRANCH  45  59
BRANCH  46  70
ATOM     70  C   UNL A   1      46.824  27.151  25.785  1.00  0.00     0.023 A 
ATOM     71  C   UNL A   1      47.028  27.566  24.462  1.00  0.00     0.031 A 
ATOM     72  C   UNL A   1      47.793  26.320  26.379  1.00  0.00     0.131 A 
ATOM     73  C   UNL A   1      48.174  27.143  23.770  1.00  0.00     0.055 A 
ATOM     74  C   UNL A   1      48.951  25.940  25.702  1.00  0.00     0.041 A 
ATOM     75  F   UNL A   1      47.644  25.901  27.646  1.00  0.00    -0.206 F 
ATOM     76  C   UNL A   1      49.145  26.349  24.386  1.00  0.00     0.022 A 
BRANCH  73  77
ATOM     77  S   UNL A   1      48.371  27.632  22.036  1.00  0.00     0.124 S 
ATOM     78  O   UNL A   1      48.591  26.344  21.389  1.00  0.00    -0.237 OA
ATOM     79  O   UNL A   1      47.095  28.282  21.754  1.00  0.00    -0.237 OA
ATOM     80  O   UNL A   1      49.529  28.524  22.065  1.00  0.00    -0.744 OA
ENDBRANCH  73  77
ENDBRANCH  46  70
BRANCH  58  81
ATOM     81  C   UNL A   1      45.174  33.029  29.166  1.00  0.00     0.023 A 
ATOM     82  C   UNL A   1      45.166  34.130  28.293  1.00  0.00     0.031 A 
ATOM     83  C   UNL A   1      45.927  33.122  30.350  1.00  0.00     0.131 A 
ATOM     84  C   UNL A   1      45.931  35.265  28.600  1.00  0.00     0.055 A 
ATOM     85  C   UNL A   1      46.644  34.273  30.674  1.00  0.00     0.041 A 
ATOM     86  F   UNL A   1      45.970  32.096  31.214  1.00  0.00    -0.206 F 
ATOM     87  C   UNL A   1      46.657  35.350  29.792  1.00  0.00     0.022 A 
BRANCH  84  88
ATOM     88  S   UNL A   1      46.019  36.611  27.388  1.00  0.00     0.124 S 
ATOM     89  O   UNL A   1      47.276  37.259  27.747  1.00  0.00    -0.237 OA
ATOM     90  O   UNL A   1      46.014  35.890  26.118  1.00  0.00    -0.237 OA
ATOM     91  O   UNL A   1      44.816  37.396  27.659  1.00  0.00    -0.744 OA
ENDBRANCH  84  88
ENDBRANCH  58  81
ENDBRANCH  32  33
ENDBRANCH  25  27
ENDBRANCH  24  25
ENDBRANCH  23  24
ENDBRANCH   1  23
TORSDOF 17
ENDMDL
