MODEL 1
REMARK VINA RESULT:     -11.1      0.000      0.000
REMARK SMILES CC[C@@H](C)[C@@H](NC(N)=O)C(=O)N1CCC[C@H](C(=O)OCCOC(=O)c2ccc(-c3c4nc(c(-c5cc(S(=O)(=O)[O-])ccc5F)c5ccc([nH]5)c(-c5cc(S(=O)(=O)[O-])ccc5F)c5nc(c(-c6cc(S(=O)(=O)[O-])ccc6F)c6ccc3[nH]6)C=C5)C=C4)cc2)C1
REMARK SMILES IDX 20 1 19 2 17 3 18 4 16 5 12 6 13 7 88 8 14 9 15 10 10 11
REMARK SMILES IDX 11 12 5 13 3 14 4 15 2 16 1 17 6 18 7 19 8 21 9 22 21 25
REMARK SMILES IDX 22 26 23 27 24 28 25 29 26 30 87 31 27 32 86 33 28 34 29 35
REMARK SMILES IDX 30 36 80 37 31 38 85 39 79 40 81 41 32 42 84 43 78 44 77 45
REMARK SMILES IDX 33 47 65 48 45 49 64 50 46 51 49 52 63 53 82 54 47 55 48 56
REMARK SMILES IDX 62 58 83 59 50 60 34 61 35 62 43 63 36 64 42 65 44 66 41 67
REMARK SMILES IDX 37 68 38 69 39 70 40 71 66 72 67 73 75 74 68 75 74 76 76 77
REMARK SMILES IDX 73 78 69 79 70 80 71 81 72 82 51 83 52 84 60 85 53 86 59 87
REMARK SMILES IDX 61 88 58 89 54 90 55 91 56 92 57 93
REMARK H PARENT 6 20 8 23 8 24 81 46 49 57
REMARK Flexibility Score: inf
ROOT
ATOM      1  C   UNL A   1      35.469  22.393  26.137  1.00  0.00     0.274 C 
ENDROOT
BRANCH   1   2
ATOM      2  O   UNL A   1      34.282  22.828  25.447  1.00  0.00    -0.462 OA
BRANCH   2   3
ATOM      3  C   UNL A   1      34.362  23.078  24.119  1.00  0.00     0.310 C 
ATOM      4  O   UNL A   1      35.196  23.807  23.593  1.00  0.00    -0.252 OA
BRANCH   3   5
ATOM      5  C   UNL A   1      33.269  22.383  23.314  1.00  0.00     0.119 C 
ATOM      6  N   UNL A   1      32.304  24.436  22.446  1.00  0.00    -0.340 N 
ATOM      7  C   UNL A   1      31.030  24.265  23.132  1.00  0.00     0.119 C 
ATOM      8  C   UNL A   1      32.964  23.200  22.061  1.00  0.00     0.134 C 
ATOM      9  C   UNL A   1      31.120  23.335  24.340  1.00  0.00     0.022 C 
ATOM     10  C   UNL A   1      31.973  22.087  24.081  1.00  0.00     0.019 C 
BRANCH   6  11
ATOM     11  C   UNL A   1      32.939  25.675  22.464  1.00  0.00     0.245 C 
ATOM     12  O   UNL A   1      33.790  25.962  21.615  1.00  0.00    -0.272 OA
BRANCH  11  13
ATOM     13  C   UNL A   1      32.515  26.722  23.551  1.00  0.00     0.176 C 
BRANCH  13  14
ATOM     14  C   UNL A   1      33.432  26.812  24.804  1.00  0.00     0.018 C 
ATOM     15  C   UNL A   1      32.784  26.173  26.038  1.00  0.00     0.010 C 
BRANCH  14  16
ATOM     16  C   UNL A   1      33.821  28.280  25.121  1.00  0.00     0.002 C 
ATOM     17  C   UNL A   1      34.130  28.507  26.597  1.00  0.00     0.004 C 
ENDBRANCH  14  16
ENDBRANCH  13  14
BRANCH  13  18
ATOM     18  N   UNL A   1      32.367  28.027  22.892  1.00  0.00    -0.326 N 
ATOM     19  C   UNL A   1      31.141  28.498  22.535  1.00  0.00     0.312 C 
ATOM     20  H   UNL A   1      33.167  28.570  22.707  1.00  0.00     0.166 HD
ATOM     21  N   UNL A   1      31.189  29.703  21.926  1.00  0.00    -0.352 N 
ATOM     22  O   UNL A   1      30.080  27.913  22.696  1.00  0.00    -0.249 OA
ATOM     23  H   UNL A   1      32.053  30.160  21.806  1.00  0.00     0.161 HD
ATOM     24  H   UNL A   1      30.360  30.126  21.604  1.00  0.00     0.161 HD
ENDBRANCH  13  18
ENDBRANCH  11  13
ENDBRANCH   6  11
ENDBRANCH   3   5
ENDBRANCH   2   3
ENDBRANCH   1   2
BRANCH   1  25
ATOM     25  C   UNL A   1      36.138  21.246  25.381  1.00  0.00     0.275 C 
BRANCH  25  26
ATOM     26  O   UNL A   1      37.429  21.648  24.889  1.00  0.00    -0.458 OA
BRANCH  26  27
ATOM     27  C   UNL A   1      38.476  21.233  25.640  1.00  0.00     0.338 C 
ATOM     28  O   UNL A   1      38.905  20.099  25.753  1.00  0.00    -0.246 OA
BRANCH  27  29
ATOM     29  C   UNL A   1      39.162  22.409  26.190  1.00  0.00     0.060 A 
ATOM     30  C   UNL A   1      38.725  23.667  25.772  1.00  0.00     0.016 A 
ATOM     31  C   UNL A   1      40.260  22.282  27.040  1.00  0.00     0.016 A 
ATOM     32  C   UNL A   1      39.382  24.813  26.195  1.00  0.00     0.010 A 
ATOM     33  C   UNL A   1      40.922  23.437  27.467  1.00  0.00     0.010 A 
ATOM     34  C   UNL A   1      40.493  24.706  27.035  1.00  0.00    -0.014 A 
BRANCH  34  35
ATOM     35  C   UNL A   1      41.250  25.930  27.383  1.00  0.00     0.031 A 
ATOM     36  C   UNL A   1      40.612  26.959  28.269  1.00  0.00     0.074 A 
ATOM     37  C   UNL A   1      42.516  26.082  26.951  1.00  0.00     0.049 A 
ATOM     38  N   UNL A   1      41.059  28.133  28.631  1.00  0.00    -0.248 NA
ATOM     39  C   UNL A   1      39.292  26.617  28.820  1.00  0.00     0.031 C 
ATOM     40  C   UNL A   1      43.254  25.105  26.147  1.00  0.00     0.029 A 
ATOM     41  N   UNL A   1      43.405  27.109  27.129  1.00  0.00    -0.354 N 
ATOM     42  C   UNL A   1      40.067  28.682  29.435  1.00  0.00     0.074 A 
ATOM     43  C   UNL A   1      38.987  27.719  29.488  1.00  0.00     0.031 C 
ATOM     44  C   UNL A   1      44.485  25.582  25.903  1.00  0.00     0.029 A 
ATOM     45  C   UNL A   1      44.603  26.918  26.482  1.00  0.00     0.049 A 
ATOM     46  H   UNL A   1      43.205  27.907  27.670  1.00  0.00     0.167 HD
ATOM     47  C   UNL A   1      40.062  29.882  30.068  1.00  0.00     0.034 A 
ATOM     48  C   UNL A   1      45.658  27.743  26.343  1.00  0.00     0.034 A 
ATOM     49  C   UNL A   1      41.154  30.824  29.996  1.00  0.00     0.049 A 
ATOM     50  C   UNL A   1      45.598  29.103  26.990  1.00  0.00     0.074 A 
ATOM     51  C   UNL A   1      41.257  32.074  30.583  1.00  0.00     0.029 A 
ATOM     52  N   UNL A   1      42.334  30.620  29.290  1.00  0.00    -0.354 N 
ATOM     53  N   UNL A   1      44.638  29.633  27.714  1.00  0.00    -0.248 NA
ATOM     54  C   UNL A   1      46.762  29.977  26.801  1.00  0.00     0.031 C 
ATOM     55  C   UNL A   1      42.470  32.648  30.182  1.00  0.00     0.029 A 
ATOM     56  C   UNL A   1      43.158  31.729  29.405  1.00  0.00     0.049 A 
ATOM     57  H   UNL A   1      42.552  29.806  28.781  1.00  0.00     0.167 HD
ATOM     58  C   UNL A   1      45.093  30.896  28.082  1.00  0.00     0.074 A 
ATOM     59  C   UNL A   1      46.421  31.037  27.519  1.00  0.00     0.031 C 
ATOM     60  C   UNL A   1      44.473  31.854  28.819  1.00  0.00     0.034 A 
BRANCH  47  61
ATOM     61  C   UNL A   1      38.813  30.258  30.826  1.00  0.00     0.023 A 
ATOM     62  C   UNL A   1      37.778  31.001  30.233  1.00  0.00     0.031 A 
ATOM     63  C   UNL A   1      38.677  29.906  32.181  1.00  0.00     0.131 A 
ATOM     64  C   UNL A   1      36.688  31.426  31.009  1.00  0.00     0.055 A 
ATOM     65  C   UNL A   1      37.556  30.268  32.929  1.00  0.00     0.041 A 
ATOM     66  F   UNL A   1      39.646  29.218  32.808  1.00  0.00    -0.206 F 
ATOM     67  C   UNL A   1      36.559  31.046  32.347  1.00  0.00     0.022 A 
BRANCH  64  68
ATOM     68  S   UNL A   1      35.511  32.602  30.284  1.00  0.00     0.124 S 
ATOM     69  O   UNL A   1      36.235  33.864  30.414  1.00  0.00    -0.237 OA
ATOM     70  O   UNL A   1      35.352  32.093  28.927  1.00  0.00    -0.237 OA
ATOM     71  O   UNL A   1      34.332  32.478  31.139  1.00  0.00    -0.744 OA
ENDBRANCH  64  68
ENDBRANCH  47  61
BRANCH  48  72
ATOM     72  C   UNL A   1      46.831  27.339  25.516  1.00  0.00     0.023 A 
ATOM     73  C   UNL A   1      46.997  27.816  24.206  1.00  0.00     0.031 A 
ATOM     74  C   UNL A   1      47.781  26.429  26.011  1.00  0.00     0.131 A 
ATOM     75  C   UNL A   1      48.065  27.349  23.423  1.00  0.00     0.055 A 
ATOM     76  C   UNL A   1      48.870  26.008  25.248  1.00  0.00     0.041 A 
ATOM     77  F   UNL A   1      47.668  25.940  27.257  1.00  0.00    -0.206 F 
ATOM     78  C   UNL A   1      49.010  26.459  23.940  1.00  0.00     0.022 A 
BRANCH  75  79
ATOM     79  S   UNL A   1      48.159  27.864  21.686  1.00  0.00     0.124 S 
ATOM     80  O   UNL A   1      48.318  26.585  21.004  1.00  0.00    -0.237 OA
ATOM     81  O   UNL A   1      46.878  28.536  21.501  1.00  0.00    -0.237 OA
ATOM     82  O   UNL A   1      49.330  28.739  21.654  1.00  0.00    -0.744 OA
ENDBRANCH  75  79
ENDBRANCH  48  72
BRANCH  60  83
ATOM     83  C   UNL A   1      45.253  33.118  29.078  1.00  0.00     0.023 A 
ATOM     84  C   UNL A   1      46.043  33.274  30.230  1.00  0.00     0.031 A 
ATOM     85  C   UNL A   1      45.180  34.191  28.172  1.00  0.00     0.131 A 
ATOM     86  C   UNL A   1      46.679  34.499  30.479  1.00  0.00     0.055 A 
ATOM     87  C   UNL A   1      45.865  35.386  28.395  1.00  0.00     0.041 A 
ATOM     88  F   UNL A   1      44.439  34.096  27.058  1.00  0.00    -0.206 F 
ATOM     89  C   UNL A   1      46.608  35.551  29.561  1.00  0.00     0.022 A 
BRANCH  86  90
ATOM     90  S   UNL A   1      47.522  34.736  32.067  1.00  0.00     0.124 S 
ATOM     91  O   UNL A   1      47.355  33.429  32.696  1.00  0.00    -0.237 OA
ATOM     92  O   UNL A   1      48.880  35.074  31.653  1.00  0.00    -0.237 OA
ATOM     93  O   UNL A   1      46.774  35.825  32.693  1.00  0.00    -0.744 OA
ENDBRANCH  86  90
ENDBRANCH  60  83
ENDBRANCH  34  35
ENDBRANCH  27  29
ENDBRANCH  26  27
ENDBRANCH  25  26
ENDBRANCH   1  25
TORSDOF 19
ENDMDL
MODEL 2
REMARK VINA RESULT:     -11.0      2.048      2.298
REMARK SMILES CC[C@@H](C)[C@@H](NC(N)=O)C(=O)N1CCC[C@H](C(=O)OCCOC(=O)c2ccc(-c3c4nc(c(-c5cc(S(=O)(=O)[O-])ccc5F)c5ccc([nH]5)c(-c5cc(S(=O)(=O)[O-])ccc5F)c5nc(c(-c6cc(S(=O)(=O)[O-])ccc6F)c6ccc3[nH]6)C=C5)C=C4)cc2)C1
REMARK SMILES IDX 20 1 19 2 17 3 18 4 16 5 12 6 13 7 88 8 14 9 15 10 10 11
REMARK SMILES IDX 11 12 5 13 3 14 4 15 2 16 1 17 6 18 7 19 8 21 9 22 21 25
REMARK SMILES IDX 22 26 23 27 24 28 25 29 26 30 87 31 27 32 86 33 28 34 29 35
REMARK SMILES IDX 30 36 80 37 31 38 85 39 79 40 81 41 32 42 84 43 78 44 77 45
REMARK SMILES IDX 33 47 65 48 45 49 64 50 46 51 49 52 63 53 82 54 47 55 48 56
REMARK SMILES IDX 62 58 83 59 50 60 34 61 35 62 43 63 36 64 42 65 44 66 41 67
REMARK SMILES IDX 37 68 38 69 39 70 40 71 66 72 67 73 75 74 68 75 74 76 76 77
REMARK SMILES IDX 73 78 69 79 70 80 71 81 72 82 51 83 52 84 60 85 53 86 59 87
REMARK SMILES IDX 61 88 58 89 54 90 55 91 56 92 57 93
REMARK H PARENT 6 20 8 23 8 24 81 46 49 57
REMARK Flexibility Score: inf
ROOT
ATOM      1  C   UNL A   1      36.739  22.882  23.655  1.00  0.00     0.274 C 
ENDROOT
BRANCH   1   2
ATOM      2  O   UNL A   1      35.415  23.049  23.116  1.00  0.00    -0.462 OA
BRANCH   2   3
ATOM      3  C   UNL A   1      34.357  22.926  23.953  1.00  0.00     0.310 C 
ATOM      4  O   UNL A   1      34.365  23.231  25.140  1.00  0.00    -0.252 OA
BRANCH   3   5
ATOM      5  C   UNL A   1      33.130  22.324  23.278  1.00  0.00     0.119 C 
ATOM      6  N   UNL A   1      32.226  24.453  22.537  1.00  0.00    -0.340 N 
ATOM      7  C   UNL A   1      31.030  24.367  23.366  1.00  0.00     0.119 C 
ATOM      8  C   UNL A   1      32.742  23.178  22.072  1.00  0.00     0.134 C 
ATOM      9  C   UNL A   1      31.190  23.417  24.551  1.00  0.00     0.022 C 
ATOM     10  C   UNL A   1      31.912  22.114  24.189  1.00  0.00     0.019 C 
BRANCH   6  11
ATOM     11  C   UNL A   1      32.949  25.642  22.486  1.00  0.00     0.245 C 
ATOM     12  O   UNL A   1      33.823  25.815  21.630  1.00  0.00    -0.272 OA
BRANCH  11  13
ATOM     13  C   UNL A   1      32.595  26.782  23.504  1.00  0.00     0.176 C 
BRANCH  13  14
ATOM     14  C   UNL A   1      33.582  26.964  24.692  1.00  0.00     0.018 C 
ATOM     15  C   UNL A   1      33.050  26.330  25.983  1.00  0.00     0.010 C 
BRANCH  14  16
ATOM     16  C   UNL A   1      33.903  28.461  24.941  1.00  0.00     0.002 C 
ATOM     17  C   UNL A   1      33.131  29.046  26.119  1.00  0.00     0.004 C 
ENDBRANCH  14  16
ENDBRANCH  13  14
BRANCH  13  18
ATOM     18  N   UNL A   1      32.422  28.029  22.747  1.00  0.00    -0.326 N 
ATOM     19  C   UNL A   1      31.192  28.593  22.595  1.00  0.00     0.312 C 
ATOM     20  H   UNL A   1      33.207  28.464  22.343  1.00  0.00     0.166 HD
ATOM     21  N   UNL A   1      31.212  29.725  21.859  1.00  0.00    -0.352 N 
ATOM     22  O   UNL A   1      30.144  28.141  23.033  1.00  0.00    -0.249 OA
ATOM     23  H   UNL A   1      32.065  30.075  21.515  1.00  0.00     0.161 HD
ATOM     24  H   UNL A   1      30.371  30.202  21.666  1.00  0.00     0.161 HD
ENDBRANCH  13  18
ENDBRANCH  11  13
ENDBRANCH   6  11
ENDBRANCH   3   5
ENDBRANCH   2   3
ENDBRANCH   1   2
BRANCH   1  25
ATOM     25  C   UNL A   1      36.911  21.477  24.230  1.00  0.00     0.275 C 
BRANCH  25  26
ATOM     26  O   UNL A   1      37.267  21.540  25.623  1.00  0.00    -0.458 OA
BRANCH  26  27
ATOM     27  C   UNL A   1      38.548  21.201  25.897  1.00  0.00     0.338 C 
ATOM     28  O   UNL A   1      39.120  20.165  25.607  1.00  0.00    -0.246 OA
BRANCH  27  29
ATOM     29  C   UNL A   1      39.237  22.366  26.464  1.00  0.00     0.060 A 
ATOM     30  C   UNL A   1      38.727  23.630  26.162  1.00  0.00     0.016 A 
ATOM     31  C   UNL A   1      40.404  22.230  27.215  1.00  0.00     0.016 A 
ATOM     32  C   UNL A   1      39.378  24.772  26.604  1.00  0.00     0.010 A 
ATOM     33  C   UNL A   1      41.061  23.381  27.661  1.00  0.00     0.010 A 
ATOM     34  C   UNL A   1      40.557  24.656  27.345  1.00  0.00    -0.014 A 
BRANCH  34  35
ATOM     35  C   UNL A   1      41.299  25.885  27.708  1.00  0.00     0.031 A 
ATOM     36  C   UNL A   1      40.603  26.955  28.498  1.00  0.00     0.074 A 
ATOM     37  C   UNL A   1      42.598  26.006  27.380  1.00  0.00     0.049 A 
ATOM     38  N   UNL A   1      41.034  28.137  28.851  1.00  0.00    -0.248 NA
ATOM     39  C   UNL A   1      39.236  26.649  28.947  1.00  0.00     0.031 C 
ATOM     40  C   UNL A   1      43.388  24.991  26.679  1.00  0.00     0.029 A 
ATOM     41  N   UNL A   1      43.484  27.030  27.594  1.00  0.00    -0.354 N 
ATOM     42  C   UNL A   1      39.985  28.729  29.546  1.00  0.00     0.074 A 
ATOM     43  C   UNL A   1      38.891  27.780  29.544  1.00  0.00     0.031 C 
ATOM     44  C   UNL A   1      44.642  25.444  26.523  1.00  0.00     0.029 A 
ATOM     45  C   UNL A   1      44.729  26.800  27.058  1.00  0.00     0.049 A 
ATOM     46  H   UNL A   1      43.250  27.851  28.084  1.00  0.00     0.167 HD
ATOM     47  C   UNL A   1      39.945  29.952  30.130  1.00  0.00     0.034 A 
ATOM     48  C   UNL A   1      45.804  27.608  26.977  1.00  0.00     0.034 A 
ATOM     49  C   UNL A   1      41.051  30.879  30.115  1.00  0.00     0.049 A 
ATOM     50  C   UNL A   1      45.709  28.993  27.565  1.00  0.00     0.074 A 
ATOM     51  C   UNL A   1      41.123  32.149  30.660  1.00  0.00     0.029 A 
ATOM     52  N   UNL A   1      42.284  30.634  29.519  1.00  0.00    -0.354 N 
ATOM     53  N   UNL A   1      44.698  29.561  28.183  1.00  0.00    -0.248 NA
ATOM     54  C   UNL A   1      46.896  29.846  27.442  1.00  0.00     0.031 C 
ATOM     55  C   UNL A   1      42.372  32.694  30.342  1.00  0.00     0.029 A 
ATOM     56  C   UNL A   1      43.111  31.738  29.661  1.00  0.00     0.049 A 
ATOM     57  H   UNL A   1      42.533  29.798  29.063  1.00  0.00     0.167 HD
ATOM     58  C   UNL A   1      45.138  30.833  28.540  1.00  0.00     0.074 A 
ATOM     59  C   UNL A   1      46.511  30.937  28.086  1.00  0.00     0.031 C 
ATOM     60  C   UNL A   1      44.472  31.826  29.184  1.00  0.00     0.034 A 
BRANCH  47  61
ATOM     61  C   UNL A   1      38.641  30.371  30.764  1.00  0.00     0.023 A 
ATOM     62  C   UNL A   1      37.628  31.013  30.031  1.00  0.00     0.031 A 
ATOM     63  C   UNL A   1      38.428  30.166  32.139  1.00  0.00     0.131 A 
ATOM     64  C   UNL A   1      36.482  31.487  30.687  1.00  0.00     0.055 A 
ATOM     65  C   UNL A   1      37.253  30.574  32.773  1.00  0.00     0.041 A 
ATOM     66  F   UNL A   1      39.370  29.581  32.897  1.00  0.00    -0.206 F 
ATOM     67  C   UNL A   1      36.277  31.252  32.048  1.00  0.00     0.022 A 
BRANCH  64  68
ATOM     68  S   UNL A   1      35.326  32.540  29.766  1.00  0.00     0.124 S 
ATOM     69  O   UNL A   1      36.237  33.470  29.103  1.00  0.00    -0.237 OA
ATOM     70  O   UNL A   1      34.649  31.583  28.899  1.00  0.00    -0.237 OA
ATOM     71  O   UNL A   1      34.494  33.132  30.811  1.00  0.00    -0.744 OA
ENDBRANCH  64  68
ENDBRANCH  47  61
BRANCH  48  72
ATOM     72  C   UNL A   1      47.036  27.159  26.269  1.00  0.00     0.023 A 
ATOM     73  C   UNL A   1      48.054  26.468  26.944  1.00  0.00     0.031 A 
ATOM     74  C   UNL A   1      47.233  27.459  24.909  1.00  0.00     0.131 A 
ATOM     75  C   UNL A   1      49.240  26.135  26.269  1.00  0.00     0.055 A 
ATOM     76  C   UNL A   1      48.391  27.080  24.228  1.00  0.00     0.041 A 
ATOM     77  F   UNL A   1      46.293  28.121  24.216  1.00  0.00    -0.206 F 
ATOM     78  C   UNL A   1      49.409  26.424  24.912  1.00  0.00     0.022 A 
BRANCH  75  79
ATOM     79  S   UNL A   1      50.595  25.384  27.212  1.00  0.00     0.124 S 
ATOM     80  O   UNL A   1      49.910  24.301  27.907  1.00  0.00    -0.237 OA
ATOM     81  O   UNL A   1      51.516  24.987  26.154  1.00  0.00    -0.237 OA
ATOM     82  O   UNL A   1      51.062  26.477  28.064  1.00  0.00    -0.744 OA
ENDBRANCH  75  79
ENDBRANCH  48  72
BRANCH  60  83
ATOM     83  C   UNL A   1      45.245  33.090  29.460  1.00  0.00     0.023 A 
ATOM     84  C   UNL A   1      45.205  34.186  28.582  1.00  0.00     0.031 A 
ATOM     85  C   UNL A   1      46.057  33.186  30.605  1.00  0.00     0.131 A 
ATOM     86  C   UNL A   1      46.011  35.308  28.828  1.00  0.00     0.055 A 
ATOM     87  C   UNL A   1      46.810  34.329  30.877  1.00  0.00     0.041 A 
ATOM     88  F   UNL A   1      46.133  32.168  31.475  1.00  0.00    -0.206 F 
ATOM     89  C   UNL A   1      46.800  35.393  29.978  1.00  0.00     0.022 A 
BRANCH  86  90
ATOM     90  S   UNL A   1      46.089  36.616  27.574  1.00  0.00     0.124 S 
ATOM     91  O   UNL A   1      46.383  35.857  26.363  1.00  0.00    -0.237 OA
ATOM     92  O   UNL A   1      44.755  37.202  27.650  1.00  0.00    -0.237 OA
ATOM     93  O   UNL A   1      47.173  37.478  28.044  1.00  0.00    -0.744 OA
ENDBRANCH  86  90
ENDBRANCH  60  83
ENDBRANCH  34  35
ENDBRANCH  27  29
ENDBRANCH  26  27
ENDBRANCH  25  26
ENDBRANCH   1  25
TORSDOF 19
ENDMDL
MODEL 3
REMARK VINA RESULT:     -10.9      4.800      9.850
REMARK SMILES CC[C@@H](C)[C@@H](NC(N)=O)C(=O)N1CCC[C@H](C(=O)OCCOC(=O)c2ccc(-c3c4nc(c(-c5cc(S(=O)(=O)[O-])ccc5F)c5ccc([nH]5)c(-c5cc(S(=O)(=O)[O-])ccc5F)c5nc(c(-c6cc(S(=O)(=O)[O-])ccc6F)c6ccc3[nH]6)C=C5)C=C4)cc2)C1
REMARK SMILES IDX 20 1 19 2 17 3 18 4 16 5 12 6 13 7 88 8 14 9 15 10 10 11
REMARK SMILES IDX 11 12 5 13 3 14 4 15 2 16 1 17 6 18 7 19 8 21 9 22 21 25
REMARK SMILES IDX 22 26 23 27 24 28 25 29 26 30 87 31 27 32 86 33 28 34 29 35
REMARK SMILES IDX 30 36 80 37 31 38 85 39 79 40 81 41 32 42 84 43 78 44 77 45
REMARK SMILES IDX 33 47 65 48 45 49 64 50 46 51 49 52 63 53 82 54 47 55 48 56
REMARK SMILES IDX 62 58 83 59 50 60 34 61 35 62 43 63 36 64 42 65 44 66 41 67
REMARK SMILES IDX 37 68 38 69 39 70 40 71 66 72 67 73 75 74 68 75 74 76 76 77
REMARK SMILES IDX 73 78 69 79 70 80 71 81 72 82 51 83 52 84 60 85 53 86 59 87
REMARK SMILES IDX 61 88 58 89 54 90 55 91 56 92 57 93
REMARK H PARENT 6 20 8 23 8 24 81 46 49 57
REMARK Flexibility Score: inf
ROOT
ATOM      1  C   UNL A   1      31.820  28.420  27.071  1.00  0.00     0.274 C 
ENDROOT
BRANCH   1   2
ATOM      2  O   UNL A   1      32.498  27.362  26.368  1.00  0.00    -0.462 OA
BRANCH   2   3
ATOM      3  C   UNL A   1      32.044  27.004  25.143  1.00  0.00     0.310 C 
ATOM      4  O   UNL A   1      32.683  27.112  24.102  1.00  0.00    -0.252 OA
BRANCH   3   5
ATOM      5  C   UNL A   1      30.615  26.476  25.168  1.00  0.00     0.119 C 
ATOM      6  N   UNL A   1      31.250  24.152  25.470  1.00  0.00    -0.340 N 
ATOM      7  C   UNL A   1      30.717  23.717  24.185  1.00  0.00     0.119 C 
ATOM      8  C   UNL A   1      30.539  25.259  26.086  1.00  0.00     0.134 C 
ATOM      9  C   UNL A   1      30.576  24.858  23.179  1.00  0.00     0.022 C 
ATOM     10  C   UNL A   1      30.011  26.143  23.797  1.00  0.00     0.019 C 
BRANCH   6  11
ATOM     11  C   UNL A   1      32.512  23.725  25.877  1.00  0.00     0.245 C 
ATOM     12  O   UNL A   1      32.963  24.047  26.981  1.00  0.00    -0.272 OA
BRANCH  11  13
ATOM     13  C   UNL A   1      33.329  22.783  24.927  1.00  0.00     0.176 C 
BRANCH  13  14
ATOM     14  C   UNL A   1      34.592  23.407  24.270  1.00  0.00     0.018 C 
ATOM     15  C   UNL A   1      34.542  23.329  22.739  1.00  0.00     0.010 C 
BRANCH  14  16
ATOM     16  C   UNL A   1      35.893  22.735  24.784  1.00  0.00     0.002 C 
ATOM     17  C   UNL A   1      36.658  23.606  25.776  1.00  0.00     0.004 C 
ENDBRANCH  14  16
ENDBRANCH  13  14
BRANCH  13  18
ATOM     18  N   UNL A   1      33.654  21.558  25.672  1.00  0.00    -0.326 N 
ATOM     19  C   UNL A   1      32.842  20.467  25.617  1.00  0.00     0.312 C 
ATOM     20  H   UNL A   1      34.472  21.527  26.219  1.00  0.00     0.166 HD
ATOM     21  N   UNL A   1      33.282  19.437  26.374  1.00  0.00    -0.352 N 
ATOM     22  O   UNL A   1      31.796  20.390  24.990  1.00  0.00    -0.249 OA
ATOM     23  H   UNL A   1      34.127  19.517  26.871  1.00  0.00     0.161 HD
ATOM     24  H   UNL A   1      32.757  18.605  26.426  1.00  0.00     0.161 HD
ENDBRANCH  13  18
ENDBRANCH  11  13
ENDBRANCH   6  11
ENDBRANCH   3   5
ENDBRANCH   2   3
ENDBRANCH   1   2
BRANCH   1  25
ATOM     25  C   UNL A   1      31.820  29.701  26.239  1.00  0.00     0.275 C 
BRANCH  25  26
ATOM     26  O   UNL A   1      33.150  30.241  26.140  1.00  0.00    -0.458 OA
BRANCH  26  27
ATOM     27  C   UNL A   1      33.427  31.229  27.022  1.00  0.00     0.338 C 
ATOM     28  O   UNL A   1      32.691  32.129  27.384  1.00  0.00    -0.246 OA
BRANCH  27  29
ATOM     29  C   UNL A   1      34.732  30.962  27.639  1.00  0.00     0.060 A 
ATOM     30  C   UNL A   1      35.033  29.640  27.968  1.00  0.00     0.016 A 
ATOM     31  C   UNL A   1      35.613  31.995  27.959  1.00  0.00     0.016 A 
ATOM     32  C   UNL A   1      36.217  29.333  28.623  1.00  0.00     0.010 A 
ATOM     33  C   UNL A   1      36.806  31.686  28.620  1.00  0.00     0.010 A 
ATOM     34  C   UNL A   1      37.106  30.356  28.966  1.00  0.00    -0.014 A 
BRANCH  34  35
ATOM     35  C   UNL A   1      38.306  30.024  29.766  1.00  0.00     0.031 A 
ATOM     36  C   UNL A   1      39.321  29.071  29.205  1.00  0.00     0.074 A 
ATOM     37  C   UNL A   1      38.506  30.619  30.956  1.00  0.00     0.049 A 
ATOM     38  N   UNL A   1      40.396  28.581  29.763  1.00  0.00    -0.248 NA
ATOM     39  C   UNL A   1      39.088  28.607  27.828  1.00  0.00     0.031 C 
ATOM     40  C   UNL A   1      37.618  31.618  31.557  1.00  0.00     0.029 A 
ATOM     41  N   UNL A   1      39.517  30.477  31.870  1.00  0.00    -0.354 N 
ATOM     42  C   UNL A   1      40.960  27.733  28.816  1.00  0.00     0.074 A 
ATOM     43  C   UNL A   1      40.093  27.762  27.656  1.00  0.00     0.031 C 
ATOM     44  C   UNL A   1      38.127  31.998  32.740  1.00  0.00     0.029 A 
ATOM     45  C   UNL A   1      39.341  31.231  33.006  1.00  0.00     0.049 A 
ATOM     46  H   UNL A   1      40.295  29.891  31.726  1.00  0.00     0.167 HD
ATOM     47  C   UNL A   1      42.097  27.000  28.912  1.00  0.00     0.034 A 
ATOM     48  C   UNL A   1      40.058  31.267  34.146  1.00  0.00     0.034 A 
ATOM     49  C   UNL A   1      42.942  26.990  30.082  1.00  0.00     0.049 A 
ATOM     50  C   UNL A   1      41.274  30.384  34.259  1.00  0.00     0.074 A 
ATOM     51  C   UNL A   1      44.109  26.278  30.299  1.00  0.00     0.029 A 
ATOM     52  N   UNL A   1      42.707  27.727  31.237  1.00  0.00    -0.354 N 
ATOM     53  N   UNL A   1      41.778  29.552  33.375  1.00  0.00    -0.248 NA
ATOM     54  C   UNL A   1      42.018  30.443  35.523  1.00  0.00     0.031 C 
ATOM     55  C   UNL A   1      44.545  26.538  31.604  1.00  0.00     0.029 A 
ATOM     56  C   UNL A   1      43.692  27.468  32.178  1.00  0.00     0.049 A 
ATOM     57  H   UNL A   1      41.951  28.344  31.368  1.00  0.00     0.167 HD
ATOM     58  C   UNL A   1      42.910  29.004  33.971  1.00  0.00     0.074 A 
ATOM     59  C   UNL A   1      43.025  29.617  35.280  1.00  0.00     0.031 C 
ATOM     60  C   UNL A   1      43.777  28.079  33.485  1.00  0.00     0.034 A 
BRANCH  47  61
ATOM     61  C   UNL A   1      42.440  26.104  27.747  1.00  0.00     0.023 A 
ATOM     62  C   UNL A   1      41.884  24.821  27.604  1.00  0.00     0.031 A 
ATOM     63  C   UNL A   1      43.378  26.525  26.786  1.00  0.00     0.131 A 
ATOM     64  C   UNL A   1      42.320  23.980  26.569  1.00  0.00     0.055 A 
ATOM     65  C   UNL A   1      43.753  25.712  25.716  1.00  0.00     0.041 A 
ATOM     66  F   UNL A   1      43.962  27.731  26.884  1.00  0.00    -0.206 F 
ATOM     67  C   UNL A   1      43.234  24.425  25.610  1.00  0.00     0.022 A 
BRANCH  64  68
ATOM     68  S   UNL A   1      41.783  22.247  26.573  1.00  0.00     0.124 S 
ATOM     69  O   UNL A   1      42.322  21.773  27.846  1.00  0.00    -0.237 OA
ATOM     70  O   UNL A   1      40.332  22.366  26.498  1.00  0.00    -0.237 OA
ATOM     71  O   UNL A   1      42.426  21.686  25.385  1.00  0.00    -0.744 OA
ENDBRANCH  64  68
ENDBRANCH  47  61
BRANCH  48  72
ATOM     72  C   UNL A   1      39.619  32.118  35.289  1.00  0.00     0.023 A 
ATOM     73  C   UNL A   1      38.847  31.591  36.335  1.00  0.00     0.031 A 
ATOM     74  C   UNL A   1      39.930  33.489  35.325  1.00  0.00     0.131 A 
ATOM     75  C   UNL A   1      38.377  32.437  37.353  1.00  0.00     0.055 A 
ATOM     76  C   UNL A   1      39.505  34.316  36.366  1.00  0.00     0.041 A 
ATOM     77  F   UNL A   1      40.664  34.045  34.349  1.00  0.00    -0.206 F 
ATOM     78  C   UNL A   1      38.712  33.793  37.382  1.00  0.00     0.022 A 
BRANCH  75  79
ATOM     79  S   UNL A   1      37.252  31.754  38.601  1.00  0.00     0.124 S 
ATOM     80  O   UNL A   1      36.120  32.669  38.515  1.00  0.00    -0.237 OA
ATOM     81  O   UNL A   1      37.025  30.404  38.096  1.00  0.00    -0.237 OA
ATOM     82  O   UNL A   1      38.028  31.833  39.837  1.00  0.00    -0.744 OA
ENDBRANCH  75  79
ENDBRANCH  48  72
BRANCH  60  83
ATOM     83  C   UNL A   1      44.941  27.712  34.370  1.00  0.00     0.023 A 
ATOM     84  C   UNL A   1      44.863  26.654  35.291  1.00  0.00     0.031 A 
ATOM     85  C   UNL A   1      46.134  28.454  34.311  1.00  0.00     0.131 A 
ATOM     86  C   UNL A   1      45.935  26.404  36.160  1.00  0.00     0.055 A 
ATOM     87  C   UNL A   1      47.221  28.162  35.136  1.00  0.00     0.041 A 
ATOM     88  F   UNL A   1      46.261  29.476  33.451  1.00  0.00    -0.206 F 
ATOM     89  C   UNL A   1      47.119  27.141  36.078  1.00  0.00     0.022 A 
BRANCH  86  90
ATOM     90  S   UNL A   1      45.726  25.166  37.468  1.00  0.00     0.124 S 
ATOM     91  O   UNL A   1      44.299  24.869  37.379  1.00  0.00    -0.237 OA
ATOM     92  O   UNL A   1      46.625  24.101  37.038  1.00  0.00    -0.237 OA
ATOM     93  O   UNL A   1      46.137  25.873  38.680  1.00  0.00    -0.744 OA
ENDBRANCH  86  90
ENDBRANCH  60  83
ENDBRANCH  34  35
ENDBRANCH  27  29
ENDBRANCH  26  27
ENDBRANCH  25  26
ENDBRANCH   1  25
TORSDOF 19
ENDMDL
