MODEL 1
REMARK VINA RESULT:     -12.4      0.000      0.000
REMARK SMILES Cc1cc2nc(NC3=[NH+][C@H](CC(=O)OCCOC(=O)c4ccc(-c5c6nc(c(-c7cc(S(=O)(=O)[O-])ccc7F)c7ccc([nH]7)c(-c7cc(S(=O)(=O)[O-])ccc7F)c7nc(c(-c8cc(S(=O)(=O)[O-])ccc8F)c8ccc5[nH]8)C=C7)C=C6)cc4)C(=O)N3)nc(C)c2cc1C
REMARK SMILES IDX 16 1 15 2 14 3 12 4 13 5 11 6 10 7 7 8 8 9 9 11 85 12 83 14
REMARK SMILES IDX 84 16 6 17 1 18 2 19 3 20 91 21 4 22 90 23 92 24 5 25 89 26
REMARK SMILES IDX 87 27 86 28 88 29 17 30 18 31 19 32 20 33 21 34 82 35 22 36
REMARK SMILES IDX 81 37 23 38 24 39 25 40 75 41 26 42 80 43 74 44 76 45 27 46
REMARK SMILES IDX 79 47 73 48 72 49 28 51 60 52 40 53 59 54 41 55 44 56 58 57
REMARK SMILES IDX 77 58 42 59 43 60 57 62 78 63 45 64 29 65 30 66 38 67 31 68
REMARK SMILES IDX 37 69 39 70 36 71 32 72 33 73 34 74 35 75 61 76 62 77 70 78
REMARK SMILES IDX 63 79 69 80 71 81 68 82 64 83 65 84 66 85 67 86 46 87 47 88
REMARK SMILES IDX 55 89 48 90 54 91 56 92 53 93 49 94 50 95 51 96 52 97
REMARK H PARENT 7 10 9 13 85 15 76 50 44 61
REMARK Flexibility Score: inf
ROOT
ATOM      1  C   UNL A   1      32.087  30.343  26.597  1.00  0.00     0.275 C 
ENDROOT
BRANCH   1   2
ATOM      2  C   UNL A   1      31.755  29.040  27.324  1.00  0.00     0.274 C 
BRANCH   2   3
ATOM      3  O   UNL A   1      32.294  27.917  26.611  1.00  0.00    -0.462 OA
BRANCH   3   4
ATOM      4  C   UNL A   1      31.422  27.049  26.046  1.00  0.00     0.310 C 
ATOM      5  O   UNL A   1      31.220  25.909  26.450  1.00  0.00    -0.252 OA
BRANCH   4   6
ATOM      6  C   UNL A   1      30.760  27.592  24.801  1.00  0.00     0.175 C 
BRANCH   6   7
ATOM      7  C   UNL A   1      31.724  27.973  23.684  1.00  0.00     0.262 C 
ATOM      8  N   UNL A   1      32.892  25.096  21.998  1.00  0.00    -0.212 N 
ATOM      9  C   UNL A   1      32.394  26.287  22.399  1.00  0.00     0.358 C 
ATOM     10  H   UNL A   1      33.192  24.986  21.067  1.00  0.00     0.270 HD
ATOM     11  N   UNL A   1      32.690  26.866  23.516  1.00  0.00    -0.263 N 
ATOM     12  N   UNL A   1      31.506  26.953  21.638  1.00  0.00    -0.211 N 
ATOM     13  H   UNL A   1      33.415  26.619  24.134  1.00  0.00     0.261 HD
ATOM     14  C   UNL A   1      31.010  27.997  22.350  1.00  0.00     0.320 C 
ATOM     15  H   UNL A   1      31.256  26.720  20.715  1.00  0.00     0.270 HD
ATOM     16  O   UNL A   1      30.104  28.732  21.998  1.00  0.00    -0.252 OA
BRANCH   8  17
ATOM     17  C   UNL A   1      32.986  24.024  22.879  1.00  0.00     0.291 A 
ATOM     18  C   UNL A   1      31.988  18.051  23.064  1.00  0.00     0.044 C 
ATOM     19  C   UNL A   1      32.482  19.349  23.642  1.00  0.00    -0.046 A 
ATOM     20  C   UNL A   1      32.403  20.499  22.835  1.00  0.00     0.033 A 
ATOM     21  C   UNL A   1      32.958  19.480  24.954  1.00  0.00    -0.047 A 
ATOM     22  C   UNL A   1      32.780  21.758  23.286  1.00  0.00     0.078 A 
ATOM     23  C   UNL A   1      33.350  20.750  25.409  1.00  0.00     0.016 A 
ATOM     24  C   UNL A   1      33.047  18.305  25.887  1.00  0.00     0.044 C 
ATOM     25  N   UNL A   1      32.664  22.791  22.457  1.00  0.00    -0.198 NA
ATOM     26  C   UNL A   1      33.260  21.898  24.582  1.00  0.00     0.022 A 
ATOM     27  C   UNL A   1      33.606  23.212  24.936  1.00  0.00     0.052 A 
ATOM     28  N   UNL A   1      33.493  24.267  24.091  1.00  0.00    -0.203 NA
ATOM     29  C   UNL A   1      34.125  23.543  26.304  1.00  0.00     0.067 C 
ENDBRANCH   8  17
ENDBRANCH   6   7
ENDBRANCH   4   6
ENDBRANCH   3   4
ENDBRANCH   2   3
ENDBRANCH   1   2
BRANCH   1  30
ATOM     30  O   UNL A   1      33.508  30.559  26.560  1.00  0.00    -0.458 OA
BRANCH  30  31
ATOM     31  C   UNL A   1      33.968  31.552  27.361  1.00  0.00     0.338 C 
ATOM     32  O   UNL A   1      33.439  32.620  27.599  1.00  0.00    -0.246 OA
BRANCH  31  33
ATOM     33  C   UNL A   1      35.200  31.089  28.012  1.00  0.00     0.060 A 
ATOM     34  C   UNL A   1      35.256  29.813  28.573  1.00  0.00     0.016 A 
ATOM     35  C   UNL A   1      36.318  31.927  28.026  1.00  0.00     0.016 A 
ATOM     36  C   UNL A   1      36.437  29.392  29.184  1.00  0.00     0.010 A 
ATOM     37  C   UNL A   1      37.499  31.501  28.626  1.00  0.00     0.010 A 
ATOM     38  C   UNL A   1      37.564  30.233  29.219  1.00  0.00    -0.014 A 
BRANCH  38  39
ATOM     39  C   UNL A   1      38.827  29.768  29.840  1.00  0.00     0.031 A 
ATOM     40  C   UNL A   1      39.259  30.288  31.181  1.00  0.00     0.074 A 
ATOM     41  C   UNL A   1      39.592  28.884  29.173  1.00  0.00     0.049 A 
ATOM     42  N   UNL A   1      40.298  29.947  31.896  1.00  0.00    -0.248 NA
ATOM     43  C   UNL A   1      38.423  31.333  31.795  1.00  0.00     0.031 C 
ATOM     44  C   UNL A   1      39.284  28.357  27.844  1.00  0.00     0.029 A 
ATOM     45  N   UNL A   1      40.772  28.271  29.511  1.00  0.00    -0.354 N 
ATOM     46  C   UNL A   1      40.238  30.722  33.048  1.00  0.00     0.074 A 
ATOM     47  C   UNL A   1      39.092  31.593  32.910  1.00  0.00     0.031 C 
ATOM     48  C   UNL A   1      40.233  27.478  27.492  1.00  0.00     0.029 A 
ATOM     49  C   UNL A   1      41.239  27.405  28.551  1.00  0.00     0.049 A 
ATOM     50  H   UNL A   1      41.239  28.436  30.362  1.00  0.00     0.167 HD
ATOM     51  C   UNL A   1      41.054  30.684  34.128  1.00  0.00     0.034 A 
ATOM     52  C   UNL A   1      42.349  26.639  28.522  1.00  0.00     0.034 A 
ATOM     53  C   UNL A   1      42.190  29.804  34.239  1.00  0.00     0.049 A 
ATOM     54  C   UNL A   1      43.254  26.630  29.729  1.00  0.00     0.074 A 
ATOM     55  C   UNL A   1      43.044  29.647  35.315  1.00  0.00     0.029 A 
ATOM     56  N   UNL A   1      42.639  28.943  33.246  1.00  0.00    -0.354 N 
ATOM     57  N   UNL A   1      43.121  27.281  30.862  1.00  0.00    -0.248 NA
ATOM     58  C   UNL A   1      44.449  25.779  29.669  1.00  0.00     0.031 C 
ATOM     59  C   UNL A   1      44.052  28.757  34.947  1.00  0.00     0.029 A 
ATOM     60  C   UNL A   1      43.779  28.283  33.673  1.00  0.00     0.049 A 
ATOM     61  H   UNL A   1      42.209  28.820  32.369  1.00  0.00     0.167 HD
ATOM     62  C   UNL A   1      44.198  26.899  31.656  1.00  0.00     0.074 A 
ATOM     63  C   UNL A   1      44.961  25.940  30.883  1.00  0.00     0.031 C 
ATOM     64  C   UNL A   1      44.526  27.311  32.907  1.00  0.00     0.034 A 
BRANCH  51  65
ATOM     65  C   UNL A   1      40.752  31.584  35.303  1.00  0.00     0.023 A 
ATOM     66  C   UNL A   1      39.649  31.315  36.136  1.00  0.00     0.031 A 
ATOM     67  C   UNL A   1      41.453  32.788  35.501  1.00  0.00     0.131 A 
ATOM     68  C   UNL A   1      39.252  32.258  37.094  1.00  0.00     0.055 A 
ATOM     69  C   UNL A   1      41.084  33.700  36.489  1.00  0.00     0.041 A 
ATOM     70  F   UNL A   1      42.507  33.099  34.727  1.00  0.00    -0.206 F 
ATOM     71  C   UNL A   1      39.968  33.444  37.281  1.00  0.00     0.022 A 
BRANCH  68  72
ATOM     72  S   UNL A   1      37.743  32.023  38.074  1.00  0.00     0.124 S 
ATOM     73  O   UNL A   1      36.864  33.052  37.520  1.00  0.00    -0.237 OA
ATOM     74  O   UNL A   1      37.377  30.648  37.746  1.00  0.00    -0.237 OA
ATOM     75  O   UNL A   1      38.176  32.252  39.448  1.00  0.00    -0.744 OA
ENDBRANCH  68  72
ENDBRANCH  51  65
BRANCH  52  76
ATOM     76  C   UNL A   1      42.602  25.775  27.332  1.00  0.00     0.023 A 
ATOM     77  C   UNL A   1      42.113  24.455  27.278  1.00  0.00     0.031 A 
ATOM     78  C   UNL A   1      43.437  26.210  26.289  1.00  0.00     0.131 A 
ATOM     79  C   UNL A   1      42.526  23.599  26.249  1.00  0.00     0.055 A 
ATOM     80  C   UNL A   1      43.784  25.376  25.224  1.00  0.00     0.041 A 
ATOM     81  F   UNL A   1      43.941  27.454  26.302  1.00  0.00    -0.206 F 
ATOM     82  C   UNL A   1      43.344  24.056  25.212  1.00  0.00     0.022 A 
BRANCH  79  83
ATOM     83  S   UNL A   1      42.134  21.827  26.299  1.00  0.00     0.124 S 
ATOM     84  O   UNL A   1      43.021  21.289  25.273  1.00  0.00    -0.237 OA
ATOM     85  O   UNL A   1      42.483  21.485  27.676  1.00  0.00    -0.237 OA
ATOM     86  O   UNL A   1      40.709  21.780  25.991  1.00  0.00    -0.744 OA
ENDBRANCH  79  83
ENDBRANCH  52  76
BRANCH  64  87
ATOM     87  C   UNL A   1      45.763  26.743  33.564  1.00  0.00     0.023 A 
ATOM     88  C   UNL A   1      45.662  25.598  34.378  1.00  0.00     0.031 A 
ATOM     89  C   UNL A   1      46.986  27.436  33.542  1.00  0.00     0.131 A 
ATOM     90  C   UNL A   1      46.740  25.218  35.186  1.00  0.00     0.055 A 
ATOM     91  C   UNL A   1      48.078  27.018  34.304  1.00  0.00     0.041 A 
ATOM     92  F   UNL A   1      47.131  28.540  32.793  1.00  0.00    -0.206 F 
ATOM     93  C   UNL A   1      47.951  25.916  35.146  1.00  0.00     0.022 A 
BRANCH  90  94
ATOM     94  S   UNL A   1      46.577  23.875  36.396  1.00  0.00     0.124 S 
ATOM     95  O   UNL A   1      45.337  23.232  35.970  1.00  0.00    -0.237 OA
ATOM     96  O   UNL A   1      47.793  23.101  36.160  1.00  0.00    -0.237 OA
ATOM     97  O   UNL A   1      46.509  24.564  37.680  1.00  0.00    -0.744 OA
ENDBRANCH  90  94
ENDBRANCH  64  87
ENDBRANCH  38  39
ENDBRANCH  31  33
ENDBRANCH  30  31
ENDBRANCH   1  30
TORSDOF 16
ENDMDL
MODEL 2
REMARK VINA RESULT:     -12.3      4.838     10.076
REMARK SMILES Cc1cc2nc(NC3=[NH+][C@H](CC(=O)OCCOC(=O)c4ccc(-c5c6nc(c(-c7cc(S(=O)(=O)[O-])ccc7F)c7ccc([nH]7)c(-c7cc(S(=O)(=O)[O-])ccc7F)c7nc(c(-c8cc(S(=O)(=O)[O-])ccc8F)c8ccc5[nH]8)C=C7)C=C6)cc4)C(=O)N3)nc(C)c2cc1C
REMARK SMILES IDX 16 1 15 2 14 3 12 4 13 5 11 6 10 7 7 8 8 9 9 11 85 12 83 14
REMARK SMILES IDX 84 16 6 17 1 18 2 19 3 20 91 21 4 22 90 23 92 24 5 25 89 26
REMARK SMILES IDX 87 27 86 28 88 29 17 30 18 31 19 32 20 33 21 34 82 35 22 36
REMARK SMILES IDX 81 37 23 38 24 39 25 40 75 41 26 42 80 43 74 44 76 45 27 46
REMARK SMILES IDX 79 47 73 48 72 49 28 51 60 52 40 53 59 54 41 55 44 56 58 57
REMARK SMILES IDX 77 58 42 59 43 60 57 62 78 63 45 64 29 65 30 66 38 67 31 68
REMARK SMILES IDX 37 69 39 70 36 71 32 72 33 73 34 74 35 75 61 76 62 77 70 78
REMARK SMILES IDX 63 79 69 80 71 81 68 82 64 83 65 84 66 85 67 86 46 87 47 88
REMARK SMILES IDX 55 89 48 90 54 91 56 92 53 93 49 94 50 95 51 96 52 97
REMARK H PARENT 7 10 9 13 85 15 76 50 44 61
REMARK Flexibility Score: inf
ROOT
ATOM      1  C   UNL A   1      37.814  20.912  24.762  1.00  0.00     0.275 C 
ENDROOT
BRANCH   1   2
ATOM      2  C   UNL A   1      36.550  20.072  24.948  1.00  0.00     0.274 C 
BRANCH   2   3
ATOM      3  O   UNL A   1      35.543  20.827  25.639  1.00  0.00    -0.462 OA
BRANCH   3   4
ATOM      4  C   UNL A   1      34.290  20.319  25.680  1.00  0.00     0.310 C 
ATOM      5  O   UNL A   1      33.412  20.705  26.444  1.00  0.00    -0.252 OA
BRANCH   4   6
ATOM      6  C   UNL A   1      34.083  19.158  24.736  1.00  0.00     0.175 C 
BRANCH   6   7
ATOM      7  C   UNL A   1      32.650  18.988  24.243  1.00  0.00     0.262 C 
ATOM      8  N   UNL A   1      31.654  21.765  22.299  1.00  0.00    -0.212 N 
ATOM      9  C   UNL A   1      31.942  20.560  22.839  1.00  0.00     0.358 C 
ATOM     10  H   UNL A   1      31.001  21.823  21.564  1.00  0.00     0.270 HD
ATOM     11  N   UNL A   1      32.051  20.333  24.107  1.00  0.00    -0.263 N 
ATOM     12  N   UNL A   1      32.166  19.490  22.055  1.00  0.00    -0.211 N 
ATOM     13  H   UNL A   1      31.787  20.937  24.839  1.00  0.00     0.261 HD
ATOM     14  C   UNL A   1      32.635  18.472  22.821  1.00  0.00     0.320 C 
ATOM     15  H   UNL A   1      32.015  19.452  21.083  1.00  0.00     0.270 HD
ATOM     16  O   UNL A   1      33.043  17.401  22.408  1.00  0.00    -0.252 OA
BRANCH   8  17
ATOM     17  C   UNL A   1      32.266  22.925  22.763  1.00  0.00     0.291 A 
ATOM     18  C   UNL A   1      30.974  28.733  23.901  1.00  0.00     0.044 C 
ATOM     19  C   UNL A   1      31.876  27.530  23.915  1.00  0.00    -0.046 A 
ATOM     20  C   UNL A   1      31.356  26.313  23.439  1.00  0.00     0.033 A 
ATOM     21  C   UNL A   1      33.218  27.575  24.321  1.00  0.00    -0.047 A 
ATOM     22  C   UNL A   1      32.116  25.154  23.357  1.00  0.00     0.078 A 
ATOM     23  C   UNL A   1      33.987  26.401  24.250  1.00  0.00     0.016 A 
ATOM     24  C   UNL A   1      33.855  28.842  24.816  1.00  0.00     0.044 C 
ATOM     25  N   UNL A   1      31.544  24.049  22.887  1.00  0.00    -0.198 NA
ATOM     26  C   UNL A   1      33.444  25.184  23.763  1.00  0.00     0.022 A 
ATOM     27  C   UNL A   1      34.122  23.961  23.633  1.00  0.00     0.052 A 
ATOM     28  N   UNL A   1      33.539  22.832  23.158  1.00  0.00    -0.203 NA
ATOM     29  C   UNL A   1      35.567  23.823  24.010  1.00  0.00     0.067 C 
ENDBRANCH   8  17
ENDBRANCH   6   7
ENDBRANCH   4   6
ENDBRANCH   3   4
ENDBRANCH   2   3
ENDBRANCH   1   2
BRANCH   1  30
ATOM     30  O   UNL A   1      38.097  21.676  25.947  1.00  0.00    -0.458 OA
BRANCH  30  31
ATOM     31  C   UNL A   1      39.338  21.509  26.467  1.00  0.00     0.338 C 
ATOM     32  O   UNL A   1      39.977  20.478  26.549  1.00  0.00    -0.246 OA
BRANCH  31  33
ATOM     33  C   UNL A   1      39.868  22.828  26.835  1.00  0.00     0.060 A 
ATOM     34  C   UNL A   1      39.376  23.976  26.214  1.00  0.00     0.016 A 
ATOM     35  C   UNL A   1      40.838  22.916  27.836  1.00  0.00     0.016 A 
ATOM     36  C   UNL A   1      39.890  25.220  26.581  1.00  0.00     0.010 A 
ATOM     37  C   UNL A   1      41.343  24.158  28.209  1.00  0.00     0.010 A 
ATOM     38  C   UNL A   1      40.880  25.319  27.576  1.00  0.00    -0.014 A 
BRANCH  38  39
ATOM     39  C   UNL A   1      41.399  26.646  27.986  1.00  0.00     0.031 A 
ATOM     40  C   UNL A   1      42.818  27.036  27.692  1.00  0.00     0.074 A 
ATOM     41  C   UNL A   1      40.581  27.489  28.644  1.00  0.00     0.049 A 
ATOM     42  N   UNL A   1      43.419  28.174  27.923  1.00  0.00    -0.248 NA
ATOM     43  C   UNL A   1      43.678  26.018  27.067  1.00  0.00     0.031 C 
ATOM     44  C   UNL A   1      39.202  27.182  29.020  1.00  0.00     0.029 A 
ATOM     45  N   UNL A   1      40.780  28.764  29.109  1.00  0.00    -0.354 N 
ATOM     46  C   UNL A   1      44.722  28.017  27.463  1.00  0.00     0.074 A 
ATOM     47  C   UNL A   1      44.840  26.654  26.993  1.00  0.00     0.031 C 
ATOM     48  C   UNL A   1      38.668  28.250  29.630  1.00  0.00     0.029 A 
ATOM     49  C   UNL A   1      39.677  29.304  29.726  1.00  0.00     0.049 A 
ATOM     50  H   UNL A   1      41.633  29.246  29.009  1.00  0.00     0.167 HD
ATOM     51  C   UNL A   1      45.713  28.938  27.418  1.00  0.00     0.034 A 
ATOM     52  C   UNL A   1      39.494  30.510  30.303  1.00  0.00     0.034 A 
ATOM     53  C   UNL A   1      45.566  30.290  27.894  1.00  0.00     0.049 A 
ATOM     54  C   UNL A   1      40.620  31.512  30.258  1.00  0.00     0.074 A 
ATOM     55  C   UNL A   1      46.491  31.317  27.839  1.00  0.00     0.029 A 
ATOM     56  N   UNL A   1      44.437  30.804  28.518  1.00  0.00    -0.354 N 
ATOM     57  N   UNL A   1      41.809  31.390  29.714  1.00  0.00    -0.248 NA
ATOM     58  C   UNL A   1      40.386  32.818  30.888  1.00  0.00     0.031 C 
ATOM     59  C   UNL A   1      45.955  32.423  28.498  1.00  0.00     0.029 A 
ATOM     60  C   UNL A   1      44.659  32.121  28.885  1.00  0.00     0.049 A 
ATOM     61  H   UNL A   1      43.603  30.306  28.675  1.00  0.00     0.167 HD
ATOM     62  C   UNL A   1      42.453  32.608  29.913  1.00  0.00     0.074 A 
ATOM     63  C   UNL A   1      41.511  33.463  30.607  1.00  0.00     0.031 C 
ATOM     64  C   UNL A   1      43.709  32.978  29.559  1.00  0.00     0.034 A 
BRANCH  51  65
ATOM     65  C   UNL A   1      47.040  28.553  26.808  1.00  0.00     0.023 A 
ATOM     66  C   UNL A   1      47.153  28.366  25.417  1.00  0.00     0.031 A 
ATOM     67  C   UNL A   1      48.144  28.216  27.613  1.00  0.00     0.131 A 
ATOM     68  C   UNL A   1      48.323  27.814  24.880  1.00  0.00     0.055 A 
ATOM     69  C   UNL A   1      49.325  27.713  27.068  1.00  0.00     0.041 A 
ATOM     70  F   UNL A   1      48.086  28.365  28.947  1.00  0.00    -0.206 F 
ATOM     71  C   UNL A   1      49.413  27.495  25.696  1.00  0.00     0.022 A 
BRANCH  68  72
ATOM     72  S   UNL A   1      48.447  27.407  23.116  1.00  0.00     0.124 S 
ATOM     73  O   UNL A   1      47.349  28.189  22.550  1.00  0.00    -0.237 OA
ATOM     74  O   UNL A   1      49.787  27.884  22.786  1.00  0.00    -0.237 OA
ATOM     75  O   UNL A   1      48.263  25.960  23.075  1.00  0.00    -0.744 OA
ENDBRANCH  68  72
ENDBRANCH  51  65
BRANCH  52  76
ATOM     76  C   UNL A   1      38.164  30.834  30.897  1.00  0.00     0.023 A 
ATOM     77  C   UNL A   1      37.190  31.530  30.156  1.00  0.00     0.031 A 
ATOM     78  C   UNL A   1      37.894  30.564  32.249  1.00  0.00     0.131 A 
ATOM     79  C   UNL A   1      36.032  31.998  30.791  1.00  0.00     0.055 A 
ATOM     80  C   UNL A   1      36.703  30.965  32.859  1.00  0.00     0.041 A 
ATOM     81  F   UNL A   1      38.796  29.916  33.003  1.00  0.00    -0.206 F 
ATOM     82  C   UNL A   1      35.773  31.704  32.133  1.00  0.00     0.022 A 
BRANCH  79  83
ATOM     83  S   UNL A   1      34.892  33.123  29.937  1.00  0.00     0.124 S 
ATOM     84  O   UNL A   1      34.271  32.242  28.954  1.00  0.00    -0.237 OA
ATOM     85  O   UNL A   1      34.026  33.556  31.032  1.00  0.00    -0.237 OA
ATOM     86  O   UNL A   1      35.768  34.156  29.395  1.00  0.00    -0.744 OA
ENDBRANCH  79  83
ENDBRANCH  52  76
BRANCH  64  87
ATOM     87  C   UNL A   1      44.183  34.375  29.894  1.00  0.00     0.023 A 
ATOM     88  C   UNL A   1      43.856  35.449  29.044  1.00  0.00     0.031 A 
ATOM     89  C   UNL A   1      45.104  34.605  30.931  1.00  0.00     0.131 A 
ATOM     90  C   UNL A   1      44.494  36.685  29.204  1.00  0.00     0.055 A 
ATOM     91  C   UNL A   1      45.692  35.855  31.123  1.00  0.00     0.041 A 
ATOM     92  F   UNL A   1      45.458  33.611  31.761  1.00  0.00    -0.206 F 
ATOM     93  C   UNL A   1      45.403  36.897  30.244  1.00  0.00     0.022 A 
BRANCH  90  94
ATOM     94  S   UNL A   1      44.253  38.026  28.004  1.00  0.00     0.124 S 
ATOM     95  O   UNL A   1      45.609  38.547  27.856  1.00  0.00    -0.237 OA
ATOM     96  O   UNL A   1      43.732  37.308  26.844  1.00  0.00    -0.237 OA
ATOM     97  O   UNL A   1      43.312  38.924  28.664  1.00  0.00    -0.744 OA
ENDBRANCH  90  94
ENDBRANCH  64  87
ENDBRANCH  38  39
ENDBRANCH  31  33
ENDBRANCH  30  31
ENDBRANCH   1  30
TORSDOF 16
ENDMDL
MODEL 3
REMARK VINA RESULT:     -12.3      1.414      2.049
REMARK SMILES Cc1cc2nc(NC3=[NH+][C@H](CC(=O)OCCOC(=O)c4ccc(-c5c6nc(c(-c7cc(S(=O)(=O)[O-])ccc7F)c7ccc([nH]7)c(-c7cc(S(=O)(=O)[O-])ccc7F)c7nc(c(-c8cc(S(=O)(=O)[O-])ccc8F)c8ccc5[nH]8)C=C7)C=C6)cc4)C(=O)N3)nc(C)c2cc1C
REMARK SMILES IDX 16 1 15 2 14 3 12 4 13 5 11 6 10 7 7 8 8 9 9 11 85 12 83 14
REMARK SMILES IDX 84 16 6 17 1 18 2 19 3 20 91 21 4 22 90 23 92 24 5 25 89 26
REMARK SMILES IDX 87 27 86 28 88 29 17 30 18 31 19 32 20 33 21 34 82 35 22 36
REMARK SMILES IDX 81 37 23 38 24 39 25 40 75 41 26 42 80 43 74 44 76 45 27 46
REMARK SMILES IDX 79 47 73 48 72 49 28 51 60 52 40 53 59 54 41 55 44 56 58 57
REMARK SMILES IDX 77 58 42 59 43 60 57 62 78 63 45 64 29 65 30 66 38 67 31 68
REMARK SMILES IDX 37 69 39 70 36 71 32 72 33 73 34 74 35 75 61 76 62 77 70 78
REMARK SMILES IDX 63 79 69 80 71 81 68 82 64 83 65 84 66 85 67 86 46 87 47 88
REMARK SMILES IDX 55 89 48 90 54 91 56 92 53 93 49 94 50 95 51 96 52 97
REMARK H PARENT 7 10 9 13 85 15 76 50 44 61
REMARK Flexibility Score: inf
ROOT
ATOM      1  C   UNL A   1      31.977  30.554  26.902  1.00  0.00     0.275 C 
ENDROOT
BRANCH   1   2
ATOM      2  C   UNL A   1      31.296  30.442  25.538  1.00  0.00     0.274 C 
BRANCH   2   3
ATOM      3  O   UNL A   1      32.025  29.546  24.686  1.00  0.00    -0.462 OA
BRANCH   3   4
ATOM      4  C   UNL A   1      31.442  29.162  23.526  1.00  0.00     0.310 C 
ATOM      5  O   UNL A   1      32.057  28.853  22.512  1.00  0.00    -0.252 OA
BRANCH   4   6
ATOM      6  C   UNL A   1      29.933  29.222  23.567  1.00  0.00     0.175 C 
BRANCH   6   7
ATOM      7  C   UNL A   1      29.233  28.139  22.753  1.00  0.00     0.262 C 
ATOM      8  N   UNL A   1      30.026  24.927  23.993  1.00  0.00    -0.212 N 
ATOM      9  C   UNL A   1      29.471  26.071  23.532  1.00  0.00     0.358 C 
ATOM     10  H   UNL A   1      29.504  24.092  23.970  1.00  0.00     0.270 HD
ATOM     11  N   UNL A   1      30.080  26.928  22.779  1.00  0.00    -0.263 N 
ATOM     12  N   UNL A   1      28.212  26.408  23.863  1.00  0.00    -0.211 N 
ATOM     13  H   UNL A   1      30.938  26.799  22.315  1.00  0.00     0.261 HD
ATOM     14  C   UNL A   1      27.973  27.680  23.453  1.00  0.00     0.320 C 
ATOM     15  H   UNL A   1      27.568  25.826  24.328  1.00  0.00     0.270 HD
ATOM     16  O   UNL A   1      26.971  28.329  23.697  1.00  0.00    -0.252 OA
BRANCH   8  17
ATOM     17  C   UNL A   1      31.320  24.911  24.501  1.00  0.00     0.291 A 
ATOM     18  C   UNL A   1      36.275  21.425  24.504  1.00  0.00     0.044 C 
ATOM     19  C   UNL A   1      35.518  22.684  24.827  1.00  0.00    -0.046 A 
ATOM     20  C   UNL A   1      34.188  22.784  24.378  1.00  0.00     0.033 A 
ATOM     21  C   UNL A   1      36.048  23.728  25.597  1.00  0.00    -0.047 A 
ATOM     22  C   UNL A   1      33.381  23.877  24.665  1.00  0.00     0.078 A 
ATOM     23  C   UNL A   1      35.238  24.840  25.881  1.00  0.00     0.016 A 
ATOM     24  C   UNL A   1      37.450  23.684  26.137  1.00  0.00     0.044 C 
ATOM     25  N   UNL A   1      32.133  23.884  24.207  1.00  0.00    -0.198 NA
ATOM     26  C   UNL A   1      33.898  24.921  25.422  1.00  0.00     0.022 A 
ATOM     27  C   UNL A   1      32.997  25.971  25.658  1.00  0.00     0.052 A 
ATOM     28  N   UNL A   1      31.725  25.984  25.188  1.00  0.00    -0.203 NA
ATOM     29  C   UNL A   1      33.387  27.170  26.472  1.00  0.00     0.067 C 
ENDBRANCH   8  17
ENDBRANCH   6   7
ENDBRANCH   4   6
ENDBRANCH   3   4
ENDBRANCH   2   3
ENDBRANCH   1   2
BRANCH   1  30
ATOM     30  O   UNL A   1      33.398  30.709  26.752  1.00  0.00    -0.458 OA
BRANCH  30  31
ATOM     31  C   UNL A   1      33.950  31.737  27.442  1.00  0.00     0.338 C 
ATOM     32  O   UNL A   1      33.494  32.852  27.605  1.00  0.00    -0.246 OA
BRANCH  31  33
ATOM     33  C   UNL A   1      35.181  31.258  28.083  1.00  0.00     0.060 A 
ATOM     34  C   UNL A   1      35.248  29.958  28.581  1.00  0.00     0.016 A 
ATOM     35  C   UNL A   1      36.288  32.109  28.149  1.00  0.00     0.016 A 
ATOM     36  C   UNL A   1      36.428  29.522  29.183  1.00  0.00     0.010 A 
ATOM     37  C   UNL A   1      37.468  31.668  28.740  1.00  0.00     0.010 A 
ATOM     38  C   UNL A   1      37.544  30.374  29.271  1.00  0.00    -0.014 A 
BRANCH  38  39
ATOM     39  C   UNL A   1      38.807  29.895  29.882  1.00  0.00     0.031 A 
ATOM     40  C   UNL A   1      39.251  30.404  31.223  1.00  0.00     0.074 A 
ATOM     41  C   UNL A   1      39.560  29.008  29.205  1.00  0.00     0.049 A 
ATOM     42  N   UNL A   1      40.291  30.050  31.929  1.00  0.00    -0.248 NA
ATOM     43  C   UNL A   1      38.428  31.453  31.848  1.00  0.00     0.031 C 
ATOM     44  C   UNL A   1      39.239  28.491  27.875  1.00  0.00     0.029 A 
ATOM     45  N   UNL A   1      40.737  28.384  29.533  1.00  0.00    -0.354 N 
ATOM     46  C   UNL A   1      40.245  30.819  33.087  1.00  0.00     0.074 A 
ATOM     47  C   UNL A   1      39.106  31.701  32.960  1.00  0.00     0.031 C 
ATOM     48  C   UNL A   1      40.179  27.606  27.513  1.00  0.00     0.029 A 
ATOM     49  C   UNL A   1      41.191  27.519  28.565  1.00  0.00     0.049 A 
ATOM     50  H   UNL A   1      41.211  28.540  30.382  1.00  0.00     0.167 HD
ATOM     51  C   UNL A   1      41.067  30.769  34.161  1.00  0.00     0.034 A 
ATOM     52  C   UNL A   1      42.294  26.744  28.526  1.00  0.00     0.034 A 
ATOM     53  C   UNL A   1      42.196  29.879  34.260  1.00  0.00     0.049 A 
ATOM     54  C   UNL A   1      43.206  26.721  29.727  1.00  0.00     0.074 A 
ATOM     55  C   UNL A   1      43.056  29.709  35.331  1.00  0.00     0.029 A 
ATOM     56  N   UNL A   1      42.632  29.019  33.260  1.00  0.00    -0.354 N 
ATOM     57  N   UNL A   1      43.085  27.366  30.864  1.00  0.00    -0.248 NA
ATOM     58  C   UNL A   1      44.393  25.860  29.655  1.00  0.00     0.031 C 
ATOM     59  C   UNL A   1      44.053  28.812  34.951  1.00  0.00     0.029 A 
ATOM     60  C   UNL A   1      43.769  28.347  33.677  1.00  0.00     0.049 A 
ATOM     61  H   UNL A   1      42.196  28.905  32.385  1.00  0.00     0.167 HD
ATOM     62  C   UNL A   1      44.165  26.971  31.650  1.00  0.00     0.074 A 
ATOM     63  C   UNL A   1      44.914  26.010  30.867  1.00  0.00     0.031 C 
ATOM     64  C   UNL A   1      44.503  27.374  32.900  1.00  0.00     0.034 A 
BRANCH  51  65
ATOM     65  C   UNL A   1      40.780  31.665  35.343  1.00  0.00     0.023 A 
ATOM     66  C   UNL A   1      39.683  31.397  36.185  1.00  0.00     0.031 A 
ATOM     67  C   UNL A   1      41.488  32.866  35.539  1.00  0.00     0.131 A 
ATOM     68  C   UNL A   1      39.300  32.337  37.150  1.00  0.00     0.055 A 
ATOM     69  C   UNL A   1      41.131  33.775  36.535  1.00  0.00     0.041 A 
ATOM     70  F   UNL A   1      42.536  33.175  34.757  1.00  0.00    -0.206 F 
ATOM     71  C   UNL A   1      40.022  33.519  37.336  1.00  0.00     0.022 A 
BRANCH  68  72
ATOM     72  S   UNL A   1      37.799  32.104  38.144  1.00  0.00     0.124 S 
ATOM     73  O   UNL A   1      37.378  30.763  37.741  1.00  0.00    -0.237 OA
ATOM     74  O   UNL A   1      38.314  32.214  39.505  1.00  0.00    -0.237 OA
ATOM     75  O   UNL A   1      36.920  33.186  37.712  1.00  0.00    -0.744 OA
ENDBRANCH  68  72
ENDBRANCH  51  65
BRANCH  52  76
ATOM     76  C   UNL A   1      42.532  25.884  27.329  1.00  0.00     0.023 A 
ATOM     77  C   UNL A   1      42.052  24.561  27.281  1.00  0.00     0.031 A 
ATOM     78  C   UNL A   1      43.347  26.328  26.274  1.00  0.00     0.131 A 
ATOM     79  C   UNL A   1      42.453  23.710  26.243  1.00  0.00     0.055 A 
ATOM     80  C   UNL A   1      43.682  25.498  25.201  1.00  0.00     0.041 A 
ATOM     81  F   UNL A   1      43.843  27.575  26.280  1.00  0.00    -0.206 F 
ATOM     82  C   UNL A   1      43.250  24.175  25.193  1.00  0.00     0.022 A 
BRANCH  79  83
ATOM     83  S   UNL A   1      42.074  21.936  26.295  1.00  0.00     0.124 S 
ATOM     84  O   UNL A   1      42.469  21.579  27.654  1.00  0.00    -0.237 OA
ATOM     85  O   UNL A   1      40.636  21.932  26.035  1.00  0.00    -0.237 OA
ATOM     86  O   UNL A   1      42.898  21.375  25.230  1.00  0.00    -0.744 OA
ENDBRANCH  79  83
ENDBRANCH  52  76
BRANCH  64  87
ATOM     87  C   UNL A   1      45.740  26.792  33.547  1.00  0.00     0.023 A 
ATOM     88  C   UNL A   1      45.627  25.673  34.396  1.00  0.00     0.031 A 
ATOM     89  C   UNL A   1      46.979  27.450  33.478  1.00  0.00     0.131 A 
ATOM     90  C   UNL A   1      46.713  25.288  35.191  1.00  0.00     0.055 A 
ATOM     91  C   UNL A   1      48.076  27.026  34.228  1.00  0.00     0.041 A 
ATOM     92  F   UNL A   1      47.136  28.528  32.694  1.00  0.00    -0.206 F 
ATOM     93  C   UNL A   1      47.940  25.952  35.105  1.00  0.00     0.022 A 
BRANCH  90  94
ATOM     94  S   UNL A   1      46.541  23.985  36.444  1.00  0.00     0.124 S 
ATOM     95  O   UNL A   1      46.037  22.867  35.651  1.00  0.00    -0.237 OA
ATOM     96  O   UNL A   1      47.913  23.840  36.924  1.00  0.00    -0.237 OA
ATOM     97  O   UNL A   1      45.594  24.542  37.404  1.00  0.00    -0.744 OA
ENDBRANCH  90  94
ENDBRANCH  64  87
ENDBRANCH  38  39
ENDBRANCH  31  33
ENDBRANCH  30  31
ENDBRANCH   1  30
TORSDOF 16
ENDMDL
