MODEL 1
REMARK VINA RESULT:     -11.1      0.000      0.000
REMARK SMILES CC[C@@](C)(NC(=O)NCCc1cscn1)C(=O)OCCOC(=O)c1ccc(-c2c3nc(c(-c4cc(S(=O)(=O)[O-])ccc4F)c4ccc([nH]4)c(-c4cc(S(=O)(=O)[O-])ccc4F)c4nc(c(-c5cc(S(=O)(=O)[O-])ccc5F)c5ccc2[nH]5)C=C4)C=C3)cc1
REMARK SMILES IDX 19 1 18 2 16 3 17 4 3 5 4 6 2 7 1 8 5 9 6 10 7 12 8 13 9 15
REMARK SMILES IDX 10 16 11 17 12 18 15 19 13 20 14 21 20 22 21 23 22 24 23 25
REMARK SMILES IDX 24 26 25 27 86 28 26 29 85 30 27 31 28 32 29 33 79 34 30 35
REMARK SMILES IDX 84 36 78 37 80 38 31 39 83 40 77 41 76 42 32 44 64 45 44 46
REMARK SMILES IDX 63 47 45 48 48 49 62 50 81 51 46 52 47 53 61 55 82 56 49 57
REMARK SMILES IDX 33 58 34 59 42 60 35 61 41 62 43 63 40 64 36 65 37 66 38 67
REMARK SMILES IDX 39 68 65 69 66 70 74 71 67 72 73 73 75 74 72 75 68 76 69 77
REMARK SMILES IDX 70 78 71 79 50 80 51 81 59 82 52 83 58 84 60 85 57 86 53 87
REMARK SMILES IDX 54 88 55 89 56 90
REMARK H PARENT 5 11 8 14 80 43 48 54
REMARK Flexibility Score: inf
ROOT
ATOM      1  C   UNL A   1      36.435  22.505  23.664  1.00  0.00     0.274 C 
ENDROOT
BRANCH   1   2
ATOM      2  O   UNL A   1      34.992  22.457  23.737  1.00  0.00    -0.460 OA
BRANCH   2   3
ATOM      3  C   UNL A   1      34.283  23.602  23.666  1.00  0.00     0.331 C 
ATOM      4  O   UNL A   1      34.212  24.254  22.632  1.00  0.00    -0.249 OA
BRANCH   3   5
ATOM      5  C   UNL A   1      33.739  24.078  25.062  1.00  0.00     0.136 C 
ATOM      6  C   UNL A   1      34.409  25.424  25.385  1.00  0.00     0.047 C 
BRANCH   5   7
ATOM      7  C   UNL A   1      32.183  24.338  24.969  1.00  0.00     0.037 C 
ATOM      8  C   UNL A   1      31.571  25.523  25.705  1.00  0.00     0.007 C 
ENDBRANCH   5   7
BRANCH   5   9
ATOM      9  N   UNL A   1      33.864  23.135  26.240  1.00  0.00    -0.322 N 
ATOM     10  C   UNL A   1      33.826  21.856  26.598  1.00  0.00     0.315 C 
ATOM     11  H   UNL A   1      34.041  23.673  27.046  1.00  0.00     0.166 HD
ATOM     12  O   UNL A   1      34.384  21.564  27.662  1.00  0.00    -0.249 OA
ATOM     13  N   UNL A   1      33.258  20.851  25.932  1.00  0.00    -0.338 N 
ATOM     14  H   UNL A   1      33.630  19.959  26.118  1.00  0.00     0.165 HD
BRANCH  13  15
ATOM     15  C   UNL A   1      32.178  20.882  24.982  1.00  0.00     0.124 C 
BRANCH  15  16
ATOM     16  C   UNL A   1      32.356  19.984  23.759  1.00  0.00     0.078 C 
BRANCH  16  17
ATOM     17  C   UNL A   1      32.707  18.570  24.126  1.00  0.00     0.053 A 
ATOM     18  C   UNL A   1      33.534  17.706  23.428  1.00  0.00     0.090 A 
ATOM     19  N   UNL A   1      32.180  18.042  25.298  1.00  0.00    -0.250 NA
ATOM     20  S   UNL A   1      33.655  16.206  24.248  1.00  0.00    -0.130 S 
ATOM     21  C   UNL A   1      32.604  16.808  25.457  1.00  0.00     0.175 A 
ENDBRANCH  16  17
ENDBRANCH  15  16
ENDBRANCH  13  15
ENDBRANCH   5   9
ENDBRANCH   3   5
ENDBRANCH   2   3
ENDBRANCH   1   2
BRANCH   1  22
ATOM     22  C   UNL A   1      37.012  21.366  24.500  1.00  0.00     0.275 C 
BRANCH  22  23
ATOM     23  O   UNL A   1      37.540  21.897  25.722  1.00  0.00    -0.458 OA
BRANCH  23  24
ATOM     24  C   UNL A   1      38.821  21.571  26.012  1.00  0.00     0.338 C 
ATOM     25  O   UNL A   1      39.447  20.583  25.671  1.00  0.00    -0.246 OA
BRANCH  24  26
ATOM     26  C   UNL A   1      39.379  22.752  26.676  1.00  0.00     0.060 A 
ATOM     27  C   UNL A   1      40.400  22.551  27.605  1.00  0.00     0.016 A 
ATOM     28  C   UNL A   1      39.000  24.033  26.293  1.00  0.00     0.016 A 
ATOM     29  C   UNL A   1      41.099  23.627  28.130  1.00  0.00     0.010 A 
ATOM     30  C   UNL A   1      39.703  25.117  26.813  1.00  0.00     0.010 A 
ATOM     31  C   UNL A   1      40.770  24.916  27.711  1.00  0.00    -0.014 A 
BRANCH  31  32
ATOM     32  C   UNL A   1      41.509  26.085  28.224  1.00  0.00     0.031 A 
ATOM     33  C   UNL A   1      40.748  27.130  28.969  1.00  0.00     0.074 A 
ATOM     34  C   UNL A   1      42.817  26.225  27.947  1.00  0.00     0.049 A 
ATOM     35  N   UNL A   1      41.070  28.365  29.233  1.00  0.00    -0.248 NA
ATOM     36  C   UNL A   1      39.423  26.722  29.458  1.00  0.00     0.031 C 
ATOM     37  C   UNL A   1      43.655  25.215  27.298  1.00  0.00     0.029 A 
ATOM     38  N   UNL A   1      43.661  27.288  28.139  1.00  0.00    -0.354 N 
ATOM     39  C   UNL A   1      39.962  28.908  29.873  1.00  0.00     0.074 A 
ATOM     40  C   UNL A   1      38.964  27.860  29.951  1.00  0.00     0.031 C 
ATOM     41  C   UNL A   1      44.883  25.723  27.109  1.00  0.00     0.029 A 
ATOM     42  C   UNL A   1      44.891  27.114  27.549  1.00  0.00     0.049 A 
ATOM     43  H   UNL A   1      43.411  28.094  28.648  1.00  0.00     0.167 HD
ATOM     44  C   UNL A   1      39.803  30.175  30.327  1.00  0.00     0.034 A 
ATOM     45  C   UNL A   1      45.878  28.003  27.320  1.00  0.00     0.034 A 
ATOM     46  C   UNL A   1      40.833  31.179  30.203  1.00  0.00     0.049 A 
ATOM     47  C   UNL A   1      45.665  29.425  27.770  1.00  0.00     0.074 A 
ATOM     48  C   UNL A   1      40.810  32.502  30.603  1.00  0.00     0.029 A 
ATOM     49  N   UNL A   1      42.079  30.963  29.618  1.00  0.00    -0.354 N 
ATOM     50  N   UNL A   1      44.604  29.960  28.333  1.00  0.00    -0.248 NA
ATOM     51  C   UNL A   1      46.771  30.364  27.554  1.00  0.00     0.031 C 
ATOM     52  C   UNL A   1      42.011  33.100  30.200  1.00  0.00     0.029 A 
ATOM     53  C   UNL A   1      42.820  32.133  29.621  1.00  0.00     0.049 A 
ATOM     54  H   UNL A   1      42.388  30.102  29.253  1.00  0.00     0.167 HD
ATOM     55  C   UNL A   1      44.922  31.294  28.561  1.00  0.00     0.074 A 
ATOM     56  C   UNL A   1      46.278  31.480  28.075  1.00  0.00     0.031 C 
ATOM     57  C   UNL A   1      44.171  32.278  29.123  1.00  0.00     0.034 A 
BRANCH  44  58
ATOM     58  C   UNL A   1      38.445  30.536  30.883  1.00  0.00     0.023 A 
ATOM     59  C   UNL A   1      37.422  31.057  30.071  1.00  0.00     0.031 A 
ATOM     60  C   UNL A   1      38.211  30.470  32.268  1.00  0.00     0.131 A 
ATOM     61  C   UNL A   1      36.267  31.599  30.658  1.00  0.00     0.055 A 
ATOM     62  C   UNL A   1      37.017  30.919  32.837  1.00  0.00     0.041 A 
ATOM     63  F   UNL A   1      39.155  30.008  33.101  1.00  0.00    -0.206 F 
ATOM     64  C   UNL A   1      36.047  31.512  32.034  1.00  0.00     0.022 A 
BRANCH  61  65
ATOM     65  S   UNL A   1      35.163  32.605  29.626  1.00  0.00     0.124 S 
ATOM     66  O   UNL A   1      34.663  31.613  28.677  1.00  0.00    -0.237 OA
ATOM     67  O   UNL A   1      34.198  33.107  30.596  1.00  0.00    -0.237 OA
ATOM     68  O   UNL A   1      36.054  33.610  29.051  1.00  0.00    -0.744 OA
ENDBRANCH  61  65
ENDBRANCH  44  58
BRANCH  45  69
ATOM     69  C   UNL A   1      47.093  27.590  26.561  1.00  0.00     0.023 A 
ATOM     70  C   UNL A   1      47.194  27.787  25.175  1.00  0.00     0.031 A 
ATOM     71  C   UNL A   1      48.191  27.008  27.225  1.00  0.00     0.131 A 
ATOM     72  C   UNL A   1      48.361  27.393  24.497  1.00  0.00     0.055 A 
ATOM     73  C   UNL A   1      49.364  26.660  26.553  1.00  0.00     0.041 A 
ATOM     74  F   UNL A   1      48.150  26.800  28.552  1.00  0.00    -0.206 F 
ATOM     75  C   UNL A   1      49.451  26.847  25.178  1.00  0.00     0.022 A 
BRANCH  72  76
ATOM     76  S   UNL A   1      48.423  27.571  22.692  1.00  0.00     0.124 S 
ATOM     77  O   UNL A   1      48.492  26.180  22.258  1.00  0.00    -0.237 OA
ATOM     78  O   UNL A   1      47.174  28.270  22.412  1.00  0.00    -0.237 OA
ATOM     79  O   UNL A   1      49.636  28.355  22.468  1.00  0.00    -0.744 OA
ENDBRANCH  72  76
ENDBRANCH  45  69
BRANCH  57  80
ATOM     80  C   UNL A   1      44.830  33.622  29.297  1.00  0.00     0.023 A 
ATOM     81  C   UNL A   1      44.795  34.604  28.294  1.00  0.00     0.031 A 
ATOM     82  C   UNL A   1      45.482  33.926  30.506  1.00  0.00     0.131 A 
ATOM     83  C   UNL A   1      45.435  35.834  28.505  1.00  0.00     0.055 A 
ATOM     84  C   UNL A   1      46.067  35.170  30.731  1.00  0.00     0.041 A 
ATOM     85  F   UNL A   1      45.545  33.019  31.495  1.00  0.00    -0.206 F 
ATOM     86  C   UNL A   1      46.052  36.131  29.723  1.00  0.00     0.022 A 
BRANCH  83  87
ATOM     87  S   UNL A   1      45.505  37.027  27.140  1.00  0.00     0.124 S 
ATOM     88  O   UNL A   1      46.220  36.272  26.117  1.00  0.00    -0.237 OA
ATOM     89  O   UNL A   1      44.093  37.284  26.874  1.00  0.00    -0.237 OA
ATOM     90  O   UNL A   1      46.242  38.154  27.708  1.00  0.00    -0.744 OA
ENDBRANCH  83  87
ENDBRANCH  57  80
ENDBRANCH  31  32
ENDBRANCH  24  26
ENDBRANCH  23  24
ENDBRANCH  22  23
ENDBRANCH   1  22
TORSDOF 19
ENDMDL
MODEL 2
REMARK VINA RESULT:     -11.0      5.325     10.230
REMARK SMILES CC[C@@](C)(NC(=O)NCCc1cscn1)C(=O)OCCOC(=O)c1ccc(-c2c3nc(c(-c4cc(S(=O)(=O)[O-])ccc4F)c4ccc([nH]4)c(-c4cc(S(=O)(=O)[O-])ccc4F)c4nc(c(-c5cc(S(=O)(=O)[O-])ccc5F)c5ccc2[nH]5)C=C4)C=C3)cc1
REMARK SMILES IDX 19 1 18 2 16 3 17 4 3 5 4 6 2 7 1 8 5 9 6 10 7 12 8 13 9 15
REMARK SMILES IDX 10 16 11 17 12 18 15 19 13 20 14 21 20 22 21 23 22 24 23 25
REMARK SMILES IDX 24 26 25 27 86 28 26 29 85 30 27 31 28 32 29 33 79 34 30 35
REMARK SMILES IDX 84 36 78 37 80 38 31 39 83 40 77 41 76 42 32 44 64 45 44 46
REMARK SMILES IDX 63 47 45 48 48 49 62 50 81 51 46 52 47 53 61 55 82 56 49 57
REMARK SMILES IDX 33 58 34 59 42 60 35 61 41 62 43 63 40 64 36 65 37 66 38 67
REMARK SMILES IDX 39 68 65 69 66 70 74 71 67 72 73 73 75 74 72 75 68 76 69 77
REMARK SMILES IDX 70 78 71 79 50 80 51 81 59 82 52 83 58 84 60 85 57 86 53 87
REMARK SMILES IDX 54 88 55 89 56 90
REMARK H PARENT 5 11 8 14 80 43 48 54
REMARK Flexibility Score: inf
ROOT
ATOM      1  C   UNL A   1      33.102  29.082  24.952  1.00  0.00     0.274 C 
ENDROOT
BRANCH   1   2
ATOM      2  O   UNL A   1      33.301  27.701  25.331  1.00  0.00    -0.460 OA
BRANCH   2   3
ATOM      3  C   UNL A   1      33.503  26.771  24.376  1.00  0.00     0.331 C 
ATOM      4  O   UNL A   1      33.656  27.075  23.200  1.00  0.00    -0.249 OA
BRANCH   3   5
ATOM      5  C   UNL A   1      33.335  25.300  24.903  1.00  0.00     0.136 C 
ATOM      6  C   UNL A   1      33.212  24.380  23.677  1.00  0.00     0.047 C 
BRANCH   5   7
ATOM      7  C   UNL A   1      34.633  24.862  25.690  1.00  0.00     0.037 C 
ATOM      8  C   UNL A   1      35.734  24.098  24.966  1.00  0.00     0.007 C 
ENDBRANCH   5   7
BRANCH   5   9
ATOM      9  N   UNL A   1      32.219  25.013  25.886  1.00  0.00    -0.322 N 
ATOM     10  C   UNL A   1      30.934  24.686  25.983  1.00  0.00     0.315 C 
ATOM     11  H   UNL A   1      32.582  25.101  26.796  1.00  0.00     0.166 HD
ATOM     12  O   UNL A   1      30.574  24.182  27.053  1.00  0.00    -0.249 OA
ATOM     13  N   UNL A   1      29.993  24.835  25.052  1.00  0.00    -0.338 N 
ATOM     14  H   UNL A   1      29.225  24.225  25.128  1.00  0.00     0.165 HD
BRANCH  13  15
ATOM     15  C   UNL A   1      29.937  25.761  23.953  1.00  0.00     0.124 C 
BRANCH  15  16
ATOM     16  C   UNL A   1      28.714  26.677  23.929  1.00  0.00     0.078 C 
BRANCH  16  17
ATOM     17  C   UNL A   1      28.965  27.956  23.183  1.00  0.00     0.053 A 
ATOM     18  C   UNL A   1      28.027  28.911  22.825  1.00  0.00     0.090 A 
ATOM     19  N   UNL A   1      30.268  28.261  22.813  1.00  0.00    -0.250 NA
ATOM     20  S   UNL A   1      28.787  30.213  22.008  1.00  0.00    -0.130 S 
ATOM     21  C   UNL A   1      30.292  29.416  22.185  1.00  0.00     0.175 A 
ENDBRANCH  16  17
ENDBRANCH  15  16
ENDBRANCH  13  15
ENDBRANCH   5   9
ENDBRANCH   3   5
ENDBRANCH   2   3
ENDBRANCH   1   2
BRANCH   1  22
ATOM     22  C   UNL A   1      32.032  29.693  25.853  1.00  0.00     0.275 C 
BRANCH  22  23
ATOM     23  O   UNL A   1      32.611  30.014  27.124  1.00  0.00    -0.458 OA
BRANCH  23  24
ATOM     24  C   UNL A   1      33.190  31.233  27.228  1.00  0.00     0.338 C 
ATOM     25  O   UNL A   1      32.672  32.330  27.115  1.00  0.00    -0.246 OA
BRANCH  24  26
ATOM     26  C   UNL A   1      34.554  30.974  27.697  1.00  0.00     0.060 A 
ATOM     27  C   UNL A   1      35.404  32.069  27.851  1.00  0.00     0.016 A 
ATOM     28  C   UNL A   1      34.941  29.703  28.104  1.00  0.00     0.016 A 
ATOM     29  C   UNL A   1      36.639  31.923  28.464  1.00  0.00     0.010 A 
ATOM     30  C   UNL A   1      36.177  29.552  28.725  1.00  0.00     0.010 A 
ATOM     31  C   UNL A   1      37.018  30.665  28.930  1.00  0.00    -0.014 A 
BRANCH  31  32
ATOM     32  C   UNL A   1      38.311  30.474  29.614  1.00  0.00     0.031 A 
ATOM     33  C   UNL A   1      39.305  29.548  28.997  1.00  0.00     0.074 A 
ATOM     34  C   UNL A   1      38.535  31.064  30.801  1.00  0.00     0.049 A 
ATOM     35  N   UNL A   1      40.343  28.967  29.529  1.00  0.00    -0.248 NA
ATOM     36  C   UNL A   1      39.070  29.215  27.585  1.00  0.00     0.031 C 
ATOM     37  C   UNL A   1      37.653  32.047  31.434  1.00  0.00     0.029 A 
ATOM     38  N   UNL A   1      39.552  30.893  31.704  1.00  0.00    -0.354 N 
ATOM     39  C   UNL A   1      40.861  28.149  28.533  1.00  0.00     0.074 A 
ATOM     40  C   UNL A   1      40.014  28.314  27.369  1.00  0.00     0.031 C 
ATOM     41  C   UNL A   1      38.147  32.361  32.643  1.00  0.00     0.029 A 
ATOM     42  C   UNL A   1      39.329  31.544  32.896  1.00  0.00     0.049 A 
ATOM     43  H   UNL A   1      40.358  30.359  31.519  1.00  0.00     0.167 HD
ATOM     44  C   UNL A   1      41.933  27.323  28.609  1.00  0.00     0.034 A 
ATOM     45  C   UNL A   1      39.964  31.429  34.080  1.00  0.00     0.034 A 
ATOM     46  C   UNL A   1      42.728  27.191  29.807  1.00  0.00     0.049 A 
ATOM     47  C   UNL A   1      41.113  30.460  34.172  1.00  0.00     0.074 A 
ATOM     48  C   UNL A   1      43.830  26.389  30.035  1.00  0.00     0.029 A 
ATOM     49  N   UNL A   1      42.487  27.882  30.993  1.00  0.00    -0.354 N 
ATOM     50  N   UNL A   1      41.581  29.647  33.250  1.00  0.00    -0.248 NA
ATOM     51  C   UNL A   1      41.819  30.386  35.456  1.00  0.00     0.031 C 
ATOM     52  C   UNL A   1      44.212  26.544  31.374  1.00  0.00     0.029 A 
ATOM     53  C   UNL A   1      43.402  27.505  31.962  1.00  0.00     0.049 A 
ATOM     54  H   UNL A   1      41.770  28.544  31.123  1.00  0.00     0.167 HD
ATOM     55  C   UNL A   1      42.652  28.979  33.835  1.00  0.00     0.074 A 
ATOM     56  C   UNL A   1      42.761  29.490  35.190  1.00  0.00     0.031 C 
ATOM     57  C   UNL A   1      43.476  28.037  33.306  1.00  0.00     0.034 A 
BRANCH  44  58
ATOM     58  C   UNL A   1      42.211  26.451  27.407  1.00  0.00     0.023 A 
ATOM     59  C   UNL A   1      41.722  25.135  27.312  1.00  0.00     0.031 A 
ATOM     60  C   UNL A   1      43.077  26.901  26.394  1.00  0.00     0.131 A 
ATOM     61  C   UNL A   1      42.195  24.283  26.301  1.00  0.00     0.055 A 
ATOM     62  C   UNL A   1      43.465  26.078  25.334  1.00  0.00     0.041 A 
ATOM     63  F   UNL A   1      43.599  28.136  26.438  1.00  0.00    -0.206 F 
ATOM     64  C   UNL A   1      43.045  24.752  25.297  1.00  0.00     0.022 A 
BRANCH  61  65
ATOM     65  S   UNL A   1      41.854  22.505  26.440  1.00  0.00     0.124 S 
ATOM     66  O   UNL A   1      40.393  22.487  26.461  1.00  0.00    -0.237 OA
ATOM     67  O   UNL A   1      42.483  21.969  25.239  1.00  0.00    -0.237 OA
ATOM     68  O   UNL A   1      42.491  22.132  27.701  1.00  0.00    -0.744 OA
ENDBRANCH  61  65
ENDBRANCH  44  58
BRANCH  45  69
ATOM     69  C   UNL A   1      39.465  32.177  35.269  1.00  0.00     0.023 A 
ATOM     70  C   UNL A   1      39.903  33.481  35.552  1.00  0.00     0.031 A 
ATOM     71  C   UNL A   1      38.517  31.599  36.135  1.00  0.00     0.131 A 
ATOM     72  C   UNL A   1      39.402  34.157  36.678  1.00  0.00     0.055 A 
ATOM     73  C   UNL A   1      37.990  32.293  37.226  1.00  0.00     0.041 A 
ATOM     74  F   UNL A   1      38.061  30.356  35.910  1.00  0.00    -0.206 F 
ATOM     75  C   UNL A   1      38.437  33.578  37.506  1.00  0.00     0.022 A 
BRANCH  72  76
ATOM     76  S   UNL A   1      40.058  35.803  37.070  1.00  0.00     0.124 S 
ATOM     77  O   UNL A   1      39.680  36.565  35.884  1.00  0.00    -0.237 OA
ATOM     78  O   UNL A   1      39.344  36.130  38.299  1.00  0.00    -0.237 OA
ATOM     79  O   UNL A   1      41.492  35.568  37.230  1.00  0.00    -0.744 OA
ENDBRANCH  72  76
ENDBRANCH  45  69
BRANCH  57  80
ATOM     80  C   UNL A   1      44.602  27.550  34.180  1.00  0.00     0.023 A 
ATOM     81  C   UNL A   1      44.486  26.393  34.968  1.00  0.00     0.031 A 
ATOM     82  C   UNL A   1      45.822  28.249  34.197  1.00  0.00     0.131 A 
ATOM     83  C   UNL A   1      45.563  25.991  35.772  1.00  0.00     0.055 A 
ATOM     84  C   UNL A   1      46.908  27.812  34.954  1.00  0.00     0.041 A 
ATOM     85  F   UNL A   1      45.982  29.362  33.462  1.00  0.00    -0.206 F 
ATOM     86  C   UNL A   1      46.779  26.681  35.754  1.00  0.00     0.022 A 
BRANCH  83  87
ATOM     87  S   UNL A   1      45.337  24.583  36.893  1.00  0.00     0.124 S 
ATOM     88  O   UNL A   1      44.375  23.766  36.161  1.00  0.00    -0.237 OA
ATOM     89  O   UNL A   1      46.688  24.042  36.995  1.00  0.00    -0.237 OA
ATOM     90  O   UNL A   1      44.824  25.198  38.116  1.00  0.00    -0.744 OA
ENDBRANCH  83  87
ENDBRANCH  57  80
ENDBRANCH  31  32
ENDBRANCH  24  26
ENDBRANCH  23  24
ENDBRANCH  22  23
ENDBRANCH   1  22
TORSDOF 19
ENDMDL
MODEL 3
REMARK VINA RESULT:     -10.8      1.863      2.134
REMARK SMILES CC[C@@](C)(NC(=O)NCCc1cscn1)C(=O)OCCOC(=O)c1ccc(-c2c3nc(c(-c4cc(S(=O)(=O)[O-])ccc4F)c4ccc([nH]4)c(-c4cc(S(=O)(=O)[O-])ccc4F)c4nc(c(-c5cc(S(=O)(=O)[O-])ccc5F)c5ccc2[nH]5)C=C4)C=C3)cc1
REMARK SMILES IDX 19 1 18 2 16 3 17 4 3 5 4 6 2 7 1 8 5 9 6 10 7 12 8 13 9 15
REMARK SMILES IDX 10 16 11 17 12 18 15 19 13 20 14 21 20 22 21 23 22 24 23 25
REMARK SMILES IDX 24 26 25 27 86 28 26 29 85 30 27 31 28 32 29 33 79 34 30 35
REMARK SMILES IDX 84 36 78 37 80 38 31 39 83 40 77 41 76 42 32 44 64 45 44 46
REMARK SMILES IDX 63 47 45 48 48 49 62 50 81 51 46 52 47 53 61 55 82 56 49 57
REMARK SMILES IDX 33 58 34 59 42 60 35 61 41 62 43 63 40 64 36 65 37 66 38 67
REMARK SMILES IDX 39 68 65 69 66 70 74 71 67 72 73 73 75 74 72 75 68 76 69 77
REMARK SMILES IDX 70 78 71 79 50 80 51 81 59 82 52 83 58 84 60 85 57 86 53 87
REMARK SMILES IDX 54 88 55 89 56 90
REMARK H PARENT 5 11 8 14 80 43 48 54
REMARK Flexibility Score: inf
ROOT
ATOM      1  C   UNL A   1      36.290  22.594  23.752  1.00  0.00     0.274 C 
ENDROOT
BRANCH   1   2
ATOM      2  O   UNL A   1      34.846  22.582  23.690  1.00  0.00    -0.460 OA
BRANCH   2   3
ATOM      3  C   UNL A   1      34.174  23.748  23.596  1.00  0.00     0.331 C 
ATOM      4  O   UNL A   1      34.180  24.416  22.570  1.00  0.00    -0.249 OA
BRANCH   3   5
ATOM      5  C   UNL A   1      33.565  24.220  24.966  1.00  0.00     0.136 C 
ATOM      6  C   UNL A   1      34.096  25.636  25.245  1.00  0.00     0.047 C 
BRANCH   5   7
ATOM      7  C   UNL A   1      31.993  24.325  24.845  1.00  0.00     0.037 C 
ATOM      8  C   UNL A   1      31.221  25.229  25.796  1.00  0.00     0.007 C 
ENDBRANCH   5   7
BRANCH   5   9
ATOM      9  N   UNL A   1      33.763  23.338  26.181  1.00  0.00    -0.322 N 
ATOM     10  C   UNL A   1      33.802  22.076  26.594  1.00  0.00     0.315 C 
ATOM     11  H   UNL A   1      33.921  23.920  26.959  1.00  0.00     0.166 HD
ATOM     12  O   UNL A   1      34.393  21.863  27.659  1.00  0.00    -0.249 OA
ATOM     13  N   UNL A   1      33.282  21.012  25.982  1.00  0.00    -0.338 N 
ATOM     14  H   UNL A   1      33.707  20.152  26.200  1.00  0.00     0.165 HD
BRANCH  13  15
ATOM     15  C   UNL A   1      32.188  20.941  25.052  1.00  0.00     0.124 C 
BRANCH  15  16
ATOM     16  C   UNL A   1      32.418  20.043  23.838  1.00  0.00     0.078 C 
BRANCH  16  17
ATOM     17  C   UNL A   1      32.726  18.623  24.219  1.00  0.00     0.053 A 
ATOM     18  C   UNL A   1      33.499  17.717  23.511  1.00  0.00     0.090 A 
ATOM     19  N   UNL A   1      32.218  18.135  25.416  1.00  0.00    -0.250 NA
ATOM     20  S   UNL A   1      33.589  16.227  24.354  1.00  0.00    -0.130 S 
ATOM     21  C   UNL A   1      32.600  16.889  25.585  1.00  0.00     0.175 A 
ENDBRANCH  16  17
ENDBRANCH  15  16
ENDBRANCH  13  15
ENDBRANCH   5   9
ENDBRANCH   3   5
ENDBRANCH   2   3
ENDBRANCH   1   2
BRANCH   1  22
ATOM     22  C   UNL A   1      36.762  21.374  24.539  1.00  0.00     0.275 C 
BRANCH  22  23
ATOM     23  O   UNL A   1      37.358  21.806  25.769  1.00  0.00    -0.458 OA
BRANCH  23  24
ATOM     24  C   UNL A   1      38.657  21.474  25.954  1.00  0.00     0.338 C 
ATOM     25  O   UNL A   1      39.255  20.496  25.540  1.00  0.00    -0.246 OA
BRANCH  24  26
ATOM     26  C   UNL A   1      39.264  22.636  26.607  1.00  0.00     0.060 A 
ATOM     27  C   UNL A   1      40.316  22.406  27.493  1.00  0.00     0.016 A 
ATOM     28  C   UNL A   1      38.896  23.929  26.253  1.00  0.00     0.016 A 
ATOM     29  C   UNL A   1      41.057  23.462  28.001  1.00  0.00     0.010 A 
ATOM     30  C   UNL A   1      39.639  24.993  26.756  1.00  0.00     0.010 A 
ATOM     31  C   UNL A   1      40.737  24.761  27.610  1.00  0.00    -0.014 A 
BRANCH  31  32
ATOM     32  C   UNL A   1      41.518  25.910  28.105  1.00  0.00     0.031 A 
ATOM     33  C   UNL A   1      40.803  26.972  28.871  1.00  0.00     0.074 A 
ATOM     34  C   UNL A   1      42.821  26.018  27.793  1.00  0.00     0.049 A 
ATOM     35  N   UNL A   1      41.163  28.197  29.129  1.00  0.00    -0.248 NA
ATOM     36  C   UNL A   1      39.482  26.596  29.394  1.00  0.00     0.031 C 
ATOM     37  C   UNL A   1      43.616  24.988  27.120  1.00  0.00     0.029 A 
ATOM     38  N   UNL A   1      43.696  27.059  27.965  1.00  0.00    -0.354 N 
ATOM     39  C   UNL A   1      40.087  28.767  29.799  1.00  0.00     0.074 A 
ATOM     40  C   UNL A   1      39.065  27.745  29.901  1.00  0.00     0.031 C 
ATOM     41  C   UNL A   1      44.851  25.466  26.900  1.00  0.00     0.029 A 
ATOM     42  C   UNL A   1      44.906  26.855  27.342  1.00  0.00     0.049 A 
ATOM     43  H   UNL A   1      43.481  27.870  28.481  1.00  0.00     0.167 HD
ATOM     44  C   UNL A   1      39.972  30.036  30.259  1.00  0.00     0.034 A 
ATOM     45  C   UNL A   1      45.909  27.720  27.089  1.00  0.00     0.034 A 
ATOM     46  C   UNL A   1      41.024  31.015  30.110  1.00  0.00     0.049 A 
ATOM     47  C   UNL A   1      45.743  29.145  27.547  1.00  0.00     0.074 A 
ATOM     48  C   UNL A   1      41.044  32.337  30.513  1.00  0.00     0.029 A 
ATOM     49  N   UNL A   1      42.247  30.768  29.492  1.00  0.00    -0.354 N 
ATOM     50  N   UNL A   1      44.711  29.706  28.139  1.00  0.00    -0.248 NA
ATOM     51  C   UNL A   1      46.867  30.056  27.303  1.00  0.00     0.031 C 
ATOM     52  C   UNL A   1      42.248  32.905  30.079  1.00  0.00     0.029 A 
ATOM     53  C   UNL A   1      43.018  31.919  29.478  1.00  0.00     0.049 A 
ATOM     54  H   UNL A   1      42.525  29.901  29.118  1.00  0.00     0.167 HD
ATOM     55  C   UNL A   1      45.069  31.031  28.360  1.00  0.00     0.074 A 
ATOM     56  C   UNL A   1      46.416  31.183  27.840  1.00  0.00     0.031 C 
ATOM     57  C   UNL A   1      44.359  32.032  28.944  1.00  0.00     0.034 A 
BRANCH  44  58
ATOM     58  C   UNL A   1      38.639  30.430  30.851  1.00  0.00     0.023 A 
ATOM     59  C   UNL A   1      37.627  31.029  30.078  1.00  0.00     0.031 A 
ATOM     60  C   UNL A   1      38.421  30.314  32.236  1.00  0.00     0.131 A 
ATOM     61  C   UNL A   1      36.506  31.593  30.707  1.00  0.00     0.055 A 
ATOM     62  C   UNL A   1      37.255  30.789  32.842  1.00  0.00     0.041 A 
ATOM     63  F   UNL A   1      39.356  29.777  33.034  1.00  0.00    -0.206 F 
ATOM     64  C   UNL A   1      36.301  31.456  32.081  1.00  0.00     0.022 A 
BRANCH  61  65
ATOM     65  S   UNL A   1      35.432  32.688  29.736  1.00  0.00     0.124 S 
ATOM     66  O   UNL A   1      35.291  31.936  28.492  1.00  0.00    -0.237 OA
ATOM     67  O   UNL A   1      34.238  32.776  30.569  1.00  0.00    -0.237 OA
ATOM     68  O   UNL A   1      36.209  33.920  29.625  1.00  0.00    -0.744 OA
ENDBRANCH  61  65
ENDBRANCH  44  58
BRANCH  45  69
ATOM     69  C   UNL A   1      47.093  27.278  26.298  1.00  0.00     0.023 A 
ATOM     70  C   UNL A   1      48.188  26.645  26.907  1.00  0.00     0.031 A 
ATOM     71  C   UNL A   1      47.134  27.465  24.902  1.00  0.00     0.131 A 
ATOM     72  C   UNL A   1      49.282  26.234  26.125  1.00  0.00     0.055 A 
ATOM     73  C   UNL A   1      48.203  27.015  24.126  1.00  0.00     0.041 A 
ATOM     74  F   UNL A   1      46.112  28.061  24.267  1.00  0.00    -0.206 F 
ATOM     75  C   UNL A   1      49.288  26.400  24.738  1.00  0.00     0.022 A 
BRANCH  72  76
ATOM     76  S   UNL A   1      50.722  25.507  26.954  1.00  0.00     0.124 S 
ATOM     77  O   UNL A   1      51.179  26.616  27.784  1.00  0.00    -0.237 OA
ATOM     78  O   UNL A   1      50.129  24.377  27.661  1.00  0.00    -0.237 OA
ATOM     79  O   UNL A   1      51.608  25.150  25.847  1.00  0.00    -0.744 OA
ENDBRANCH  72  76
ENDBRANCH  45  69
BRANCH  57  80
ATOM     80  C   UNL A   1      45.056  33.358  29.103  1.00  0.00     0.023 A 
ATOM     81  C   UNL A   1      45.834  33.659  30.232  1.00  0.00     0.031 A 
ATOM     82  C   UNL A   1      44.954  34.323  28.086  1.00  0.00     0.131 A 
ATOM     83  C   UNL A   1      46.452  34.914  30.334  1.00  0.00     0.055 A 
ATOM     84  C   UNL A   1      45.617  35.547  28.167  1.00  0.00     0.041 A 
ATOM     85  F   UNL A   1      44.220  34.084  26.987  1.00  0.00    -0.206 F 
ATOM     86  C   UNL A   1      46.366  35.851  29.300  1.00  0.00     0.022 A 
BRANCH  83  87
ATOM     87  S   UNL A   1      47.326  35.335  31.867  1.00  0.00     0.124 S 
ATOM     88  O   UNL A   1      46.468  36.374  32.427  1.00  0.00    -0.237 OA
ATOM     89  O   UNL A   1      47.339  34.063  32.582  1.00  0.00    -0.237 OA
ATOM     90  O   UNL A   1      48.633  35.796  31.401  1.00  0.00    -0.744 OA
ENDBRANCH  83  87
ENDBRANCH  57  80
ENDBRANCH  31  32
ENDBRANCH  24  26
ENDBRANCH  23  24
ENDBRANCH  22  23
ENDBRANCH   1  22
TORSDOF 19
ENDMDL
