MODEL 1
REMARK VINA RESULT:     -13.6      0.000      0.000
REMARK SMILES O=C(OCCOC(=O)[C@@H](Cc1ccc(O)cc1)Nc1c2ccccc2nc2ccccc12)c1ccc(-c2c3nc(c(-c4cc(S(=O)(=O)[O-])ccc4F)c4ccc([nH]4)c(-c4cc(S(=O)(=O)[O-])ccc4F)c4nc(c(-c5cc(S(=O)(=O)[O-])ccc5F)c5ccc2[nH]5)C=C4)C=C3)cc1
REMARK SMILES IDX 4 1 3 2 2 3 1 4 33 5 34 6 95 7 35 8 94 9 36 10 37 11 38 12
REMARK SMILES IDX 88 13 39 14 93 15 87 16 89 17 40 18 92 19 86 20 85 21 41 23
REMARK SMILES IDX 73 24 53 25 72 26 54 27 57 28 71 29 90 30 55 31 56 32 70 34
REMARK SMILES IDX 91 35 58 36 42 37 43 38 51 39 44 40 50 41 52 42 49 43 45 44
REMARK SMILES IDX 46 45 47 46 48 47 74 48 75 49 83 50 76 51 82 52 84 53 81 54
REMARK SMILES IDX 77 55 78 56 79 57 80 58 59 59 60 60 68 61 61 62 67 63 69 64
REMARK SMILES IDX 66 65 62 66 63 67 64 68 65 69 5 70 6 71 7 72 8 73 9 74 10 75
REMARK SMILES IDX 11 76 12 77 17 78 13 79 16 80 14 81 15 82 18 84 19 86 20 87
REMARK SMILES IDX 32 88 21 89 25 90 27 91 31 92 22 93 24 94 26 95 28 96 30 97
REMARK SMILES IDX 23 98 29 99
REMARK H PARENT 89 22 57 33 15 83 18 85
REMARK Flexibility Score: inf
ROOT
ATOM      1  C   UNL A   1      31.915  27.210  26.098  1.00  0.00     0.275 C 
ENDROOT
BRANCH   1   2
ATOM      2  O   UNL A   1      31.855  28.370  26.937  1.00  0.00    -0.458 OA
BRANCH   2   3
ATOM      3  C   UNL A   1      32.282  29.619  26.647  1.00  0.00     0.338 C 
ATOM      4  O   UNL A   1      31.635  30.290  25.844  1.00  0.00    -0.246 OA
BRANCH   3   5
ATOM      5  C   UNL A   1      33.574  30.201  27.121  1.00  0.00     0.060 A 
ATOM      6  C   UNL A   1      33.697  31.740  27.945  1.00  0.00     0.016 A 
ATOM      7  C   UNL A   1      34.905  29.005  27.108  1.00  0.00     0.016 A 
ATOM      8  C   UNL A   1      35.161  32.096  28.888  1.00  0.00     0.010 A 
ATOM      9  C   UNL A   1      36.389  29.192  28.044  1.00  0.00     0.010 A 
ATOM     10  C   UNL A   1      36.654  30.725  28.980  1.00  0.00    -0.014 A 
BRANCH  10  11
ATOM     11  C   UNL A   1      38.110  30.548  29.583  1.00  0.00     0.031 A 
ATOM     12  C   UNL A   1      38.329  31.081  30.977  1.00  0.00     0.074 A 
ATOM     13  C   UNL A   1      39.184  30.038  28.927  1.00  0.00     0.049 A 
ATOM     14  N   UNL A   1      39.224  30.742  31.863  1.00  0.00    -0.248 NA
ATOM     15  C   UNL A   1      37.456  32.182  31.418  1.00  0.00     0.031 C 
ATOM     16  C   UNL A   1      39.300  29.828  27.490  1.00  0.00     0.029 A 
ATOM     17  N   UNL A   1      40.295  29.377  29.416  1.00  0.00    -0.354 N 
ATOM     18  C   UNL A   1      38.980  31.552  32.964  1.00  0.00     0.074 A 
ATOM     19  C   UNL A   1      37.930  32.467  32.612  1.00  0.00     0.031 C 
ATOM     20  C   UNL A   1      40.150  28.818  27.252  1.00  0.00     0.029 A 
ATOM     21  C   UNL A   1      40.812  28.464  28.499  1.00  0.00     0.049 A 
ATOM     22  H   UNL A   1      40.676  29.534  30.310  1.00  0.00     0.167 HD
ATOM     23  C   UNL A   1      39.572  31.517  34.178  1.00  0.00     0.034 A 
ATOM     24  C   UNL A   1      41.700  27.455  28.669  1.00  0.00     0.034 A 
ATOM     25  C   UNL A   1      40.700  30.671  34.434  1.00  0.00     0.049 A 
ATOM     26  C   UNL A   1      42.351  27.397  30.029  1.00  0.00     0.074 A 
ATOM     27  C   UNL A   1      41.474  30.570  35.569  1.00  0.00     0.029 A 
ATOM     28  N   UNL A   1      41.247  29.806  33.487  1.00  0.00    -0.354 N 
ATOM     29  N   UNL A   1      42.058  28.090  31.109  1.00  0.00    -0.248 NA
ATOM     30  C   UNL A   1      43.491  26.490  30.184  1.00  0.00     0.031 C 
ATOM     31  C   UNL A   1      42.545  29.720  35.275  1.00  0.00     0.029 A 
ATOM     32  C   UNL A   1      42.370  29.193  34.000  1.00  0.00     0.049 A 
ATOM     33  H   UNL A   1      40.883  29.655  32.584  1.00  0.00     0.167 HD
ATOM     34  C   UNL A   1      42.988  27.717  32.068  1.00  0.00     0.074 A 
ATOM     35  C   UNL A   1      43.819  26.697  31.451  1.00  0.00     0.031 C 
ATOM     36  C   UNL A   1      43.160  28.184  33.332  1.00  0.00     0.034 A 
BRANCH  23  37
ATOM     37  C   UNL A   1      39.053  32.497  35.201  1.00  0.00     0.023 A 
ATOM     38  C   UNL A   1      39.527  33.826  35.247  1.00  0.00     0.031 A 
ATOM     39  C   UNL A   1      38.237  32.054  36.252  1.00  0.00     0.131 A 
ATOM     40  C   UNL A   1      39.289  34.613  36.383  1.00  0.00     0.055 A 
ATOM     41  C   UNL A   1      37.914  32.882  37.329  1.00  0.00     0.041 A 
ATOM     42  F   UNL A   1      37.797  30.787  36.289  1.00  0.00    -0.206 F 
ATOM     43  C   UNL A   1      38.460  34.160  37.412  1.00  0.00     0.022 A 
BRANCH  40  44
ATOM     44  S   UNL A   1      40.268  36.127  36.610  1.00  0.00     0.124 S 
ATOM     45  O   UNL A   1      39.654  36.698  37.808  1.00  0.00    -0.237 OA
ATOM     46  O   UNL A   1      41.622  35.613  36.774  1.00  0.00    -0.237 OA
ATOM     47  O   UNL A   1      40.029  36.878  35.379  1.00  0.00    -0.744 OA
ENDBRANCH  40  44
ENDBRANCH  23  37
BRANCH  24  48
ATOM     48  C   UNL A   1      42.085  26.490  27.571  1.00  0.00     0.023 A 
ATOM     49  C   UNL A   1      41.724  25.122  27.602  1.00  0.00     0.031 A 
ATOM     50  C   UNL A   1      42.884  26.900  26.486  1.00  0.00     0.131 A 
ATOM     51  C   UNL A   1      42.166  24.238  26.592  1.00  0.00     0.055 A 
ATOM     52  C   UNL A   1      43.251  26.040  25.446  1.00  0.00     0.041 A 
ATOM     53  F   UNL A   1      43.339  28.161  26.414  1.00  0.00    -0.206 F 
ATOM     54  C   UNL A   1      42.901  24.698  25.500  1.00  0.00     0.022 A 
BRANCH  51  55
ATOM     55  S   UNL A   1      41.880  22.447  26.767  1.00  0.00     0.124 S 
ATOM     56  O   UNL A   1      41.905  22.002  25.379  1.00  0.00    -0.237 OA
ATOM     57  O   UNL A   1      43.008  22.035  27.596  1.00  0.00    -0.237 OA
ATOM     58  O   UNL A   1      40.574  22.369  27.419  1.00  0.00    -0.744 OA
ENDBRANCH  51  55
ENDBRANCH  24  48
BRANCH  36  59
ATOM     59  C   UNL A   1      44.246  27.536  34.139  1.00  0.00     0.023 A 
ATOM     60  C   UNL A   1      44.047  26.319  34.806  1.00  0.00     0.031 A 
ATOM     61  C   UNL A   1      45.500  28.163  34.237  1.00  0.00     0.131 A 
ATOM     62  C   UNL A   1      45.066  25.809  35.617  1.00  0.00     0.055 A 
ATOM     63  C   UNL A   1      46.541  27.598  34.966  1.00  0.00     0.041 A 
ATOM     64  F   UNL A   1      45.731  29.332  33.618  1.00  0.00    -0.206 F 
ATOM     65  C   UNL A   1      46.320  26.423  35.679  1.00  0.00     0.022 A 
BRANCH  62  66
ATOM     66  S   UNL A   1      44.672  24.424  36.717  1.00  0.00     0.124 S 
ATOM     67  O   UNL A   1      43.979  25.099  37.810  1.00  0.00    -0.237 OA
ATOM     68  O   UNL A   1      43.847  23.573  35.866  1.00  0.00    -0.237 OA
ATOM     69  O   UNL A   1      45.984  23.877  37.058  1.00  0.00    -0.744 OA
ENDBRANCH  62  66
ENDBRANCH  36  59
ENDBRANCH  10  11
ENDBRANCH   3   5
ENDBRANCH   2   3
ENDBRANCH   1   2
BRANCH   1  70
ATOM     70  C   UNL A   1      31.580  25.893  26.837  1.00  0.00     0.274 C 
BRANCH  70  71
ATOM     71  O   UNL A   1      32.375  24.753  26.430  1.00  0.00    -0.461 OA
BRANCH  71  72
ATOM     72  C   UNL A   1      31.729  23.559  26.324  1.00  0.00     0.329 C 
ATOM     73  O   UNL A   1      31.284  22.953  27.294  1.00  0.00    -0.250 OA
BRANCH  72  74
ATOM     74  C   UNL A   1      31.622  23.034  24.876  1.00  0.00     0.194 C 
BRANCH  74  75
ATOM     75  C   UNL A   1      30.682  23.787  23.931  1.00  0.00     0.072 C 
BRANCH  75  76
ATOM     76  C   UNL A   1      31.015  25.155  23.185  1.00  0.00    -0.045 A 
ATOM     77  C   UNL A   1      32.665  26.048  22.407  1.00  0.00     0.007 A 
ATOM     78  C   UNL A   1      29.593  26.251  23.493  1.00  0.00     0.007 A 
ATOM     79  C   UNL A   1      32.643  27.817  22.076  1.00  0.00     0.046 A 
ATOM     80  C   UNL A   1      29.733  27.983  23.142  1.00  0.00     0.046 A 
ATOM     81  C   UNL A   1      31.192  28.706  22.461  1.00  0.00     0.115 A 
BRANCH  81  82
ATOM     82  O   UNL A   1      31.076  29.998  22.019  1.00  0.00    -0.508 OA
ATOM     83  H   UNL A   1      31.698  30.342  21.409  1.00  0.00     0.293 HD
ENDBRANCH  81  82
ENDBRANCH  75  76
ENDBRANCH  74  75
BRANCH  74  84
ATOM     84  N   UNL A   1      32.912  22.883  24.243  1.00  0.00    -0.371 N 
ATOM     85  H   UNL A   1      33.165  23.601  23.619  1.00  0.00     0.161 HD
BRANCH  84  86
ATOM     86  C   UNL A   1      33.850  21.860  24.394  1.00  0.00     0.054 A 
ATOM     87  C   UNL A   1      33.598  20.436  24.266  1.00  0.00     0.024 A 
ATOM     88  C   UNL A   1      35.143  22.300  24.810  1.00  0.00     0.024 A 
ATOM     89  C   UNL A   1      32.416  19.767  23.803  1.00  0.00     0.012 A 
ATOM     90  C   UNL A   1      34.667  19.580  24.604  1.00  0.00     0.073 A 
ATOM     91  C   UNL A   1      36.084  21.323  25.154  1.00  0.00     0.073 A 
ATOM     92  C   UNL A   1      35.518  23.669  24.932  1.00  0.00     0.012 A 
ATOM     93  C   UNL A   1      32.308  18.378  23.661  1.00  0.00     0.001 A 
ATOM     94  C   UNL A   1      34.534  18.196  24.487  1.00  0.00     0.029 A 
ATOM     95  N   UNL A   1      35.849  20.011  25.056  1.00  0.00    -0.248 NA
ATOM     96  C   UNL A   1      37.316  21.728  25.654  1.00  0.00     0.029 A 
ATOM     97  C   UNL A   1      36.756  24.052  25.425  1.00  0.00     0.001 A 
ATOM     98  C   UNL A   1      33.375  17.584  24.016  1.00  0.00     0.002 A 
ATOM     99  C   UNL A   1      37.655  23.075  25.805  1.00  0.00     0.002 A 
ENDBRANCH  84  86
ENDBRANCH  74  84
ENDBRANCH  72  74
ENDBRANCH  71  72
ENDBRANCH  70  71
ENDBRANCH   1  70
TORSDOF 19
ENDMDL
MODEL 2
REMARK VINA RESULT:     -13.6      4.460      9.653
REMARK SMILES O=C(OCCOC(=O)[C@@H](Cc1ccc(O)cc1)Nc1c2ccccc2nc2ccccc12)c1ccc(-c2c3nc(c(-c4cc(S(=O)(=O)[O-])ccc4F)c4ccc([nH]4)c(-c4cc(S(=O)(=O)[O-])ccc4F)c4nc(c(-c5cc(S(=O)(=O)[O-])ccc5F)c5ccc2[nH]5)C=C4)C=C3)cc1
REMARK SMILES IDX 4 1 3 2 2 3 1 4 33 5 34 6 95 7 35 8 94 9 36 10 37 11 38 12
REMARK SMILES IDX 88 13 39 14 93 15 87 16 89 17 40 18 92 19 86 20 85 21 41 23
REMARK SMILES IDX 73 24 53 25 72 26 54 27 57 28 71 29 90 30 55 31 56 32 70 34
REMARK SMILES IDX 91 35 58 36 42 37 43 38 51 39 44 40 50 41 52 42 49 43 45 44
REMARK SMILES IDX 46 45 47 46 48 47 74 48 75 49 83 50 76 51 82 52 84 53 81 54
REMARK SMILES IDX 77 55 78 56 79 57 80 58 59 59 60 60 68 61 61 62 67 63 69 64
REMARK SMILES IDX 66 65 62 66 63 67 64 68 65 69 5 70 6 71 7 72 8 73 9 74 10 75
REMARK SMILES IDX 11 76 12 77 17 78 13 79 16 80 14 81 15 82 18 84 19 86 20 87
REMARK SMILES IDX 32 88 21 89 25 90 27 91 31 92 22 93 24 94 26 95 28 96 30 97
REMARK SMILES IDX 23 98 29 99
REMARK H PARENT 89 22 57 33 15 83 18 85
REMARK Flexibility Score: inf
ROOT
ATOM      1  C   UNL A   1      35.177  32.739  28.106  1.00  0.00     0.275 C 
ENDROOT
BRANCH   1   2
ATOM      2  O   UNL A   1      34.526  32.972  29.361  1.00  0.00    -0.458 OA
BRANCH   2   3
ATOM      3  C   UNL A   1      35.086  32.966  30.592  1.00  0.00     0.338 C 
ATOM      4  O   UNL A   1      34.700  33.792  31.418  1.00  0.00    -0.246 OA
BRANCH   3   5
ATOM      5  C   UNL A   1      36.253  32.119  30.985  1.00  0.00     0.060 A 
ATOM      6  C   UNL A   1      36.123  30.715  32.020  1.00  0.00     0.016 A 
ATOM      7  C   UNL A   1      37.702  32.454  29.990  1.00  0.00     0.016 A 
ATOM      8  C   UNL A   1      37.439  29.520  32.016  1.00  0.00     0.010 A 
ATOM      9  C   UNL A   1      39.057  31.334  29.839  1.00  0.00     0.010 A 
ATOM     10  C   UNL A   1      39.058  29.812  30.829  1.00  0.00    -0.014 A 
BRANCH  10  11
ATOM     11  C   UNL A   1      40.458  29.148  30.492  1.00  0.00     0.031 A 
ATOM     12  C   UNL A   1      40.420  27.859  29.709  1.00  0.00     0.074 A 
ATOM     13  C   UNL A   1      41.670  29.592  30.916  1.00  0.00     0.049 A 
ATOM     14  N   UNL A   1      41.337  27.318  28.956  1.00  0.00    -0.248 NA
ATOM     15  C   UNL A   1      39.202  27.039  29.829  1.00  0.00     0.031 C 
ATOM     16  C   UNL A   1      41.913  30.563  31.974  1.00  0.00     0.029 A 
ATOM     17  N   UNL A   1      42.918  29.461  30.337  1.00  0.00    -0.354 N 
ATOM     18  C   UNL A   1      40.781  26.135  28.487  1.00  0.00     0.074 A 
ATOM     19  C   UNL A   1      39.496  25.977  29.109  1.00  0.00     0.031 C 
ATOM     20  C   UNL A   1      43.069  31.202  31.738  1.00  0.00     0.029 A 
ATOM     21  C   UNL A   1      43.758  30.529  30.646  1.00  0.00     0.049 A 
ATOM     22  H   UNL A   1      43.182  28.700  29.772  1.00  0.00     0.167 HD
ATOM     23  C   UNL A   1      41.295  25.265  27.591  1.00  0.00     0.034 A 
ATOM     24  C   UNL A   1      44.931  30.915  30.090  1.00  0.00     0.034 A 
ATOM     25  C   UNL A   1      42.634  25.406  27.099  1.00  0.00     0.049 A 
ATOM     26  C   UNL A   1      45.503  29.957  29.073  1.00  0.00     0.074 A 
ATOM     27  C   UNL A   1      43.345  24.576  26.259  1.00  0.00     0.029 A 
ATOM     28  N   UNL A   1      43.486  26.447  27.465  1.00  0.00    -0.354 N 
ATOM     29  N   UNL A   1      44.941  28.890  28.546  1.00  0.00    -0.248 NA
ATOM     30  C   UNL A   1      46.878  30.200  28.629  1.00  0.00     0.031 C 
ATOM     31  C   UNL A   1      44.656  25.062  26.198  1.00  0.00     0.029 A 
ATOM     32  C   UNL A   1      44.729  26.262  26.896  1.00  0.00     0.049 A 
ATOM     33  H   UNL A   1      43.236  27.203  28.044  1.00  0.00     0.167 HD
ATOM     34  C   UNL A   1      45.901  28.321  27.721  1.00  0.00     0.074 A 
ATOM     35  C   UNL A   1      47.059  29.197  27.782  1.00  0.00     0.031 C 
ATOM     36  C   UNL A   1      45.846  27.173  26.997  1.00  0.00     0.034 A 
BRANCH  23  37
ATOM     37  C   UNL A   1      40.427  24.085  27.234  1.00  0.00     0.023 A 
ATOM     38  C   UNL A   1      40.908  22.762  27.344  1.00  0.00     0.031 A 
ATOM     39  C   UNL A   1      39.193  24.285  26.597  1.00  0.00     0.131 A 
ATOM     40  C   UNL A   1      40.223  21.716  26.710  1.00  0.00     0.055 A 
ATOM     41  C   UNL A   1      38.463  23.221  26.063  1.00  0.00     0.041 A 
ATOM     42  F   UNL A   1      38.708  25.523  26.418  1.00  0.00    -0.206 F 
ATOM     43  C   UNL A   1      38.987  21.931  26.095  1.00  0.00     0.022 A 
BRANCH  40  44
ATOM     44  S   UNL A   1      41.079  20.128  26.487  1.00  0.00     0.124 S 
ATOM     45  O   UNL A   1      40.052  19.330  25.820  1.00  0.00    -0.237 OA
ATOM     46  O   UNL A   1      42.229  20.496  25.669  1.00  0.00    -0.237 OA
ATOM     47  O   UNL A   1      41.391  19.712  27.853  1.00  0.00    -0.744 OA
ENDBRANCH  40  44
ENDBRANCH  23  37
BRANCH  24  48
ATOM     48  C   UNL A   1      45.673  32.169  30.493  1.00  0.00     0.023 A 
ATOM     49  C   UNL A   1      45.519  33.396  29.805  1.00  0.00     0.031 A 
ATOM     50  C   UNL A   1      46.608  32.157  31.545  1.00  0.00     0.131 A 
ATOM     51  C   UNL A   1      46.286  34.525  30.168  1.00  0.00     0.055 A 
ATOM     52  C   UNL A   1      47.305  33.299  31.954  1.00  0.00     0.041 A 
ATOM     53  F   UNL A   1      46.877  31.018  32.204  1.00  0.00    -0.206 F 
ATOM     54  C   UNL A   1      47.155  34.490  31.258  1.00  0.00     0.022 A 
BRANCH  51  55
ATOM     55  S   UNL A   1      46.238  36.024  29.132  1.00  0.00     0.124 S 
ATOM     56  O   UNL A   1      46.817  37.023  30.023  1.00  0.00    -0.237 OA
ATOM     57  O   UNL A   1      47.053  35.633  27.987  1.00  0.00    -0.237 OA
ATOM     58  O   UNL A   1      44.815  36.200  28.847  1.00  0.00    -0.744 OA
ENDBRANCH  51  55
ENDBRANCH  24  48
BRANCH  36  59
ATOM     59  C   UNL A   1      47.053  26.852  26.166  1.00  0.00     0.023 A 
ATOM     60  C   UNL A   1      48.180  26.220  26.711  1.00  0.00     0.031 A 
ATOM     61  C   UNL A   1      47.064  27.195  24.804  1.00  0.00     0.131 A 
ATOM     62  C   UNL A   1      49.311  26.029  25.912  1.00  0.00     0.055 A 
ATOM     63  C   UNL A   1      48.157  26.912  23.991  1.00  0.00     0.041 A 
ATOM     64  F   UNL A   1      46.008  27.806  24.243  1.00  0.00    -0.206 F 
ATOM     65  C   UNL A   1      49.298  26.342  24.549  1.00  0.00     0.022 A 
BRANCH  62  66
ATOM     66  S   UNL A   1      50.852  25.518  26.716  1.00  0.00     0.124 S 
ATOM     67  O   UNL A   1      51.218  26.724  27.452  1.00  0.00    -0.237 OA
ATOM     68  O   UNL A   1      50.422  24.382  27.525  1.00  0.00    -0.237 OA
ATOM     69  O   UNL A   1      51.728  25.187  25.593  1.00  0.00    -0.744 OA
ENDBRANCH  62  66
ENDBRANCH  36  59
ENDBRANCH  10  11
ENDBRANCH   3   5
ENDBRANCH   2   3
ENDBRANCH   1   2
BRANCH   1  70
ATOM     70  C   UNL A   1      34.811  31.382  27.461  1.00  0.00     0.274 C 
BRANCH  70  71
ATOM     71  O   UNL A   1      33.534  30.840  27.878  1.00  0.00    -0.461 OA
BRANCH  71  72
ATOM     72  C   UNL A   1      32.584  30.694  26.912  1.00  0.00     0.329 C 
ATOM     73  O   UNL A   1      31.690  31.513  26.727  1.00  0.00    -0.250 OA
BRANCH  72  74
ATOM     74  C   UNL A   1      32.730  29.398  26.086  1.00  0.00     0.194 C 
BRANCH  74  75
ATOM     75  C   UNL A   1      31.807  28.233  26.452  1.00  0.00     0.072 C 
BRANCH  75  76
ATOM     76  C   UNL A   1      32.109  26.690  26.191  1.00  0.00    -0.045 A 
ATOM     77  C   UNL A   1      33.758  25.511  26.063  1.00  0.00     0.007 A 
ATOM     78  C   UNL A   1      30.581  25.993  25.484  1.00  0.00     0.007 A 
ATOM     79  C   UNL A   1      33.634  23.894  25.281  1.00  0.00     0.046 A 
ATOM     80  C   UNL A   1      30.623  24.396  24.719  1.00  0.00     0.046 A 
ATOM     81  C   UNL A   1      32.086  23.410  24.640  1.00  0.00     0.115 A 
BRANCH  81  82
ATOM     82  O   UNL A   1      31.916  22.110  24.241  1.00  0.00    -0.508 OA
ATOM     83  H   UNL A   1      31.057  21.787  24.050  1.00  0.00     0.293 HD
ENDBRANCH  81  82
ENDBRANCH  75  76
ENDBRANCH  74  75
BRANCH  74  84
ATOM     84  N   UNL A   1      32.655  29.634  24.663  1.00  0.00    -0.371 N 
ATOM     85  H   UNL A   1      33.376  30.189  24.287  1.00  0.00     0.161 HD
BRANCH  84  86
ATOM     86  C   UNL A   1      31.703  29.185  23.746  1.00  0.00     0.054 A 
ATOM     87  C   UNL A   1      30.361  29.711  23.571  1.00  0.00     0.024 A 
ATOM     88  C   UNL A   1      32.098  28.032  23.002  1.00  0.00     0.024 A 
ATOM     89  C   UNL A   1      29.769  30.883  24.149  1.00  0.00     0.012 A 
ATOM     90  C   UNL A   1      29.524  29.004  22.682  1.00  0.00     0.073 A 
ATOM     91  C   UNL A   1      31.134  27.416  22.195  1.00  0.00     0.073 A 
ATOM     92  C   UNL A   1      33.397  27.451  23.061  1.00  0.00     0.012 A 
ATOM     93  C   UNL A   1      28.476  31.332  23.856  1.00  0.00     0.001 A 
ATOM     94  C   UNL A   1      28.226  29.446  22.425  1.00  0.00     0.029 A 
ATOM     95  N   UNL A   1      29.892  27.888  22.046  1.00  0.00    -0.248 NA
ATOM     96  C   UNL A   1      31.466  26.238  21.537  1.00  0.00     0.029 A 
ATOM     97  C   UNL A   1      33.711  26.279  22.389  1.00  0.00     0.001 A 
ATOM     98  C   UNL A   1      27.693  30.601  22.992  1.00  0.00     0.002 A 
ATOM     99  C   UNL A   1      32.734  25.659  21.636  1.00  0.00     0.002 A 
ENDBRANCH  84  86
ENDBRANCH  74  84
ENDBRANCH  72  74
ENDBRANCH  71  72
ENDBRANCH  70  71
ENDBRANCH   1  70
TORSDOF 19
ENDMDL
MODEL 3
REMARK VINA RESULT:     -13.5      2.577      7.699
REMARK SMILES O=C(OCCOC(=O)[C@@H](Cc1ccc(O)cc1)Nc1c2ccccc2nc2ccccc12)c1ccc(-c2c3nc(c(-c4cc(S(=O)(=O)[O-])ccc4F)c4ccc([nH]4)c(-c4cc(S(=O)(=O)[O-])ccc4F)c4nc(c(-c5cc(S(=O)(=O)[O-])ccc5F)c5ccc2[nH]5)C=C4)C=C3)cc1
REMARK SMILES IDX 4 1 3 2 2 3 1 4 33 5 34 6 95 7 35 8 94 9 36 10 37 11 38 12
REMARK SMILES IDX 88 13 39 14 93 15 87 16 89 17 40 18 92 19 86 20 85 21 41 23
REMARK SMILES IDX 73 24 53 25 72 26 54 27 57 28 71 29 90 30 55 31 56 32 70 34
REMARK SMILES IDX 91 35 58 36 42 37 43 38 51 39 44 40 50 41 52 42 49 43 45 44
REMARK SMILES IDX 46 45 47 46 48 47 74 48 75 49 83 50 76 51 82 52 84 53 81 54
REMARK SMILES IDX 77 55 78 56 79 57 80 58 59 59 60 60 68 61 61 62 67 63 69 64
REMARK SMILES IDX 66 65 62 66 63 67 64 68 65 69 5 70 6 71 7 72 8 73 9 74 10 75
REMARK SMILES IDX 11 76 12 77 17 78 13 79 16 80 14 81 15 82 18 84 19 86 20 87
REMARK SMILES IDX 32 88 21 89 25 90 27 91 31 92 22 93 24 94 26 95 28 96 30 97
REMARK SMILES IDX 23 98 29 99
REMARK H PARENT 89 22 57 33 15 83 18 85
REMARK Flexibility Score: inf
ROOT
ATOM      1  C   UNL A   1      40.432  21.231  26.939  1.00  0.00     0.275 C 
ENDROOT
BRANCH   1   2
ATOM      2  O   UNL A   1      41.836  21.479  26.797  1.00  0.00    -0.458 OA
BRANCH   2   3
ATOM      3  C   UNL A   1      42.434  22.404  26.013  1.00  0.00     0.338 C 
ATOM      4  O   UNL A   1      42.998  22.029  24.986  1.00  0.00    -0.246 OA
BRANCH   3   5
ATOM      5  C   UNL A   1      42.590  23.845  26.377  1.00  0.00     0.060 A 
ATOM      6  C   UNL A   1      42.520  25.149  25.212  1.00  0.00     0.016 A 
ATOM      7  C   UNL A   1      42.467  24.120  28.140  1.00  0.00     0.016 A 
ATOM      8  C   UNL A   1      42.219  26.802  25.790  1.00  0.00     0.010 A 
ATOM      9  C   UNL A   1      42.109  25.692  28.857  1.00  0.00     0.010 A 
ATOM     10  C   UNL A   1      41.976  27.144  27.775  1.00  0.00    -0.014 A 
BRANCH  10  11
ATOM     11  C   UNL A   1      41.755  28.345  28.787  1.00  0.00     0.031 A 
ATOM     12  C   UNL A   1      40.410  29.026  28.740  1.00  0.00     0.074 A 
ATOM     13  C   UNL A   1      42.693  28.860  29.624  1.00  0.00     0.049 A 
ATOM     14  N   UNL A   1      39.798  29.717  29.661  1.00  0.00    -0.248 NA
ATOM     15  C   UNL A   1      39.673  28.964  27.467  1.00  0.00     0.031 C 
ATOM     16  C   UNL A   1      44.130  28.625  29.562  1.00  0.00     0.029 A 
ATOM     17  N   UNL A   1      42.547  29.497  30.841  1.00  0.00    -0.354 N 
ATOM     18  C   UNL A   1      38.600  30.120  29.086  1.00  0.00     0.074 A 
ATOM     19  C   UNL A   1      38.604  29.691  27.715  1.00  0.00     0.031 C 
ATOM     20  C   UNL A   1      44.657  28.747  30.790  1.00  0.00     0.029 A 
ATOM     21  C   UNL A   1      43.642  29.293  31.679  1.00  0.00     0.049 A 
ATOM     22  H   UNL A   1      41.759  30.032  31.088  1.00  0.00     0.167 HD
ATOM     23  C   UNL A   1      37.570  30.775  29.666  1.00  0.00     0.034 A 
ATOM     24  C   UNL A   1      43.784  29.509  33.009  1.00  0.00     0.034 A 
ATOM     25  C   UNL A   1      37.671  31.291  30.999  1.00  0.00     0.049 A 
ATOM     26  C   UNL A   1      42.629  30.223  33.668  1.00  0.00     0.074 A 
ATOM     27  C   UNL A   1      36.767  32.049  31.711  1.00  0.00     0.029 A 
ATOM     28  N   UNL A   1      38.798  31.133  31.805  1.00  0.00    -0.354 N 
ATOM     29  N   UNL A   1      41.451  30.518  33.162  1.00  0.00    -0.248 NA
ATOM     30  C   UNL A   1      42.836  30.700  35.038  1.00  0.00     0.031 C 
ATOM     31  C   UNL A   1      37.387  32.432  32.905  1.00  0.00     0.029 A 
ATOM     32  C   UNL A   1      38.627  31.809  32.994  1.00  0.00     0.049 A 
ATOM     33  H   UNL A   1      39.598  30.614  31.560  1.00  0.00     0.167 HD
ATOM     34  C   UNL A   1      40.780  31.231  34.144  1.00  0.00     0.074 A 
ATOM     35  C   UNL A   1      41.670  31.276  35.292  1.00  0.00     0.031 C 
ATOM     36  C   UNL A   1      39.555  31.817  34.101  1.00  0.00     0.034 A 
BRANCH  23  37
ATOM     37  C   UNL A   1      36.367  31.029  28.793  1.00  0.00     0.023 A 
ATOM     38  C   UNL A   1      35.824  32.325  28.655  1.00  0.00     0.031 A 
ATOM     39  C   UNL A   1      35.642  29.953  28.261  1.00  0.00     0.131 A 
ATOM     40  C   UNL A   1      34.538  32.490  28.120  1.00  0.00     0.055 A 
ATOM     41  C   UNL A   1      34.410  30.139  27.630  1.00  0.00     0.041 A 
ATOM     42  F   UNL A   1      36.082  28.694  28.405  1.00  0.00    -0.206 F 
ATOM     43  C   UNL A   1      33.839  31.408  27.579  1.00  0.00     0.022 A 
BRANCH  40  44
ATOM     44  S   UNL A   1      33.696  34.082  28.361  1.00  0.00     0.124 S 
ATOM     45  O   UNL A   1      32.419  33.844  27.690  1.00  0.00    -0.237 OA
ATOM     46  O   UNL A   1      33.639  34.198  29.814  1.00  0.00    -0.237 OA
ATOM     47  O   UNL A   1      34.574  35.040  27.692  1.00  0.00    -0.744 OA
ENDBRANCH  40  44
ENDBRANCH  23  37
BRANCH  24  48
ATOM     48  C   UNL A   1      45.027  29.140  33.785  1.00  0.00     0.023 A 
ATOM     49  C   UNL A   1      45.190  27.878  34.403  1.00  0.00     0.031 A 
ATOM     50  C   UNL A   1      46.066  30.071  33.984  1.00  0.00     0.131 A 
ATOM     51  C   UNL A   1      46.336  27.600  35.181  1.00  0.00     0.055 A 
ATOM     52  C   UNL A   1      47.235  29.764  34.687  1.00  0.00     0.041 A 
ATOM     53  F   UNL A   1      45.963  31.319  33.500  1.00  0.00    -0.206 F 
ATOM     54  C   UNL A   1      47.372  28.526  35.300  1.00  0.00     0.022 A 
BRANCH  51  55
ATOM     55  S   UNL A   1      46.422  26.058  36.148  1.00  0.00     0.124 S 
ATOM     56  O   UNL A   1      45.863  26.475  37.429  1.00  0.00    -0.237 OA
ATOM     57  O   UNL A   1      45.604  25.149  35.353  1.00  0.00    -0.237 OA
ATOM     58  O   UNL A   1      47.850  25.745  36.170  1.00  0.00    -0.744 OA
ENDBRANCH  51  55
ENDBRANCH  24  48
BRANCH  36  59
ATOM     59  C   UNL A   1      39.094  32.489  35.361  1.00  0.00     0.023 A 
ATOM     60  C   UNL A   1      38.576  31.761  36.442  1.00  0.00     0.031 A 
ATOM     61  C   UNL A   1      39.177  33.888  35.467  1.00  0.00     0.131 A 
ATOM     62  C   UNL A   1      38.077  32.448  37.553  1.00  0.00     0.055 A 
ATOM     63  C   UNL A   1      38.771  34.556  36.617  1.00  0.00     0.041 A 
ATOM     64  F   UNL A   1      39.663  34.624  34.454  1.00  0.00    -0.206 F 
ATOM     65  C   UNL A   1      38.198  33.836  37.662  1.00  0.00     0.022 A 
BRANCH  62  66
ATOM     66  S   UNL A   1      37.122  31.515  38.778  1.00  0.00     0.124 S 
ATOM     67  O   UNL A   1      37.973  31.616  39.959  1.00  0.00    -0.237 OA
ATOM     68  O   UNL A   1      35.867  32.258  38.830  1.00  0.00    -0.237 OA
ATOM     69  O   UNL A   1      37.031  30.179  38.192  1.00  0.00    -0.744 OA
ENDBRANCH  62  66
ENDBRANCH  36  59
ENDBRANCH  10  11
ENDBRANCH   3   5
ENDBRANCH   2   3
ENDBRANCH   1   2
BRANCH   1  70
ATOM     70  C   UNL A   1      39.588  21.744  25.749  1.00  0.00     0.274 C 
BRANCH  70  71
ATOM     71  O   UNL A   1      38.188  21.961  26.050  1.00  0.00    -0.461 OA
BRANCH  71  72
ATOM     72  C   UNL A   1      37.762  23.254  26.097  1.00  0.00     0.329 C 
ATOM     73  O   UNL A   1      38.520  24.199  26.294  1.00  0.00    -0.250 OA
BRANCH  72  74
ATOM     74  C   UNL A   1      36.240  23.416  25.896  1.00  0.00     0.194 C 
BRANCH  74  75
ATOM     75  C   UNL A   1      35.761  23.803  24.495  1.00  0.00     0.072 C 
BRANCH  75  76
ATOM     76  C   UNL A   1      34.711  24.952  24.156  1.00  0.00    -0.045 A 
ATOM     77  C   UNL A   1      34.030  26.641  25.056  1.00  0.00     0.007 A 
ATOM     78  C   UNL A   1      33.671  24.299  22.811  1.00  0.00     0.007 A 
ATOM     79  C   UNL A   1      32.485  27.381  24.502  1.00  0.00     0.046 A 
ATOM     80  C   UNL A   1      32.158  25.123  22.397  1.00  0.00     0.046 A 
ATOM     81  C   UNL A   1      31.616  26.593  23.211  1.00  0.00     0.115 A 
BRANCH  81  82
ATOM     82  O   UNL A   1      30.563  27.250  22.631  1.00  0.00    -0.508 OA
ATOM     83  H   UNL A   1      30.171  26.910  21.850  1.00  0.00     0.293 HD
ENDBRANCH  81  82
ENDBRANCH  75  76
ENDBRANCH  74  75
BRANCH  74  84
ATOM     84  N   UNL A   1      35.493  22.267  26.354  1.00  0.00    -0.371 N 
ATOM     85  H   UNL A   1      35.928  21.731  27.056  1.00  0.00     0.161 HD
BRANCH  84  86
ATOM     86  C   UNL A   1      34.240  21.812  25.939  1.00  0.00     0.054 A 
ATOM     87  C   UNL A   1      32.969  22.481  26.150  1.00  0.00     0.024 A 
ATOM     88  C   UNL A   1      34.251  20.516  25.341  1.00  0.00     0.024 A 
ATOM     89  C   UNL A   1      32.715  23.796  26.661  1.00  0.00     0.012 A 
ATOM     90  C   UNL A   1      31.815  21.762  25.769  1.00  0.00     0.073 A 
ATOM     91  C   UNL A   1      33.017  19.917  25.061  1.00  0.00     0.073 A 
ATOM     92  C   UNL A   1      35.436  19.782  25.048  1.00  0.00     0.012 A 
ATOM     93  C   UNL A   1      31.439  24.364  26.763  1.00  0.00     0.001 A 
ATOM     94  C   UNL A   1      30.548  22.329  25.906  1.00  0.00     0.029 A 
ATOM     95  N   UNL A   1      31.844  20.522  25.273  1.00  0.00    -0.248 NA
ATOM     96  C   UNL A   1      33.000  18.618  24.570  1.00  0.00     0.029 A 
ATOM     97  C   UNL A   1      35.398  18.489  24.549  1.00  0.00     0.001 A 
ATOM     98  C   UNL A   1      30.343  23.619  26.390  1.00  0.00     0.002 A 
ATOM     99  C   UNL A   1      34.171  17.896  24.325  1.00  0.00     0.002 A 
ENDBRANCH  84  86
ENDBRANCH  74  84
ENDBRANCH  72  74
ENDBRANCH  71  72
ENDBRANCH  70  71
ENDBRANCH   1  70
TORSDOF 19
ENDMDL
