MODEL 1
REMARK VINA RESULT:     -13.4      0.000      0.000
REMARK SMILES O=C(OCCOC(=O)c1cc(Cl)c2c(c1)[C@H]1C=CC[C@H]1[C@H](c1ccc(S(=O)(=O)N3CCOCC3)cc1)N2)c1ccc(-c2c3nc(c(-c4cc(S(=O)(=O)[O-])ccc4F)c4ccc([nH]4)c(-c4cc(S(=O)(=O)[O-])ccc4F)c4nc(c(-c5cc(S(=O)(=O)[O-])ccc5F)c5ccc2[nH]5)C=C4)C=C3)cc1
REMARK SMILES IDX 4 1 3 2 2 3 1 4 38 5 39 6 100 7 40 8 99 9 41 10 42 11 43 12
REMARK SMILES IDX 93 13 44 14 98 15 92 16 94 17 45 18 97 19 91 20 90 21 46 23
REMARK SMILES IDX 78 24 58 25 77 26 59 27 62 28 76 29 95 30 60 31 61 32 75 34
REMARK SMILES IDX 96 35 63 36 47 37 48 38 56 39 49 40 55 41 57 42 54 43 50 44
REMARK SMILES IDX 51 45 52 46 53 47 79 48 80 49 88 50 81 51 87 52 89 53 86 54
REMARK SMILES IDX 82 55 83 56 84 57 85 58 64 59 65 60 73 61 66 62 72 63 74 64
REMARK SMILES IDX 71 65 67 66 68 67 69 68 70 69 5 70 6 71 7 72 8 73 9 74 10 75
REMARK SMILES IDX 15 76 11 77 14 78 12 79 13 80 16 81 37 82 17 83 20 84 21 85
REMARK SMILES IDX 18 87 19 88 22 89 23 90 36 91 24 92 35 93 25 94 26 95 27 96
REMARK SMILES IDX 28 97 29 98 30 99 34 100 31 101 33 102 32 103
REMARK H PARENT 94 22 62 33 37 86
REMARK Flexibility Score: inf
ROOT
ATOM      1  C   UNL A   1      34.887  33.885  33.118  1.00  0.00     0.275 C 
ENDROOT
BRANCH   1   2
ATOM      2  O   UNL A   1      35.390  32.546  33.219  1.00  0.00    -0.458 OA
BRANCH   2   3
ATOM      3  C   UNL A   1      36.579  32.166  33.744  1.00  0.00     0.338 C 
ATOM      4  O   UNL A   1      36.877  32.525  34.883  1.00  0.00    -0.246 OA
BRANCH   3   5
ATOM      5  C   UNL A   1      37.638  31.523  32.907  1.00  0.00     0.060 A 
ATOM      6  C   UNL A   1      38.774  30.855  33.366  1.00  0.00     0.016 A 
ATOM      7  C   UNL A   1      37.469  31.656  31.522  1.00  0.00     0.016 A 
ATOM      8  C   UNL A   1      39.678  30.274  32.466  1.00  0.00     0.010 A 
ATOM      9  C   UNL A   1      38.349  31.058  30.617  1.00  0.00     0.010 A 
ATOM     10  C   UNL A   1      39.474  30.377  31.088  1.00  0.00    -0.014 A 
BRANCH  10  11
ATOM     11  C   UNL A   1      40.529  29.953  30.141  1.00  0.00     0.031 A 
ATOM     12  C   UNL A   1      41.613  30.933  29.809  1.00  0.00     0.074 A 
ATOM     13  C   UNL A   1      40.554  28.715  29.615  1.00  0.00     0.049 A 
ATOM     14  N   UNL A   1      42.690  30.747  29.097  1.00  0.00    -0.248 NA
ATOM     15  C   UNL A   1      41.496  32.285  30.386  1.00  0.00     0.031 C 
ATOM     16  C   UNL A   1      39.609  27.649  29.926  1.00  0.00     0.029 A 
ATOM     17  N   UNL A   1      41.402  28.149  28.696  1.00  0.00    -0.354 N 
ATOM     18  C   UNL A   1      43.423  31.915  29.226  1.00  0.00     0.074 A 
ATOM     19  C   UNL A   1      42.615  32.855  29.968  1.00  0.00     0.031 C 
ATOM     20  C   UNL A   1      39.882  26.582  29.155  1.00  0.00     0.029 A 
ATOM     21  C   UNL A   1      41.024  26.885  28.304  1.00  0.00     0.049 A 
ATOM     22  H   UNL A   1      42.203  28.604  28.349  1.00  0.00     0.167 HD
ATOM     23  C   UNL A   1      44.691  32.153  28.831  1.00  0.00     0.034 A 
ATOM     24  C   UNL A   1      41.543  26.061  27.374  1.00  0.00     0.034 A 
ATOM     25  C   UNL A   1      45.469  31.229  28.057  1.00  0.00     0.049 A 
ATOM     26  C   UNL A   1      42.857  26.437  26.745  1.00  0.00     0.074 A 
ATOM     27  C   UNL A   1      46.767  31.372  27.603  1.00  0.00     0.029 A 
ATOM     28  N   UNL A   1      45.016  29.998  27.608  1.00  0.00    -0.354 N 
ATOM     29  N   UNL A   1      43.586  27.507  26.958  1.00  0.00    -0.248 NA
ATOM     30  C   UNL A   1      43.456  25.478  25.809  1.00  0.00     0.031 C 
ATOM     31  C   UNL A   1      47.081  30.248  26.838  1.00  0.00     0.029 A 
ATOM     32  C   UNL A   1      45.998  29.381  26.856  1.00  0.00     0.049 A 
ATOM     33  H   UNL A   1      44.127  29.619  27.798  1.00  0.00     0.167 HD
ATOM     34  C   UNL A   1      44.769  27.306  26.259  1.00  0.00     0.074 A 
ATOM     35  C   UNL A   1      44.641  26.031  25.582  1.00  0.00     0.031 C 
ATOM     36  C   UNL A   1      45.872  28.094  26.215  1.00  0.00     0.034 A 
BRANCH  23  37
ATOM     37  C   UNL A   1      45.327  33.434  29.282  1.00  0.00     0.023 A 
ATOM     38  C   UNL A   1      45.165  34.613  28.542  1.00  0.00     0.031 A 
ATOM     39  C   UNL A   1      46.152  33.458  30.422  1.00  0.00     0.131 A 
ATOM     40  C   UNL A   1      45.836  35.774  28.944  1.00  0.00     0.055 A 
ATOM     41  C   UNL A   1      46.797  34.622  30.834  1.00  0.00     0.041 A 
ATOM     42  F   UNL A   1      46.320  32.352  31.166  1.00  0.00    -0.206 F 
ATOM     43  C   UNL A   1      46.644  35.788  30.089  1.00  0.00     0.022 A 
BRANCH  40  44
ATOM     44  S   UNL A   1      45.676  37.310  27.998  1.00  0.00     0.124 S 
ATOM     45  O   UNL A   1      45.522  38.307  29.056  1.00  0.00    -0.237 OA
ATOM     46  O   UNL A   1      46.943  37.353  27.276  1.00  0.00    -0.237 OA
ATOM     47  O   UNL A   1      44.485  37.091  27.183  1.00  0.00    -0.744 OA
ENDBRANCH  40  44
ENDBRANCH  23  37
BRANCH  24  48
ATOM     48  C   UNL A   1      40.868  24.770  27.061  1.00  0.00     0.023 A 
ATOM     49  C   UNL A   1      41.589  23.561  27.058  1.00  0.00     0.031 A 
ATOM     50  C   UNL A   1      39.504  24.730  26.731  1.00  0.00     0.131 A 
ATOM     51  C   UNL A   1      40.939  22.363  26.725  1.00  0.00     0.055 A 
ATOM     52  C   UNL A   1      38.854  23.531  26.430  1.00  0.00     0.041 A 
ATOM     53  F   UNL A   1      38.782  25.860  26.713  1.00  0.00    -0.206 F 
ATOM     54  C   UNL A   1      39.574  22.340  26.424  1.00  0.00     0.022 A 
BRANCH  51  55
ATOM     55  S   UNL A   1      41.845  20.793  26.654  1.00  0.00     0.124 S 
ATOM     56  O   UNL A   1      43.008  21.148  25.846  1.00  0.00    -0.237 OA
ATOM     57  O   UNL A   1      42.115  20.541  28.066  1.00  0.00    -0.237 OA
ATOM     58  O   UNL A   1      40.897  19.880  26.022  1.00  0.00    -0.744 OA
ENDBRANCH  51  55
ENDBRANCH  24  48
BRANCH  36  59
ATOM     59  C   UNL A   1      47.079  27.600  25.465  1.00  0.00     0.023 A 
ATOM     60  C   UNL A   1      47.238  27.954  24.112  1.00  0.00     0.031 A 
ATOM     61  C   UNL A   1      47.960  26.662  26.023  1.00  0.00     0.131 A 
ATOM     62  C   UNL A   1      48.226  27.330  23.345  1.00  0.00     0.055 A 
ATOM     63  C   UNL A   1      48.976  26.080  25.266  1.00  0.00     0.041 A 
ATOM     64  F   UNL A   1      47.836  26.291  27.308  1.00  0.00    -0.206 F 
ATOM     65  C   UNL A   1      49.102  26.402  23.916  1.00  0.00     0.022 A 
BRANCH  62  66
ATOM     66  S   UNL A   1      48.350  27.636  21.562  1.00  0.00     0.124 S 
ATOM     67  O   UNL A   1      49.471  28.571  21.491  1.00  0.00    -0.237 OA
ATOM     68  O   UNL A   1      48.620  26.297  21.042  1.00  0.00    -0.237 OA
ATOM     69  O   UNL A   1      47.051  28.198  21.208  1.00  0.00    -0.744 OA
ENDBRANCH  62  66
ENDBRANCH  36  59
ENDBRANCH  10  11
ENDBRANCH   3   5
ENDBRANCH   2   3
ENDBRANCH   1   2
BRANCH   1  70
ATOM     70  C   UNL A   1      34.755  34.402  31.683  1.00  0.00     0.275 C 
BRANCH  70  71
ATOM     71  O   UNL A   1      34.196  33.449  30.766  1.00  0.00    -0.458 OA
BRANCH  71  72
ATOM     72  C   UNL A   1      34.307  33.781  29.453  1.00  0.00     0.338 C 
ATOM     73  O   UNL A   1      34.424  34.901  28.988  1.00  0.00    -0.246 OA
BRANCH  72  74
ATOM     74  C   UNL A   1      34.367  32.552  28.642  1.00  0.00     0.062 A 
ATOM     75  C   UNL A   1      35.541  31.815  28.538  1.00  0.00     0.038 A 
ATOM     76  C   UNL A   1      33.197  32.083  28.039  1.00  0.00     0.022 A 
ATOM     77  C   UNL A   1      35.546  30.662  27.750  1.00  0.00     0.065 A 
ATOM     78  C   UNL A   1      33.223  30.947  27.206  1.00  0.00    -0.015 A 
ATOM     79  Cl  UNL A   1      36.949  29.653  27.817  1.00  0.00    -0.082 Cl
ATOM     80  C   UNL A   1      34.429  30.284  26.974  1.00  0.00     0.057 A 
ATOM     81  C   UNL A   1      31.941  30.386  26.664  1.00  0.00     0.049 C 
ATOM     82  N   UNL A   1      34.493  29.225  26.085  1.00  0.00    -0.376 N 
ATOM     83  C   UNL A   1      31.216  31.252  25.673  1.00  0.00    -0.023 C 
ATOM     84  C   UNL A   1      32.046  29.026  25.924  1.00  0.00     0.031 C 
ATOM     85  C   UNL A   1      33.405  28.867  25.175  1.00  0.00     0.114 C 
ATOM     86  H   UNL A   1      35.314  28.683  26.064  1.00  0.00     0.161 HD
ATOM     87  C   UNL A   1      30.576  30.515  24.763  1.00  0.00    -0.030 C 
ATOM     88  C   UNL A   1      30.780  29.065  25.038  1.00  0.00     0.034 C 
BRANCH  85  89
ATOM     89  C   UNL A   1      33.627  27.434  24.642  1.00  0.00    -0.025 A 
ATOM     90  C   UNL A   1      34.007  26.351  25.462  1.00  0.00     0.007 A 
ATOM     91  C   UNL A   1      33.479  27.157  23.274  1.00  0.00     0.007 A 
ATOM     92  C   UNL A   1      34.226  25.068  24.935  1.00  0.00     0.022 A 
ATOM     93  C   UNL A   1      33.564  25.862  22.763  1.00  0.00     0.022 A 
ATOM     94  C   UNL A   1      33.990  24.826  23.585  1.00  0.00     0.082 A 
BRANCH  94  95
ATOM     95  S   UNL A   1      34.406  23.255  22.867  1.00  0.00     0.243 S 
ATOM     96  O   UNL A   1      33.574  23.069  21.692  1.00  0.00    -0.207 OA
ATOM     97  O   UNL A   1      35.845  23.179  22.787  1.00  0.00    -0.207 OA
BRANCH  95  98
ATOM     98  N   UNL A   1      33.871  22.105  23.994  1.00  0.00    -0.193 NA
ATOM     99  C   UNL A   1      32.672  21.297  23.678  1.00  0.00     0.131 C 
ATOM    100  C   UNL A   1      34.892  21.358  24.784  1.00  0.00     0.131 C 
ATOM    101  C   UNL A   1      32.127  20.694  24.978  1.00  0.00     0.177 C 
ATOM    102  C   UNL A   1      34.250  20.692  26.003  1.00  0.00     0.177 C 
ATOM    103  O   UNL A   1      33.119  19.886  25.626  1.00  0.00    -0.379 OA
ENDBRANCH  95  98
ENDBRANCH  94  95
ENDBRANCH  85  89
ENDBRANCH  72  74
ENDBRANCH  71  72
ENDBRANCH  70  71
ENDBRANCH   1  70
TORSDOF 17
ENDMDL
MODEL 2
REMARK VINA RESULT:     -13.1      4.596     11.100
REMARK SMILES O=C(OCCOC(=O)c1cc(Cl)c2c(c1)[C@H]1C=CC[C@H]1[C@H](c1ccc(S(=O)(=O)N3CCOCC3)cc1)N2)c1ccc(-c2c3nc(c(-c4cc(S(=O)(=O)[O-])ccc4F)c4ccc([nH]4)c(-c4cc(S(=O)(=O)[O-])ccc4F)c4nc(c(-c5cc(S(=O)(=O)[O-])ccc5F)c5ccc2[nH]5)C=C4)C=C3)cc1
REMARK SMILES IDX 4 1 3 2 2 3 1 4 38 5 39 6 100 7 40 8 99 9 41 10 42 11 43 12
REMARK SMILES IDX 93 13 44 14 98 15 92 16 94 17 45 18 97 19 91 20 90 21 46 23
REMARK SMILES IDX 78 24 58 25 77 26 59 27 62 28 76 29 95 30 60 31 61 32 75 34
REMARK SMILES IDX 96 35 63 36 47 37 48 38 56 39 49 40 55 41 57 42 54 43 50 44
REMARK SMILES IDX 51 45 52 46 53 47 79 48 80 49 88 50 81 51 87 52 89 53 86 54
REMARK SMILES IDX 82 55 83 56 84 57 85 58 64 59 65 60 73 61 66 62 72 63 74 64
REMARK SMILES IDX 71 65 67 66 68 67 69 68 70 69 5 70 6 71 7 72 8 73 9 74 10 75
REMARK SMILES IDX 15 76 11 77 14 78 12 79 13 80 16 81 37 82 17 83 20 84 21 85
REMARK SMILES IDX 18 87 19 88 22 89 23 90 36 91 24 92 35 93 25 94 26 95 27 96
REMARK SMILES IDX 28 97 29 98 30 99 34 100 31 101 33 102 32 103
REMARK H PARENT 94 22 62 33 37 86
REMARK Flexibility Score: inf
ROOT
ATOM      1  C   UNL A   1      45.228  22.071  25.011  1.00  0.00     0.275 C 
ENDROOT
BRANCH   1   2
ATOM      2  O   UNL A   1      45.103  23.155  25.941  1.00  0.00    -0.458 OA
BRANCH   2   3
ATOM      3  C   UNL A   1      44.879  24.457  25.641  1.00  0.00     0.338 C 
ATOM      4  O   UNL A   1      45.439  24.955  24.666  1.00  0.00    -0.246 OA
BRANCH   3   5
ATOM      5  C   UNL A   1      44.163  25.368  26.586  1.00  0.00     0.060 A 
ATOM      6  C   UNL A   1      44.356  26.744  26.727  1.00  0.00     0.016 A 
ATOM      7  C   UNL A   1      43.237  24.745  27.433  1.00  0.00     0.016 A 
ATOM      8  C   UNL A   1      43.594  27.486  27.639  1.00  0.00     0.010 A 
ATOM      9  C   UNL A   1      42.454  25.479  28.327  1.00  0.00     0.010 A 
ATOM     10  C   UNL A   1      42.643  26.858  28.448  1.00  0.00    -0.014 A 
BRANCH  10  11
ATOM     11  C   UNL A   1      41.994  27.597  29.553  1.00  0.00     0.031 A 
ATOM     12  C   UNL A   1      42.618  27.522  30.913  1.00  0.00     0.074 A 
ATOM     13  C   UNL A   1      40.899  28.353  29.354  1.00  0.00     0.049 A 
ATOM     14  N   UNL A   1      42.290  28.169  31.998  1.00  0.00    -0.248 NA
ATOM     15  C   UNL A   1      43.788  26.638  31.068  1.00  0.00     0.031 C 
ATOM     16  C   UNL A   1      40.253  28.575  28.065  1.00  0.00     0.029 A 
ATOM     17  N   UNL A   1      40.129  29.066  30.238  1.00  0.00    -0.354 N 
ATOM     18  C   UNL A   1      43.268  27.852  32.925  1.00  0.00     0.074 A 
ATOM     19  C   UNL A   1      44.125  26.854  32.330  1.00  0.00     0.031 C 
ATOM     20  C   UNL A   1      39.141  29.307  28.253  1.00  0.00     0.029 A 
ATOM     21  C   UNL A   1      39.002  29.612  29.669  1.00  0.00     0.049 A 
ATOM     22  H   UNL A   1      40.359  29.174  31.188  1.00  0.00     0.167 HD
ATOM     23  C   UNL A   1      43.480  28.408  34.137  1.00  0.00     0.034 A 
ATOM     24  C   UNL A   1      37.977  30.290  30.223  1.00  0.00     0.034 A 
ATOM     25  C   UNL A   1      42.599  29.367  34.738  1.00  0.00     0.049 A 
ATOM     26  C   UNL A   1      38.102  30.715  31.661  1.00  0.00     0.074 A 
ATOM     27  C   UNL A   1      42.722  29.992  35.964  1.00  0.00     0.029 A 
ATOM     28  N   UNL A   1      41.423  29.826  34.163  1.00  0.00    -0.354 N 
ATOM     29  N   UNL A   1      39.088  30.488  32.495  1.00  0.00    -0.248 NA
ATOM     30  C   UNL A   1      37.022  31.540  32.216  1.00  0.00     0.031 C 
ATOM     31  C   UNL A   1      41.593  30.793  36.152  1.00  0.00     0.029 A 
ATOM     32  C   UNL A   1      40.792  30.706  35.023  1.00  0.00     0.049 A 
ATOM     33  H   UNL A   1      41.087  29.565  33.275  1.00  0.00     0.167 HD
ATOM     34  C   UNL A   1      38.794  31.219  33.640  1.00  0.00     0.074 A 
ATOM     35  C   UNL A   1      37.516  31.861  33.406  1.00  0.00     0.031 C 
ATOM     36  C   UNL A   1      39.537  31.368  34.765  1.00  0.00     0.034 A 
BRANCH  23  37
ATOM     37  C   UNL A   1      44.741  28.033  34.858  1.00  0.00     0.023 A 
ATOM     38  C   UNL A   1      44.752  26.978  35.781  1.00  0.00     0.031 A 
ATOM     39  C   UNL A   1      45.920  28.778  34.667  1.00  0.00     0.131 A 
ATOM     40  C   UNL A   1      45.923  26.704  36.497  1.00  0.00     0.055 A 
ATOM     41  C   UNL A   1      47.091  28.484  35.362  1.00  0.00     0.041 A 
ATOM     42  F   UNL A   1      45.954  29.786  33.780  1.00  0.00    -0.206 F 
ATOM     43  C   UNL A   1      47.093  27.444  36.288  1.00  0.00     0.022 A 
BRANCH  40  44
ATOM     44  S   UNL A   1      45.968  25.368  37.719  1.00  0.00     0.124 S 
ATOM     45  O   UNL A   1      44.608  24.838  37.646  1.00  0.00    -0.237 OA
ATOM     46  O   UNL A   1      47.010  24.501  37.179  1.00  0.00    -0.237 OA
ATOM     47  O   UNL A   1      46.293  26.053  38.966  1.00  0.00    -0.744 OA
ENDBRANCH  40  44
ENDBRANCH  23  37
BRANCH  24  48
ATOM     48  C   UNL A   1      36.806  30.683  29.391  1.00  0.00     0.023 A 
ATOM     49  C   UNL A   1      36.251  31.973  29.489  1.00  0.00     0.031 A 
ATOM     50  C   UNL A   1      36.206  29.768  28.511  1.00  0.00     0.131 A 
ATOM     51  C   UNL A   1      35.126  32.308  28.721  1.00  0.00     0.055 A 
ATOM     52  C   UNL A   1      35.105  30.115  27.726  1.00  0.00     0.041 A 
ATOM     53  F   UNL A   1      36.697  28.525  28.394  1.00  0.00    -0.206 F 
ATOM     54  C   UNL A   1      34.558  31.391  27.831  1.00  0.00     0.022 A 
BRANCH  51  55
ATOM     55  S   UNL A   1      34.347  33.940  28.860  1.00  0.00     0.124 S 
ATOM     56  O   UNL A   1      35.469  34.837  28.596  1.00  0.00    -0.237 OA
ATOM     57  O   UNL A   1      33.334  33.877  27.811  1.00  0.00    -0.237 OA
ATOM     58  O   UNL A   1      33.836  33.960  30.228  1.00  0.00    -0.744 OA
ENDBRANCH  51  55
ENDBRANCH  24  48
BRANCH  36  59
ATOM     59  C   UNL A   1      39.045  32.308  35.831  1.00  0.00     0.023 A 
ATOM     60  C   UNL A   1      39.521  33.633  35.850  1.00  0.00     0.031 A 
ATOM     61  C   UNL A   1      38.261  31.859  36.904  1.00  0.00     0.131 A 
ATOM     62  C   UNL A   1      39.250  34.450  36.951  1.00  0.00     0.055 A 
ATOM     63  C   UNL A   1      37.952  32.695  37.977  1.00  0.00     0.041 A 
ATOM     64  F   UNL A   1      37.796  30.600  36.928  1.00  0.00    -0.206 F 
ATOM     65  C   UNL A   1      38.461  33.992  38.011  1.00  0.00     0.022 A 
BRANCH  62  66
ATOM     66  S   UNL A   1      39.986  36.102  37.087  1.00  0.00     0.124 S 
ATOM     67  O   UNL A   1      39.315  36.637  38.270  1.00  0.00    -0.237 OA
ATOM     68  O   UNL A   1      41.403  35.791  37.260  1.00  0.00    -0.237 OA
ATOM     69  O   UNL A   1      39.633  36.750  35.828  1.00  0.00    -0.744 OA
ENDBRANCH  62  66
ENDBRANCH  36  59
ENDBRANCH  10  11
ENDBRANCH   3   5
ENDBRANCH   2   3
ENDBRANCH   1   2
BRANCH   1  70
ATOM     70  C   UNL A   1      44.133  21.008  25.131  1.00  0.00     0.275 C 
BRANCH  70  71
ATOM     71  O   UNL A   1      42.807  21.544  25.258  1.00  0.00    -0.458 OA
BRANCH  71  72
ATOM     72  C   UNL A   1      42.001  20.885  26.132  1.00  0.00     0.338 C 
ATOM     73  O   UNL A   1      42.296  19.921  26.816  1.00  0.00    -0.246 OA
BRANCH  72  74
ATOM     74  C   UNL A   1      40.704  21.579  26.218  1.00  0.00     0.062 A 
ATOM     75  C   UNL A   1      40.570  22.770  26.920  1.00  0.00     0.038 A 
ATOM     76  C   UNL A   1      39.615  21.064  25.510  1.00  0.00     0.022 A 
ATOM     77  C   UNL A   1      39.317  23.383  26.977  1.00  0.00     0.065 A 
ATOM     78  C   UNL A   1      38.343  21.660  25.613  1.00  0.00    -0.015 A 
ATOM     79  Cl  UNL A   1      39.229  24.967  27.666  1.00  0.00    -0.082 Cl
ATOM     80  C   UNL A   1      38.164  22.774  26.435  1.00  0.00     0.057 A 
ATOM     81  C   UNL A   1      37.214  21.172  24.753  1.00  0.00     0.049 C 
ATOM     82  N   UNL A   1      36.904  23.317  26.624  1.00  0.00    -0.376 N 
ATOM     83  C   UNL A   1      36.725  19.781  25.046  1.00  0.00    -0.023 C 
ATOM     84  C   UNL A   1      35.911  22.012  24.791  1.00  0.00     0.031 C 
ATOM     85  C   UNL A   1      35.670  22.665  26.186  1.00  0.00     0.114 C 
ATOM     86  H   UNL A   1      36.836  24.187  27.078  1.00  0.00     0.161 HD
ATOM     87  C   UNL A   1      35.415  19.672  24.822  1.00  0.00    -0.030 C 
ATOM     88  C   UNL A   1      34.864  20.969  24.337  1.00  0.00     0.034 C 
BRANCH  85  89
ATOM     89  C   UNL A   1      34.519  23.696  26.172  1.00  0.00    -0.025 A 
ATOM     90  C   UNL A   1      34.692  25.048  25.811  1.00  0.00     0.007 A 
ATOM     91  C   UNL A   1      33.223  23.315  26.555  1.00  0.00     0.007 A 
ATOM     92  C   UNL A   1      33.626  25.961  25.836  1.00  0.00     0.022 A 
ATOM     93  C   UNL A   1      32.133  24.179  26.457  1.00  0.00     0.022 A 
ATOM     94  C   UNL A   1      32.344  25.517  26.149  1.00  0.00     0.082 A 
BRANCH  94  95
ATOM     95  S   UNL A   1      31.012  26.678  26.336  1.00  0.00     0.243 S 
ATOM     96  O   UNL A   1      29.791  25.923  26.551  1.00  0.00    -0.207 OA
ATOM     97  O   UNL A   1      31.443  27.689  27.272  1.00  0.00    -0.207 OA
BRANCH  95  98
ATOM     98  N   UNL A   1      30.842  27.399  24.810  1.00  0.00    -0.193 NA
ATOM     99  C   UNL A   1      31.107  28.848  24.670  1.00  0.00     0.131 C 
ATOM    100  C   UNL A   1      31.232  26.611  23.605  1.00  0.00     0.131 C 
ATOM    101  C   UNL A   1      30.460  29.344  23.371  1.00  0.00     0.177 C 
ATOM    102  C   UNL A   1      30.640  27.233  22.339  1.00  0.00     0.177 C 
ATOM    103  O   UNL A   1      30.970  28.631  22.237  1.00  0.00    -0.379 OA
ENDBRANCH  95  98
ENDBRANCH  94  95
ENDBRANCH  85  89
ENDBRANCH  72  74
ENDBRANCH  71  72
ENDBRANCH  70  71
ENDBRANCH   1  70
TORSDOF 17
ENDMDL
MODEL 3
REMARK VINA RESULT:     -12.9      1.523      1.861
REMARK SMILES O=C(OCCOC(=O)c1cc(Cl)c2c(c1)[C@H]1C=CC[C@H]1[C@H](c1ccc(S(=O)(=O)N3CCOCC3)cc1)N2)c1ccc(-c2c3nc(c(-c4cc(S(=O)(=O)[O-])ccc4F)c4ccc([nH]4)c(-c4cc(S(=O)(=O)[O-])ccc4F)c4nc(c(-c5cc(S(=O)(=O)[O-])ccc5F)c5ccc2[nH]5)C=C4)C=C3)cc1
REMARK SMILES IDX 4 1 3 2 2 3 1 4 38 5 39 6 100 7 40 8 99 9 41 10 42 11 43 12
REMARK SMILES IDX 93 13 44 14 98 15 92 16 94 17 45 18 97 19 91 20 90 21 46 23
REMARK SMILES IDX 78 24 58 25 77 26 59 27 62 28 76 29 95 30 60 31 61 32 75 34
REMARK SMILES IDX 96 35 63 36 47 37 48 38 56 39 49 40 55 41 57 42 54 43 50 44
REMARK SMILES IDX 51 45 52 46 53 47 79 48 80 49 88 50 81 51 87 52 89 53 86 54
REMARK SMILES IDX 82 55 83 56 84 57 85 58 64 59 65 60 73 61 66 62 72 63 74 64
REMARK SMILES IDX 71 65 67 66 68 67 69 68 70 69 5 70 6 71 7 72 8 73 9 74 10 75
REMARK SMILES IDX 15 76 11 77 14 78 12 79 13 80 16 81 37 82 17 83 20 84 21 85
REMARK SMILES IDX 18 87 19 88 22 89 23 90 36 91 24 92 35 93 25 94 26 95 27 96
REMARK SMILES IDX 28 97 29 98 30 99 34 100 31 101 33 102 32 103
REMARK H PARENT 94 22 62 33 37 86
REMARK Flexibility Score: inf
ROOT
ATOM      1  C   UNL A   1      34.780  33.920  32.987  1.00  0.00     0.275 C 
ENDROOT
BRANCH   1   2
ATOM      2  O   UNL A   1      35.284  32.578  33.023  1.00  0.00    -0.458 OA
BRANCH   2   3
ATOM      3  C   UNL A   1      36.508  32.185  33.447  1.00  0.00     0.338 C 
ATOM      4  O   UNL A   1      36.799  32.301  34.637  1.00  0.00    -0.246 OA
BRANCH   3   5
ATOM      5  C   UNL A   1      37.597  31.833  32.485  1.00  0.00     0.060 A 
ATOM      6  C   UNL A   1      37.664  32.183  31.135  1.00  0.00     0.016 A 
ATOM      7  C   UNL A   1      38.624  31.036  33.009  1.00  0.00     0.016 A 
ATOM      8  C   UNL A   1      38.761  31.806  30.350  1.00  0.00     0.010 A 
ATOM      9  C   UNL A   1      39.735  30.678  32.241  1.00  0.00     0.010 A 
ATOM     10  C   UNL A   1      39.800  31.048  30.896  1.00  0.00    -0.014 A 
BRANCH  10  11
ATOM     11  C   UNL A   1      40.847  30.473  30.023  1.00  0.00     0.031 A 
ATOM     12  C   UNL A   1      42.041  31.321  29.702  1.00  0.00     0.074 A 
ATOM     13  C   UNL A   1      40.768  29.214  29.556  1.00  0.00     0.049 A 
ATOM     14  N   UNL A   1      43.124  30.990  29.054  1.00  0.00    -0.248 NA
ATOM     15  C   UNL A   1      42.038  32.705  30.209  1.00  0.00     0.031 C 
ATOM     16  C   UNL A   1      39.705  28.266  29.868  1.00  0.00     0.029 A 
ATOM     17  N   UNL A   1      41.593  28.519  28.708  1.00  0.00    -0.354 N 
ATOM     18  C   UNL A   1      43.967  32.084  29.166  1.00  0.00     0.074 A 
ATOM     19  C   UNL A   1      43.228  33.136  29.822  1.00  0.00     0.031 C 
ATOM     20  C   UNL A   1      39.901  27.139  29.161  1.00  0.00     0.029 A 
ATOM     21  C   UNL A   1      41.105  27.282  28.356  1.00  0.00     0.049 A 
ATOM     22  H   UNL A   1      42.452  28.872  28.381  1.00  0.00     0.167 HD
ATOM     23  C   UNL A   1      45.270  32.171  28.824  1.00  0.00     0.034 A 
ATOM     24  C   UNL A   1      41.577  26.363  27.491  1.00  0.00     0.034 A 
ATOM     25  C   UNL A   1      45.982  31.136  28.133  1.00  0.00     0.049 A 
ATOM     26  C   UNL A   1      42.950  26.573  26.912  1.00  0.00     0.074 A 
ATOM     27  C   UNL A   1      47.306  31.124  27.739  1.00  0.00     0.029 A 
ATOM     28  N   UNL A   1      45.425  29.935  27.719  1.00  0.00    -0.354 N 
ATOM     29  N   UNL A   1      43.775  27.572  27.112  1.00  0.00    -0.248 NA
ATOM     30  C   UNL A   1      43.489  25.512  26.052  1.00  0.00     0.031 C 
ATOM     31  C   UNL A   1      47.537  29.936  27.042  1.00  0.00     0.029 A 
ATOM     32  C   UNL A   1      46.370  29.185  27.045  1.00  0.00     0.049 A 
ATOM     33  H   UNL A   1      44.494  29.658  27.881  1.00  0.00     0.167 HD
ATOM     34  C   UNL A   1      44.962  27.218  26.483  1.00  0.00     0.074 A 
ATOM     35  C   UNL A   1      44.734  25.930  25.860  1.00  0.00     0.031 C 
ATOM     36  C   UNL A   1      46.142  27.887  26.459  1.00  0.00     0.034 A 
BRANCH  23  37
ATOM     37  C   UNL A   1      46.014  33.403  29.247  1.00  0.00     0.023 A 
ATOM     38  C   UNL A   1      46.122  34.505  28.389  1.00  0.00     0.031 A 
ATOM     39  C   UNL A   1      46.672  33.446  30.491  1.00  0.00     0.131 A 
ATOM     40  C   UNL A   1      46.890  35.608  28.780  1.00  0.00     0.055 A 
ATOM     41  C   UNL A   1      47.413  34.557  30.887  1.00  0.00     0.041 A 
ATOM     42  F   UNL A   1      46.579  32.416  31.348  1.00  0.00    -0.206 F 
ATOM     43  C   UNL A   1      47.529  35.644  30.026  1.00  0.00     0.022 A 
BRANCH  40  44
ATOM     44  S   UNL A   1      47.078  37.039  27.686  1.00  0.00     0.124 S 
ATOM     45  O   UNL A   1      47.226  36.408  26.376  1.00  0.00    -0.237 OA
ATOM     46  O   UNL A   1      45.822  37.750  27.901  1.00  0.00    -0.237 OA
ATOM     47  O   UNL A   1      48.279  37.701  28.187  1.00  0.00    -0.744 OA
ENDBRANCH  40  44
ENDBRANCH  23  37
BRANCH  24  48
ATOM     48  C   UNL A   1      40.788  25.133  27.204  1.00  0.00     0.023 A 
ATOM     49  C   UNL A   1      41.406  23.869  27.176  1.00  0.00     0.031 A 
ATOM     50  C   UNL A   1      39.414  25.206  26.924  1.00  0.00     0.131 A 
ATOM     51  C   UNL A   1      40.648  22.730  26.868  1.00  0.00     0.055 A 
ATOM     52  C   UNL A   1      38.657  24.066  26.647  1.00  0.00     0.041 A 
ATOM     53  F   UNL A   1      38.787  26.392  26.930  1.00  0.00    -0.206 F 
ATOM     54  C   UNL A   1      39.275  22.819  26.616  1.00  0.00     0.022 A 
BRANCH  51  55
ATOM     55  S   UNL A   1      41.418  21.090  26.766  1.00  0.00     0.124 S 
ATOM     56  O   UNL A   1      40.268  20.228  26.509  1.00  0.00    -0.237 OA
ATOM     57  O   UNL A   1      42.337  21.262  25.644  1.00  0.00    -0.237 OA
ATOM     58  O   UNL A   1      42.047  20.926  28.073  1.00  0.00    -0.744 OA
ENDBRANCH  51  55
ENDBRANCH  24  48
BRANCH  36  59
ATOM     59  C   UNL A   1      47.324  27.237  25.794  1.00  0.00     0.023 A 
ATOM     60  C   UNL A   1      48.258  26.540  26.583  1.00  0.00     0.031 A 
ATOM     61  C   UNL A   1      47.613  27.447  24.437  1.00  0.00     0.131 A 
ATOM     62  C   UNL A   1      49.466  26.122  26.019  1.00  0.00     0.055 A 
ATOM     63  C   UNL A   1      48.799  26.984  23.868  1.00  0.00     0.041 A 
ATOM     64  F   UNL A   1      46.752  28.115  23.652  1.00  0.00    -0.206 F 
ATOM     65  C   UNL A   1      49.738  26.332  24.664  1.00  0.00     0.022 A 
BRANCH  62  66
ATOM     66  S   UNL A   1      50.761  25.373  27.043  1.00  0.00     0.124 S 
ATOM     67  O   UNL A   1      50.029  24.313  27.732  1.00  0.00    -0.237 OA
ATOM     68  O   UNL A   1      51.720  24.919  26.038  1.00  0.00    -0.237 OA
ATOM     69  O   UNL A   1      51.215  26.467  27.896  1.00  0.00    -0.744 OA
ENDBRANCH  62  66
ENDBRANCH  36  59
ENDBRANCH  10  11
ENDBRANCH   3   5
ENDBRANCH   2   3
ENDBRANCH   1   2
BRANCH   1  70
ATOM     70  C   UNL A   1      34.706  34.528  31.584  1.00  0.00     0.275 C 
BRANCH  70  71
ATOM     71  O   UNL A   1      34.005  33.718  30.630  1.00  0.00    -0.458 OA
BRANCH  71  72
ATOM     72  C   UNL A   1      34.291  33.983  29.328  1.00  0.00     0.338 C 
ATOM     73  O   UNL A   1      34.532  35.073  28.838  1.00  0.00    -0.246 OA
BRANCH  72  74
ATOM     74  C   UNL A   1      34.371  32.718  28.577  1.00  0.00     0.062 A 
ATOM     75  C   UNL A   1      35.552  31.988  28.521  1.00  0.00     0.038 A 
ATOM     76  C   UNL A   1      33.212  32.211  27.983  1.00  0.00     0.022 A 
ATOM     77  C   UNL A   1      35.576  30.799  27.790  1.00  0.00     0.065 A 
ATOM     78  C   UNL A   1      33.257  31.037  27.206  1.00  0.00    -0.015 A 
ATOM     79  Cl  UNL A   1      36.986  29.806  27.920  1.00  0.00    -0.082 Cl
ATOM     80  C   UNL A   1      34.472  30.374  27.020  1.00  0.00     0.057 A 
ATOM     81  C   UNL A   1      31.986  30.439  26.677  1.00  0.00     0.049 C 
ATOM     82  N   UNL A   1      34.555  29.274  26.183  1.00  0.00    -0.376 N 
ATOM     83  C   UNL A   1      31.265  31.250  25.638  1.00  0.00    -0.023 C 
ATOM     84  C   UNL A   1      32.112  29.047  26.004  1.00  0.00     0.031 C 
ATOM     85  C   UNL A   1      33.480  28.864  25.279  1.00  0.00     0.114 C 
ATOM     86  H   UNL A   1      35.381  28.740  26.197  1.00  0.00     0.161 HD
ATOM     87  C   UNL A   1      30.643  30.466  24.757  1.00  0.00    -0.030 C 
ATOM     88  C   UNL A   1      30.856  29.032  25.103  1.00  0.00     0.034 C 
BRANCH  85  89
ATOM     89  C   UNL A   1      33.721  27.410  24.818  1.00  0.00    -0.025 A 
ATOM     90  C   UNL A   1      34.113  26.373  25.690  1.00  0.00     0.007 A 
ATOM     91  C   UNL A   1      33.577  27.064  23.465  1.00  0.00     0.007 A 
ATOM     92  C   UNL A   1      34.348  25.069  25.227  1.00  0.00     0.022 A 
ATOM     93  C   UNL A   1      33.679  25.747  23.017  1.00  0.00     0.022 A 
ATOM     94  C   UNL A   1      34.117  24.758  23.890  1.00  0.00     0.082 A 
BRANCH  94  95
ATOM     95  S   UNL A   1      34.553  23.158  23.251  1.00  0.00     0.243 S 
ATOM     96  O   UNL A   1      34.050  23.070  21.892  1.00  0.00    -0.207 OA
ATOM     97  O   UNL A   1      35.947  22.934  23.551  1.00  0.00    -0.207 OA
BRANCH  95  98
ATOM     98  N   UNL A   1      33.628  22.060  24.154  1.00  0.00    -0.193 NA
ATOM     99  C   UNL A   1      32.155  22.199  24.159  1.00  0.00     0.131 C 
ATOM    100  C   UNL A   1      34.085  20.641  24.231  1.00  0.00     0.131 C 
ATOM    101  C   UNL A   1      31.591  21.432  25.361  1.00  0.00     0.177 C 
ATOM    102  C   UNL A   1      33.393  19.914  25.385  1.00  0.00     0.177 C 
ATOM    103  O   UNL A   1      31.962  20.048  25.309  1.00  0.00    -0.379 OA
ENDBRANCH  95  98
ENDBRANCH  94  95
ENDBRANCH  85  89
ENDBRANCH  72  74
ENDBRANCH  71  72
ENDBRANCH  70  71
ENDBRANCH   1  70
TORSDOF 17
ENDMDL
