MODEL 1
REMARK VINA RESULT:     -12.0      0.000      0.000
REMARK SMILES C[C@@H]1CCN(c2cncc(C(=O)OCCOC(=O)c3ccc(-c4c5nc(c(-c6cc(S(=O)(=O)[O-])ccc6F)c6ccc([nH]6)c(-c6cc(S(=O)(=O)[O-])ccc6F)c6nc(c(-c7cc(S(=O)(=O)[O-])ccc7F)c7ccc4[nH]7)C=C6)C=C5)cc3)n2)[C@H](C)C1
REMARK SMILES IDX 15 1 14 2 13 3 11 4 12 5 10 6 6 7 7 8 82 9 8 10 9 11 5 12
REMARK SMILES IDX 1 13 2 14 3 15 85 16 4 17 83 18 84 19 16 20 17 21 18 22
REMARK SMILES IDX 19 23 20 24 81 25 21 26 80 27 22 28 23 29 24 30 74 31 25 32
REMARK SMILES IDX 79 33 73 34 75 35 26 36 78 37 72 38 71 39 27 41 59 42 39 43
REMARK SMILES IDX 58 44 40 45 43 46 57 47 76 48 41 49 42 50 56 52 77 53 44 54
REMARK SMILES IDX 28 55 29 56 37 57 30 58 36 59 38 60 35 61 31 62 32 63 33 64
REMARK SMILES IDX 34 65 60 66 61 67 69 68 62 69 68 70 70 71 67 72 63 73 64 74
REMARK SMILES IDX 65 75 66 76 45 77 46 78 54 79 47 80 53 81 55 82 52 83 48 84
REMARK SMILES IDX 49 85 50 86 51 87
REMARK H PARENT 75 40 43 51
REMARK Flexibility Score: inf
ROOT
ATOM      1  C   UNL A   1      36.161  20.413  25.021  1.00  0.00     0.275 C 
ENDROOT
BRANCH   1   2
ATOM      2  C   UNL A   1      34.694  20.751  25.284  1.00  0.00     0.275 C 
BRANCH   2   3
ATOM      3  O   UNL A   1      34.352  22.028  24.712  1.00  0.00    -0.457 OA
BRANCH   3   4
ATOM      4  C   UNL A   1      33.362  22.022  23.779  1.00  0.00     0.358 C 
ATOM      5  O   UNL A   1      32.620  21.089  23.524  1.00  0.00    -0.244 OA
BRANCH   4   6
ATOM      6  C   UNL A   1      33.205  23.364  23.167  1.00  0.00     0.169 A 
ATOM      7  C   UNL A   1      32.644  25.596  23.324  1.00  0.00     0.148 A 
ATOM      8  C   UNL A   1      32.734  25.664  21.926  1.00  0.00     0.157 A 
ATOM      9  N   UNL A   1      32.871  24.420  23.955  1.00  0.00    -0.221 NA
ATOM     10  N   UNL A   1      33.120  24.633  21.137  1.00  0.00    -0.258 NA
ATOM     11  C   UNL A   1      33.374  23.485  21.797  1.00  0.00     0.147 A 
BRANCH   7  12
ATOM     12  N   UNL A   1      32.417  26.711  24.105  1.00  0.00    -0.353 N 
ATOM     13  C   UNL A   1      31.847  28.916  27.123  1.00  0.00     0.008 C 
ATOM     14  C   UNL A   1      32.016  27.415  26.887  1.00  0.00    -0.011 C 
ATOM     15  C   UNL A   1      33.394  27.066  26.308  1.00  0.00     0.025 C 
ATOM     16  C   UNL A   1      30.885  26.815  26.032  1.00  0.00     0.028 C 
ATOM     17  C   UNL A   1      33.490  27.380  24.821  1.00  0.00     0.118 C 
ATOM     18  C   UNL A   1      31.029  26.952  24.499  1.00  0.00     0.081 C 
ATOM     19  C   UNL A   1      30.530  28.276  23.927  1.00  0.00     0.031 C 
ENDBRANCH   7  12
ENDBRANCH   4   6
ENDBRANCH   3   4
ENDBRANCH   2   3
ENDBRANCH   1   2
BRANCH   1  20
ATOM     20  O   UNL A   1      36.991  21.494  25.479  1.00  0.00    -0.458 OA
BRANCH  20  21
ATOM     21  C   UNL A   1      38.289  21.189  25.708  1.00  0.00     0.338 C 
ATOM     22  O   UNL A   1      38.864  20.148  25.437  1.00  0.00    -0.246 OA
BRANCH  21  23
ATOM     23  C   UNL A   1      38.953  22.339  26.344  1.00  0.00     0.060 A 
ATOM     24  C   UNL A   1      38.452  23.619  26.123  1.00  0.00     0.016 A 
ATOM     25  C   UNL A   1      40.133  22.164  27.061  1.00  0.00     0.016 A 
ATOM     26  C   UNL A   1      39.167  24.738  26.545  1.00  0.00     0.010 A 
ATOM     27  C   UNL A   1      40.804  23.285  27.565  1.00  0.00     0.010 A 
ATOM     28  C   UNL A   1      40.351  24.588  27.280  1.00  0.00    -0.014 A 
BRANCH  28  29
ATOM     29  C   UNL A   1      41.145  25.784  27.687  1.00  0.00     0.031 A 
ATOM     30  C   UNL A   1      40.520  26.841  28.563  1.00  0.00     0.074 A 
ATOM     31  C   UNL A   1      42.428  25.927  27.296  1.00  0.00     0.049 A 
ATOM     32  N   UNL A   1      40.961  28.032  28.878  1.00  0.00    -0.248 NA
ATOM     33  C   UNL A   1      39.208  26.515  29.139  1.00  0.00     0.031 C 
ATOM     34  C   UNL A   1      43.177  24.967  26.485  1.00  0.00     0.029 A 
ATOM     35  N   UNL A   1      43.330  26.937  27.531  1.00  0.00    -0.354 N 
ATOM     36  C   UNL A   1      39.958  28.620  29.643  1.00  0.00     0.074 A 
ATOM     37  C   UNL A   1      38.878  27.658  29.720  1.00  0.00     0.031 C 
ATOM     38  C   UNL A   1      44.430  25.418  26.314  1.00  0.00     0.029 A 
ATOM     39  C   UNL A   1      44.549  26.737  26.925  1.00  0.00     0.049 A 
ATOM     40  H   UNL A   1      43.124  27.728  28.080  1.00  0.00     0.167 HD
ATOM     41  C   UNL A   1      39.940  29.847  30.227  1.00  0.00     0.034 A 
ATOM     42  C   UNL A   1      45.628  27.540  26.825  1.00  0.00     0.034 A 
ATOM     43  C   UNL A   1      41.044  30.778  30.174  1.00  0.00     0.049 A 
ATOM     44  C   UNL A   1      45.583  28.906  27.453  1.00  0.00     0.074 A 
ATOM     45  C   UNL A   1      41.141  32.040  30.736  1.00  0.00     0.029 A 
ATOM     46  N   UNL A   1      42.253  30.545  29.526  1.00  0.00    -0.354 N 
ATOM     47  N   UNL A   1      44.602  29.480  28.110  1.00  0.00    -0.248 NA
ATOM     48  C   UNL A   1      46.787  29.736  27.317  1.00  0.00     0.031 C 
ATOM     49  C   UNL A   1      42.380  32.589  30.383  1.00  0.00     0.029 A 
ATOM     50  C   UNL A   1      43.088  31.645  29.658  1.00  0.00     0.049 A 
ATOM     51  H   UNL A   1      42.483  29.717  29.044  1.00  0.00     0.167 HD
ATOM     52  C   UNL A   1      45.070  30.742  28.465  1.00  0.00     0.074 A 
ATOM     53  C   UNL A   1      46.431  30.832  27.972  1.00  0.00     0.031 C 
ATOM     54  C   UNL A   1      44.432  31.735  29.133  1.00  0.00     0.034 A 
BRANCH  41  55
ATOM     55  C   UNL A   1      38.659  30.266  30.912  1.00  0.00     0.023 A 
ATOM     56  C   UNL A   1      37.616  30.907  30.222  1.00  0.00     0.031 A 
ATOM     57  C   UNL A   1      38.508  30.079  32.299  1.00  0.00     0.131 A 
ATOM     58  C   UNL A   1      36.518  31.422  30.930  1.00  0.00     0.055 A 
ATOM     59  C   UNL A   1      37.372  30.514  32.984  1.00  0.00     0.041 A 
ATOM     60  F   UNL A   1      39.477  29.491  33.019  1.00  0.00    -0.206 F 
ATOM     61  C   UNL A   1      36.378  31.209  32.303  1.00  0.00     0.022 A 
BRANCH  58  62
ATOM     62  S   UNL A   1      35.368  32.527  30.065  1.00  0.00     0.124 S 
ATOM     63  O   UNL A   1      36.216  33.689  29.801  1.00  0.00    -0.237 OA
ATOM     64  O   UNL A   1      34.987  31.737  28.901  1.00  0.00    -0.237 OA
ATOM     65  O   UNL A   1      34.306  32.753  31.043  1.00  0.00    -0.744 OA
ENDBRANCH  58  62
ENDBRANCH  41  55
BRANCH  42  66
ATOM     66  C   UNL A   1      46.806  27.099  26.026  1.00  0.00     0.023 A 
ATOM     67  C   UNL A   1      47.025  27.569  24.722  1.00  0.00     0.031 A 
ATOM     68  C   UNL A   1      47.738  26.197  26.571  1.00  0.00     0.131 A 
ATOM     69  C   UNL A   1      48.143  27.121  23.999  1.00  0.00     0.055 A 
ATOM     70  C   UNL A   1      48.871  25.791  25.866  1.00  0.00     0.041 A 
ATOM     71  F   UNL A   1      47.574  25.720  27.814  1.00  0.00    -0.206 F 
ATOM     72  C   UNL A   1      49.075  26.249  24.569  1.00  0.00     0.022 A 
BRANCH  69  73
ATOM     73  S   UNL A   1      48.347  27.663  22.280  1.00  0.00     0.124 S 
ATOM     74  O   UNL A   1      47.120  28.421  22.060  1.00  0.00    -0.237 OA
ATOM     75  O   UNL A   1      49.579  28.440  22.349  1.00  0.00    -0.237 OA
ATOM     76  O   UNL A   1      48.446  26.409  21.537  1.00  0.00    -0.744 OA
ENDBRANCH  69  73
ENDBRANCH  42  66
BRANCH  54  77
ATOM     77  C   UNL A   1      45.219  32.997  29.385  1.00  0.00     0.023 A 
ATOM     78  C   UNL A   1      45.074  34.131  28.565  1.00  0.00     0.031 A 
ATOM     79  C   UNL A   1      46.143  33.056  30.442  1.00  0.00     0.131 A 
ATOM     80  C   UNL A   1      45.881  35.258  28.784  1.00  0.00     0.055 A 
ATOM     81  C   UNL A   1      46.905  34.199  30.688  1.00  0.00     0.041 A 
ATOM     82  F   UNL A   1      46.322  32.002  31.253  1.00  0.00    -0.206 F 
ATOM     83  C   UNL A   1      46.785  35.305  29.849  1.00  0.00     0.022 A 
BRANCH  80  84
ATOM     84  S   UNL A   1      45.795  36.636  27.607  1.00  0.00     0.124 S 
ATOM     85  O   UNL A   1      45.428  37.753  28.474  1.00  0.00    -0.237 OA
ATOM     86  O   UNL A   1      47.149  36.668  27.063  1.00  0.00    -0.237 OA
ATOM     87  O   UNL A   1      44.758  36.218  26.665  1.00  0.00    -0.744 OA
ENDBRANCH  80  84
ENDBRANCH  54  77
ENDBRANCH  28  29
ENDBRANCH  21  23
ENDBRANCH  20  21
ENDBRANCH   1  20
TORSDOF 15
ENDMDL
MODEL 2
REMARK VINA RESULT:     -12.0      1.412      1.728
REMARK SMILES C[C@@H]1CCN(c2cncc(C(=O)OCCOC(=O)c3ccc(-c4c5nc(c(-c6cc(S(=O)(=O)[O-])ccc6F)c6ccc([nH]6)c(-c6cc(S(=O)(=O)[O-])ccc6F)c6nc(c(-c7cc(S(=O)(=O)[O-])ccc7F)c7ccc4[nH]7)C=C6)C=C5)cc3)n2)[C@H](C)C1
REMARK SMILES IDX 15 1 14 2 13 3 11 4 12 5 10 6 6 7 7 8 82 9 8 10 9 11 5 12
REMARK SMILES IDX 1 13 2 14 3 15 85 16 4 17 83 18 84 19 16 20 17 21 18 22
REMARK SMILES IDX 19 23 20 24 81 25 21 26 80 27 22 28 23 29 24 30 74 31 25 32
REMARK SMILES IDX 79 33 73 34 75 35 26 36 78 37 72 38 71 39 27 41 59 42 39 43
REMARK SMILES IDX 58 44 40 45 43 46 57 47 76 48 41 49 42 50 56 52 77 53 44 54
REMARK SMILES IDX 28 55 29 56 37 57 30 58 36 59 38 60 35 61 31 62 32 63 33 64
REMARK SMILES IDX 34 65 60 66 61 67 69 68 62 69 68 70 70 71 67 72 63 73 64 74
REMARK SMILES IDX 65 75 66 76 45 77 46 78 54 79 47 80 53 81 55 82 52 83 48 84
REMARK SMILES IDX 49 85 50 86 51 87
REMARK H PARENT 75 40 43 51
REMARK Flexibility Score: inf
ROOT
ATOM      1  C   UNL A   1      36.475  20.343  25.004  1.00  0.00     0.275 C 
ENDROOT
BRANCH   1   2
ATOM      2  C   UNL A   1      35.040  20.845  25.158  1.00  0.00     0.275 C 
BRANCH   2   3
ATOM      3  O   UNL A   1      34.717  21.798  24.127  1.00  0.00    -0.457 OA
BRANCH   3   4
ATOM      4  C   UNL A   1      33.399  22.103  23.984  1.00  0.00     0.358 C 
ATOM      5  O   UNL A   1      32.461  21.459  24.421  1.00  0.00    -0.244 OA
BRANCH   4   6
ATOM      6  C   UNL A   1      33.230  23.415  23.314  1.00  0.00     0.169 A 
ATOM      7  C   UNL A   1      32.673  25.652  23.379  1.00  0.00     0.148 A 
ATOM      8  C   UNL A   1      32.737  25.656  21.977  1.00  0.00     0.157 A 
ATOM      9  N   UNL A   1      32.912  24.507  24.059  1.00  0.00    -0.221 NA
ATOM     10  N   UNL A   1      33.109  24.589  21.230  1.00  0.00    -0.258 NA
ATOM     11  C   UNL A   1      33.374  23.473  21.937  1.00  0.00     0.147 A 
BRANCH   7  12
ATOM     12  N   UNL A   1      32.460  26.802  24.111  1.00  0.00    -0.353 N 
ATOM     13  C   UNL A   1      32.002  29.153  27.037  1.00  0.00     0.008 C 
ATOM     14  C   UNL A   1      32.197  27.646  26.872  1.00  0.00    -0.011 C 
ATOM     15  C   UNL A   1      33.550  27.299  26.234  1.00  0.00     0.025 C 
ATOM     16  C   UNL A   1      31.036  26.974  26.115  1.00  0.00     0.028 C 
ATOM     17  C   UNL A   1      33.554  27.534  24.729  1.00  0.00     0.118 C 
ATOM     18  C   UNL A   1      31.091  27.032  24.572  1.00  0.00     0.081 C 
ATOM     19  C   UNL A   1      30.526  28.310  23.960  1.00  0.00     0.031 C 
ENDBRANCH   7  12
ENDBRANCH   4   6
ENDBRANCH   3   4
ENDBRANCH   2   3
ENDBRANCH   1   2
BRANCH   1  20
ATOM     20  O   UNL A   1      37.391  21.424  25.252  1.00  0.00    -0.458 OA
BRANCH  20  21
ATOM     21  C   UNL A   1      38.592  21.075  25.768  1.00  0.00     0.338 C 
ATOM     22  O   UNL A   1      39.125  19.979  25.729  1.00  0.00    -0.246 OA
BRANCH  21  23
ATOM     23  C   UNL A   1      39.208  22.254  26.399  1.00  0.00     0.060 A 
ATOM     24  C   UNL A   1      38.690  23.518  26.128  1.00  0.00     0.016 A 
ATOM     25  C   UNL A   1      40.364  22.122  27.164  1.00  0.00     0.016 A 
ATOM     26  C   UNL A   1      39.367  24.662  26.548  1.00  0.00     0.010 A 
ATOM     27  C   UNL A   1      40.993  23.269  27.664  1.00  0.00     0.010 A 
ATOM     28  C   UNL A   1      40.525  24.554  27.331  1.00  0.00    -0.014 A 
BRANCH  28  29
ATOM     29  C   UNL A   1      41.279  25.776  27.737  1.00  0.00     0.031 A 
ATOM     30  C   UNL A   1      40.603  26.835  28.572  1.00  0.00     0.074 A 
ATOM     31  C   UNL A   1      42.569  25.942  27.381  1.00  0.00     0.049 A 
ATOM     32  N   UNL A   1      41.008  28.042  28.876  1.00  0.00    -0.248 NA
ATOM     33  C   UNL A   1      39.282  26.490  29.115  1.00  0.00     0.031 C 
ATOM     34  C   UNL A   1      43.364  24.984  26.612  1.00  0.00     0.029 A 
ATOM     35  N   UNL A   1      43.441  26.977  27.623  1.00  0.00    -0.354 N 
ATOM     36  C   UNL A   1      39.969  28.622  29.599  1.00  0.00     0.074 A 
ATOM     37  C   UNL A   1      38.909  27.636  29.663  1.00  0.00     0.031 C 
ATOM     38  C   UNL A   1      44.611  25.461  26.469  1.00  0.00     0.029 A 
ATOM     39  C   UNL A   1      44.682  26.794  27.057  1.00  0.00     0.049 A 
ATOM     40  H   UNL A   1      43.200  27.773  28.149  1.00  0.00     0.167 HD
ATOM     41  C   UNL A   1      39.906  29.859  30.157  1.00  0.00     0.034 A 
ATOM     42  C   UNL A   1      45.744  27.620  26.973  1.00  0.00     0.034 A 
ATOM     43  C   UNL A   1      40.989  30.814  30.118  1.00  0.00     0.049 A 
ATOM     44  C   UNL A   1      45.649  28.996  27.572  1.00  0.00     0.074 A 
ATOM     45  C   UNL A   1      41.040  32.088  30.658  1.00  0.00     0.029 A 
ATOM     46  N   UNL A   1      42.222  30.596  29.512  1.00  0.00    -0.354 N 
ATOM     47  N   UNL A   1      44.636  29.560  28.188  1.00  0.00    -0.248 NA
ATOM     48  C   UNL A   1      46.837  29.852  27.455  1.00  0.00     0.031 C 
ATOM     49  C   UNL A   1      42.276  32.659  30.331  1.00  0.00     0.029 A 
ATOM     50  C   UNL A   1      43.027  31.718  29.646  1.00  0.00     0.049 A 
ATOM     51  H   UNL A   1      42.485  29.766  29.053  1.00  0.00     0.167 HD
ATOM     52  C   UNL A   1      45.064  30.839  28.531  1.00  0.00     0.074 A 
ATOM     53  C   UNL A   1      46.437  30.951  28.077  1.00  0.00     0.031 C 
ATOM     54  C   UNL A   1      44.384  31.830  29.160  1.00  0.00     0.034 A 
BRANCH  41  55
ATOM     55  C   UNL A   1      38.595  30.261  30.795  1.00  0.00     0.023 A 
ATOM     56  C   UNL A   1      37.569  30.888  30.068  1.00  0.00     0.031 A 
ATOM     57  C   UNL A   1      38.397  30.071  32.176  1.00  0.00     0.131 A 
ATOM     58  C   UNL A   1      36.440  31.389  30.736  1.00  0.00     0.055 A 
ATOM     59  C   UNL A   1      37.231  30.491  32.820  1.00  0.00     0.041 A 
ATOM     60  F   UNL A   1      39.346  29.496  32.931  1.00  0.00    -0.206 F 
ATOM     61  C   UNL A   1      36.253  31.174  32.103  1.00  0.00     0.022 A 
BRANCH  58  62
ATOM     62  S   UNL A   1      35.308  32.480  29.829  1.00  0.00     0.124 S 
ATOM     63  O   UNL A   1      34.870  31.611  28.738  1.00  0.00    -0.237 OA
ATOM     64  O   UNL A   1      34.302  32.796  30.836  1.00  0.00    -0.237 OA
ATOM     65  O   UNL A   1      36.158  33.596  29.422  1.00  0.00    -0.744 OA
ENDBRANCH  58  62
ENDBRANCH  41  55
BRANCH  42  66
ATOM     66  C   UNL A   1      46.956  27.191  26.218  1.00  0.00     0.023 A 
ATOM     67  C   UNL A   1      48.033  26.561  26.857  1.00  0.00     0.031 A 
ATOM     68  C   UNL A   1      47.043  27.408  24.830  1.00  0.00     0.131 A 
ATOM     69  C   UNL A   1      49.161  26.182  26.110  1.00  0.00     0.055 A 
ATOM     70  C   UNL A   1      48.145  26.989  24.086  1.00  0.00     0.041 A 
ATOM     71  F   UNL A   1      46.038  28.007  24.173  1.00  0.00    -0.206 F 
ATOM     72  C   UNL A   1      49.217  26.377  24.727  1.00  0.00     0.022 A 
BRANCH  69  73
ATOM     73  S   UNL A   1      50.582  25.462  26.978  1.00  0.00     0.124 S 
ATOM     74  O   UNL A   1      49.972  24.321  27.652  1.00  0.00    -0.237 OA
ATOM     75  O   UNL A   1      51.486  25.149  25.877  1.00  0.00    -0.237 OA
ATOM     76  O   UNL A   1      51.027  26.541  27.857  1.00  0.00    -0.744 OA
ENDBRANCH  69  73
ENDBRANCH  42  66
BRANCH  54  77
ATOM     77  C   UNL A   1      45.134  33.115  29.410  1.00  0.00     0.023 A 
ATOM     78  C   UNL A   1      45.107  34.174  28.485  1.00  0.00     0.031 A 
ATOM     79  C   UNL A   1      45.906  33.269  30.574  1.00  0.00     0.131 A 
ATOM     80  C   UNL A   1      45.880  35.323  28.716  1.00  0.00     0.055 A 
ATOM     81  C   UNL A   1      46.632  34.435  30.824  1.00  0.00     0.041 A 
ATOM     82  F   UNL A   1      45.969  32.288  31.487  1.00  0.00    -0.206 F 
ATOM     83  C   UNL A   1      46.631  35.465  29.886  1.00  0.00     0.022 A 
BRANCH  80  84
ATOM     84  S   UNL A   1      45.961  36.596  27.427  1.00  0.00     0.124 S 
ATOM     85  O   UNL A   1      46.637  35.889  26.344  1.00  0.00    -0.237 OA
ATOM     86  O   UNL A   1      44.552  36.908  27.206  1.00  0.00    -0.237 OA
ATOM     87  O   UNL A   1      46.741  37.665  28.049  1.00  0.00    -0.744 OA
ENDBRANCH  80  84
ENDBRANCH  54  77
ENDBRANCH  28  29
ENDBRANCH  21  23
ENDBRANCH  20  21
ENDBRANCH   1  20
TORSDOF 15
ENDMDL
MODEL 3
REMARK VINA RESULT:     -11.9      5.197     10.173
REMARK SMILES C[C@@H]1CCN(c2cncc(C(=O)OCCOC(=O)c3ccc(-c4c5nc(c(-c6cc(S(=O)(=O)[O-])ccc6F)c6ccc([nH]6)c(-c6cc(S(=O)(=O)[O-])ccc6F)c6nc(c(-c7cc(S(=O)(=O)[O-])ccc7F)c7ccc4[nH]7)C=C6)C=C5)cc3)n2)[C@H](C)C1
REMARK SMILES IDX 15 1 14 2 13 3 11 4 12 5 10 6 6 7 7 8 82 9 8 10 9 11 5 12
REMARK SMILES IDX 1 13 2 14 3 15 85 16 4 17 83 18 84 19 16 20 17 21 18 22
REMARK SMILES IDX 19 23 20 24 81 25 21 26 80 27 22 28 23 29 24 30 74 31 25 32
REMARK SMILES IDX 79 33 73 34 75 35 26 36 78 37 72 38 71 39 27 41 59 42 39 43
REMARK SMILES IDX 58 44 40 45 43 46 57 47 76 48 41 49 42 50 56 52 77 53 44 54
REMARK SMILES IDX 28 55 29 56 37 57 30 58 36 59 38 60 35 61 31 62 32 63 33 64
REMARK SMILES IDX 34 65 60 66 61 67 69 68 62 69 68 70 70 71 67 72 63 73 64 74
REMARK SMILES IDX 65 75 66 76 45 77 46 78 54 79 47 80 53 81 55 82 52 83 48 84
REMARK SMILES IDX 49 85 50 86 51 87
REMARK H PARENT 75 40 43 51
REMARK Flexibility Score: inf
ROOT
ATOM      1  C   UNL A   1      31.613  30.834  26.101  1.00  0.00     0.275 C 
ENDROOT
BRANCH   1   2
ATOM      2  C   UNL A   1      31.279  29.816  25.011  1.00  0.00     0.275 C 
BRANCH   2   3
ATOM      3  O   UNL A   1      31.378  28.471  25.518  1.00  0.00    -0.457 OA
BRANCH   3   4
ATOM      4  C   UNL A   1      31.531  27.490  24.589  1.00  0.00     0.358 C 
ATOM      5  O   UNL A   1      31.732  27.652  23.398  1.00  0.00    -0.244 OA
BRANCH   4   6
ATOM      6  C   UNL A   1      31.544  26.153  25.231  1.00  0.00     0.169 A 
ATOM      7  C   UNL A   1      32.501  24.078  25.543  1.00  0.00     0.148 A 
ATOM      8  C   UNL A   1      31.348  23.709  26.251  1.00  0.00     0.157 A 
ATOM      9  N   UNL A   1      32.595  25.319  25.012  1.00  0.00    -0.221 NA
ATOM     10  N   UNL A   1      30.321  24.549  26.523  1.00  0.00    -0.258 NA
ATOM     11  C   UNL A   1      30.458  25.789  26.011  1.00  0.00     0.147 A 
BRANCH   7  12
ATOM     12  N   UNL A   1      33.599  23.248  25.435  1.00  0.00    -0.353 N 
ATOM     13  C   UNL A   1      37.029  21.945  24.526  1.00  0.00     0.008 C 
ATOM     14  C   UNL A   1      36.232  23.214  24.224  1.00  0.00    -0.011 C 
ATOM     15  C   UNL A   1      35.911  24.016  25.493  1.00  0.00     0.025 C 
ATOM     16  C   UNL A   1      34.958  22.936  23.404  1.00  0.00     0.028 C 
ATOM     17  C   UNL A   1      34.766  23.403  26.288  1.00  0.00     0.118 C 
ATOM     18  C   UNL A   1      33.711  22.481  24.195  1.00  0.00     0.081 C 
ATOM     19  C   UNL A   1      33.649  20.984  24.482  1.00  0.00     0.031 C 
ENDBRANCH   7  12
ENDBRANCH   4   6
ENDBRANCH   3   4
ENDBRANCH   2   3
ENDBRANCH   1   2
BRANCH   1  20
ATOM     20  O   UNL A   1      33.019  30.774  26.398  1.00  0.00    -0.458 OA
BRANCH  20  21
ATOM     21  C   UNL A   1      33.493  31.742  27.216  1.00  0.00     0.338 C 
ATOM     22  O   UNL A   1      32.945  32.788  27.522  1.00  0.00    -0.246 OA
BRANCH  21  23
ATOM     23  C   UNL A   1      34.816  31.341  27.725  1.00  0.00     0.060 A 
ATOM     24  C   UNL A   1      35.035  30.009  28.069  1.00  0.00     0.016 A 
ATOM     25  C   UNL A   1      35.797  32.297  27.971  1.00  0.00     0.016 A 
ATOM     26  C   UNL A   1      36.201  29.637  28.735  1.00  0.00     0.010 A 
ATOM     27  C   UNL A   1      37.007  31.906  28.557  1.00  0.00     0.010 A 
ATOM     28  C   UNL A   1      37.210  30.579  28.981  1.00  0.00    -0.014 A 
BRANCH  28  29
ATOM     29  C   UNL A   1      38.435  30.193  29.740  1.00  0.00     0.031 A 
ATOM     30  C   UNL A   1      39.417  29.218  29.139  1.00  0.00     0.074 A 
ATOM     31  C   UNL A   1      38.690  30.720  30.955  1.00  0.00     0.049 A 
ATOM     32  N   UNL A   1      40.436  28.612  29.693  1.00  0.00    -0.248 NA
ATOM     33  C   UNL A   1      39.200  28.862  27.730  1.00  0.00     0.031 C 
ATOM     34  C   UNL A   1      37.854  31.705  31.642  1.00  0.00     0.029 A 
ATOM     35  N   UNL A   1      39.728  30.500  31.828  1.00  0.00    -0.354 N 
ATOM     36  C   UNL A   1      40.950  27.762  28.719  1.00  0.00     0.074 A 
ATOM     37  C   UNL A   1      40.110  27.917  27.549  1.00  0.00     0.031 C 
ATOM     38  C   UNL A   1      38.425  32.025  32.814  1.00  0.00     0.029 A 
ATOM     39  C   UNL A   1      39.617  31.207  33.004  1.00  0.00     0.049 A 
ATOM     40  H   UNL A   1      40.479  29.894  31.633  1.00  0.00     0.167 HD
ATOM     41  C   UNL A   1      42.022  26.930  28.792  1.00  0.00     0.034 A 
ATOM     42  C   UNL A   1      40.357  31.170  34.130  1.00  0.00     0.034 A 
ATOM     43  C   UNL A   1      42.874  26.819  29.954  1.00  0.00     0.049 A 
ATOM     44  C   UNL A   1      41.525  30.225  34.206  1.00  0.00     0.074 A 
ATOM     45  C   UNL A   1      43.991  26.020  30.135  1.00  0.00     0.029 A 
ATOM     46  N   UNL A   1      42.710  27.536  31.134  1.00  0.00    -0.354 N 
ATOM     47  N   UNL A   1      41.957  29.372  33.306  1.00  0.00    -0.248 NA
ATOM     48  C   UNL A   1      42.298  30.229  35.455  1.00  0.00     0.031 C 
ATOM     49  C   UNL A   1      44.466  26.212  31.438  1.00  0.00     0.029 A 
ATOM     50  C   UNL A   1      43.689  27.182  32.050  1.00  0.00     0.049 A 
ATOM     51  H   UNL A   1      42.001  28.200  31.295  1.00  0.00     0.167 HD
ATOM     52  C   UNL A   1      43.053  28.736  33.881  1.00  0.00     0.074 A 
ATOM     53  C   UNL A   1      43.231  29.324  35.194  1.00  0.00     0.031 C 
ATOM     54  C   UNL A   1      43.837  27.753  33.370  1.00  0.00     0.034 A 
BRANCH  41  55
ATOM     55  C   UNL A   1      42.283  26.035  27.602  1.00  0.00     0.023 A 
ATOM     56  C   UNL A   1      41.781  24.725  27.526  1.00  0.00     0.031 A 
ATOM     57  C   UNL A   1      43.109  26.481  26.552  1.00  0.00     0.131 A 
ATOM     58  C   UNL A   1      42.183  23.878  26.481  1.00  0.00     0.055 A 
ATOM     59  C   UNL A   1      43.433  25.663  25.468  1.00  0.00     0.041 A 
ATOM     60  F   UNL A   1      43.637  27.715  26.574  1.00  0.00    -0.206 F 
ATOM     61  C   UNL A   1      42.987  24.345  25.439  1.00  0.00     0.022 A 
BRANCH  58  62
ATOM     62  S   UNL A   1      41.790  22.110  26.596  1.00  0.00     0.124 S 
ATOM     63  O   UNL A   1      42.395  21.591  25.370  1.00  0.00    -0.237 OA
ATOM     64  O   UNL A   1      42.439  21.723  27.842  1.00  0.00    -0.237 OA
ATOM     65  O   UNL A   1      40.329  22.083  26.617  1.00  0.00    -0.744 OA
ENDBRANCH  58  62
ENDBRANCH  41  55
BRANCH  42  66
ATOM     66  C   UNL A   1      39.959  31.996  35.305  1.00  0.00     0.023 A 
ATOM     67  C   UNL A   1      39.040  31.525  36.254  1.00  0.00     0.031 A 
ATOM     68  C   UNL A   1      40.506  33.279  35.491  1.00  0.00     0.131 A 
ATOM     69  C   UNL A   1      38.683  32.340  37.342  1.00  0.00     0.055 A 
ATOM     70  C   UNL A   1      40.184  34.065  36.597  1.00  0.00     0.041 A 
ATOM     71  F   UNL A   1      41.391  33.773  34.611  1.00  0.00    -0.206 F 
ATOM     72  C   UNL A   1      39.262  33.599  37.528  1.00  0.00     0.022 A 
BRANCH  69  73
ATOM     73  S   UNL A   1      37.417  31.749  38.498  1.00  0.00     0.124 S 
ATOM     74  O   UNL A   1      37.170  30.399  38.004  1.00  0.00    -0.237 OA
ATOM     75  O   UNL A   1      38.104  31.849  39.780  1.00  0.00    -0.237 OA
ATOM     76  O   UNL A   1      36.317  32.693  38.309  1.00  0.00    -0.744 OA
ENDBRANCH  69  73
ENDBRANCH  42  66
BRANCH  54  77
ATOM     77  C   UNL A   1      44.975  27.274  34.238  1.00  0.00     0.023 A 
ATOM     78  C   UNL A   1      44.832  26.166  35.092  1.00  0.00     0.031 A 
ATOM     79  C   UNL A   1      46.206  27.952  34.229  1.00  0.00     0.131 A 
ATOM     80  C   UNL A   1      45.888  25.798  35.941  1.00  0.00     0.055 A 
ATOM     81  C   UNL A   1      47.270  27.550  35.038  1.00  0.00     0.041 A 
ATOM     82  F   UNL A   1      46.394  29.018  33.436  1.00  0.00    -0.206 F 
ATOM     83  C   UNL A   1      47.110  26.475  35.910  1.00  0.00     0.022 A 
BRANCH  80  84
ATOM     84  S   UNL A   1      45.615  24.476  37.152  1.00  0.00     0.124 S 
ATOM     85  O   UNL A   1      46.943  24.324  37.740  1.00  0.00    -0.237 OA
ATOM     86  O   UNL A   1      44.594  25.051  38.021  1.00  0.00    -0.237 OA
ATOM     87  O   UNL A   1      45.169  23.349  36.335  1.00  0.00    -0.744 OA
ENDBRANCH  80  84
ENDBRANCH  54  77
ENDBRANCH  28  29
ENDBRANCH  21  23
ENDBRANCH  20  21
ENDBRANCH   1  20
TORSDOF 15
ENDMDL
