MODEL 1
REMARK VINA RESULT:     -10.9      0.000      0.000
REMARK SMILES CCNC(=O)[C@@H](C)Oc1ccc(OC)cc1/C=C/C(=O)OCCOC(=O)c1ccc(-c2c3nc(c(-c4cc(S(=O)(=O)[O-])ccc4F)c4ccc([nH]4)c(-c4cc(S(=O)(=O)[O-])ccc4F)c4nc(c(-c5cc(S(=O)(=O)[O-])ccc5F)c5ccc2[nH]5)C=C4)C=C3)cc1
REMARK SMILES IDX 22 1 21 2 19 3 20 4 18 5 17 6 16 7 9 8 10 9 11 10 15 11
REMARK SMILES IDX 12 12 8 13 6 14 7 15 4 16 3 17 5 19 2 20 1 21 13 22 14 23
REMARK SMILES IDX 23 24 24 25 25 26 26 27 27 28 28 29 89 30 29 31 88 32 30 33
REMARK SMILES IDX 31 34 32 35 82 36 33 37 87 38 81 39 83 40 34 41 86 42 80 43
REMARK SMILES IDX 79 44 35 46 67 47 47 48 66 49 48 50 51 51 65 52 84 53 49 54
REMARK SMILES IDX 50 55 64 57 85 58 52 59 36 60 37 61 45 62 38 63 44 64 46 65
REMARK SMILES IDX 43 66 39 67 40 68 41 69 42 70 68 71 69 72 77 73 70 74 76 75
REMARK SMILES IDX 78 76 75 77 71 78 72 79 73 80 74 81 53 82 54 83 62 84 55 85
REMARK SMILES IDX 61 86 63 87 60 88 56 89 57 90 58 91 59 92
REMARK H PARENT 3 18 83 45 51 56
REMARK Flexibility Score: inf
ROOT
ATOM      1  C   UNL A   1      32.926  29.620  24.994  1.00  0.00     0.275 C 
ENDROOT
BRANCH   1   2
ATOM      2  O   UNL A   1      32.503  28.270  24.752  1.00  0.00    -0.459 OA
BRANCH   2   3
ATOM      3  C   UNL A   1      33.375  27.537  24.031  1.00  0.00     0.330 C 
ATOM      4  O   UNL A   1      33.866  27.839  22.951  1.00  0.00    -0.247 OA
BRANCH   3   5
ATOM      5  C   UNL A   1      33.703  26.244  24.646  1.00  0.00     0.094 C 
ATOM      6  C   UNL A   1      33.837  25.058  24.035  1.00  0.00     0.019 C 
BRANCH   6   7
ATOM      7  C   UNL A   1      34.529  24.001  24.785  1.00  0.00     0.020 A 
ATOM      8  C   UNL A   1      33.904  23.392  25.886  1.00  0.00     0.127 A 
ATOM      9  C   UNL A   1      34.518  22.318  26.532  1.00  0.00     0.051 A 
ATOM     10  C   UNL A   1      35.710  21.790  26.030  1.00  0.00     0.050 A 
ATOM     11  C   UNL A   1      35.756  23.488  24.320  1.00  0.00     0.058 A 
ATOM     12  C   UNL A   1      36.319  22.356  24.910  1.00  0.00     0.119 A 
BRANCH   8  13
ATOM     13  O   UNL A   1      32.767  23.916  26.431  1.00  0.00    -0.480 OA
BRANCH  13  14
ATOM     14  C   UNL A   1      31.563  23.159  26.320  1.00  0.00     0.258 C 
ATOM     15  C   UNL A   1      31.488  22.302  25.059  1.00  0.00     0.064 C 
BRANCH  14  16
ATOM     16  C   UNL A   1      30.190  23.724  26.774  1.00  0.00     0.260 C 
ATOM     17  N   UNL A   1      29.645  24.864  26.268  1.00  0.00    -0.353 N 
ATOM     18  H   UNL A   1      28.728  25.050  26.575  1.00  0.00     0.163 HD
ATOM     19  O   UNL A   1      29.522  23.123  27.626  1.00  0.00    -0.271 OA
BRANCH  17  20
ATOM     20  C   UNL A   1      30.184  25.851  25.353  1.00  0.00     0.112 C 
ATOM     21  C   UNL A   1      29.137  26.285  24.341  1.00  0.00     0.027 C 
ENDBRANCH  17  20
ENDBRANCH  14  16
ENDBRANCH  13  14
ENDBRANCH   8  13
BRANCH  12  22
ATOM     22  O   UNL A   1      37.457  21.729  24.484  1.00  0.00    -0.497 OA
ATOM     23  C   UNL A   1      37.670  20.416  24.999  1.00  0.00     0.278 C 
ENDBRANCH  12  22
ENDBRANCH   6   7
ENDBRANCH   3   5
ENDBRANCH   2   3
ENDBRANCH   1   2
BRANCH   1  24
ATOM     24  C   UNL A   1      32.053  30.298  26.050  1.00  0.00     0.275 C 
BRANCH  24  25
ATOM     25  O   UNL A   1      32.730  30.424  27.315  1.00  0.00    -0.458 OA
BRANCH  25  26
ATOM     26  C   UNL A   1      33.521  31.520  27.425  1.00  0.00     0.338 C 
ATOM     27  O   UNL A   1      33.203  32.682  27.244  1.00  0.00    -0.246 OA
BRANCH  26  28
ATOM     28  C   UNL A   1      34.855  31.124  27.897  1.00  0.00     0.060 A 
ATOM     29  C   UNL A   1      35.045  29.815  28.346  1.00  0.00     0.016 A 
ATOM     30  C   UNL A   1      35.871  32.070  28.016  1.00  0.00     0.016 A 
ATOM     31  C   UNL A   1      36.250  29.443  28.930  1.00  0.00     0.010 A 
ATOM     32  C   UNL A   1      37.085  31.695  28.599  1.00  0.00     0.010 A 
ATOM     33  C   UNL A   1      37.274  30.385  29.076  1.00  0.00    -0.014 A 
BRANCH  33  34
ATOM     34  C   UNL A   1      38.503  30.021  29.818  1.00  0.00     0.031 A 
ATOM     35  C   UNL A   1      39.454  29.027  29.218  1.00  0.00     0.074 A 
ATOM     36  C   UNL A   1      38.775  30.602  31.001  1.00  0.00     0.049 A 
ATOM     37  N   UNL A   1      40.511  28.466  29.743  1.00  0.00    -0.248 NA
ATOM     38  C   UNL A   1      39.168  28.605  27.838  1.00  0.00     0.031 C 
ATOM     39  C   UNL A   1      37.957  31.634  31.641  1.00  0.00     0.029 A 
ATOM     40  N   UNL A   1      39.810  30.403  31.878  1.00  0.00    -0.354 N 
ATOM     41  C   UNL A   1      41.004  27.603  28.770  1.00  0.00     0.074 A 
ATOM     42  C   UNL A   1      40.118  27.706  27.630  1.00  0.00     0.031 C 
ATOM     43  C   UNL A   1      38.519  31.971  32.813  1.00  0.00     0.029 A 
ATOM     44  C   UNL A   1      39.698  31.140  33.034  1.00  0.00     0.049 A 
ATOM     45  H   UNL A   1      40.560  29.792  31.697  1.00  0.00     0.167 HD
ATOM     46  C   UNL A   1      42.094  26.799  28.831  1.00  0.00     0.034 A 
ATOM     47  C   UNL A   1      40.438  31.110  34.159  1.00  0.00     0.034 A 
ATOM     48  C   UNL A   1      42.961  26.715  29.982  1.00  0.00     0.049 A 
ATOM     49  C   UNL A   1      41.602  30.155  34.235  1.00  0.00     0.074 A 
ATOM     50  C   UNL A   1      44.082  25.926  30.168  1.00  0.00     0.029 A 
ATOM     51  N   UNL A   1      42.798  27.451  31.151  1.00  0.00    -0.354 N 
ATOM     52  N   UNL A   1      42.030  29.304  33.330  1.00  0.00    -0.248 NA
ATOM     53  C   UNL A   1      42.377  30.155  35.480  1.00  0.00     0.031 C 
ATOM     54  C   UNL A   1      44.562  26.142  31.466  1.00  0.00     0.029 A 
ATOM     55  C   UNL A   1      43.783  27.118  32.067  1.00  0.00     0.049 A 
ATOM     56  H   UNL A   1      42.085  28.113  31.305  1.00  0.00     0.167 HD
ATOM     57  C   UNL A   1      43.138  28.677  33.895  1.00  0.00     0.074 A 
ATOM     58  C   UNL A   1      43.320  29.264  35.207  1.00  0.00     0.031 C 
ATOM     59  C   UNL A   1      43.933  27.706  33.378  1.00  0.00     0.034 A 
BRANCH  46  60
ATOM     60  C   UNL A   1      42.355  25.903  27.644  1.00  0.00     0.023 A 
ATOM     61  C   UNL A   1      41.843  24.596  27.573  1.00  0.00     0.031 A 
ATOM     62  C   UNL A   1      43.176  26.346  26.592  1.00  0.00     0.131 A 
ATOM     63  C   UNL A   1      42.217  23.754  26.513  1.00  0.00     0.055 A 
ATOM     64  C   UNL A   1      43.483  25.530  25.502  1.00  0.00     0.041 A 
ATOM     65  F   UNL A   1      43.713  27.576  26.617  1.00  0.00    -0.206 F 
ATOM     66  C   UNL A   1      43.016  24.219  25.466  1.00  0.00     0.022 A 
BRANCH  63  67
ATOM     67  S   UNL A   1      41.764  22.000  26.597  1.00  0.00     0.124 S 
ATOM     68  O   UNL A   1      40.306  22.072  26.613  1.00  0.00    -0.237 OA
ATOM     69  O   UNL A   1      42.364  21.461  25.381  1.00  0.00    -0.237 OA
ATOM     70  O   UNL A   1      42.373  21.547  27.846  1.00  0.00    -0.744 OA
ENDBRANCH  63  67
ENDBRANCH  46  60
BRANCH  47  71
ATOM     71  C   UNL A   1      40.064  31.956  35.327  1.00  0.00     0.023 A 
ATOM     72  C   UNL A   1      39.115  31.525  36.266  1.00  0.00     0.031 A 
ATOM     73  C   UNL A   1      40.634  33.231  35.502  1.00  0.00     0.131 A 
ATOM     74  C   UNL A   1      38.736  32.375  37.318  1.00  0.00     0.055 A 
ATOM     75  C   UNL A   1      40.290  34.053  36.576  1.00  0.00     0.041 A 
ATOM     76  F   UNL A   1      41.547  33.692  34.632  1.00  0.00    -0.206 F 
ATOM     77  C   UNL A   1      39.327  33.629  37.486  1.00  0.00     0.022 A 
BRANCH  74  78
ATOM     78  S   UNL A   1      37.407  31.842  38.431  1.00  0.00     0.124 S 
ATOM     79  O   UNL A   1      36.357  32.807  38.125  1.00  0.00    -0.237 OA
ATOM     80  O   UNL A   1      37.170  30.473  37.984  1.00  0.00    -0.237 OA
ATOM     81  O   UNL A   1      38.005  31.966  39.758  1.00  0.00    -0.744 OA
ENDBRANCH  74  78
ENDBRANCH  47  71
BRANCH  59  82
ATOM     82  C   UNL A   1      45.092  27.256  34.231  1.00  0.00     0.023 A 
ATOM     83  C   UNL A   1      44.938  26.276  35.227  1.00  0.00     0.031 A 
ATOM     84  C   UNL A   1      46.362  27.834  34.058  1.00  0.00     0.131 A 
ATOM     85  C   UNL A   1      46.022  25.942  36.050  1.00  0.00     0.055 A 
ATOM     86  C   UNL A   1      47.451  27.458  34.845  1.00  0.00     0.041 A 
ATOM     87  F   UNL A   1      46.561  28.775  33.123  1.00  0.00    -0.206 F 
ATOM     88  C   UNL A   1      47.282  26.517  35.856  1.00  0.00     0.022 A 
BRANCH  85  89
ATOM     89  S   UNL A   1      45.746  24.809  37.440  1.00  0.00     0.124 S 
ATOM     90  O   UNL A   1      46.579  23.669  37.071  1.00  0.00    -0.237 OA
ATOM     91  O   UNL A   1      46.208  25.594  38.580  1.00  0.00    -0.237 OA
ATOM     92  O   UNL A   1      44.306  24.564  37.401  1.00  0.00    -0.744 OA
ENDBRANCH  85  89
ENDBRANCH  59  82
ENDBRANCH  33  34
ENDBRANCH  26  28
ENDBRANCH  25  26
ENDBRANCH  24  25
ENDBRANCH   1  24
TORSDOF 20
ENDMDL
MODEL 2
REMARK VINA RESULT:     -10.6      1.755      3.124
REMARK SMILES CCNC(=O)[C@@H](C)Oc1ccc(OC)cc1/C=C/C(=O)OCCOC(=O)c1ccc(-c2c3nc(c(-c4cc(S(=O)(=O)[O-])ccc4F)c4ccc([nH]4)c(-c4cc(S(=O)(=O)[O-])ccc4F)c4nc(c(-c5cc(S(=O)(=O)[O-])ccc5F)c5ccc2[nH]5)C=C4)C=C3)cc1
REMARK SMILES IDX 22 1 21 2 19 3 20 4 18 5 17 6 16 7 9 8 10 9 11 10 15 11
REMARK SMILES IDX 12 12 8 13 6 14 7 15 4 16 3 17 5 19 2 20 1 21 13 22 14 23
REMARK SMILES IDX 23 24 24 25 25 26 26 27 27 28 28 29 89 30 29 31 88 32 30 33
REMARK SMILES IDX 31 34 32 35 82 36 33 37 87 38 81 39 83 40 34 41 86 42 80 43
REMARK SMILES IDX 79 44 35 46 67 47 47 48 66 49 48 50 51 51 65 52 84 53 49 54
REMARK SMILES IDX 50 55 64 57 85 58 52 59 36 60 37 61 45 62 38 63 44 64 46 65
REMARK SMILES IDX 43 66 39 67 40 68 41 69 42 70 68 71 69 72 77 73 70 74 76 75
REMARK SMILES IDX 78 76 75 77 71 78 72 79 73 80 74 81 53 82 54 83 62 84 55 85
REMARK SMILES IDX 61 86 63 87 60 88 56 89 57 90 58 91 59 92
REMARK H PARENT 3 18 83 45 51 56
REMARK Flexibility Score: inf
ROOT
ATOM      1  C   UNL A   1      33.005  29.311  24.601  1.00  0.00     0.275 C 
ENDROOT
BRANCH   1   2
ATOM      2  O   UNL A   1      32.330  28.526  23.607  1.00  0.00    -0.459 OA
BRANCH   2   3
ATOM      3  C   UNL A   1      33.116  27.621  22.989  1.00  0.00     0.330 C 
ATOM      4  O   UNL A   1      33.939  27.847  22.109  1.00  0.00    -0.247 OA
BRANCH   3   5
ATOM      5  C   UNL A   1      32.890  26.243  23.440  1.00  0.00     0.094 C 
ATOM      6  C   UNL A   1      33.541  25.581  24.408  1.00  0.00     0.019 C 
BRANCH   6   7
ATOM      7  C   UNL A   1      32.897  24.368  24.930  1.00  0.00     0.020 A 
ATOM      8  C   UNL A   1      33.402  23.101  24.594  1.00  0.00     0.127 A 
ATOM      9  C   UNL A   1      32.854  21.955  25.173  1.00  0.00     0.051 A 
ATOM     10  C   UNL A   1      31.867  22.072  26.154  1.00  0.00     0.050 A 
ATOM     11  C   UNL A   1      31.867  24.467  25.885  1.00  0.00     0.058 A 
ATOM     12  C   UNL A   1      31.388  23.327  26.530  1.00  0.00     0.119 A 
BRANCH   8  13
ATOM     13  O   UNL A   1      34.329  22.950  23.603  1.00  0.00    -0.480 OA
BRANCH  13  14
ATOM     14  C   UNL A   1      35.696  23.197  23.925  1.00  0.00     0.258 C 
ATOM     15  C   UNL A   1      36.659  22.937  22.770  1.00  0.00     0.064 C 
BRANCH  14  16
ATOM     16  C   UNL A   1      36.288  22.856  25.320  1.00  0.00     0.260 C 
ATOM     17  N   UNL A   1      36.694  21.606  25.676  1.00  0.00    -0.353 N 
ATOM     18  H   UNL A   1      37.138  21.555  26.553  1.00  0.00     0.163 HD
ATOM     19  O   UNL A   1      36.427  23.745  26.170  1.00  0.00    -0.271 OA
BRANCH  17  20
ATOM     20  C   UNL A   1      36.585  20.338  24.983  1.00  0.00     0.112 C 
ATOM     21  C   UNL A   1      37.907  19.590  25.003  1.00  0.00     0.027 C 
ENDBRANCH  17  20
ENDBRANCH  14  16
ENDBRANCH  13  14
ENDBRANCH   8  13
BRANCH  12  22
ATOM     22  O   UNL A   1      30.454  23.320  27.530  1.00  0.00    -0.497 OA
ATOM     23  C   UNL A   1      29.255  22.598  27.251  1.00  0.00     0.278 C 
ENDBRANCH  12  22
ENDBRANCH   6   7
ENDBRANCH   3   5
ENDBRANCH   2   3
ENDBRANCH   1   2
BRANCH   1  24
ATOM     24  C   UNL A   1      32.012  30.080  25.474  1.00  0.00     0.275 C 
BRANCH  24  25
ATOM     25  O   UNL A   1      32.449  30.168  26.844  1.00  0.00    -0.458 OA
BRANCH  25  26
ATOM     26  C   UNL A   1      33.077  31.326  27.162  1.00  0.00     0.338 C 
ATOM     27  O   UNL A   1      32.620  32.454  27.110  1.00  0.00    -0.246 OA
BRANCH  26  28
ATOM     28  C   UNL A   1      34.418  31.034  27.688  1.00  0.00     0.060 A 
ATOM     29  C   UNL A   1      34.743  29.711  27.998  1.00  0.00     0.016 A 
ATOM     30  C   UNL A   1      35.299  32.071  27.991  1.00  0.00     0.016 A 
ATOM     31  C   UNL A   1      35.946  29.415  28.628  1.00  0.00     0.010 A 
ATOM     32  C   UNL A   1      36.512  31.772  28.619  1.00  0.00     0.010 A 
ATOM     33  C   UNL A   1      36.832  30.445  28.958  1.00  0.00    -0.014 A 
BRANCH  33  34
ATOM     34  C   UNL A   1      38.048  30.140  29.747  1.00  0.00     0.031 A 
ATOM     35  C   UNL A   1      39.073  29.201  29.179  1.00  0.00     0.074 A 
ATOM     36  C   UNL A   1      38.242  30.724  30.943  1.00  0.00     0.049 A 
ATOM     37  N   UNL A   1      40.136  28.691  29.743  1.00  0.00    -0.248 NA
ATOM     38  C   UNL A   1      38.864  28.775  27.786  1.00  0.00     0.031 C 
ATOM     39  C   UNL A   1      37.347  31.708  31.555  1.00  0.00     0.029 A 
ATOM     40  N   UNL A   1      39.251  30.572  31.859  1.00  0.00    -0.354 N 
ATOM     41  C   UNL A   1      40.711  27.863  28.786  1.00  0.00     0.074 A 
ATOM     42  C   UNL A   1      39.867  27.929  27.611  1.00  0.00     0.031 C 
ATOM     43  C   UNL A   1      37.844  32.065  32.751  1.00  0.00     0.029 A 
ATOM     44  C   UNL A   1      39.055  31.293  33.014  1.00  0.00     0.049 A 
ATOM     45  H   UNL A   1      40.038  30.003  31.705  1.00  0.00     0.167 HD
ATOM     46  C   UNL A   1      41.839  27.116  28.885  1.00  0.00     0.034 A 
ATOM     47  C   UNL A   1      39.750  31.293  34.168  1.00  0.00     0.034 A 
ATOM     48  C   UNL A   1      42.663  27.069  30.070  1.00  0.00     0.049 A 
ATOM     49  C   UNL A   1      40.959  30.400  34.284  1.00  0.00     0.074 A 
ATOM     50  C   UNL A   1      43.815  26.337  30.295  1.00  0.00     0.029 A 
ATOM     51  N   UNL A   1      42.416  27.786  31.236  1.00  0.00    -0.354 N 
ATOM     52  N   UNL A   1      41.467  29.579  33.392  1.00  0.00    -0.248 NA
ATOM     53  C   UNL A   1      41.683  30.430  35.560  1.00  0.00     0.031 C 
ATOM     54  C   UNL A   1      44.231  26.568  31.613  1.00  0.00     0.029 A 
ATOM     55  C   UNL A   1      43.379  27.497  32.188  1.00  0.00     0.049 A 
ATOM     56  H   UNL A   1      41.664  28.409  31.364  1.00  0.00     0.167 HD
ATOM     57  C   UNL A   1      42.582  29.006  33.997  1.00  0.00     0.074 A 
ATOM     58  C   UNL A   1      42.681  29.592  35.319  1.00  0.00     0.031 C 
ATOM     59  C   UNL A   1      43.447  28.082  33.507  1.00  0.00     0.034 A 
BRANCH  46  60
ATOM     60  C   UNL A   1      42.193  26.244  27.705  1.00  0.00     0.023 A 
ATOM     61  C   UNL A   1      41.667  24.950  27.553  1.00  0.00     0.031 A 
ATOM     62  C   UNL A   1      43.116  26.696  26.745  1.00  0.00     0.131 A 
ATOM     63  C   UNL A   1      42.123  24.127  26.510  1.00  0.00     0.055 A 
ATOM     64  C   UNL A   1      43.509  25.901  25.667  1.00  0.00     0.041 A 
ATOM     65  F   UNL A   1      43.670  27.915  26.852  1.00  0.00    -0.206 F 
ATOM     66  C   UNL A   1      43.024  24.601  25.554  1.00  0.00     0.022 A 
BRANCH  63  67
ATOM     67  S   UNL A   1      41.633  22.380  26.506  1.00  0.00     0.124 S 
ATOM     68  O   UNL A   1      42.177  21.918  27.780  1.00  0.00    -0.237 OA
ATOM     69  O   UNL A   1      40.179  22.460  26.422  1.00  0.00    -0.237 OA
ATOM     70  O   UNL A   1      42.298  21.841  25.320  1.00  0.00    -0.744 OA
ENDBRANCH  63  67
ENDBRANCH  46  60
BRANCH  47  71
ATOM     71  C   UNL A   1      39.287  32.110  35.325  1.00  0.00     0.023 A 
ATOM     72  C   UNL A   1      39.724  33.431  35.505  1.00  0.00     0.031 A 
ATOM     73  C   UNL A   1      38.421  31.563  36.290  1.00  0.00     0.131 A 
ATOM     74  C   UNL A   1      39.321  34.151  36.642  1.00  0.00     0.055 A 
ATOM     75  C   UNL A   1      37.986  32.299  37.393  1.00  0.00     0.041 A 
ATOM     76  F   UNL A   1      37.974  30.303  36.165  1.00  0.00    -0.206 F 
ATOM     77  C   UNL A   1      38.446  33.598  37.579  1.00  0.00     0.022 A 
BRANCH  74  78
ATOM     78  S   UNL A   1      40.015  35.805  36.914  1.00  0.00     0.124 S 
ATOM     79  O   UNL A   1      39.656  36.486  35.676  1.00  0.00    -0.237 OA
ATOM     80  O   UNL A   1      39.305  36.236  38.114  1.00  0.00    -0.237 OA
ATOM     81  O   UNL A   1      41.442  35.549  37.096  1.00  0.00    -0.744 OA
ENDBRANCH  74  78
ENDBRANCH  47  71
BRANCH  59  82
ATOM     82  C   UNL A   1      44.593  27.686  34.403  1.00  0.00     0.023 A 
ATOM     83  C   UNL A   1      44.538  26.532  35.204  1.00  0.00     0.031 A 
ATOM     84  C   UNL A   1      45.745  28.489  34.472  1.00  0.00     0.131 A 
ATOM     85  C   UNL A   1      45.592  26.242  36.081  1.00  0.00     0.055 A 
ATOM     86  C   UNL A   1      46.815  28.165  35.308  1.00  0.00     0.041 A 
ATOM     87  F   UNL A   1      45.846  29.602  33.730  1.00  0.00    -0.206 F 
ATOM     88  C   UNL A   1      46.737  27.044  36.127  1.00  0.00     0.022 A 
BRANCH  85  89
ATOM     89  S   UNL A   1      45.414  24.848  37.229  1.00  0.00     0.124 S 
ATOM     90  O   UNL A   1      44.655  25.450  38.321  1.00  0.00    -0.237 OA
ATOM     91  O   UNL A   1      44.697  23.868  36.420  1.00  0.00    -0.237 OA
ATOM     92  O   UNL A   1      46.793  24.493  37.554  1.00  0.00    -0.744 OA
ENDBRANCH  85  89
ENDBRANCH  59  82
ENDBRANCH  33  34
ENDBRANCH  26  28
ENDBRANCH  25  26
ENDBRANCH  24  25
ENDBRANCH   1  24
TORSDOF 20
ENDMDL
MODEL 3
REMARK VINA RESULT:     -10.6      1.548      7.698
REMARK SMILES CCNC(=O)[C@@H](C)Oc1ccc(OC)cc1/C=C/C(=O)OCCOC(=O)c1ccc(-c2c3nc(c(-c4cc(S(=O)(=O)[O-])ccc4F)c4ccc([nH]4)c(-c4cc(S(=O)(=O)[O-])ccc4F)c4nc(c(-c5cc(S(=O)(=O)[O-])ccc5F)c5ccc2[nH]5)C=C4)C=C3)cc1
REMARK SMILES IDX 22 1 21 2 19 3 20 4 18 5 17 6 16 7 9 8 10 9 11 10 15 11
REMARK SMILES IDX 12 12 8 13 6 14 7 15 4 16 3 17 5 19 2 20 1 21 13 22 14 23
REMARK SMILES IDX 23 24 24 25 25 26 26 27 27 28 28 29 89 30 29 31 88 32 30 33
REMARK SMILES IDX 31 34 32 35 82 36 33 37 87 38 81 39 83 40 34 41 86 42 80 43
REMARK SMILES IDX 79 44 35 46 67 47 47 48 66 49 48 50 51 51 65 52 84 53 49 54
REMARK SMILES IDX 50 55 64 57 85 58 52 59 36 60 37 61 45 62 38 63 44 64 46 65
REMARK SMILES IDX 43 66 39 67 40 68 41 69 42 70 68 71 69 72 77 73 70 74 76 75
REMARK SMILES IDX 78 76 75 77 71 78 72 79 73 80 74 81 53 82 54 83 62 84 55 85
REMARK SMILES IDX 61 86 63 87 60 88 56 89 57 90 58 91 59 92
REMARK H PARENT 3 18 83 45 51 56
REMARK Flexibility Score: inf
ROOT
ATOM      1  C   UNL A   1      32.842  29.356  24.929  1.00  0.00     0.275 C 
ENDROOT
BRANCH   1   2
ATOM      2  O   UNL A   1      33.440  28.241  25.608  1.00  0.00    -0.459 OA
BRANCH   2   3
ATOM      3  C   UNL A   1      33.074  27.037  25.123  1.00  0.00     0.330 C 
ATOM      4  O   UNL A   1      31.965  26.722  24.710  1.00  0.00    -0.247 OA
BRANCH   3   5
ATOM      5  C   UNL A   1      34.153  26.042  25.152  1.00  0.00     0.094 C 
ATOM      6  C   UNL A   1      34.203  24.909  25.868  1.00  0.00     0.019 C 
BRANCH   6   7
ATOM      7  C   UNL A   1      35.191  23.905  25.451  1.00  0.00     0.020 A 
ATOM      8  C   UNL A   1      34.939  23.087  24.337  1.00  0.00     0.127 A 
ATOM      9  C   UNL A   1      35.922  22.207  23.880  1.00  0.00     0.051 A 
ATOM     10  C   UNL A   1      37.186  22.203  24.473  1.00  0.00     0.050 A 
ATOM     11  C   UNL A   1      36.455  23.855  26.069  1.00  0.00     0.058 A 
ATOM     12  C   UNL A   1      37.465  23.043  25.552  1.00  0.00     0.119 A 
BRANCH   8  13
ATOM     13  O   UNL A   1      33.699  23.030  23.769  1.00  0.00    -0.480 OA
BRANCH  13  14
ATOM     14  C   UNL A   1      33.049  21.761  23.712  1.00  0.00     0.258 C 
ATOM     15  C   UNL A   1      32.135  21.590  22.502  1.00  0.00     0.064 C 
BRANCH  14  16
ATOM     16  C   UNL A   1      32.534  21.042  24.989  1.00  0.00     0.260 C 
ATOM     17  N   UNL A   1      31.510  21.512  25.752  1.00  0.00    -0.353 N 
ATOM     18  H   UNL A   1      31.227  20.905  26.474  1.00  0.00     0.163 HD
ATOM     19  O   UNL A   1      33.049  19.975  25.351  1.00  0.00    -0.271 OA
BRANCH  17  20
ATOM     20  C   UNL A   1      30.765  22.753  25.683  1.00  0.00     0.112 C 
ATOM     21  C   UNL A   1      31.078  23.643  26.874  1.00  0.00     0.027 C 
ENDBRANCH  17  20
ENDBRANCH  14  16
ENDBRANCH  13  14
ENDBRANCH   8  13
BRANCH  12  22
ATOM     22  O   UNL A   1      38.748  22.984  26.022  1.00  0.00    -0.497 OA
ATOM     23  C   UNL A   1      39.309  21.677  26.126  1.00  0.00     0.278 C 
ENDBRANCH  12  22
ENDBRANCH   6   7
ENDBRANCH   3   5
ENDBRANCH   2   3
ENDBRANCH   1   2
BRANCH   1  24
ATOM     24  C   UNL A   1      31.936  30.158  25.864  1.00  0.00     0.275 C 
BRANCH  24  25
ATOM     25  O   UNL A   1      32.505  30.302  27.179  1.00  0.00    -0.458 OA
BRANCH  25  26
ATOM     26  C   UNL A   1      33.233  31.432  27.359  1.00  0.00     0.338 C 
ATOM     27  O   UNL A   1      32.847  32.583  27.263  1.00  0.00    -0.246 OA
BRANCH  26  28
ATOM     28  C   UNL A   1      34.593  31.082  27.792  1.00  0.00     0.060 A 
ATOM     29  C   UNL A   1      34.855  29.765  28.177  1.00  0.00     0.016 A 
ATOM     30  C   UNL A   1      35.564  32.071  27.937  1.00  0.00     0.016 A 
ATOM     31  C   UNL A   1      36.088  29.427  28.725  1.00  0.00     0.010 A 
ATOM     32  C   UNL A   1      36.806  31.730  28.483  1.00  0.00     0.010 A 
ATOM     33  C   UNL A   1      37.066  30.411  28.897  1.00  0.00    -0.014 A 
BRANCH  33  34
ATOM     34  C   UNL A   1      38.325  30.076  29.603  1.00  0.00     0.031 A 
ATOM     35  C   UNL A   1      38.563  30.629  30.978  1.00  0.00     0.074 A 
ATOM     36  C   UNL A   1      39.226  29.260  29.025  1.00  0.00     0.049 A 
ATOM     37  N   UNL A   1      39.639  30.577  31.719  1.00  0.00    -0.248 NA
ATOM     38  C   UNL A   1      37.435  31.341  31.597  1.00  0.00     0.031 C 
ATOM     39  C   UNL A   1      39.061  28.609  27.725  1.00  0.00     0.029 A 
ATOM     40  N   UNL A   1      40.459  28.844  29.455  1.00  0.00    -0.354 N 
ATOM     41  C   UNL A   1      39.329  31.272  32.882  1.00  0.00     0.074 A 
ATOM     42  C   UNL A   1      37.970  31.749  32.738  1.00  0.00     0.031 C 
ATOM     43  C   UNL A   1      40.158  27.882  27.459  1.00  0.00     0.029 A 
ATOM     44  C   UNL A   1      41.124  28.063  28.539  1.00  0.00     0.049 A 
ATOM     45  H   UNL A   1      40.832  29.081  30.335  1.00  0.00     0.167 HD
ATOM     46  C   UNL A   1      40.114  31.493  33.967  1.00  0.00     0.034 A 
ATOM     47  C   UNL A   1      42.385  27.589  28.552  1.00  0.00     0.034 A 
ATOM     48  C   UNL A   1      41.468  31.007  34.084  1.00  0.00     0.049 A 
ATOM     49  C   UNL A   1      43.265  27.908  29.733  1.00  0.00     0.074 A 
ATOM     50  C   UNL A   1      42.365  31.182  35.123  1.00  0.00     0.029 A 
ATOM     51  N   UNL A   1      42.123  30.247  33.120  1.00  0.00    -0.354 N 
ATOM     52  N   UNL A   1      42.982  28.611  30.807  1.00  0.00    -0.248 NA
ATOM     53  C   UNL A   1      44.631  27.373  29.703  1.00  0.00     0.031 C 
ATOM     54  C   UNL A   1      43.577  30.577  34.764  1.00  0.00     0.029 A 
ATOM     55  C   UNL A   1      43.416  29.966  33.531  1.00  0.00     0.049 A 
ATOM     56  H   UNL A   1      41.724  29.952  32.269  1.00  0.00     0.167 HD
ATOM     57  C   UNL A   1      44.135  28.589  31.588  1.00  0.00     0.074 A 
ATOM     58  C   UNL A   1      45.105  27.787  30.870  1.00  0.00     0.031 C 
ATOM     59  C   UNL A   1      44.371  29.176  32.788  1.00  0.00     0.034 A 
BRANCH  46  60
ATOM     60  C   UNL A   1      39.541  32.354  35.067  1.00  0.00     0.023 A 
ATOM     61  C   UNL A   1      38.976  31.798  36.227  1.00  0.00     0.031 A 
ATOM     62  C   UNL A   1      39.511  33.753  34.925  1.00  0.00     0.131 A 
ATOM     63  C   UNL A   1      38.340  32.630  37.163  1.00  0.00     0.055 A 
ATOM     64  C   UNL A   1      38.945  34.581  35.895  1.00  0.00     0.041 A 
ATOM     65  F   UNL A   1      40.014  34.339  33.826  1.00  0.00    -0.206 F 
ATOM     66  C   UNL A   1      38.339  34.019  37.016  1.00  0.00     0.022 A 
BRANCH  63  67
ATOM     67  S   UNL A   1      37.387  31.860  38.501  1.00  0.00     0.124 S 
ATOM     68  O   UNL A   1      37.206  30.503  37.992  1.00  0.00    -0.237 OA
ATOM     69  O   UNL A   1      38.280  32.000  39.645  1.00  0.00    -0.237 OA
ATOM     70  O   UNL A   1      36.167  32.664  38.560  1.00  0.00    -0.744 OA
ENDBRANCH  63  67
ENDBRANCH  46  60
BRANCH  47  71
ATOM     71  C   UNL A   1      42.913  26.824  27.387  1.00  0.00     0.023 A 
ATOM     72  C   UNL A   1      42.830  25.425  27.336  1.00  0.00     0.031 A 
ATOM     73  C   UNL A   1      43.542  27.488  26.318  1.00  0.00     0.131 A 
ATOM     74  C   UNL A   1      43.397  24.730  26.255  1.00  0.00     0.055 A 
ATOM     75  C   UNL A   1      44.062  26.797  25.223  1.00  0.00     0.041 A 
ATOM     76  F   UNL A   1      43.649  28.827  26.318  1.00  0.00    -0.206 F 
ATOM     77  C   UNL A   1      44.001  25.408  25.193  1.00  0.00     0.022 A 
BRANCH  74  78
ATOM     78  S   UNL A   1      43.394  22.917  26.289  1.00  0.00     0.124 S 
ATOM     79  O   UNL A   1      42.574  22.598  25.126  1.00  0.00    -0.237 OA
ATOM     80  O   UNL A   1      44.816  22.611  26.176  1.00  0.00    -0.237 OA
ATOM     81  O   UNL A   1      42.793  22.602  27.583  1.00  0.00    -0.744 OA
ENDBRANCH  74  78
ENDBRANCH  47  71
BRANCH  59  82
ATOM     82  C   UNL A   1      45.725  28.931  33.406  1.00  0.00     0.023 A 
ATOM     83  C   UNL A   1      45.965  27.827  34.242  1.00  0.00     0.031 A 
ATOM     84  C   UNL A   1      46.781  29.829  33.170  1.00  0.00     0.131 A 
ATOM     85  C   UNL A   1      47.215  27.679  34.859  1.00  0.00     0.055 A 
ATOM     86  C   UNL A   1      48.040  29.646  33.744  1.00  0.00     0.041 A 
ATOM     87  F   UNL A   1      46.603  30.899  32.381  1.00  0.00    -0.206 F 
ATOM     88  C   UNL A   1      48.259  28.573  34.603  1.00  0.00     0.022 A 
BRANCH  85  89
ATOM     89  S   UNL A   1      47.437  26.348  36.071  1.00  0.00     0.124 S 
ATOM     90  O   UNL A   1      46.402  26.656  37.052  1.00  0.00    -0.237 OA
ATOM     91  O   UNL A   1      47.215  25.151  35.265  1.00  0.00    -0.237 OA
ATOM     92  O   UNL A   1      48.809  26.534  36.537  1.00  0.00    -0.744 OA
ENDBRANCH  85  89
ENDBRANCH  59  82
ENDBRANCH  33  34
ENDBRANCH  26  28
ENDBRANCH  25  26
ENDBRANCH  24  25
ENDBRANCH   1  24
TORSDOF 20
ENDMDL
