MODEL 1
REMARK VINA RESULT:     -13.5      0.000      0.000
REMARK SMILES Cc1coc2c(C)c3oc(=O)c(CCC(=O)N[C@H](CC(C)C)C(=O)OCCOC(=O)c4ccc(-c5c6nc(c(-c7cc(S(=O)(=O)[O-])ccc7F)c7ccc([nH]7)c(-c7cc(S(=O)(=O)[O-])ccc7F)c7nc(c(-c8cc(S(=O)(=O)[O-])ccc8F)c8ccc5[nH]8)C=C7)C=C6)cc4)c(C)c3cc12
REMARK SMILES IDX 26 1 25 2 23 3 24 4 18 5 17 6 15 7 16 8 14 10 13 11 12 12
REMARK SMILES IDX 1 13 2 14 3 15 98 16 4 17 5 18 97 19 6 20 96 21 7 22 8 23
REMARK SMILES IDX 94 24 9 25 95 26 10 27 11 28 19 29 20 30 21 31 22 32 27 33
REMARK SMILES IDX 28 34 29 35 30 36 31 37 32 38 93 39 33 40 92 41 34 42 35 43
REMARK SMILES IDX 36 44 86 45 37 46 91 47 85 48 87 49 38 50 90 51 84 52 83 53
REMARK SMILES IDX 39 55 71 56 51 57 70 58 52 59 55 60 69 61 88 62 53 63 54 64
REMARK SMILES IDX 68 66 89 67 56 68 40 69 41 70 49 71 42 72 48 73 50 74 47 75
REMARK SMILES IDX 43 76 44 77 45 78 46 79 72 80 73 81 81 82 74 83 80 84 82 85
REMARK SMILES IDX 79 86 75 87 76 88 77 89 78 90 57 91 58 92 66 93 59 94 65 95
REMARK SMILES IDX 67 96 64 97 60 98 61 99 62 100 63 101
REMARK H PARENT 17 9 87 54 55 65
REMARK Flexibility Score: inf
ROOT
ATOM      1  C   UNL A   1      38.539  20.800  25.433  1.00  0.00     0.274 C 
ENDROOT
BRANCH   1   2
ATOM      2  O   UNL A   1      37.249  21.451  25.644  1.00  0.00    -0.461 OA
BRANCH   2   3
ATOM      3  C   UNL A   1      36.302  21.630  24.576  1.00  0.00     0.328 C 
ATOM      4  O   UNL A   1      36.888  22.352  23.731  1.00  0.00    -0.250 OA
BRANCH   3   5
ATOM      5  C   UNL A   1      34.186  21.023  24.613  1.00  0.00     0.192 C 
BRANCH   5   6
ATOM      6  N   UNL A   1      32.791  21.978  24.571  1.00  0.00    -0.343 N 
ATOM      7  C   UNL A   1      32.125  22.708  23.624  1.00  0.00     0.221 C 
ATOM      8  O   UNL A   1      31.066  23.257  23.929  1.00  0.00    -0.275 OA
ATOM      9  H   UNL A   1      32.346  22.019  25.449  1.00  0.00     0.164 HD
BRANCH   7  10
ATOM     10  C   UNL A   1      32.778  22.947  22.282  1.00  0.00     0.105 C 
BRANCH  10  11
ATOM     11  C   UNL A   1      33.975  23.877  22.474  1.00  0.00     0.053 C 
BRANCH  11  12
ATOM     12  C   UNL A   1      33.386  25.188  22.866  1.00  0.00     0.042 A 
ATOM     13  C   UNL A   1      28.527  30.616  21.396  1.00  0.00     0.048 C 
ATOM     14  C   UNL A   1      29.289  30.545  22.659  1.00  0.00    -0.005 A 
ATOM     15  C   UNL A   1      29.409  31.507  23.633  1.00  0.00     0.199 A 
ATOM     16  C   UNL A   1      30.077  29.425  23.083  1.00  0.00     0.024 A 
ATOM     17  O   UNL A   1      30.123  31.038  24.678  1.00  0.00    -0.464 OA
ATOM     18  C   UNL A   1      30.532  29.763  24.384  1.00  0.00     0.140 A 
ATOM     19  C   UNL A   1      30.398  28.215  22.373  1.00  0.00     0.024 A 
ATOM     20  C   UNL A   1      31.303  29.023  25.306  1.00  0.00     0.036 A 
ATOM     21  C   UNL A   1      31.261  27.370  23.015  1.00  0.00     0.022 A 
ATOM     22  C   UNL A   1      31.727  29.538  26.639  1.00  0.00     0.052 C 
ATOM     23  C   UNL A   1      31.685  27.875  24.630  1.00  0.00     0.145 A 
ATOM     24  C   UNL A   1      32.272  26.038  22.125  1.00  0.00    -0.030 A 
ATOM     25  O   UNL A   1      32.957  26.831  25.402  1.00  0.00    -0.422 OA
ATOM     26  C   UNL A   1      31.740  25.757  20.758  1.00  0.00     0.046 C 
ATOM     27  C   UNL A   1      33.909  25.466  24.724  1.00  0.00     0.339 A 
ATOM     28  O   UNL A   1      34.650  24.782  25.408  1.00  0.00    -0.246 OA
ENDBRANCH  11  12
ENDBRANCH  10  11
ENDBRANCH   7  10
ENDBRANCH   5   6
BRANCH   5  29
ATOM     29  C   UNL A   1      33.317  19.666  25.347  1.00  0.00     0.040 C 
BRANCH  29  30
ATOM     30  C   UNL A   1      33.227  18.317  24.559  1.00  0.00    -0.015 C 
ATOM     31  C   UNL A   1      32.607  17.177  25.387  1.00  0.00     0.007 C 
ATOM     32  C   UNL A   1      32.377  18.469  23.294  1.00  0.00     0.007 C 
ENDBRANCH  29  30
ENDBRANCH   5  29
ENDBRANCH   3   5
ENDBRANCH   2   3
ENDBRANCH   1   2
BRANCH   1  33
ATOM     33  C   UNL A   1      39.677  21.254  26.352  1.00  0.00     0.275 C 
BRANCH  33  34
ATOM     34  O   UNL A   1      40.475  20.156  26.805  1.00  0.00    -0.458 OA
BRANCH  34  35
ATOM     35  C   UNL A   1      41.688  20.233  26.220  1.00  0.00     0.338 C 
ATOM     36  O   UNL A   1      42.100  19.463  25.374  1.00  0.00    -0.246 OA
BRANCH  35  37
ATOM     37  C   UNL A   1      42.634  21.118  26.860  1.00  0.00     0.060 A 
ATOM     38  C   UNL A   1      42.532  21.297  28.250  1.00  0.00     0.016 A 
ATOM     39  C   UNL A   1      42.940  22.163  26.005  1.00  0.00     0.016 A 
ATOM     40  C   UNL A   1      42.411  22.573  28.751  1.00  0.00     0.010 A 
ATOM     41  C   UNL A   1      42.972  23.419  26.533  1.00  0.00     0.010 A 
ATOM     42  C   UNL A   1      42.561  23.628  27.857  1.00  0.00    -0.014 A 
BRANCH  42  43
ATOM     43  C   UNL A   1      42.753  24.978  28.355  1.00  0.00     0.031 A 
ATOM     44  C   UNL A   1      41.523  25.745  27.985  1.00  0.00     0.074 A 
ATOM     45  C   UNL A   1      43.739  25.249  29.242  1.00  0.00     0.049 A 
ATOM     46  N   UNL A   1      41.394  26.650  27.065  1.00  0.00    -0.248 NA
ATOM     47  C   UNL A   1      40.210  25.165  28.382  1.00  0.00     0.031 C 
ATOM     48  C   UNL A   1      44.845  24.389  29.680  1.00  0.00     0.029 A 
ATOM     49  N   UNL A   1      43.883  26.329  30.066  1.00  0.00    -0.354 N 
ATOM     50  C   UNL A   1      40.039  26.972  27.123  1.00  0.00     0.074 A 
ATOM     51  C   UNL A   1      39.373  25.786  27.550  1.00  0.00     0.031 C 
ATOM     52  C   UNL A   1      45.367  24.861  30.840  1.00  0.00     0.029 A 
ATOM     53  C   UNL A   1      44.709  26.104  31.192  1.00  0.00     0.049 A 
ATOM     54  H   UNL A   1      43.446  27.194  29.892  1.00  0.00     0.167 HD
ATOM     55  C   UNL A   1      39.668  28.250  27.423  1.00  0.00     0.034 A 
ATOM     56  C   UNL A   1      44.733  26.879  32.326  1.00  0.00     0.034 A 
ATOM     57  C   UNL A   1      40.742  29.163  27.088  1.00  0.00     0.049 A 
ATOM     58  C   UNL A   1      44.136  28.185  31.916  1.00  0.00     0.074 A 
ATOM     59  C   UNL A   1      41.515  29.353  25.957  1.00  0.00     0.029 A 
ATOM     60  N   UNL A   1      41.468  29.684  28.134  1.00  0.00    -0.354 N 
ATOM     61  N   UNL A   1      44.686  28.957  31.014  1.00  0.00    -0.248 NA
ATOM     62  C   UNL A   1      42.687  28.292  32.045  1.00  0.00     0.031 C 
ATOM     63  C   UNL A   1      42.845  29.511  26.443  1.00  0.00     0.029 A 
ATOM     64  C   UNL A   1      42.804  29.574  27.837  1.00  0.00     0.049 A 
ATOM     65  H   UNL A   1      41.093  30.071  28.958  1.00  0.00     0.167 HD
ATOM     66  C   UNL A   1      43.641  29.290  30.163  1.00  0.00     0.074 A 
ATOM     67  C   UNL A   1      42.425  28.862  30.864  1.00  0.00     0.031 C 
ATOM     68  C   UNL A   1      43.853  29.553  28.838  1.00  0.00     0.034 A 
BRANCH  55  69
ATOM     69  C   UNL A   1      38.586  28.591  28.441  1.00  0.00     0.023 A 
ATOM     70  C   UNL A   1      37.617  29.521  28.037  1.00  0.00     0.031 A 
ATOM     71  C   UNL A   1      38.568  28.272  29.829  1.00  0.00     0.131 A 
ATOM     72  C   UNL A   1      36.756  30.122  28.973  1.00  0.00     0.055 A 
ATOM     73  C   UNL A   1      37.686  28.844  30.746  1.00  0.00     0.041 A 
ATOM     74  F   UNL A   1      39.433  27.445  30.422  1.00  0.00    -0.206 F 
ATOM     75  C   UNL A   1      36.785  29.794  30.324  1.00  0.00     0.022 A 
BRANCH  72  76
ATOM     76  S   UNL A   1      35.638  31.418  28.399  1.00  0.00     0.124 S 
ATOM     77  O   UNL A   1      34.939  30.741  27.312  1.00  0.00    -0.237 OA
ATOM     78  O   UNL A   1      34.856  31.688  29.601  1.00  0.00    -0.237 OA
ATOM     79  O   UNL A   1      36.544  32.490  27.994  1.00  0.00    -0.744 OA
ENDBRANCH  72  76
ENDBRANCH  55  69
BRANCH  56  80
ATOM     80  C   UNL A   1      44.835  26.473  33.778  1.00  0.00     0.023 A 
ATOM     81  C   UNL A   1      43.776  26.634  34.721  1.00  0.00     0.031 A 
ATOM     82  C   UNL A   1      45.902  25.650  34.198  1.00  0.00     0.131 A 
ATOM     83  C   UNL A   1      43.817  25.979  35.986  1.00  0.00     0.055 A 
ATOM     84  C   UNL A   1      45.929  25.000  35.437  1.00  0.00     0.041 A 
ATOM     85  F   UNL A   1      46.927  25.369  33.382  1.00  0.00    -0.206 F 
ATOM     86  C   UNL A   1      44.882  25.149  36.330  1.00  0.00     0.022 A 
BRANCH  83  87
ATOM     87  S   UNL A   1      42.437  26.096  37.190  1.00  0.00     0.124 S 
ATOM     88  O   UNL A   1      43.141  26.084  38.467  1.00  0.00    -0.237 OA
ATOM     89  O   UNL A   1      41.789  27.347  36.818  1.00  0.00    -0.237 OA
ATOM     90  O   UNL A   1      41.645  24.895  36.919  1.00  0.00    -0.744 OA
ENDBRANCH  83  87
ENDBRANCH  56  80
BRANCH  68  91
ATOM     91  C   UNL A   1      45.269  29.738  28.322  1.00  0.00     0.023 A 
ATOM     92  C   UNL A   1      46.149  28.722  27.864  1.00  0.00     0.031 A 
ATOM     93  C   UNL A   1      45.646  31.074  28.101  1.00  0.00     0.131 A 
ATOM     94  C   UNL A   1      47.349  29.082  27.205  1.00  0.00     0.055 A 
ATOM     95  C   UNL A   1      46.813  31.418  27.427  1.00  0.00     0.041 A 
ATOM     96  F   UNL A   1      44.835  32.075  28.483  1.00  0.00    -0.206 F 
ATOM     97  C   UNL A   1      47.669  30.424  26.976  1.00  0.00     0.022 A 
BRANCH  94  98
ATOM     98  S   UNL A   1      48.518  27.814  26.593  1.00  0.00     0.124 S 
ATOM     99  O   UNL A   1      47.701  26.608  26.541  1.00  0.00    -0.237 OA
ATOM    100  O   UNL A   1      48.942  28.359  25.306  1.00  0.00    -0.237 OA
ATOM    101  O   UNL A   1      49.569  27.792  27.614  1.00  0.00    -0.744 OA
ENDBRANCH  94  98
ENDBRANCH  68  91
ENDBRANCH  42  43
ENDBRANCH  35  37
ENDBRANCH  34  35
ENDBRANCH  33  34
ENDBRANCH   1  33
TORSDOF 20
ENDMDL
MODEL 2
REMARK VINA RESULT:     -13.1      2.820      8.617
REMARK SMILES Cc1coc2c(C)c3oc(=O)c(CCC(=O)N[C@H](CC(C)C)C(=O)OCCOC(=O)c4ccc(-c5c6nc(c(-c7cc(S(=O)(=O)[O-])ccc7F)c7ccc([nH]7)c(-c7cc(S(=O)(=O)[O-])ccc7F)c7nc(c(-c8cc(S(=O)(=O)[O-])ccc8F)c8ccc5[nH]8)C=C7)C=C6)cc4)c(C)c3cc12
REMARK SMILES IDX 26 1 25 2 23 3 24 4 18 5 17 6 15 7 16 8 14 10 13 11 12 12
REMARK SMILES IDX 1 13 2 14 3 15 98 16 4 17 5 18 97 19 6 20 96 21 7 22 8 23
REMARK SMILES IDX 94 24 9 25 95 26 10 27 11 28 19 29 20 30 21 31 22 32 27 33
REMARK SMILES IDX 28 34 29 35 30 36 31 37 32 38 93 39 33 40 92 41 34 42 35 43
REMARK SMILES IDX 36 44 86 45 37 46 91 47 85 48 87 49 38 50 90 51 84 52 83 53
REMARK SMILES IDX 39 55 71 56 51 57 70 58 52 59 55 60 69 61 88 62 53 63 54 64
REMARK SMILES IDX 68 66 89 67 56 68 40 69 41 70 49 71 42 72 48 73 50 74 47 75
REMARK SMILES IDX 43 76 44 77 45 78 46 79 72 80 73 81 81 82 74 83 80 84 82 85
REMARK SMILES IDX 79 86 75 87 76 88 77 89 78 90 57 91 58 92 66 93 59 94 65 95
REMARK SMILES IDX 67 96 64 97 60 98 61 99 62 100 63 101
REMARK H PARENT 17 9 87 54 55 65
REMARK Flexibility Score: inf
ROOT
ATOM      1  C   UNL A   1      32.571  30.329  26.155  1.00  0.00     0.274 C 
ENDROOT
BRANCH   1   2
ATOM      2  O   UNL A   1      33.339  29.716  25.075  1.00  0.00    -0.461 OA
BRANCH   2   3
ATOM      3  C   UNL A   1      32.721  29.286  23.849  1.00  0.00     0.328 C 
ATOM      4  O   UNL A   1      33.669  29.123  23.039  1.00  0.00    -0.250 OA
BRANCH   3   5
ATOM      5  C   UNL A   1      30.558  29.250  23.438  1.00  0.00     0.192 C 
BRANCH   5   6
ATOM      6  N   UNL A   1      29.434  28.014  23.693  1.00  0.00    -0.343 N 
ATOM      7  C   UNL A   1      29.485  26.695  24.057  1.00  0.00     0.221 C 
ATOM      8  O   UNL A   1      28.432  26.077  24.212  1.00  0.00    -0.275 OA
ATOM      9  H   UNL A   1      28.510  28.319  23.542  1.00  0.00     0.164 HD
BRANCH   7  10
ATOM     10  C   UNL A   1      30.824  25.995  24.109  1.00  0.00     0.105 C 
BRANCH  10  11
ATOM     11  C   UNL A   1      31.245  25.843  25.570  1.00  0.00     0.053 C 
BRANCH  11  12
ATOM     12  C   UNL A   1      32.243  24.736  25.570  1.00  0.00     0.042 A 
ATOM     13  C   UNL A   1      33.701  17.554  24.332  1.00  0.00     0.048 C 
ATOM     14  C   UNL A   1      34.756  18.548  24.614  1.00  0.00    -0.005 A 
ATOM     15  C   UNL A   1      36.081  18.321  24.902  1.00  0.00     0.199 A 
ATOM     16  C   UNL A   1      34.561  19.968  24.656  1.00  0.00     0.024 A 
ATOM     17  O   UNL A   1      36.749  19.487  25.018  1.00  0.00    -0.464 OA
ATOM     18  C   UNL A   1      35.856  20.514  24.855  1.00  0.00     0.140 A 
ATOM     19  C   UNL A   1      33.339  20.723  24.558  1.00  0.00     0.024 A 
ATOM     20  C   UNL A   1      36.281  21.858  24.927  1.00  0.00     0.036 A 
ATOM     21  C   UNL A   1      33.470  22.073  24.733  1.00  0.00     0.022 A 
ATOM     22  C   UNL A   1      37.691  22.272  25.173  1.00  0.00     0.052 C 
ATOM     23  C   UNL A   1      35.120  22.615  24.900  1.00  0.00     0.145 A 
ATOM     24  C   UNL A   1      32.030  23.207  25.211  1.00  0.00    -0.030 A 
ATOM     25  O   UNL A   1      35.262  24.383  25.296  1.00  0.00    -0.422 OA
ATOM     26  C   UNL A   1      30.708  22.549  24.990  1.00  0.00     0.046 C 
ATOM     27  C   UNL A   1      33.989  25.601  25.653  1.00  0.00     0.339 A 
ATOM     28  O   UNL A   1      34.236  26.786  25.788  1.00  0.00    -0.246 OA
ENDBRANCH  11  12
ENDBRANCH  10  11
ENDBRANCH   7  10
ENDBRANCH   5   6
BRANCH   5  29
ATOM     29  C   UNL A   1      29.535  30.021  22.216  1.00  0.00     0.040 C 
BRANCH  29  30
ATOM     30  C   UNL A   1      28.874  31.400  22.550  1.00  0.00    -0.015 C 
ATOM     31  C   UNL A   1      28.355  32.136  21.302  1.00  0.00     0.007 C 
ATOM     32  C   UNL A   1      27.685  31.229  23.500  1.00  0.00     0.007 C 
ENDBRANCH  29  30
ENDBRANCH   5  29
ENDBRANCH   3   5
ENDBRANCH   2   3
ENDBRANCH   1   2
BRANCH   1  33
ATOM     33  C   UNL A   1      33.278  30.423  27.510  1.00  0.00     0.275 C 
BRANCH  33  34
ATOM     34  O   UNL A   1      34.690  30.224  27.397  1.00  0.00    -0.458 OA
BRANCH  34  35
ATOM     35  C   UNL A   1      35.319  31.157  28.139  1.00  0.00     0.338 C 
ATOM     36  O   UNL A   1      35.284  32.354  27.925  1.00  0.00    -0.246 OA
BRANCH  35  37
ATOM     37  C   UNL A   1      36.313  30.656  29.061  1.00  0.00     0.060 A 
ATOM     38  C   UNL A   1      37.184  31.584  29.658  1.00  0.00     0.016 A 
ATOM     39  C   UNL A   1      36.742  29.408  28.645  1.00  0.00     0.016 A 
ATOM     40  C   UNL A   1      38.542  31.394  29.540  1.00  0.00     0.010 A 
ATOM     41  C   UNL A   1      38.081  29.162  28.671  1.00  0.00     0.010 A 
ATOM     42  C   UNL A   1      38.975  30.200  28.971  1.00  0.00    -0.014 A 
BRANCH  42  43
ATOM     43  C   UNL A   1      40.365  29.800  29.095  1.00  0.00     0.031 A 
ATOM     44  C   UNL A   1      40.697  29.870  30.553  1.00  0.00     0.074 A 
ATOM     45  C   UNL A   1      41.001  29.196  28.065  1.00  0.00     0.049 A 
ATOM     46  N   UNL A   1      41.426  30.751  31.163  1.00  0.00    -0.248 NA
ATOM     47  C   UNL A   1      39.799  29.143  31.493  1.00  0.00     0.031 C 
ATOM     48  C   UNL A   1      40.551  29.027  26.678  1.00  0.00     0.029 A 
ATOM     49  N   UNL A   1      42.152  28.461  28.076  1.00  0.00    -0.354 N 
ATOM     50  C   UNL A   1      41.341  30.364  32.500  1.00  0.00     0.074 A 
ATOM     51  C   UNL A   1      40.061  29.754  32.649  1.00  0.00     0.031 C 
ATOM     52  C   UNL A   1      41.269  28.047  26.074  1.00  0.00     0.029 A 
ATOM     53  C   UNL A   1      42.294  27.573  26.984  1.00  0.00     0.049 A 
ATOM     54  H   UNL A   1      42.829  28.542  28.786  1.00  0.00     0.167 HD
ATOM     55  C   UNL A   1      42.478  30.013  33.167  1.00  0.00     0.034 A 
ATOM     56  C   UNL A   1      43.151  26.500  26.939  1.00  0.00     0.034 A 
ATOM     57  C   UNL A   1      43.627  30.629  32.536  1.00  0.00     0.049 A 
ATOM     58  C   UNL A   1      44.177  26.781  27.989  1.00  0.00     0.074 A 
ATOM     59  C   UNL A   1      43.920  31.922  32.142  1.00  0.00     0.029 A 
ATOM     60  N   UNL A   1      44.440  29.811  31.786  1.00  0.00    -0.354 N 
ATOM     61  N   UNL A   1      44.981  27.812  27.927  1.00  0.00    -0.248 NA
ATOM     62  C   UNL A   1      43.867  26.296  29.329  1.00  0.00     0.031 C 
ATOM     63  C   UNL A   1      44.509  31.789  30.851  1.00  0.00     0.029 A 
ATOM     64  C   UNL A   1      44.697  30.431  30.587  1.00  0.00     0.049 A 
ATOM     65  H   UNL A   1      44.781  28.930  32.061  1.00  0.00     0.167 HD
ATOM     66  C   UNL A   1      44.907  28.381  29.191  1.00  0.00     0.074 A 
ATOM     67  C   UNL A   1      44.213  27.388  30.019  1.00  0.00     0.031 C 
ATOM     68  C   UNL A   1      45.085  29.723  29.382  1.00  0.00     0.034 A 
BRANCH  55  69
ATOM     69  C   UNL A   1      42.587  28.765  34.037  1.00  0.00     0.023 A 
ATOM     70  C   UNL A   1      43.515  27.797  33.627  1.00  0.00     0.031 A 
ATOM     71  C   UNL A   1      41.701  28.347  35.070  1.00  0.00     0.131 A 
ATOM     72  C   UNL A   1      43.497  26.500  34.173  1.00  0.00     0.055 A 
ATOM     73  C   UNL A   1      41.713  27.071  35.634  1.00  0.00     0.041 A 
ATOM     74  F   UNL A   1      40.719  29.102  35.570  1.00  0.00    -0.206 F 
ATOM     75  C   UNL A   1      42.600  26.129  35.170  1.00  0.00     0.022 A 
BRANCH  72  76
ATOM     76  S   UNL A   1      44.624  25.267  33.489  1.00  0.00     0.124 S 
ATOM     77  O   UNL A   1      45.751  26.097  33.078  1.00  0.00    -0.237 OA
ATOM     78  O   UNL A   1      44.847  24.399  34.640  1.00  0.00    -0.237 OA
ATOM     79  O   UNL A   1      43.852  24.670  32.403  1.00  0.00    -0.744 OA
ENDBRANCH  72  76
ENDBRANCH  55  69
BRANCH  56  80
ATOM     80  C   UNL A   1      42.941  25.110  26.386  1.00  0.00     0.023 A 
ATOM     81  C   UNL A   1      43.948  24.374  25.693  1.00  0.00     0.031 A 
ATOM     82  C   UNL A   1      41.810  24.367  26.784  1.00  0.00     0.131 A 
ATOM     83  C   UNL A   1      43.797  22.978  25.452  1.00  0.00     0.055 A 
ATOM     84  C   UNL A   1      41.674  22.992  26.554  1.00  0.00     0.041 A 
ATOM     85  F   UNL A   1      40.823  24.927  27.496  1.00  0.00    -0.206 F 
ATOM     86  C   UNL A   1      42.671  22.289  25.900  1.00  0.00     0.022 A 
BRANCH  83  87
ATOM     87  S   UNL A   1      45.104  21.982  24.637  1.00  0.00     0.124 S 
ATOM     88  O   UNL A   1      46.133  21.919  25.669  1.00  0.00    -0.237 OA
ATOM     89  O   UNL A   1      44.416  20.734  24.330  1.00  0.00    -0.237 OA
ATOM     90  O   UNL A   1      45.465  22.783  23.466  1.00  0.00    -0.744 OA
ENDBRANCH  83  87
ENDBRANCH  56  80
BRANCH  68  91
ATOM     91  C   UNL A   1      45.625  30.583  28.252  1.00  0.00     0.023 A 
ATOM     92  C   UNL A   1      44.893  31.508  27.461  1.00  0.00     0.031 A 
ATOM     93  C   UNL A   1      47.025  30.587  28.130  1.00  0.00     0.131 A 
ATOM     94  C   UNL A   1      45.586  32.393  26.601  1.00  0.00     0.055 A 
ATOM     95  C   UNL A   1      47.700  31.479  27.305  1.00  0.00     0.041 A 
ATOM     96  F   UNL A   1      47.768  29.756  28.881  1.00  0.00    -0.206 F 
ATOM     97  C   UNL A   1      46.984  32.386  26.537  1.00  0.00     0.022 A 
BRANCH  94  98
ATOM     98  S   UNL A   1      44.695  33.607  25.561  1.00  0.00     0.124 S 
ATOM     99  O   UNL A   1      43.783  34.243  26.504  1.00  0.00    -0.237 OA
ATOM    100  O   UNL A   1      45.773  34.445  25.046  1.00  0.00    -0.237 OA
ATOM    101  O   UNL A   1      44.038  32.777  24.547  1.00  0.00    -0.744 OA
ENDBRANCH  94  98
ENDBRANCH  68  91
ENDBRANCH  42  43
ENDBRANCH  35  37
ENDBRANCH  34  35
ENDBRANCH  33  34
ENDBRANCH   1  33
TORSDOF 20
ENDMDL
MODEL 3
REMARK VINA RESULT:     -13.0      2.456      6.903
REMARK SMILES Cc1coc2c(C)c3oc(=O)c(CCC(=O)N[C@H](CC(C)C)C(=O)OCCOC(=O)c4ccc(-c5c6nc(c(-c7cc(S(=O)(=O)[O-])ccc7F)c7ccc([nH]7)c(-c7cc(S(=O)(=O)[O-])ccc7F)c7nc(c(-c8cc(S(=O)(=O)[O-])ccc8F)c8ccc5[nH]8)C=C7)C=C6)cc4)c(C)c3cc12
REMARK SMILES IDX 26 1 25 2 23 3 24 4 18 5 17 6 15 7 16 8 14 10 13 11 12 12
REMARK SMILES IDX 1 13 2 14 3 15 98 16 4 17 5 18 97 19 6 20 96 21 7 22 8 23
REMARK SMILES IDX 94 24 9 25 95 26 10 27 11 28 19 29 20 30 21 31 22 32 27 33
REMARK SMILES IDX 28 34 29 35 30 36 31 37 32 38 93 39 33 40 92 41 34 42 35 43
REMARK SMILES IDX 36 44 86 45 37 46 91 47 85 48 87 49 38 50 90 51 84 52 83 53
REMARK SMILES IDX 39 55 71 56 51 57 70 58 52 59 55 60 69 61 88 62 53 63 54 64
REMARK SMILES IDX 68 66 89 67 56 68 40 69 41 70 49 71 42 72 48 73 50 74 47 75
REMARK SMILES IDX 43 76 44 77 45 78 46 79 72 80 73 81 81 82 74 83 80 84 82 85
REMARK SMILES IDX 79 86 75 87 76 88 77 89 78 90 57 91 58 92 66 93 59 94 65 95
REMARK SMILES IDX 67 96 64 97 60 98 61 99 62 100 63 101
REMARK H PARENT 17 9 87 54 55 65
REMARK Flexibility Score: inf
ROOT
ATOM      1  C   UNL A   1      39.415  20.209  26.062  1.00  0.00     0.274 C 
ENDROOT
BRANCH   1   2
ATOM      2  O   UNL A   1      38.370  20.259  25.044  1.00  0.00    -0.461 OA
BRANCH   2   3
ATOM      3  C   UNL A   1      37.202  21.087  25.192  1.00  0.00     0.328 C 
ATOM      4  O   UNL A   1      37.615  22.152  25.717  1.00  0.00    -0.250 OA
BRANCH   3   5
ATOM      5  C   UNL A   1      35.121  20.453  24.856  1.00  0.00     0.192 C 
BRANCH   5   6
ATOM      6  N   UNL A   1      33.684  21.318  25.069  1.00  0.00    -0.343 N 
ATOM      7  C   UNL A   1      32.845  22.047  24.270  1.00  0.00     0.221 C 
ATOM      8  O   UNL A   1      31.814  22.513  24.755  1.00  0.00    -0.275 OA
ATOM      9  H   UNL A   1      33.372  21.290  26.003  1.00  0.00     0.164 HD
BRANCH   7  10
ATOM     10  C   UNL A   1      33.278  22.389  22.862  1.00  0.00     0.105 C 
BRANCH  10  11
ATOM     11  C   UNL A   1      34.466  23.348  22.930  1.00  0.00     0.053 C 
BRANCH  11  12
ATOM     12  C   UNL A   1      33.877  24.663  23.310  1.00  0.00     0.042 A 
ATOM     13  C   UNL A   1      29.129  30.151  21.706  1.00  0.00     0.048 C 
ATOM     14  C   UNL A   1      29.846  30.065  22.994  1.00  0.00    -0.005 A 
ATOM     15  C   UNL A   1      29.943  31.020  23.978  1.00  0.00     0.199 A 
ATOM     16  C   UNL A   1      30.608  28.934  23.438  1.00  0.00     0.024 A 
ATOM     17  O   UNL A   1      30.615  30.538  25.044  1.00  0.00    -0.464 OA
ATOM     18  C   UNL A   1      31.020  29.260  24.756  1.00  0.00     0.140 A 
ATOM     19  C   UNL A   1      30.940  27.725  22.732  1.00  0.00     0.024 A 
ATOM     20  C   UNL A   1      31.751  28.506  25.700  1.00  0.00     0.036 A 
ATOM     21  C   UNL A   1      31.772  26.867  23.398  1.00  0.00     0.022 A 
ATOM     22  C   UNL A   1      32.134  29.010  27.049  1.00  0.00     0.052 C 
ATOM     23  C   UNL A   1      32.144  27.358  25.030  1.00  0.00     0.145 A 
ATOM     24  C   UNL A   1      32.799  25.529  22.536  1.00  0.00    -0.030 A 
ATOM     25  O   UNL A   1      33.378  26.296  25.839  1.00  0.00    -0.422 OA
ATOM     26  C   UNL A   1      32.311  25.262  21.150  1.00  0.00     0.046 C 
ATOM     27  C   UNL A   1      34.338  24.925  25.187  1.00  0.00     0.339 A 
ATOM     28  O   UNL A   1      35.048  24.229  25.891  1.00  0.00    -0.246 OA
ENDBRANCH  11  12
ENDBRANCH  10  11
ENDBRANCH   7  10
ENDBRANCH   5   6
BRANCH   5  29
ATOM     29  C   UNL A   1      34.283  18.898  24.980  1.00  0.00     0.040 C 
BRANCH  29  30
ATOM     30  C   UNL A   1      33.933  18.126  23.665  1.00  0.00    -0.015 C 
ATOM     31  C   UNL A   1      34.000  16.597  23.829  1.00  0.00     0.007 C 
ATOM     32  C   UNL A   1      32.520  18.466  23.181  1.00  0.00     0.007 C 
ENDBRANCH  29  30
ENDBRANCH   5  29
ENDBRANCH   3   5
ENDBRANCH   2   3
ENDBRANCH   1   2
BRANCH   1  33
ATOM     33  C   UNL A   1      40.763  20.822  25.670  1.00  0.00     0.275 C 
BRANCH  33  34
ATOM     34  O   UNL A   1      41.449  21.383  26.794  1.00  0.00    -0.458 OA
BRANCH  34  35
ATOM     35  C   UNL A   1      41.542  22.717  26.623  1.00  0.00     0.338 C 
ATOM     36  O   UNL A   1      42.184  23.260  25.745  1.00  0.00    -0.246 OA
BRANCH  35  37
ATOM     37  C   UNL A   1      41.076  23.522  27.729  1.00  0.00     0.060 A 
ATOM     38  C   UNL A   1      40.114  24.511  27.462  1.00  0.00     0.016 A 
ATOM     39  C   UNL A   1      42.114  23.727  28.620  1.00  0.00     0.016 A 
ATOM     40  C   UNL A   1      40.374  25.811  27.834  1.00  0.00     0.010 A 
ATOM     41  C   UNL A   1      42.282  24.987  29.111  1.00  0.00     0.010 A 
ATOM     42  C   UNL A   1      41.512  26.042  28.600  1.00  0.00    -0.014 A 
BRANCH  42  43
ATOM     43  C   UNL A   1      41.682  27.314  29.279  1.00  0.00     0.031 A 
ATOM     44  C   UNL A   1      42.906  27.945  28.696  1.00  0.00     0.074 A 
ATOM     45  C   UNL A   1      40.678  27.837  30.021  1.00  0.00     0.049 A 
ATOM     46  N   UNL A   1      44.074  28.076  29.243  1.00  0.00    -0.248 NA
ATOM     47  C   UNL A   1      42.971  28.068  27.213  1.00  0.00     0.031 C 
ATOM     48  C   UNL A   1      39.419  27.208  30.438  1.00  0.00     0.029 A 
ATOM     49  N   UNL A   1      40.502  29.122  30.449  1.00  0.00    -0.354 N 
ATOM     50  C   UNL A   1      44.834  28.671  28.237  1.00  0.00     0.074 A 
ATOM     51  C   UNL A   1      44.281  28.210  27.007  1.00  0.00     0.031 C 
ATOM     52  C   UNL A   1      38.528  28.160  30.815  1.00  0.00     0.029 A 
ATOM     53  C   UNL A   1      39.165  29.461  30.761  1.00  0.00     0.049 A 
ATOM     54  H   UNL A   1      41.247  29.761  30.533  1.00  0.00     0.167 HD
ATOM     55  C   UNL A   1      45.387  29.898  28.456  1.00  0.00     0.034 A 
ATOM     56  C   UNL A   1      38.675  30.740  30.868  1.00  0.00     0.034 A 
ATOM     57  C   UNL A   1      45.547  30.118  29.878  1.00  0.00     0.049 A 
ATOM     58  C   UNL A   1      39.878  31.600  31.084  1.00  0.00     0.074 A 
ATOM     59  C   UNL A   1      46.104  29.373  30.902  1.00  0.00     0.029 A 
ATOM     60  N   UNL A   1      44.667  30.988  30.479  1.00  0.00    -0.354 N 
ATOM     61  N   UNL A   1      40.644  31.482  32.139  1.00  0.00    -0.248 NA
ATOM     62  C   UNL A   1      40.529  32.100  29.879  1.00  0.00     0.031 C 
ATOM     63  C   UNL A   1      45.178  29.480  31.981  1.00  0.00     0.029 A 
ATOM     64  C   UNL A   1      44.193  30.405  31.630  1.00  0.00     0.049 A 
ATOM     65  H   UNL A   1      44.417  31.878  30.142  1.00  0.00     0.167 HD
ATOM     66  C   UNL A   1      41.933  31.447  31.625  1.00  0.00     0.074 A 
ATOM     67  C   UNL A   1      41.797  31.851  30.220  1.00  0.00     0.031 C 
ATOM     68  C   UNL A   1      42.937  30.767  32.257  1.00  0.00     0.034 A 
BRANCH  55  69
ATOM     69  C   UNL A   1      45.312  31.043  27.450  1.00  0.00     0.023 A 
ATOM     70  C   UNL A   1      46.512  31.716  27.179  1.00  0.00     0.031 A 
ATOM     71  C   UNL A   1      44.142  31.669  26.935  1.00  0.00     0.131 A 
ATOM     72  C   UNL A   1      46.511  32.951  26.504  1.00  0.00     0.055 A 
ATOM     73  C   UNL A   1      44.152  32.875  26.234  1.00  0.00     0.041 A 
ATOM     74  F   UNL A   1      42.900  31.214  27.121  1.00  0.00    -0.206 F 
ATOM     75  C   UNL A   1      45.341  33.538  26.033  1.00  0.00     0.022 A 
BRANCH  72  76
ATOM     76  S   UNL A   1      48.078  33.828  26.323  1.00  0.00     0.124 S 
ATOM     77  O   UNL A   1      48.103  34.636  27.537  1.00  0.00    -0.237 OA
ATOM     78  O   UNL A   1      49.030  32.725  26.261  1.00  0.00    -0.237 OA
ATOM     79  O   UNL A   1      47.908  34.570  25.076  1.00  0.00    -0.744 OA
ENDBRANCH  72  76
ENDBRANCH  55  69
BRANCH  56  80
ATOM     80  C   UNL A   1      37.360  31.319  30.401  1.00  0.00     0.023 A 
ATOM     81  C   UNL A   1      36.529  32.151  31.210  1.00  0.00     0.031 A 
ATOM     82  C   UNL A   1      37.033  31.285  29.028  1.00  0.00     0.131 A 
ATOM     83  C   UNL A   1      35.461  32.897  30.634  1.00  0.00     0.055 A 
ATOM     84  C   UNL A   1      35.990  32.031  28.468  1.00  0.00     0.041 A 
ATOM     85  F   UNL A   1      37.773  30.592  28.153  1.00  0.00    -0.206 F 
ATOM     86  C   UNL A   1      35.208  32.851  29.264  1.00  0.00     0.022 A 
BRANCH  83  87
ATOM     87  S   UNL A   1      34.424  34.039  31.628  1.00  0.00     0.124 S 
ATOM     88  O   UNL A   1      35.425  34.850  32.311  1.00  0.00    -0.237 OA
ATOM     89  O   UNL A   1      33.624  34.715  30.613  1.00  0.00    -0.237 OA
ATOM     90  O   UNL A   1      33.667  33.141  32.502  1.00  0.00    -0.744 OA
ENDBRANCH  83  87
ENDBRANCH  56  80
BRANCH  68  91
ATOM     91  C   UNL A   1      42.726  30.250  33.670  1.00  0.00     0.023 A 
ATOM     92  C   UNL A   1      42.283  28.954  34.045  1.00  0.00     0.031 A 
ATOM     93  C   UNL A   1      43.213  31.091  34.685  1.00  0.00     0.131 A 
ATOM     94  C   UNL A   1      42.356  28.558  35.402  1.00  0.00     0.055 A 
ATOM     95  C   UNL A   1      43.308  30.684  36.010  1.00  0.00     0.041 A 
ATOM     96  F   UNL A   1      43.677  32.315  34.380  1.00  0.00    -0.206 F 
ATOM     97  C   UNL A   1      42.879  29.415  36.376  1.00  0.00     0.022 A 
BRANCH  94  98
ATOM     98  S   UNL A   1      41.801  26.899  35.943  1.00  0.00     0.124 S 
ATOM     99  O   UNL A   1      41.125  26.376  34.761  1.00  0.00    -0.237 OA
ATOM    100  O   UNL A   1      43.052  26.243  36.310  1.00  0.00    -0.237 OA
ATOM    101  O   UNL A   1      40.913  27.183  37.073  1.00  0.00    -0.744 OA
ENDBRANCH  94  98
ENDBRANCH  68  91
ENDBRANCH  42  43
ENDBRANCH  35  37
ENDBRANCH  34  35
ENDBRANCH  33  34
ENDBRANCH   1  33
TORSDOF 20
ENDMDL
