MODEL 1
REMARK VINA RESULT:     -12.5      0.000      0.000
REMARK SMILES Cc1cc(NC(=O)[C@@H]2CCC[C@@H](C(=O)OCCOC(=O)c3ccc(-c4c5nc(c(-c6cc(S(=O)(=O)[O-])ccc6F)c6ccc([nH]6)c(-c6cc(S(=O)(=O)[O-])ccc6F)c6nc(c(-c7cc(S(=O)(=O)[O-])ccc7F)c7ccc4[nH]7)C=C6)C=C5)cc3)C2)ncc1Br
REMARK SMILES IDX 17 1 16 2 15 3 13 4 14 5 12 6 8 7 9 8 84 9 10 10 11 11 6 12
REMARK SMILES IDX 5 13 7 15 4 16 1 17 2 18 3 19 87 20 86 21 88 22 85 23 18 24
REMARK SMILES IDX 19 25 20 26 21 27 22 28 83 29 23 30 82 31 24 32 25 33 26 34
REMARK SMILES IDX 76 35 27 36 81 37 75 38 77 39 28 40 80 41 74 42 73 43 29 45
REMARK SMILES IDX 61 46 41 47 60 48 42 49 45 50 59 51 78 52 43 53 44 54 58 56
REMARK SMILES IDX 79 57 46 58 30 59 31 60 39 61 32 62 38 63 40 64 37 65 33 66
REMARK SMILES IDX 34 67 35 68 36 69 62 70 63 71 71 72 64 73 70 74 72 75 69 76
REMARK SMILES IDX 65 77 66 78 67 79 68 80 47 81 48 82 56 83 49 84 55 85 57 86
REMARK SMILES IDX 54 87 50 88 51 89 52 90 53 91
REMARK H PARENT 5 14 77 44 45 55
REMARK Flexibility Score: inf
ROOT
ATOM      1  C   UNL A   1      37.414  21.493  24.555  1.00  0.00     0.275 C 
ENDROOT
BRANCH   1   2
ATOM      2  C   UNL A   1      36.771  22.684  23.840  1.00  0.00     0.274 C 
BRANCH   2   3
ATOM      3  O   UNL A   1      35.332  22.605  23.831  1.00  0.00    -0.462 OA
BRANCH   3   4
ATOM      4  C   UNL A   1      34.713  22.875  25.016  1.00  0.00     0.309 C 
ATOM      5  O   UNL A   1      35.034  23.788  25.763  1.00  0.00    -0.252 OA
BRANCH   4   6
ATOM      6  C   UNL A   1      33.642  21.831  25.320  1.00  0.00     0.100 C 
ATOM      7  C   UNL A   1      31.691  23.492  25.496  1.00  0.00     0.080 C 
ATOM      8  C   UNL A   1      31.081  22.881  24.218  1.00  0.00     0.013 C 
ATOM      9  C   UNL A   1      32.572  22.447  26.220  1.00  0.00     0.028 C 
ATOM     10  C   UNL A   1      32.108  22.204  23.315  1.00  0.00     0.002 C 
ATOM     11  C   UNL A   1      32.975  21.213  24.087  1.00  0.00     0.015 C 
BRANCH   7  12
ATOM     12  C   UNL A   1      30.603  23.973  26.460  1.00  0.00     0.228 C 
ATOM     13  N   UNL A   1      29.895  25.115  26.258  1.00  0.00    -0.310 N 
ATOM     14  H   UNL A   1      29.170  25.266  26.908  1.00  0.00     0.171 HD
ATOM     15  O   UNL A   1      30.293  23.311  27.460  1.00  0.00    -0.274 OA
BRANCH  13  16
ATOM     16  C   UNL A   1      30.021  26.107  25.290  1.00  0.00     0.132 A 
ATOM     17  C   UNL A   1      32.154  29.206  24.951  1.00  0.00     0.046 C 
ATOM     18  C   UNL A   1      31.105  28.178  24.642  1.00  0.00    -0.032 A 
ATOM     19  C   UNL A   1      31.004  27.070  25.501  1.00  0.00     0.051 A 
ATOM     20  C   UNL A   1      30.219  28.248  23.565  1.00  0.00     0.039 A 
ATOM     21  C   UNL A   1      29.311  27.210  23.397  1.00  0.00     0.129 A 
ATOM     22  Br  UNL A   1      30.172  29.682  22.334  1.00  0.00    -0.049 Br
ATOM     23  N   UNL A   1      29.207  26.143  24.226  1.00  0.00    -0.238 NA
ENDBRANCH  13  16
ENDBRANCH   7  12
ENDBRANCH   4   6
ENDBRANCH   3   4
ENDBRANCH   2   3
ENDBRANCH   1   2
BRANCH   1  24
ATOM     24  O   UNL A   1      37.782  21.811  25.909  1.00  0.00    -0.458 OA
BRANCH  24  25
ATOM     25  C   UNL A   1      39.081  21.603  26.216  1.00  0.00     0.338 C 
ATOM     26  O   UNL A   1      39.755  20.618  25.937  1.00  0.00    -0.246 OA
BRANCH  25  27
ATOM     27  C   UNL A   1      39.649  22.824  26.806  1.00  0.00     0.060 A 
ATOM     28  C   UNL A   1      40.698  22.802  27.719  1.00  0.00     0.016 A 
ATOM     29  C   UNL A   1      39.144  24.039  26.354  1.00  0.00     0.016 A 
ATOM     30  C   UNL A   1      41.220  24.019  28.181  1.00  0.00     0.010 A 
ATOM     31  C   UNL A   1      39.686  25.246  26.770  1.00  0.00     0.010 A 
ATOM     32  C   UNL A   1      40.721  25.250  27.705  1.00  0.00    -0.014 A 
BRANCH  32  33
ATOM     33  C   UNL A   1      41.317  26.545  28.117  1.00  0.00     0.031 A 
ATOM     34  C   UNL A   1      42.749  26.882  27.804  1.00  0.00     0.074 A 
ATOM     35  C   UNL A   1      40.571  27.393  28.850  1.00  0.00     0.049 A 
ATOM     36  N   UNL A   1      43.391  28.004  28.008  1.00  0.00    -0.248 NA
ATOM     37  C   UNL A   1      43.579  25.818  27.216  1.00  0.00     0.031 C 
ATOM     38  C   UNL A   1      39.216  27.112  29.322  1.00  0.00     0.029 A 
ATOM     39  N   UNL A   1      40.837  28.654  29.322  1.00  0.00    -0.354 N 
ATOM     40  C   UNL A   1      44.687  27.790  27.553  1.00  0.00     0.074 A 
ATOM     41  C   UNL A   1      44.765  26.405  27.146  1.00  0.00     0.031 C 
ATOM     42  C   UNL A   1      38.745  28.190  29.964  1.00  0.00     0.029 A 
ATOM     43  C   UNL A   1      39.771  29.230  29.973  1.00  0.00     0.049 A 
ATOM     44  H   UNL A   1      41.705  29.102  29.206  1.00  0.00     0.167 HD
ATOM     45  C   UNL A   1      45.703  28.681  27.448  1.00  0.00     0.034 A 
ATOM     46  C   UNL A   1      39.623  30.467  30.491  1.00  0.00     0.034 A 
ATOM     47  C   UNL A   1      45.599  30.057  27.867  1.00  0.00     0.049 A 
ATOM     48  C   UNL A   1      40.749  31.457  30.335  1.00  0.00     0.074 A 
ATOM     49  C   UNL A   1      46.538  31.064  27.742  1.00  0.00     0.029 A 
ATOM     50  N   UNL A   1      44.496  30.618  28.498  1.00  0.00    -0.354 N 
ATOM     51  N   UNL A   1      41.921  31.289  29.767  1.00  0.00    -0.248 NA
ATOM     52  C   UNL A   1      40.532  32.808  30.868  1.00  0.00     0.031 C 
ATOM     53  C   UNL A   1      46.031  32.213  28.350  1.00  0.00     0.029 A 
ATOM     54  C   UNL A   1      44.743  31.950  28.789  1.00  0.00     0.049 A 
ATOM     55  H   UNL A   1      43.661  30.140  28.706  1.00  0.00     0.167 HD
ATOM     56  C   UNL A   1      42.571  32.516  29.854  1.00  0.00     0.074 A 
ATOM     57  C   UNL A   1      41.651  33.424  30.507  1.00  0.00     0.031 C 
ATOM     58  C   UNL A   1      43.817  32.854  29.434  1.00  0.00     0.034 A 
BRANCH  45  59
ATOM     59  C   UNL A   1      46.996  28.231  26.804  1.00  0.00     0.023 A 
ATOM     60  C   UNL A   1      47.129  28.199  25.402  1.00  0.00     0.031 A 
ATOM     61  C   UNL A   1      48.050  27.712  27.580  1.00  0.00     0.131 A 
ATOM     62  C   UNL A   1      48.276  27.637  24.824  1.00  0.00     0.055 A 
ATOM     63  C   UNL A   1      49.209  27.196  27.000  1.00  0.00     0.041 A 
ATOM     64  F   UNL A   1      47.971  27.705  28.921  1.00  0.00    -0.206 F 
ATOM     65  C   UNL A   1      49.321  27.146  25.615  1.00  0.00     0.022 A 
BRANCH  62  66
ATOM     66  S   UNL A   1      48.433  27.451  23.026  1.00  0.00     0.124 S 
ATOM     67  O   UNL A   1      47.282  28.212  22.545  1.00  0.00    -0.237 OA
ATOM     68  O   UNL A   1      49.734  28.062  22.768  1.00  0.00    -0.237 OA
ATOM     69  O   UNL A   1      48.358  26.011  22.813  1.00  0.00    -0.744 OA
ENDBRANCH  62  66
ENDBRANCH  45  59
BRANCH  46  70
ATOM     70  C   UNL A   1      38.304  30.843  31.075  1.00  0.00     0.023 A 
ATOM     71  C   UNL A   1      37.300  31.436  30.286  1.00  0.00     0.031 A 
ATOM     72  C   UNL A   1      38.093  30.762  32.462  1.00  0.00     0.131 A 
ATOM     73  C   UNL A   1      36.172  31.993  30.901  1.00  0.00     0.055 A 
ATOM     74  C   UNL A   1      36.933  31.255  33.062  1.00  0.00     0.041 A 
ATOM     75  F   UNL A   1      39.030  30.223  33.257  1.00  0.00    -0.206 F 
ATOM     76  C   UNL A   1      35.974  31.893  32.282  1.00  0.00     0.022 A 
BRANCH  73  77
ATOM     77  S   UNL A   1      34.997  33.000  29.952  1.00  0.00     0.124 S 
ATOM     78  O   UNL A   1      34.454  32.027  29.009  1.00  0.00    -0.237 OA
ATOM     79  O   UNL A   1      34.078  33.448  30.995  1.00  0.00    -0.237 OA
ATOM     80  O   UNL A   1      35.832  34.045  29.368  1.00  0.00    -0.744 OA
ENDBRANCH  73  77
ENDBRANCH  46  70
BRANCH  58  81
ATOM     81  C   UNL A   1      44.300  34.268  29.661  1.00  0.00     0.023 A 
ATOM     82  C   UNL A   1      44.078  35.254  28.681  1.00  0.00     0.031 A 
ATOM     83  C   UNL A   1      45.118  34.593  30.757  1.00  0.00     0.131 A 
ATOM     84  C   UNL A   1      44.708  36.501  28.789  1.00  0.00     0.055 A 
ATOM     85  C   UNL A   1      45.703  35.855  30.887  1.00  0.00     0.041 A 
ATOM     86  F   UNL A   1      45.372  33.684  31.713  1.00  0.00    -0.206 F 
ATOM     87  C   UNL A   1      45.512  36.808  29.891  1.00  0.00     0.022 A 
BRANCH  84  88
ATOM     88  S   UNL A   1      44.591  37.730  27.460  1.00  0.00     0.124 S 
ATOM     89  O   UNL A   1      43.334  37.358  26.814  1.00  0.00    -0.237 OA
ATOM     90  O   UNL A   1      44.561  38.985  28.205  1.00  0.00    -0.237 OA
ATOM     91  O   UNL A   1      45.790  37.501  26.661  1.00  0.00    -0.744 OA
ENDBRANCH  84  88
ENDBRANCH  58  81
ENDBRANCH  32  33
ENDBRANCH  25  27
ENDBRANCH  24  25
ENDBRANCH   1  24
TORSDOF 16
ENDMDL
MODEL 2
REMARK VINA RESULT:     -12.3      5.111     10.194
REMARK SMILES Cc1cc(NC(=O)[C@@H]2CCC[C@@H](C(=O)OCCOC(=O)c3ccc(-c4c5nc(c(-c6cc(S(=O)(=O)[O-])ccc6F)c6ccc([nH]6)c(-c6cc(S(=O)(=O)[O-])ccc6F)c6nc(c(-c7cc(S(=O)(=O)[O-])ccc7F)c7ccc4[nH]7)C=C6)C=C5)cc3)C2)ncc1Br
REMARK SMILES IDX 17 1 16 2 15 3 13 4 14 5 12 6 8 7 9 8 84 9 10 10 11 11 6 12
REMARK SMILES IDX 5 13 7 15 4 16 1 17 2 18 3 19 87 20 86 21 88 22 85 23 18 24
REMARK SMILES IDX 19 25 20 26 21 27 22 28 83 29 23 30 82 31 24 32 25 33 26 34
REMARK SMILES IDX 76 35 27 36 81 37 75 38 77 39 28 40 80 41 74 42 73 43 29 45
REMARK SMILES IDX 61 46 41 47 60 48 42 49 45 50 59 51 78 52 43 53 44 54 58 56
REMARK SMILES IDX 79 57 46 58 30 59 31 60 39 61 32 62 38 63 40 64 37 65 33 66
REMARK SMILES IDX 34 67 35 68 36 69 62 70 63 71 71 72 64 73 70 74 72 75 69 76
REMARK SMILES IDX 65 77 66 78 67 79 68 80 47 81 48 82 56 83 49 84 55 85 57 86
REMARK SMILES IDX 54 87 50 88 51 89 52 90 53 91
REMARK H PARENT 5 14 77 44 45 55
REMARK Flexibility Score: inf
ROOT
ATOM      1  C   UNL A   1      31.800  30.278  26.783  1.00  0.00     0.275 C 
ENDROOT
BRANCH   1   2
ATOM      2  C   UNL A   1      31.804  28.847  27.327  1.00  0.00     0.274 C 
BRANCH   2   3
ATOM      3  O   UNL A   1      31.383  27.885  26.339  1.00  0.00    -0.462 OA
BRANCH   3   4
ATOM      4  C   UNL A   1      32.214  27.728  25.269  1.00  0.00     0.309 C 
ATOM      5  O   UNL A   1      33.418  27.538  25.360  1.00  0.00    -0.252 OA
BRANCH   4   6
ATOM      6  C   UNL A   1      31.455  27.915  23.958  1.00  0.00     0.100 C 
ATOM      7  C   UNL A   1      32.147  25.669  22.924  1.00  0.00     0.080 C 
ATOM      8  C   UNL A   1      30.683  25.196  23.016  1.00  0.00     0.013 C 
ATOM      9  C   UNL A   1      32.206  27.212  22.830  1.00  0.00     0.028 C 
ATOM     10  C   UNL A   1      29.877  25.913  24.095  1.00  0.00     0.002 C 
ATOM     11  C   UNL A   1      30.001  27.431  23.980  1.00  0.00     0.015 C 
BRANCH   7  12
ATOM     12  C   UNL A   1      32.851  25.073  21.701  1.00  0.00     0.228 C 
ATOM     13  N   UNL A   1      33.193  23.761  21.617  1.00  0.00    -0.310 N 
ATOM     14  H   UNL A   1      33.565  23.491  20.746  1.00  0.00     0.171 HD
ATOM     15  O   UNL A   1      33.107  25.766  20.706  1.00  0.00    -0.274 OA
BRANCH  13  16
ATOM     16  C   UNL A   1      33.109  22.735  22.554  1.00  0.00     0.132 A 
ATOM     17  C   UNL A   1      35.330  21.543  25.367  1.00  0.00     0.046 C 
ATOM     18  C   UNL A   1      34.184  21.584  24.398  1.00  0.00    -0.032 A 
ATOM     19  C   UNL A   1      34.124  22.667  23.504  1.00  0.00     0.051 A 
ATOM     20  C   UNL A   1      33.178  20.619  24.319  1.00  0.00     0.039 A 
ATOM     21  C   UNL A   1      32.170  20.800  23.380  1.00  0.00     0.129 A 
ATOM     22  Br  UNL A   1      33.118  19.072  25.404  1.00  0.00    -0.049 Br
ATOM     23  N   UNL A   1      32.112  21.841  22.513  1.00  0.00    -0.238 NA
ENDBRANCH  13  16
ENDBRANCH   7  12
ENDBRANCH   4   6
ENDBRANCH   3   4
ENDBRANCH   2   3
ENDBRANCH   1   2
BRANCH   1  24
ATOM     24  O   UNL A   1      33.129  30.751  26.497  1.00  0.00    -0.458 OA
BRANCH  24  25
ATOM     25  C   UNL A   1      33.575  31.736  27.308  1.00  0.00     0.338 C 
ATOM     26  O   UNL A   1      32.950  32.721  27.683  1.00  0.00    -0.246 OA
BRANCH  25  27
ATOM     27  C   UNL A   1      34.900  31.377  27.834  1.00  0.00     0.060 A 
ATOM     28  C   UNL A   1      35.911  32.311  28.031  1.00  0.00     0.016 A 
ATOM     29  C   UNL A   1      35.094  30.051  28.210  1.00  0.00     0.016 A 
ATOM     30  C   UNL A   1      37.123  31.890  28.598  1.00  0.00     0.010 A 
ATOM     31  C   UNL A   1      36.272  29.637  28.815  1.00  0.00     0.010 A 
ATOM     32  C   UNL A   1      37.309  30.550  28.999  1.00  0.00    -0.014 A 
BRANCH  32  33
ATOM     33  C   UNL A   1      38.551  30.105  29.678  1.00  0.00     0.031 A 
ATOM     34  C   UNL A   1      38.924  30.619  31.042  1.00  0.00     0.074 A 
ATOM     35  C   UNL A   1      39.388  29.283  29.017  1.00  0.00     0.049 A 
ATOM     36  N   UNL A   1      39.921  30.257  31.810  1.00  0.00    -0.248 NA
ATOM     37  C   UNL A   1      38.095  31.695  31.607  1.00  0.00     0.031 C 
ATOM     38  C   UNL A   1      39.190  28.829  27.641  1.00  0.00     0.029 A 
ATOM     39  N   UNL A   1      40.560  28.684  29.403  1.00  0.00    -0.354 N 
ATOM     40  C   UNL A   1      39.825  31.041  32.954  1.00  0.00     0.074 A 
ATOM     41  C   UNL A   1      38.728  31.959  32.741  1.00  0.00     0.031 C 
ATOM     42  C   UNL A   1      40.171  27.975  27.318  1.00  0.00     0.029 A 
ATOM     43  C   UNL A   1      41.083  27.840  28.452  1.00  0.00     0.049 A 
ATOM     44  H   UNL A   1      40.985  28.842  30.277  1.00  0.00     0.167 HD
ATOM     45  C   UNL A   1      40.559  30.970  34.091  1.00  0.00     0.034 A 
ATOM     46  C   UNL A   1      42.156  27.024  28.497  1.00  0.00     0.034 A 
ATOM     47  C   UNL A   1      41.653  30.047  34.273  1.00  0.00     0.049 A 
ATOM     48  C   UNL A   1      42.943  26.931  29.779  1.00  0.00     0.074 A 
ATOM     49  C   UNL A   1      42.417  29.840  35.406  1.00  0.00     0.029 A 
ATOM     50  N   UNL A   1      42.140  29.185  33.299  1.00  0.00    -0.354 N 
ATOM     51  N   UNL A   1      42.752  27.569  30.911  1.00  0.00    -0.248 NA
ATOM     52  C   UNL A   1      44.074  25.996  29.805  1.00  0.00     0.031 C 
ATOM     53  C   UNL A   1      43.404  28.902  35.101  1.00  0.00     0.029 A 
ATOM     54  C   UNL A   1      43.212  28.463  33.800  1.00  0.00     0.049 A 
ATOM     55  H   UNL A   1      41.778  29.099  32.388  1.00  0.00     0.167 HD
ATOM     56  C   UNL A   1      43.723  27.098  31.788  1.00  0.00     0.074 A 
ATOM     57  C   UNL A   1      44.485  26.102  31.064  1.00  0.00     0.031 C 
ATOM     58  C   UNL A   1      43.963  27.463  33.074  1.00  0.00     0.034 A 
BRANCH  45  59
ATOM     59  C   UNL A   1      40.181  31.862  35.253  1.00  0.00     0.023 A 
ATOM     60  C   UNL A   1      39.247  31.432  36.215  1.00  0.00     0.031 A 
ATOM     61  C   UNL A   1      40.650  33.187  35.333  1.00  0.00     0.131 A 
ATOM     62  C   UNL A   1      38.796  32.327  37.196  1.00  0.00     0.055 A 
ATOM     63  C   UNL A   1      40.233  34.058  36.340  1.00  0.00     0.041 A 
ATOM     64  F   UNL A   1      41.533  33.654  34.434  1.00  0.00    -0.206 F 
ATOM     65  C   UNL A   1      39.292  33.632  37.270  1.00  0.00     0.022 A 
BRANCH  62  66
ATOM     66  S   UNL A   1      37.495  31.860  38.372  1.00  0.00     0.124 S 
ATOM     67  O   UNL A   1      38.178  32.024  39.654  1.00  0.00    -0.237 OA
ATOM     68  O   UNL A   1      36.458  32.849  38.089  1.00  0.00    -0.237 OA
ATOM     69  O   UNL A   1      37.172  30.485  38.013  1.00  0.00    -0.744 OA
ENDBRANCH  62  66
ENDBRANCH  45  59
BRANCH  46  70
ATOM     70  C   UNL A   1      42.439  26.151  27.321  1.00  0.00     0.023 A 
ATOM     71  C   UNL A   1      41.972  24.824  27.271  1.00  0.00     0.031 A 
ATOM     72  C   UNL A   1      43.315  26.582  26.310  1.00  0.00     0.131 A 
ATOM     73  C   UNL A   1      42.447  23.958  26.278  1.00  0.00     0.055 A 
ATOM     74  C   UNL A   1      43.728  25.735  25.282  1.00  0.00     0.041 A 
ATOM     75  F   UNL A   1      43.802  27.833  26.328  1.00  0.00    -0.206 F 
ATOM     76  C   UNL A   1      43.310  24.409  25.274  1.00  0.00     0.022 A 
BRANCH  73  77
ATOM     77  S   UNL A   1      42.084  22.181  26.342  1.00  0.00     0.124 S 
ATOM     78  O   UNL A   1      42.500  21.833  27.698  1.00  0.00    -0.237 OA
ATOM     79  O   UNL A   1      40.643  22.163  26.101  1.00  0.00    -0.237 OA
ATOM     80  O   UNL A   1      42.900  21.622  25.270  1.00  0.00    -0.744 OA
ENDBRANCH  73  77
ENDBRANCH  46  70
BRANCH  58  81
ATOM     81  C   UNL A   1      45.102  26.802  33.815  1.00  0.00     0.023 A 
ATOM     82  C   UNL A   1      44.852  25.688  34.640  1.00  0.00     0.031 A 
ATOM     83  C   UNL A   1      46.386  27.373  33.839  1.00  0.00     0.131 A 
ATOM     84  C   UNL A   1      45.858  25.211  35.491  1.00  0.00     0.055 A 
ATOM     85  C   UNL A   1      47.400  26.861  34.651  1.00  0.00     0.041 A 
ATOM     86  F   UNL A   1      46.671  28.444  33.081  1.00  0.00    -0.206 F 
ATOM     87  C   UNL A   1      47.132  25.786  35.494  1.00  0.00     0.022 A 
BRANCH  84  88
ATOM     88  S   UNL A   1      45.521  23.896  36.695  1.00  0.00     0.124 S 
ATOM     89  O   UNL A   1      44.656  24.577  37.654  1.00  0.00    -0.237 OA
ATOM     90  O   UNL A   1      44.864  22.887  35.870  1.00  0.00    -0.237 OA
ATOM     91  O   UNL A   1      46.842  23.533  37.198  1.00  0.00    -0.744 OA
ENDBRANCH  84  88
ENDBRANCH  58  81
ENDBRANCH  32  33
ENDBRANCH  25  27
ENDBRANCH  24  25
ENDBRANCH   1  24
TORSDOF 16
ENDMDL
MODEL 3
REMARK VINA RESULT:     -12.1      1.520      1.875
REMARK SMILES Cc1cc(NC(=O)[C@@H]2CCC[C@@H](C(=O)OCCOC(=O)c3ccc(-c4c5nc(c(-c6cc(S(=O)(=O)[O-])ccc6F)c6ccc([nH]6)c(-c6cc(S(=O)(=O)[O-])ccc6F)c6nc(c(-c7cc(S(=O)(=O)[O-])ccc7F)c7ccc4[nH]7)C=C6)C=C5)cc3)C2)ncc1Br
REMARK SMILES IDX 17 1 16 2 15 3 13 4 14 5 12 6 8 7 9 8 84 9 10 10 11 11 6 12
REMARK SMILES IDX 5 13 7 15 4 16 1 17 2 18 3 19 87 20 86 21 88 22 85 23 18 24
REMARK SMILES IDX 19 25 20 26 21 27 22 28 83 29 23 30 82 31 24 32 25 33 26 34
REMARK SMILES IDX 76 35 27 36 81 37 75 38 77 39 28 40 80 41 74 42 73 43 29 45
REMARK SMILES IDX 61 46 41 47 60 48 42 49 45 50 59 51 78 52 43 53 44 54 58 56
REMARK SMILES IDX 79 57 46 58 30 59 31 60 39 61 32 62 38 63 40 64 37 65 33 66
REMARK SMILES IDX 34 67 35 68 36 69 62 70 63 71 71 72 64 73 70 74 72 75 69 76
REMARK SMILES IDX 65 77 66 78 67 79 68 80 47 81 48 82 56 83 49 84 55 85 57 86
REMARK SMILES IDX 54 87 50 88 51 89 52 90 53 91
REMARK H PARENT 5 14 77 44 45 55
REMARK Flexibility Score: inf
ROOT
ATOM      1  C   UNL A   1      37.362  21.125  24.571  1.00  0.00     0.275 C 
ENDROOT
BRANCH   1   2
ATOM      2  C   UNL A   1      36.555  22.236  23.893  1.00  0.00     0.274 C 
BRANCH   2   3
ATOM      3  O   UNL A   1      35.177  22.246  24.314  1.00  0.00    -0.462 OA
BRANCH   3   4
ATOM      4  C   UNL A   1      34.916  22.899  25.482  1.00  0.00     0.309 C 
ATOM      5  O   UNL A   1      35.316  24.025  25.741  1.00  0.00    -0.252 OA
BRANCH   4   6
ATOM      6  C   UNL A   1      34.144  22.001  26.447  1.00  0.00     0.100 C 
ATOM      7  C   UNL A   1      31.846  23.067  26.025  1.00  0.00     0.080 C 
ATOM      8  C   UNL A   1      31.379  21.754  25.366  1.00  0.00     0.013 C 
ATOM      9  C   UNL A   1      32.975  22.781  27.044  1.00  0.00     0.028 C 
ATOM     10  C   UNL A   1      32.522  20.913  24.804  1.00  0.00     0.002 C 
ATOM     11  C   UNL A   1      33.625  20.694  25.836  1.00  0.00     0.015 C 
BRANCH   7  12
ATOM     12  C   UNL A   1      30.694  23.768  26.750  1.00  0.00     0.228 C 
ATOM     13  N   UNL A   1      30.398  25.081  26.561  1.00  0.00    -0.310 N 
ATOM     14  H   UNL A   1      29.584  25.387  27.024  1.00  0.00     0.171 HD
ATOM     15  O   UNL A   1      29.949  23.150  27.523  1.00  0.00    -0.274 OA
BRANCH  13  16
ATOM     16  C   UNL A   1      31.050  26.066  25.824  1.00  0.00     0.132 A 
ATOM     17  C   UNL A   1      30.362  27.785  22.532  1.00  0.00     0.046 C 
ATOM     18  C   UNL A   1      31.074  27.392  23.793  1.00  0.00    -0.032 A 
ATOM     19  C   UNL A   1      30.419  26.501  24.661  1.00  0.00     0.051 A 
ATOM     20  C   UNL A   1      32.343  27.844  24.161  1.00  0.00     0.039 A 
ATOM     21  C   UNL A   1      32.869  27.404  25.369  1.00  0.00     0.129 A 
ATOM     22  Br  UNL A   1      33.393  29.004  23.101  1.00  0.00    -0.049 Br
ATOM     23  N   UNL A   1      32.243  26.541  26.206  1.00  0.00    -0.238 NA
ENDBRANCH  13  16
ENDBRANCH   7  12
ENDBRANCH   4   6
ENDBRANCH   3   4
ENDBRANCH   2   3
ENDBRANCH   1   2
BRANCH   1  24
ATOM     24  O   UNL A   1      37.788  21.497  25.894  1.00  0.00    -0.458 OA
BRANCH  24  25
ATOM     25  C   UNL A   1      39.100  21.303  26.151  1.00  0.00     0.338 C 
ATOM     26  O   UNL A   1      39.776  20.330  25.836  1.00  0.00    -0.246 OA
BRANCH  25  27
ATOM     27  C   UNL A   1      39.674  22.525  26.733  1.00  0.00     0.060 A 
ATOM     28  C   UNL A   1      40.699  22.504  27.672  1.00  0.00     0.016 A 
ATOM     29  C   UNL A   1      39.199  23.740  26.247  1.00  0.00     0.016 A 
ATOM     30  C   UNL A   1      41.230  23.721  28.124  1.00  0.00     0.010 A 
ATOM     31  C   UNL A   1      39.751  24.945  26.655  1.00  0.00     0.010 A 
ATOM     32  C   UNL A   1      40.762  24.950  27.614  1.00  0.00    -0.014 A 
BRANCH  32  33
ATOM     33  C   UNL A   1      41.369  26.243  28.018  1.00  0.00     0.031 A 
ATOM     34  C   UNL A   1      42.793  26.580  27.672  1.00  0.00     0.074 A 
ATOM     35  C   UNL A   1      40.642  27.087  28.774  1.00  0.00     0.049 A 
ATOM     36  N   UNL A   1      43.440  27.702  27.865  1.00  0.00    -0.248 NA
ATOM     37  C   UNL A   1      43.607  25.520  27.057  1.00  0.00     0.031 C 
ATOM     38  C   UNL A   1      39.299  26.804  29.279  1.00  0.00     0.029 A 
ATOM     39  N   UNL A   1      40.920  28.345  29.247  1.00  0.00    -0.354 N 
ATOM     40  C   UNL A   1      44.725  27.490  27.376  1.00  0.00     0.074 A 
ATOM     41  C   UNL A   1      44.792  26.107  26.961  1.00  0.00     0.031 C 
ATOM     42  C   UNL A   1      38.845  27.879  29.938  1.00  0.00     0.029 A 
ATOM     43  C   UNL A   1      39.872  28.919  29.927  1.00  0.00     0.049 A 
ATOM     44  H   UNL A   1      41.786  28.794  29.111  1.00  0.00     0.167 HD
ATOM     45  C   UNL A   1      45.738  28.381  27.250  1.00  0.00     0.034 A 
ATOM     46  C   UNL A   1      39.737  30.153  30.454  1.00  0.00     0.034 A 
ATOM     47  C   UNL A   1      45.645  29.755  27.679  1.00  0.00     0.049 A 
ATOM     48  C   UNL A   1      40.859  31.144  30.276  1.00  0.00     0.074 A 
ATOM     49  C   UNL A   1      46.581  30.762  27.535  1.00  0.00     0.029 A 
ATOM     50  N   UNL A   1      44.558  30.313  28.340  1.00  0.00    -0.354 N 
ATOM     51  N   UNL A   1      42.016  30.978  29.677  1.00  0.00    -0.248 NA
ATOM     52  C   UNL A   1      40.656  32.491  30.821  1.00  0.00     0.031 C 
ATOM     53  C   UNL A   1      46.090  31.908  28.162  1.00  0.00     0.029 A 
ATOM     54  C   UNL A   1      44.813  31.643  28.632  1.00  0.00     0.049 A 
ATOM     55  H   UNL A   1      43.729  29.834  28.567  1.00  0.00     0.167 HD
ATOM     56  C   UNL A   1      42.669  32.204  29.754  1.00  0.00     0.074 A 
ATOM     57  C   UNL A   1      41.767  33.109  30.435  1.00  0.00     0.031 C 
ATOM     58  C   UNL A   1      43.904  32.544  29.305  1.00  0.00     0.034 A 
BRANCH  45  59
ATOM     59  C   UNL A   1      47.014  27.934  26.571  1.00  0.00     0.023 A 
ATOM     60  C   UNL A   1      47.169  28.058  25.177  1.00  0.00     0.031 A 
ATOM     61  C   UNL A   1      48.023  27.267  27.292  1.00  0.00     0.131 A 
ATOM     62  C   UNL A   1      48.292  27.500  24.549  1.00  0.00     0.055 A 
ATOM     63  C   UNL A   1      49.161  26.755  26.668  1.00  0.00     0.041 A 
ATOM     64  F   UNL A   1      47.921  27.108  28.622  1.00  0.00    -0.206 F 
ATOM     65  C   UNL A   1      49.293  26.861  25.288  1.00  0.00     0.022 A 
BRANCH  62  66
ATOM     66  S   UNL A   1      48.469  27.517  22.744  1.00  0.00     0.124 S 
ATOM     67  O   UNL A   1      47.289  28.275  22.334  1.00  0.00    -0.237 OA
ATOM     68  O   UNL A   1      49.744  28.208  22.568  1.00  0.00    -0.237 OA
ATOM     69  O   UNL A   1      48.459  26.106  22.375  1.00  0.00    -0.744 OA
ENDBRANCH  62  66
ENDBRANCH  45  59
BRANCH  46  70
ATOM     70  C   UNL A   1      38.433  30.526  31.074  1.00  0.00     0.023 A 
ATOM     71  C   UNL A   1      37.425  31.160  30.323  1.00  0.00     0.031 A 
ATOM     72  C   UNL A   1      38.244  30.400  32.461  1.00  0.00     0.131 A 
ATOM     73  C   UNL A   1      36.315  31.711  30.977  1.00  0.00     0.055 A 
ATOM     74  C   UNL A   1      37.102  30.887  33.097  1.00  0.00     0.041 A 
ATOM     75  F   UNL A   1      39.187  29.820  33.221  1.00  0.00    -0.206 F 
ATOM     76  C   UNL A   1      36.139  31.565  32.356  1.00  0.00     0.022 A 
BRANCH  73  77
ATOM     77  S   UNL A   1      35.140  32.766  30.083  1.00  0.00     0.124 S 
ATOM     78  O   UNL A   1      36.000  33.847  29.609  1.00  0.00    -0.237 OA
ATOM     79  O   UNL A   1      34.646  31.856  29.053  1.00  0.00    -0.237 OA
ATOM     80  O   UNL A   1      34.165  33.138  31.103  1.00  0.00    -0.744 OA
ENDBRANCH  73  77
ENDBRANCH  46  70
BRANCH  58  81
ATOM     81  C   UNL A   1      44.394  33.957  29.527  1.00  0.00     0.023 A 
ATOM     82  C   UNL A   1      44.975  34.314  30.760  1.00  0.00     0.031 A 
ATOM     83  C   UNL A   1      44.133  34.975  28.595  1.00  0.00     0.131 A 
ATOM     84  C   UNL A   1      45.229  35.662  31.046  1.00  0.00     0.055 A 
ATOM     85  C   UNL A   1      44.436  36.311  28.865  1.00  0.00     0.041 A 
ATOM     86  F   UNL A   1      43.569  34.688  27.410  1.00  0.00    -0.206 F 
ATOM     87  C   UNL A   1      44.970  36.661  30.102  1.00  0.00     0.022 A 
BRANCH  84  88
ATOM     88  S   UNL A   1      45.808  36.179  32.686  1.00  0.00     0.124 S 
ATOM     89  O   UNL A   1      46.459  34.966  33.173  1.00  0.00    -0.237 OA
ATOM     90  O   UNL A   1      46.708  37.282  32.359  1.00  0.00    -0.237 OA
ATOM     91  O   UNL A   1      44.586  36.553  33.390  1.00  0.00    -0.744 OA
ENDBRANCH  84  88
ENDBRANCH  58  81
ENDBRANCH  32  33
ENDBRANCH  25  27
ENDBRANCH  24  25
ENDBRANCH   1  24
TORSDOF 16
ENDMDL
