MODEL 1
REMARK VINA RESULT:     -11.7      0.000      0.000
REMARK SMILES CC(C)CSc1cc2c(cc1Cl)C=C(C(=O)OCCOC(=O)c1ccc(-c3c4nc(c(-c5cc(S(=O)(=O)[O-])ccc5F)c5ccc([nH]5)c(-c5cc(S(=O)(=O)[O-])ccc5F)c5nc(c(-c6cc(S(=O)(=O)[O-])ccc6F)c6ccc3[nH]6)C=C5)C=C4)cc1)[C@H](C(F)(F)F)O2
REMARK SMILES IDX 18 1 17 2 15 3 16 4 14 5 6 6 7 7 11 8 8 9 10 10 12 11 9 12
REMARK SMILES IDX 91 13 13 14 86 15 5 16 4 17 2 18 1 19 3 20 87 21 88 22 89 23
REMARK SMILES IDX 90 24 19 25 20 26 21 27 22 28 23 29 24 30 85 31 25 32 84 33
REMARK SMILES IDX 26 34 27 35 28 36 78 37 29 38 83 39 77 40 79 41 30 42 82 43
REMARK SMILES IDX 76 44 75 45 31 47 63 48 43 49 62 50 44 51 47 52 61 53 80 54
REMARK SMILES IDX 45 55 46 56 60 58 81 59 48 60 32 61 33 62 41 63 34 64 40 65
REMARK SMILES IDX 42 66 39 67 35 68 36 69 37 70 38 71 64 72 65 73 73 74 66 75
REMARK SMILES IDX 72 76 74 77 71 78 67 79 68 80 69 81 70 82 49 83 50 84 58 85
REMARK SMILES IDX 51 86 57 87 59 88 56 89 52 90 53 91 54 92 55 93
REMARK H PARENT 79 46 47 57
REMARK Flexibility Score: inf
ROOT
ATOM      1  C   UNL A   1      35.906  21.714  24.872  1.00  0.00     0.275 C 
ENDROOT
BRANCH   1   2
ATOM      2  O   UNL A   1      34.692  21.074  25.321  1.00  0.00    -0.459 OA
BRANCH   2   3
ATOM      3  C   UNL A   1      33.958  21.748  26.230  1.00  0.00     0.338 C 
ATOM      4  O   UNL A   1      33.873  21.477  27.417  1.00  0.00    -0.246 OA
BRANCH   3   5
ATOM      5  C   UNL A   1      33.304  22.929  25.627  1.00  0.00     0.087 C 
ATOM      6  C   UNL A   1      31.994  27.705  24.648  1.00  0.00     0.030 A 
ATOM      7  C   UNL A   1      31.513  26.451  24.235  1.00  0.00     0.063 A 
ATOM      8  C   UNL A   1      33.070  27.753  25.549  1.00  0.00     0.055 A 
ATOM      9  C   UNL A   1      32.100  25.270  24.698  1.00  0.00     0.129 A 
ATOM     10  C   UNL A   1      33.671  26.570  25.988  1.00  0.00     0.033 A 
ATOM     11  Cl  UNL A   1      33.706  29.234  26.174  1.00  0.00    -0.083 Cl
ATOM     12  C   UNL A   1      33.179  25.331  25.571  1.00  0.00     0.019 A 
ATOM     13  O   UNL A   1      31.554  24.099  24.259  1.00  0.00    -0.475 OA
ATOM     14  C   UNL A   1      33.776  24.106  26.062  1.00  0.00     0.027 C 
ATOM     15  C   UNL A   1      32.100  22.821  24.720  1.00  0.00     0.316 C 
BRANCH   6  16
ATOM     16  S   UNL A   1      31.146  29.168  24.061  1.00  0.00    -0.124 SA
BRANCH  16  17
ATOM     17  C   UNL A   1      29.694  28.429  23.213  1.00  0.00     0.078 C 
BRANCH  17  18
ATOM     18  C   UNL A   1      28.497  29.385  23.047  1.00  0.00    -0.007 C 
ATOM     19  C   UNL A   1      28.514  30.084  21.686  1.00  0.00     0.008 C 
ATOM     20  C   UNL A   1      27.177  28.615  23.184  1.00  0.00     0.008 C 
ENDBRANCH  17  18
ENDBRANCH  16  17
ENDBRANCH   6  16
BRANCH  15  21
ATOM     21  C   UNL A   1      32.227  21.901  23.491  1.00  0.00     0.430 C 
ATOM     22  F   UNL A   1      32.219  20.592  23.811  1.00  0.00    -0.167 F 
ATOM     23  F   UNL A   1      31.237  22.128  22.593  1.00  0.00    -0.167 F 
ATOM     24  F   UNL A   1      33.383  22.144  22.819  1.00  0.00    -0.167 F 
ENDBRANCH  15  21
ENDBRANCH   3   5
ENDBRANCH   2   3
ENDBRANCH   1   2
BRANCH   1  25
ATOM     25  C   UNL A   1      37.133  20.939  25.349  1.00  0.00     0.275 C 
BRANCH  25  26
ATOM     26  O   UNL A   1      38.307  21.764  25.247  1.00  0.00    -0.458 OA
BRANCH  26  27
ATOM     27  C   UNL A   1      39.291  21.487  26.132  1.00  0.00     0.338 C 
ATOM     28  O   UNL A   1      39.783  20.395  26.381  1.00  0.00    -0.246 OA
BRANCH  27  29
ATOM     29  C   UNL A   1      39.769  22.740  26.728  1.00  0.00     0.060 A 
ATOM     30  C   UNL A   1      40.811  22.749  27.649  1.00  0.00     0.016 A 
ATOM     31  C   UNL A   1      39.226  23.938  26.266  1.00  0.00     0.016 A 
ATOM     32  C   UNL A   1      41.290  23.977  28.123  1.00  0.00     0.010 A 
ATOM     33  C   UNL A   1      39.751  25.158  26.683  1.00  0.00     0.010 A 
ATOM     34  C   UNL A   1      40.782  25.197  27.631  1.00  0.00    -0.014 A 
BRANCH  34  35
ATOM     35  C   UNL A   1      41.358  26.503  28.065  1.00  0.00     0.031 A 
ATOM     36  C   UNL A   1      42.784  26.876  27.744  1.00  0.00     0.074 A 
ATOM     37  C   UNL A   1      40.600  27.348  28.795  1.00  0.00     0.049 A 
ATOM     38  N   UNL A   1      43.424  27.987  28.007  1.00  0.00    -0.248 NA
ATOM     39  C   UNL A   1      43.612  25.862  27.071  1.00  0.00     0.031 C 
ATOM     40  C   UNL A   1      39.243  27.062  29.264  1.00  0.00     0.029 A 
ATOM     41  N   UNL A   1      40.850  28.616  29.263  1.00  0.00    -0.354 N 
ATOM     42  C   UNL A   1      44.723  27.803  27.548  1.00  0.00     0.074 A 
ATOM     43  C   UNL A   1      44.802  26.448  27.050  1.00  0.00     0.031 C 
ATOM     44  C   UNL A   1      38.757  28.144  29.889  1.00  0.00     0.029 A 
ATOM     45  C   UNL A   1      39.775  29.191  29.904  1.00  0.00     0.049 A 
ATOM     46  H   UNL A   1      41.716  29.071  29.150  1.00  0.00     0.167 HD
ATOM     47  C   UNL A   1      45.746  28.691  27.510  1.00  0.00     0.034 A 
ATOM     48  C   UNL A   1      39.614  30.426  30.424  1.00  0.00     0.034 A 
ATOM     49  C   UNL A   1      45.639  30.055  27.961  1.00  0.00     0.049 A 
ATOM     50  C   UNL A   1      40.741  31.421  30.305  1.00  0.00     0.074 A 
ATOM     51  C   UNL A   1      46.589  31.058  27.880  1.00  0.00     0.029 A 
ATOM     52  N   UNL A   1      44.521  30.613  28.561  1.00  0.00    -0.354 N 
ATOM     53  N   UNL A   1      41.922  31.267  29.753  1.00  0.00    -0.248 NA
ATOM     54  C   UNL A   1      40.516  32.763  30.864  1.00  0.00     0.031 C 
ATOM     55  C   UNL A   1      46.064  32.207  28.472  1.00  0.00     0.029 A 
ATOM     56  C   UNL A   1      44.763  31.943  28.867  1.00  0.00     0.049 A 
ATOM     57  H   UNL A   1      43.679  30.136  28.743  1.00  0.00     0.167 HD
ATOM     58  C   UNL A   1      42.567  32.494  29.876  1.00  0.00     0.074 A 
ATOM     59  C   UNL A   1      41.637  33.390  30.528  1.00  0.00     0.031 C 
ATOM     60  C   UNL A   1      43.821  32.841  29.491  1.00  0.00     0.034 A 
BRANCH  47  61
ATOM     61  C   UNL A   1      47.064  28.264  26.904  1.00  0.00     0.023 A 
ATOM     62  C   UNL A   1      47.194  28.123  25.509  1.00  0.00     0.031 A 
ATOM     63  C   UNL A   1      48.138  27.856  27.715  1.00  0.00     0.131 A 
ATOM     64  C   UNL A   1      48.359  27.557  24.973  1.00  0.00     0.055 A 
ATOM     65  C   UNL A   1      49.313  27.334  27.173  1.00  0.00     0.041 A 
ATOM     66  F   UNL A   1      48.061  27.959  29.052  1.00  0.00    -0.206 F 
ATOM     67  C   UNL A   1      49.422  27.171  25.796  1.00  0.00     0.022 A 
BRANCH  64  68
ATOM     68  S   UNL A   1      48.519  27.236  23.194  1.00  0.00     0.124 S 
ATOM     69  O   UNL A   1      48.211  25.810  23.117  1.00  0.00    -0.237 OA
ATOM     70  O   UNL A   1      47.504  28.124  22.632  1.00  0.00    -0.237 OA
ATOM     71  O   UNL A   1      49.902  27.589  22.896  1.00  0.00    -0.744 OA
ENDBRANCH  64  68
ENDBRANCH  47  61
BRANCH  48  72
ATOM     72  C   UNL A   1      38.289  30.809  31.000  1.00  0.00     0.023 A 
ATOM     73  C   UNL A   1      37.292  31.407  30.208  1.00  0.00     0.031 A 
ATOM     74  C   UNL A   1      38.047  30.677  32.378  1.00  0.00     0.131 A 
ATOM     75  C   UNL A   1      36.127  31.904  30.813  1.00  0.00     0.055 A 
ATOM     76  C   UNL A   1      36.858  31.110  32.965  1.00  0.00     0.041 A 
ATOM     77  F   UNL A   1      38.976  30.128  33.177  1.00  0.00    -0.206 F 
ATOM     78  C   UNL A   1      35.897  31.744  32.183  1.00  0.00     0.022 A 
BRANCH  75  79
ATOM     79  S   UNL A   1      34.940  32.898  29.868  1.00  0.00     0.124 S 
ATOM     80  O   UNL A   1      34.046  33.380  30.916  1.00  0.00    -0.237 OA
ATOM     81  O   UNL A   1      35.807  33.909  29.266  1.00  0.00    -0.237 OA
ATOM     82  O   UNL A   1      34.361  31.942  28.930  1.00  0.00    -0.744 OA
ENDBRANCH  75  79
ENDBRANCH  48  72
BRANCH  60  83
ATOM     83  C   UNL A   1      44.297  34.252  29.743  1.00  0.00     0.023 A 
ATOM     84  C   UNL A   1      44.859  34.592  30.989  1.00  0.00     0.031 A 
ATOM     85  C   UNL A   1      44.033  35.284  28.828  1.00  0.00     0.131 A 
ATOM     86  C   UNL A   1      45.098  35.935  31.302  1.00  0.00     0.055 A 
ATOM     87  C   UNL A   1      44.316  36.618  29.126  1.00  0.00     0.041 A 
ATOM     88  F   UNL A   1      43.485  35.012  27.632  1.00  0.00    -0.206 F 
ATOM     89  C   UNL A   1      44.836  36.950  30.375  1.00  0.00     0.022 A 
BRANCH  86  90
ATOM     90  S   UNL A   1      45.666  36.427  32.954  1.00  0.00     0.124 S 
ATOM     91  O   UNL A   1      46.218  35.176  33.468  1.00  0.00    -0.237 OA
ATOM     92  O   UNL A   1      46.648  37.462  32.646  1.00  0.00    -0.237 OA
ATOM     93  O   UNL A   1      44.453  36.891  33.620  1.00  0.00    -0.744 OA
ENDBRANCH  86  90
ENDBRANCH  60  83
ENDBRANCH  34  35
ENDBRANCH  27  29
ENDBRANCH  26  27
ENDBRANCH  25  26
ENDBRANCH   1  25
TORSDOF 18
ENDMDL
MODEL 2
REMARK VINA RESULT:     -11.6      2.120      2.443
REMARK SMILES CC(C)CSc1cc2c(cc1Cl)C=C(C(=O)OCCOC(=O)c1ccc(-c3c4nc(c(-c5cc(S(=O)(=O)[O-])ccc5F)c5ccc([nH]5)c(-c5cc(S(=O)(=O)[O-])ccc5F)c5nc(c(-c6cc(S(=O)(=O)[O-])ccc6F)c6ccc3[nH]6)C=C5)C=C4)cc1)[C@H](C(F)(F)F)O2
REMARK SMILES IDX 18 1 17 2 15 3 16 4 14 5 6 6 7 7 11 8 8 9 10 10 12 11 9 12
REMARK SMILES IDX 91 13 13 14 86 15 5 16 4 17 2 18 1 19 3 20 87 21 88 22 89 23
REMARK SMILES IDX 90 24 19 25 20 26 21 27 22 28 23 29 24 30 85 31 25 32 84 33
REMARK SMILES IDX 26 34 27 35 28 36 78 37 29 38 83 39 77 40 79 41 30 42 82 43
REMARK SMILES IDX 76 44 75 45 31 47 63 48 43 49 62 50 44 51 47 52 61 53 80 54
REMARK SMILES IDX 45 55 46 56 60 58 81 59 48 60 32 61 33 62 41 63 34 64 40 65
REMARK SMILES IDX 42 66 39 67 35 68 36 69 37 70 38 71 64 72 65 73 73 74 66 75
REMARK SMILES IDX 72 76 74 77 71 78 67 79 68 80 69 81 70 82 49 83 50 84 58 85
REMARK SMILES IDX 51 86 57 87 59 88 56 89 52 90 53 91 54 92 55 93
REMARK H PARENT 79 46 47 57
REMARK Flexibility Score: inf
ROOT
ATOM      1  C   UNL A   1      34.986  20.430  25.052  1.00  0.00     0.275 C 
ENDROOT
BRANCH   1   2
ATOM      2  O   UNL A   1      34.082  21.244  24.276  1.00  0.00    -0.459 OA
BRANCH   2   3
ATOM      3  C   UNL A   1      32.954  21.649  24.896  1.00  0.00     0.338 C 
ATOM      4  O   UNL A   1      32.312  20.996  25.703  1.00  0.00    -0.246 OA
BRANCH   3   5
ATOM      5  C   UNL A   1      32.610  23.041  24.534  1.00  0.00     0.087 C 
ATOM      6  C   UNL A   1      31.500  27.953  24.893  1.00  0.00     0.030 A 
ATOM      7  C   UNL A   1      31.487  27.017  23.844  1.00  0.00     0.063 A 
ATOM      8  C   UNL A   1      31.877  27.523  26.175  1.00  0.00     0.055 A 
ATOM      9  C   UNL A   1      31.855  25.686  24.065  1.00  0.00     0.129 A 
ATOM     10  C   UNL A   1      32.270  26.199  26.386  1.00  0.00     0.033 A 
ATOM     11  Cl  UNL A   1      31.872  28.568  27.553  1.00  0.00    -0.083 Cl
ATOM     12  C   UNL A   1      32.248  25.281  25.334  1.00  0.00     0.019 A 
ATOM     13  O   UNL A   1      31.792  24.846  22.993  1.00  0.00    -0.475 OA
ATOM     14  C   UNL A   1      32.613  23.898  25.565  1.00  0.00     0.027 C 
ATOM     15  C   UNL A   1      32.139  23.432  23.153  1.00  0.00     0.316 C 
BRANCH   6  16
ATOM     16  S   UNL A   1      30.954  29.620  24.541  1.00  0.00    -0.124 SA
BRANCH  16  17
ATOM     17  C   UNL A   1      29.934  29.358  23.037  1.00  0.00     0.078 C 
BRANCH  17  18
ATOM     18  C   UNL A   1      29.139  30.596  22.579  1.00  0.00    -0.007 C 
ATOM     19  C   UNL A   1      28.051  30.229  21.568  1.00  0.00     0.008 C 
ATOM     20  C   UNL A   1      28.477  31.280  23.783  1.00  0.00     0.008 C 
ENDBRANCH  17  18
ENDBRANCH  16  17
ENDBRANCH   6  16
BRANCH  15  21
ATOM     21  C   UNL A   1      33.039  23.039  21.966  1.00  0.00     0.430 C 
ATOM     22  F   UNL A   1      34.347  23.003  22.287  1.00  0.00    -0.167 F 
ATOM     23  F   UNL A   1      32.691  21.832  21.454  1.00  0.00    -0.167 F 
ATOM     24  F   UNL A   1      32.900  23.917  20.939  1.00  0.00    -0.167 F 
ENDBRANCH  15  21
ENDBRANCH   3   5
ENDBRANCH   2   3
ENDBRANCH   1   2
BRANCH   1  25
ATOM     25  C   UNL A   1      35.890  21.303  25.920  1.00  0.00     0.275 C 
BRANCH  25  26
ATOM     26  O   UNL A   1      37.036  21.733  25.162  1.00  0.00    -0.458 OA
BRANCH  26  27
ATOM     27  C   UNL A   1      38.233  21.327  25.638  1.00  0.00     0.338 C 
ATOM     28  O   UNL A   1      38.732  20.213  25.548  1.00  0.00    -0.246 OA
BRANCH  27  29
ATOM     29  C   UNL A   1      38.926  22.473  26.238  1.00  0.00     0.060 A 
ATOM     30  C   UNL A   1      40.103  22.308  26.960  1.00  0.00     0.016 A 
ATOM     31  C   UNL A   1      38.436  23.751  25.974  1.00  0.00     0.016 A 
ATOM     32  C   UNL A   1      40.774  23.440  27.438  1.00  0.00     0.010 A 
ATOM     33  C   UNL A   1      39.141  24.877  26.387  1.00  0.00     0.010 A 
ATOM     34  C   UNL A   1      40.315  24.740  27.140  1.00  0.00    -0.014 A 
BRANCH  34  35
ATOM     35  C   UNL A   1      41.082  25.946  27.567  1.00  0.00     0.031 A 
ATOM     36  C   UNL A   1      42.515  26.155  27.143  1.00  0.00     0.074 A 
ATOM     37  C   UNL A   1      40.495  26.845  28.384  1.00  0.00     0.049 A 
ATOM     38  N   UNL A   1      43.307  27.167  27.389  1.00  0.00    -0.248 NA
ATOM     39  C   UNL A   1      43.155  25.076  26.372  1.00  0.00     0.031 C 
ATOM     40  C   UNL A   1      39.154  26.708  28.953  1.00  0.00     0.029 A 
ATOM     41  N   UNL A   1      40.938  28.052  28.871  1.00  0.00    -0.354 N 
ATOM     42  C   UNL A   1      44.534  26.844  26.819  1.00  0.00     0.074 A 
ATOM     43  C   UNL A   1      44.403  25.513  26.272  1.00  0.00     0.031 C 
ATOM     44  C   UNL A   1      38.856  27.814  29.652  1.00  0.00     0.029 A 
ATOM     45  C   UNL A   1      39.996  28.727  29.617  1.00  0.00     0.049 A 
ATOM     46  H   UNL A   1      41.843  28.402  28.703  1.00  0.00     0.167 HD
ATOM     47  C   UNL A   1      45.654  27.601  26.726  1.00  0.00     0.034 A 
ATOM     48  C   UNL A   1      40.032  29.949  30.188  1.00  0.00     0.034 A 
ATOM     49  C   UNL A   1      45.754  28.948  27.229  1.00  0.00     0.049 A 
ATOM     50  C   UNL A   1      41.262  30.803  30.010  1.00  0.00     0.074 A 
ATOM     51  C   UNL A   1      46.813  29.830  27.103  1.00  0.00     0.029 A 
ATOM     52  N   UNL A   1      44.764  29.613  27.937  1.00  0.00    -0.354 N 
ATOM     53  N   UNL A   1      42.368  30.528  29.358  1.00  0.00    -0.248 NA
ATOM     54  C   UNL A   1      41.251  32.137  30.628  1.00  0.00     0.031 C 
ATOM     55  C   UNL A   1      46.484  31.008  27.773  1.00  0.00     0.029 A 
ATOM     56  C   UNL A   1      45.194  30.888  28.265  1.00  0.00     0.049 A 
ATOM     57  H   UNL A   1      43.886  29.235  28.171  1.00  0.00     0.167 HD
ATOM     58  C   UNL A   1      43.170  31.661  29.468  1.00  0.00     0.074 A 
ATOM     59  C   UNL A   1      42.412  32.636  30.223  1.00  0.00     0.031 C 
ATOM     60  C   UNL A   1      44.424  31.868  28.992  1.00  0.00     0.034 A 
BRANCH  47  61
ATOM     61  C   UNL A   1      46.856  27.042  26.000  1.00  0.00     0.023 A 
ATOM     62  C   UNL A   1      47.909  26.444  26.721  1.00  0.00     0.031 A 
ATOM     63  C   UNL A   1      47.026  27.235  24.618  1.00  0.00     0.131 A 
ATOM     64  C   UNL A   1      49.093  26.092  26.059  1.00  0.00     0.055 A 
ATOM     65  C   UNL A   1      48.189  26.842  23.956  1.00  0.00     0.041 A 
ATOM     66  F   UNL A   1      46.057  27.811  23.885  1.00  0.00    -0.206 F 
ATOM     67  C   UNL A   1      49.235  26.279  24.680  1.00  0.00     0.022 A 
BRANCH  64  68
ATOM     68  S   UNL A   1      50.522  25.439  26.966  1.00  0.00     0.124 S 
ATOM     69  O   UNL A   1      50.907  26.586  27.786  1.00  0.00    -0.237 OA
ATOM     70  O   UNL A   1      49.933  24.321  27.698  1.00  0.00    -0.237 OA
ATOM     71  O   UNL A   1      51.470  25.080  25.918  1.00  0.00    -0.744 OA
ENDBRANCH  64  68
ENDBRANCH  47  61
BRANCH  48  72
ATOM     72  C   UNL A   1      38.814  30.466  30.883  1.00  0.00     0.023 A 
ATOM     73  C   UNL A   1      37.786  31.115  30.174  1.00  0.00     0.031 A 
ATOM     74  C   UNL A   1      38.716  30.411  32.284  1.00  0.00     0.131 A 
ATOM     75  C   UNL A   1      36.740  31.733  30.875  1.00  0.00     0.055 A 
ATOM     76  C   UNL A   1      37.638  30.968  32.973  1.00  0.00     0.041 A 
ATOM     77  F   UNL A   1      39.681  29.818  33.005  1.00  0.00    -0.206 F 
ATOM     78  C   UNL A   1      36.651  31.648  32.268  1.00  0.00     0.022 A 
BRANCH  75  79
ATOM     79  S   UNL A   1      35.539  32.786  30.014  1.00  0.00     0.124 S 
ATOM     80  O   UNL A   1      34.373  32.690  30.886  1.00  0.00    -0.237 OA
ATOM     81  O   UNL A   1      36.220  34.079  30.013  1.00  0.00    -0.237 OA
ATOM     82  O   UNL A   1      35.405  32.156  28.705  1.00  0.00    -0.744 OA
ENDBRANCH  75  79
ENDBRANCH  48  72
BRANCH  60  83
ATOM     83  C   UNL A   1      45.091  33.198  29.251  1.00  0.00     0.023 A 
ATOM     84  C   UNL A   1      45.005  34.225  28.291  1.00  0.00     0.031 A 
ATOM     85  C   UNL A   1      45.946  33.383  30.349  1.00  0.00     0.131 A 
ATOM     86  C   UNL A   1      45.796  35.373  28.425  1.00  0.00     0.055 A 
ATOM     87  C   UNL A   1      46.697  34.549  30.504  1.00  0.00     0.041 A 
ATOM     88  F   UNL A   1      46.072  32.428  31.284  1.00  0.00    -0.206 F 
ATOM     89  C   UNL A   1      46.636  35.544  29.530  1.00  0.00     0.022 A 
BRANCH  86  90
ATOM     90  S   UNL A   1      45.837  36.641  27.128  1.00  0.00     0.124 S 
ATOM     91  O   UNL A   1      44.415  36.843  26.858  1.00  0.00    -0.237 OA
ATOM     92  O   UNL A   1      46.506  37.749  27.804  1.00  0.00    -0.237 OA
ATOM     93  O   UNL A   1      46.592  36.016  26.047  1.00  0.00    -0.744 OA
ENDBRANCH  86  90
ENDBRANCH  60  83
ENDBRANCH  34  35
ENDBRANCH  27  29
ENDBRANCH  26  27
ENDBRANCH  25  26
ENDBRANCH   1  25
TORSDOF 18
ENDMDL
MODEL 3
REMARK VINA RESULT:     -11.4      4.766      9.925
REMARK SMILES CC(C)CSc1cc2c(cc1Cl)C=C(C(=O)OCCOC(=O)c1ccc(-c3c4nc(c(-c5cc(S(=O)(=O)[O-])ccc5F)c5ccc([nH]5)c(-c5cc(S(=O)(=O)[O-])ccc5F)c5nc(c(-c6cc(S(=O)(=O)[O-])ccc6F)c6ccc3[nH]6)C=C5)C=C4)cc1)[C@H](C(F)(F)F)O2
REMARK SMILES IDX 18 1 17 2 15 3 16 4 14 5 6 6 7 7 11 8 8 9 10 10 12 11 9 12
REMARK SMILES IDX 91 13 13 14 86 15 5 16 4 17 2 18 1 19 3 20 87 21 88 22 89 23
REMARK SMILES IDX 90 24 19 25 20 26 21 27 22 28 23 29 24 30 85 31 25 32 84 33
REMARK SMILES IDX 26 34 27 35 28 36 78 37 29 38 83 39 77 40 79 41 30 42 82 43
REMARK SMILES IDX 76 44 75 45 31 47 63 48 43 49 62 50 44 51 47 52 61 53 80 54
REMARK SMILES IDX 45 55 46 56 60 58 81 59 48 60 32 61 33 62 41 63 34 64 40 65
REMARK SMILES IDX 42 66 39 67 35 68 36 69 37 70 38 71 64 72 65 73 73 74 66 75
REMARK SMILES IDX 72 76 74 77 71 78 67 79 68 80 69 81 70 82 49 83 50 84 58 85
REMARK SMILES IDX 51 86 57 87 59 88 56 89 52 90 53 91 54 92 55 93
REMARK H PARENT 79 46 47 57
REMARK Flexibility Score: inf
ROOT
ATOM      1  C   UNL A   1      31.988  28.324  26.159  1.00  0.00     0.275 C 
ENDROOT
BRANCH   1   2
ATOM      2  O   UNL A   1      33.200  27.780  25.594  1.00  0.00    -0.459 OA
BRANCH   2   3
ATOM      3  C   UNL A   1      33.157  27.445  24.288  1.00  0.00     0.338 C 
ATOM      4  O   UNL A   1      33.437  28.180  23.355  1.00  0.00    -0.246 OA
BRANCH   3   5
ATOM      5  C   UNL A   1      32.792  26.023  24.109  1.00  0.00     0.087 C 
ATOM      6  C   UNL A   1      33.072  20.985  23.949  1.00  0.00     0.030 A 
ATOM      7  C   UNL A   1      32.114  21.929  23.539  1.00  0.00     0.063 A 
ATOM      8  C   UNL A   1      34.264  21.443  24.531  1.00  0.00     0.055 A 
ATOM      9  C   UNL A   1      32.333  23.298  23.720  1.00  0.00     0.129 A 
ATOM     10  C   UNL A   1      34.468  22.810  24.734  1.00  0.00     0.033 A 
ATOM     11  Cl  UNL A   1      35.540  20.381  25.017  1.00  0.00    -0.083 Cl
ATOM     12  C   UNL A   1      33.507  23.736  24.319  1.00  0.00     0.019 A 
ATOM     13  O   UNL A   1      31.357  24.140  23.274  1.00  0.00    -0.475 OA
ATOM     14  C   UNL A   1      33.740  25.155  24.491  1.00  0.00     0.027 C 
ATOM     15  C   UNL A   1      31.526  25.588  23.407  1.00  0.00     0.316 C 
BRANCH   6  16
ATOM     16  S   UNL A   1      32.744  19.256  23.624  1.00  0.00    -0.124 SA
BRANCH  16  17
ATOM     17  C   UNL A   1      32.858  18.542  25.312  1.00  0.00     0.078 C 
BRANCH  17  18
ATOM     18  C   UNL A   1      33.543  17.164  25.378  1.00  0.00    -0.007 C 
ATOM     19  C   UNL A   1      32.523  16.028  25.478  1.00  0.00     0.008 C 
ATOM     20  C   UNL A   1      34.406  16.937  24.130  1.00  0.00     0.008 C 
ENDBRANCH  17  18
ENDBRANCH  16  17
ENDBRANCH   6  16
BRANCH  15  21
ATOM     21  C   UNL A   1      30.198  26.164  23.932  1.00  0.00     0.430 C 
ATOM     22  F   UNL A   1      29.122  25.462  23.523  1.00  0.00    -0.167 F 
ATOM     23  F   UNL A   1      30.180  26.224  25.286  1.00  0.00    -0.167 F 
ATOM     24  F   UNL A   1      30.024  27.446  23.514  1.00  0.00    -0.167 F 
ENDBRANCH  15  21
ENDBRANCH   3   5
ENDBRANCH   2   3
ENDBRANCH   1   2
BRANCH   1  25
ATOM     25  C   UNL A   1      31.765  29.757  25.680  1.00  0.00     0.275 C 
BRANCH  25  26
ATOM     26  O   UNL A   1      32.985  30.511  25.796  1.00  0.00    -0.458 OA
BRANCH  26  27
ATOM     27  C   UNL A   1      33.028  31.394  26.818  1.00  0.00     0.338 C 
ATOM     28  O   UNL A   1      32.232  32.290  27.062  1.00  0.00    -0.246 OA
BRANCH  27  29
ATOM     29  C   UNL A   1      34.169  31.073  27.683  1.00  0.00     0.060 A 
ATOM     30  C   UNL A   1      34.387  29.777  28.139  1.00  0.00     0.016 A 
ATOM     31  C   UNL A   1      35.096  32.078  27.951  1.00  0.00     0.016 A 
ATOM     32  C   UNL A   1      35.536  29.502  28.889  1.00  0.00     0.010 A 
ATOM     33  C   UNL A   1      36.274  31.789  28.635  1.00  0.00     0.010 A 
ATOM     34  C   UNL A   1      36.505  30.499  29.129  1.00  0.00    -0.014 A 
BRANCH  34  35
ATOM     35  C   UNL A   1      37.775  30.182  29.846  1.00  0.00     0.031 A 
ATOM     36  C   UNL A   1      38.060  30.735  31.220  1.00  0.00     0.074 A 
ATOM     37  C   UNL A   1      38.705  29.421  29.232  1.00  0.00     0.049 A 
ATOM     38  N   UNL A   1      39.091  30.521  31.997  1.00  0.00    -0.248 NA
ATOM     39  C   UNL A   1      37.078  31.676  31.786  1.00  0.00     0.031 C 
ATOM     40  C   UNL A   1      38.601  28.913  27.864  1.00  0.00     0.029 A 
ATOM     41  N   UNL A   1      39.912  28.932  29.674  1.00  0.00    -0.354 N 
ATOM     42  C   UNL A   1      38.892  31.305  33.128  1.00  0.00     0.074 A 
ATOM     43  C   UNL A   1      37.674  32.052  32.910  1.00  0.00     0.031 C 
ATOM     44  C   UNL A   1      39.658  28.131  27.602  1.00  0.00     0.029 A 
ATOM     45  C   UNL A   1      40.540  28.107  28.767  1.00  0.00     0.049 A 
ATOM     46  H   UNL A   1      40.291  29.149  30.557  1.00  0.00     0.167 HD
ATOM     47  C   UNL A   1      39.633  31.368  34.261  1.00  0.00     0.034 A 
ATOM     48  C   UNL A   1      41.681  27.394  28.865  1.00  0.00     0.034 A 
ATOM     49  C   UNL A   1      40.817  30.578  34.488  1.00  0.00     0.049 A 
ATOM     50  C   UNL A   1      42.452  27.423  30.161  1.00  0.00     0.074 A 
ATOM     51  C   UNL A   1      41.586  30.503  35.636  1.00  0.00     0.029 A 
ATOM     52  N   UNL A   1      41.396  29.721  33.564  1.00  0.00    -0.354 N 
ATOM     53  N   UNL A   1      42.179  28.074  31.267  1.00  0.00    -0.248 NA
ATOM     54  C   UNL A   1      43.678  26.613  30.233  1.00  0.00     0.031 C 
ATOM     55  C   UNL A   1      42.653  29.638  35.392  1.00  0.00     0.029 A 
ATOM     56  C   UNL A   1      42.519  29.124  34.112  1.00  0.00     0.049 A 
ATOM     57  H   UNL A   1      41.058  29.561  32.652  1.00  0.00     0.167 HD
ATOM     58  C   UNL A   1      43.182  27.733  32.172  1.00  0.00     0.074 A 
ATOM     59  C   UNL A   1      44.051  26.796  31.494  1.00  0.00     0.031 C 
ATOM     60  C   UNL A   1      43.366  28.167  33.444  1.00  0.00     0.034 A 
BRANCH  47  61
ATOM     61  C   UNL A   1      39.174  32.266  35.387  1.00  0.00     0.023 A 
ATOM     62  C   UNL A   1      39.678  33.575  35.506  1.00  0.00     0.031 A 
ATOM     63  C   UNL A   1      38.355  31.775  36.419  1.00  0.00     0.131 A 
ATOM     64  C   UNL A   1      39.385  34.333  36.648  1.00  0.00     0.055 A 
ATOM     65  C   UNL A   1      38.029  32.550  37.533  1.00  0.00     0.041 A 
ATOM     66  F   UNL A   1      37.856  30.529  36.360  1.00  0.00    -0.206 F 
ATOM     67  C   UNL A   1      38.556  33.831  37.656  1.00  0.00     0.022 A 
BRANCH  64  68
ATOM     68  S   UNL A   1      40.117  35.973  36.905  1.00  0.00     0.124 S 
ATOM     69  O   UNL A   1      39.278  36.513  37.973  1.00  0.00    -0.237 OA
ATOM     70  O   UNL A   1      41.484  35.638  37.296  1.00  0.00    -0.237 OA
ATOM     71  O   UNL A   1      39.973  36.629  35.611  1.00  0.00    -0.744 OA
ENDBRANCH  64  68
ENDBRANCH  47  61
BRANCH  48  72
ATOM     72  C   UNL A   1      42.089  26.509  27.731  1.00  0.00     0.023 A 
ATOM     73  C   UNL A   1      41.693  25.160  27.676  1.00  0.00     0.031 A 
ATOM     74  C   UNL A   1      42.972  26.978  26.744  1.00  0.00     0.131 A 
ATOM     75  C   UNL A   1      42.227  24.318  26.690  1.00  0.00     0.055 A 
ATOM     76  C   UNL A   1      43.448  26.153  25.724  1.00  0.00     0.041 A 
ATOM     77  F   UNL A   1      43.393  28.253  26.765  1.00  0.00    -0.206 F 
ATOM     78  C   UNL A   1      43.088  24.810  25.704  1.00  0.00     0.022 A 
BRANCH  75  79
ATOM     79  S   UNL A   1      41.934  22.527  26.739  1.00  0.00     0.124 S 
ATOM     80  O   UNL A   1      42.320  22.120  25.391  1.00  0.00    -0.237 OA
ATOM     81  O   UNL A   1      42.836  22.105  27.807  1.00  0.00    -0.237 OA
ATOM     82  O   UNL A   1      40.513  22.419  27.051  1.00  0.00    -0.744 OA
ENDBRANCH  75  79
ENDBRANCH  48  72
BRANCH  60  83
ATOM     83  C   UNL A   1      44.548  27.646  34.226  1.00  0.00     0.023 A 
ATOM     84  C   UNL A   1      44.395  26.527  35.068  1.00  0.00     0.031 A 
ATOM     85  C   UNL A   1      45.760  28.353  34.274  1.00  0.00     0.131 A 
ATOM     86  C   UNL A   1      45.420  26.176  35.955  1.00  0.00     0.055 A 
ATOM     87  C   UNL A   1      46.798  27.972  35.125  1.00  0.00     0.041 A 
ATOM     88  F   UNL A   1      45.950  29.434  33.500  1.00  0.00    -0.206 F 
ATOM     89  C   UNL A   1      46.624  26.888  35.983  1.00  0.00     0.022 A 
BRANCH  86  90
ATOM     90  S   UNL A   1      45.197  24.846  37.169  1.00  0.00     0.124 S 
ATOM     91  O   UNL A   1      44.779  23.732  36.323  1.00  0.00    -0.237 OA
ATOM     92  O   UNL A   1      46.535  24.726  37.742  1.00  0.00    -0.237 OA
ATOM     93  O   UNL A   1      44.171  25.361  38.071  1.00  0.00    -0.744 OA
ENDBRANCH  86  90
ENDBRANCH  60  83
ENDBRANCH  34  35
ENDBRANCH  27  29
ENDBRANCH  26  27
ENDBRANCH  25  26
ENDBRANCH   1  25
TORSDOF 18
ENDMDL
