MODEL 1
REMARK VINA RESULT:     -12.9      0.000      0.000
REMARK SMILES Cc1ccc(Cn2c(C)c(C[NH2+]C[C@@H]3CCCO3)c(C(=O)OCCOC(=O)c3ccc(-c4c5nc(c(-c6cc(S(=O)(=O)[O-])ccc6F)c6ccc([nH]6)c(-c6cc(S(=O)(=O)[O-])ccc6F)c6nc(c(-c7cc(S(=O)(=O)[O-])ccc7F)c7ccc4[nH]7)C=C6)C=C5)cc3)c2C)cc1
REMARK SMILES IDX 23 1 22 2 20 3 21 4 19 5 7 6 8 7 91 8 9 9 10 10 92 11 6 12
REMARK SMILES IDX 5 13 1 14 2 15 3 16 94 17 4 18 93 19 11 20 12 21 13 24 14 25
REMARK SMILES IDX 15 26 18 27 16 28 17 29 24 30 25 31 26 32 27 33 28 34 29 35
REMARK SMILES IDX 90 36 30 37 89 38 31 39 32 40 33 41 83 42 34 43 88 44 82 45
REMARK SMILES IDX 84 46 35 47 87 48 81 49 80 50 36 52 68 53 48 54 67 55 49 56
REMARK SMILES IDX 52 57 66 58 85 59 50 60 51 61 65 63 86 64 53 65 37 66 38 67
REMARK SMILES IDX 46 68 39 69 45 70 47 71 44 72 40 73 41 74 42 75 43 76 69 77
REMARK SMILES IDX 70 78 78 79 71 80 77 81 79 82 76 83 72 84 73 85 74 86 75 87
REMARK SMILES IDX 54 88 55 89 63 90 56 91 62 92 64 93 61 94 57 95 58 96 59 97
REMARK SMILES IDX 60 98
REMARK H PARENT 12 22 12 23 84 51 52 62
REMARK Flexibility Score: inf
ROOT
ATOM      1  C   UNL A   1      31.980  28.414  27.349  1.00  0.00     0.275 C 
ENDROOT
BRANCH   1   2
ATOM      2  O   UNL A   1      31.108  27.979  26.274  1.00  0.00    -0.458 OA
BRANCH   2   3
ATOM      3  C   UNL A   1      31.339  26.701  25.820  1.00  0.00     0.340 C 
ATOM      4  O   UNL A   1      31.309  25.732  26.563  1.00  0.00    -0.246 OA
BRANCH   3   5
ATOM      5  C   UNL A   1      32.045  26.587  24.544  1.00  0.00     0.089 A 
ATOM      6  N   UNL A   1      33.383  25.242  23.390  1.00  0.00    -0.343 N 
ATOM      7  C   UNL A   1      32.594  25.906  22.459  1.00  0.00     0.025 A 
ATOM      8  C   UNL A   1      33.254  25.904  24.591  1.00  0.00     0.030 A 
ATOM      9  C   UNL A   1      32.634  25.674  20.983  1.00  0.00     0.065 C 
ATOM     10  C   UNL A   1      31.699  26.749  23.145  1.00  0.00     0.042 A 
ATOM     11  C   UNL A   1      34.084  25.705  25.813  1.00  0.00     0.065 C 
BRANCH   6  12
ATOM     12  C   UNL A   1      34.286  24.104  23.150  1.00  0.00     0.157 C 
BRANCH  12  13
ATOM     13  C   UNL A   1      33.792  22.728  23.590  1.00  0.00    -0.028 A 
ATOM     14  C   UNL A   1      32.571  18.674  24.613  1.00  0.00     0.044 C 
ATOM     15  C   UNL A   1      32.990  20.063  24.229  1.00  0.00    -0.051 A 
ATOM     16  C   UNL A   1      34.051  20.665  24.896  1.00  0.00     0.004 A 
ATOM     17  C   UNL A   1      32.316  20.801  23.253  1.00  0.00     0.004 A 
ATOM     18  C   UNL A   1      34.454  21.961  24.559  1.00  0.00     0.006 A 
ATOM     19  C   UNL A   1      32.709  22.117  22.940  1.00  0.00     0.006 A 
ENDBRANCH  12  13
ENDBRANCH   6  12
BRANCH  10  20
ATOM     20  C   UNL A   1      30.564  27.506  22.441  1.00  0.00     0.300 C 
BRANCH  20  21
ATOM     21  N   UNL A   1      30.819  28.957  22.426  1.00  0.00    -0.340 N 
ATOM     22  H   UNL A   1      30.534  29.323  21.517  1.00  0.00     0.346 HD
ATOM     23  H   UNL A   1      31.816  29.082  22.605  1.00  0.00     0.346 HD
BRANCH  21  24
ATOM     24  C   UNL A   1      30.092  29.712  23.486  1.00  0.00     0.293 C 
BRANCH  24  25
ATOM     25  C   UNL A   1      28.953  30.633  22.977  1.00  0.00     0.173 C 
ATOM     26  C   UNL A   1      28.849  30.951  21.490  1.00  0.00     0.040 C 
ATOM     27  O   UNL A   1      29.048  31.901  23.629  1.00  0.00    -0.372 OA
ATOM     28  C   UNL A   1      28.174  32.310  21.493  1.00  0.00     0.031 C 
ATOM     29  C   UNL A   1      28.800  32.956  22.696  1.00  0.00     0.161 C 
ENDBRANCH  24  25
ENDBRANCH  21  24
ENDBRANCH  20  21
ENDBRANCH  10  20
ENDBRANCH   3   5
ENDBRANCH   2   3
ENDBRANCH   1   2
BRANCH   1  30
ATOM     30  C   UNL A   1      33.111  29.357  26.875  1.00  0.00     0.275 C 
BRANCH  30  31
ATOM     31  O   UNL A   1      34.386  29.257  27.532  1.00  0.00    -0.458 OA
BRANCH  31  32
ATOM     32  C   UNL A   1      34.950  30.446  27.842  1.00  0.00     0.338 C 
ATOM     33  O   UNL A   1      34.285  31.468  27.993  1.00  0.00    -0.246 OA
BRANCH  32  34
ATOM     34  C   UNL A   1      36.306  30.182  28.390  1.00  0.00     0.060 A 
ATOM     35  C   UNL A   1      36.425  29.465  29.587  1.00  0.00     0.016 A 
ATOM     36  C   UNL A   1      37.385  30.273  27.515  1.00  0.00     0.016 A 
ATOM     37  C   UNL A   1      37.558  28.710  29.860  1.00  0.00     0.010 A 
ATOM     38  C   UNL A   1      38.442  29.427  27.702  1.00  0.00     0.010 A 
ATOM     39  C   UNL A   1      38.531  28.661  28.877  1.00  0.00    -0.014 A 
BRANCH  39  40
ATOM     40  C   UNL A   1      39.844  28.097  29.079  1.00  0.00     0.031 A 
ATOM     41  C   UNL A   1      40.183  26.721  28.682  1.00  0.00     0.074 A 
ATOM     42  C   UNL A   1      40.690  29.109  29.366  1.00  0.00     0.049 A 
ATOM     43  N   UNL A   1      41.263  26.130  29.054  1.00  0.00    -0.248 NA
ATOM     44  C   UNL A   1      39.332  25.834  27.884  1.00  0.00     0.031 C 
ATOM     45  C   UNL A   1      42.102  29.299  29.125  1.00  0.00     0.029 A 
ATOM     46  N   UNL A   1      40.332  30.277  30.030  1.00  0.00    -0.354 N 
ATOM     47  C   UNL A   1      41.430  25.042  28.219  1.00  0.00     0.074 A 
ATOM     48  C   UNL A   1      40.127  24.775  27.677  1.00  0.00     0.031 C 
ATOM     49  C   UNL A   1      42.527  30.347  29.864  1.00  0.00     0.029 A 
ATOM     50  C   UNL A   1      41.425  30.775  30.720  1.00  0.00     0.049 A 
ATOM     51  H   UNL A   1      39.438  30.687  30.013  1.00  0.00     0.167 HD
ATOM     52  C   UNL A   1      42.698  24.661  27.900  1.00  0.00     0.034 A 
ATOM     53  C   UNL A   1      41.370  30.666  32.088  1.00  0.00     0.034 A 
ATOM     54  C   UNL A   1      43.647  25.547  28.568  1.00  0.00     0.049 A 
ATOM     55  C   UNL A   1      42.225  29.508  32.572  1.00  0.00     0.074 A 
ATOM     56  C   UNL A   1      44.333  26.684  28.178  1.00  0.00     0.029 A 
ATOM     57  N   UNL A   1      43.680  25.530  29.941  1.00  0.00    -0.354 N 
ATOM     58  N   UNL A   1      42.730  28.597  31.784  1.00  0.00    -0.248 NA
ATOM     59  C   UNL A   1      42.576  29.281  33.969  1.00  0.00     0.031 C 
ATOM     60  C   UNL A   1      44.728  27.377  29.365  1.00  0.00     0.029 A 
ATOM     61  C   UNL A   1      44.276  26.656  30.457  1.00  0.00     0.049 A 
ATOM     62  H   UNL A   1      43.318  24.798  30.491  1.00  0.00     0.167 HD
ATOM     63  C   UNL A   1      43.525  27.749  32.492  1.00  0.00     0.074 A 
ATOM     64  C   UNL A   1      43.336  28.175  33.873  1.00  0.00     0.031 C 
ATOM     65  C   UNL A   1      44.299  26.791  31.900  1.00  0.00     0.034 A 
BRANCH  52  66
ATOM     66  C   UNL A   1      43.130  23.716  26.809  1.00  0.00     0.023 A 
ATOM     67  C   UNL A   1      42.734  22.367  26.928  1.00  0.00     0.031 A 
ATOM     68  C   UNL A   1      43.873  24.031  25.659  1.00  0.00     0.131 A 
ATOM     69  C   UNL A   1      43.101  21.394  25.988  1.00  0.00     0.055 A 
ATOM     70  C   UNL A   1      44.258  23.055  24.721  1.00  0.00     0.041 A 
ATOM     71  F   UNL A   1      44.226  25.290  25.366  1.00  0.00    -0.206 F 
ATOM     72  C   UNL A   1      43.876  21.727  24.884  1.00  0.00     0.022 A 
BRANCH  69  73
ATOM     73  S   UNL A   1      42.532  19.694  26.250  1.00  0.00     0.124 S 
ATOM     74  O   UNL A   1      43.688  18.913  25.819  1.00  0.00    -0.237 OA
ATOM     75  O   UNL A   1      42.241  19.680  27.679  1.00  0.00    -0.237 OA
ATOM     76  O   UNL A   1      41.361  19.592  25.380  1.00  0.00    -0.744 OA
ENDBRANCH  69  73
ENDBRANCH  52  66
BRANCH  53  77
ATOM     77  C   UNL A   1      39.999  31.036  32.607  1.00  0.00     0.023 A 
ATOM     78  C   UNL A   1      39.539  32.337  32.262  1.00  0.00     0.031 A 
ATOM     79  C   UNL A   1      39.037  30.057  32.906  1.00  0.00     0.131 A 
ATOM     80  C   UNL A   1      38.194  32.535  31.937  1.00  0.00     0.055 A 
ATOM     81  C   UNL A   1      37.678  30.295  32.676  1.00  0.00     0.041 A 
ATOM     82  F   UNL A   1      39.398  28.820  33.275  1.00  0.00    -0.206 F 
ATOM     83  C   UNL A   1      37.277  31.507  32.112  1.00  0.00     0.022 A 
BRANCH  80  84
ATOM     84  S   UNL A   1      37.678  33.992  30.969  1.00  0.00     0.124 S 
ATOM     85  O   UNL A   1      37.329  33.393  29.684  1.00  0.00    -0.237 OA
ATOM     86  O   UNL A   1      36.566  34.532  31.743  1.00  0.00    -0.237 OA
ATOM     87  O   UNL A   1      38.874  34.830  30.961  1.00  0.00    -0.744 OA
ENDBRANCH  80  84
ENDBRANCH  53  77
BRANCH  65  88
ATOM     88  C   UNL A   1      45.184  25.874  32.682  1.00  0.00     0.023 A 
ATOM     89  C   UNL A   1      44.631  24.981  33.597  1.00  0.00     0.031 A 
ATOM     90  C   UNL A   1      46.595  25.895  32.585  1.00  0.00     0.131 A 
ATOM     91  C   UNL A   1      45.444  24.054  34.251  1.00  0.00     0.055 A 
ATOM     92  C   UNL A   1      47.412  25.068  33.351  1.00  0.00     0.041 A 
ATOM     93  F   UNL A   1      47.247  26.668  31.705  1.00  0.00    -0.206 F 
ATOM     94  C   UNL A   1      46.833  24.112  34.168  1.00  0.00     0.022 A 
BRANCH  91  95
ATOM     95  S   UNL A   1      44.623  22.674  35.070  1.00  0.00     0.124 S 
ATOM     96  O   UNL A   1      45.198  21.514  34.399  1.00  0.00    -0.237 OA
ATOM     97  O   UNL A   1      45.039  22.873  36.457  1.00  0.00    -0.237 OA
ATOM     98  O   UNL A   1      43.206  22.914  34.806  1.00  0.00    -0.744 OA
ENDBRANCH  91  95
ENDBRANCH  65  88
ENDBRANCH  39  40
ENDBRANCH  32  34
ENDBRANCH  31  32
ENDBRANCH  30  31
ENDBRANCH   1  30
TORSDOF 20
ENDMDL
MODEL 2
REMARK VINA RESULT:     -12.8      1.616      2.184
REMARK SMILES Cc1ccc(Cn2c(C)c(C[NH2+]C[C@@H]3CCCO3)c(C(=O)OCCOC(=O)c3ccc(-c4c5nc(c(-c6cc(S(=O)(=O)[O-])ccc6F)c6ccc([nH]6)c(-c6cc(S(=O)(=O)[O-])ccc6F)c6nc(c(-c7cc(S(=O)(=O)[O-])ccc7F)c7ccc4[nH]7)C=C6)C=C5)cc3)c2C)cc1
REMARK SMILES IDX 23 1 22 2 20 3 21 4 19 5 7 6 8 7 91 8 9 9 10 10 92 11 6 12
REMARK SMILES IDX 5 13 1 14 2 15 3 16 94 17 4 18 93 19 11 20 12 21 13 24 14 25
REMARK SMILES IDX 15 26 18 27 16 28 17 29 24 30 25 31 26 32 27 33 28 34 29 35
REMARK SMILES IDX 90 36 30 37 89 38 31 39 32 40 33 41 83 42 34 43 88 44 82 45
REMARK SMILES IDX 84 46 35 47 87 48 81 49 80 50 36 52 68 53 48 54 67 55 49 56
REMARK SMILES IDX 52 57 66 58 85 59 50 60 51 61 65 63 86 64 53 65 37 66 38 67
REMARK SMILES IDX 46 68 39 69 45 70 47 71 44 72 40 73 41 74 42 75 43 76 69 77
REMARK SMILES IDX 70 78 78 79 71 80 77 81 79 82 76 83 72 84 73 85 74 86 75 87
REMARK SMILES IDX 54 88 55 89 63 90 56 91 62 92 64 93 61 94 57 95 58 96 59 97
REMARK SMILES IDX 60 98
REMARK H PARENT 12 22 12 23 84 51 52 62
REMARK Flexibility Score: inf
ROOT
ATOM      1  C   UNL A   1      32.732  29.659  27.245  1.00  0.00     0.275 C 
ENDROOT
BRANCH   1   2
ATOM      2  O   UNL A   1      32.763  28.215  27.380  1.00  0.00    -0.458 OA
BRANCH   2   3
ATOM      3  C   UNL A   1      32.001  27.530  26.462  1.00  0.00     0.340 C 
ATOM      4  O   UNL A   1      30.944  26.997  26.764  1.00  0.00    -0.246 OA
BRANCH   3   5
ATOM      5  C   UNL A   1      32.691  27.086  25.252  1.00  0.00     0.089 A 
ATOM      6  N   UNL A   1      32.948  25.328  23.919  1.00  0.00    -0.343 N 
ATOM      7  C   UNL A   1      33.062  26.453  23.112  1.00  0.00     0.025 A 
ATOM      8  C   UNL A   1      33.050  25.743  25.228  1.00  0.00     0.030 A 
ATOM      9  C   UNL A   1      33.253  26.427  21.631  1.00  0.00     0.065 C 
ATOM     10  C   UNL A   1      32.870  27.599  23.907  1.00  0.00     0.042 A 
ATOM     11  C   UNL A   1      33.220  24.876  26.429  1.00  0.00     0.065 C 
BRANCH   6  12
ATOM     12  C   UNL A   1      32.845  23.924  23.488  1.00  0.00     0.157 C 
BRANCH  12  13
ATOM     13  C   UNL A   1      34.057  23.033  23.752  1.00  0.00    -0.028 A 
ATOM     14  C   UNL A   1      37.561  20.659  24.780  1.00  0.00     0.044 C 
ATOM     15  C   UNL A   1      36.369  21.503  24.436  1.00  0.00    -0.051 A 
ATOM     16  C   UNL A   1      35.099  21.069  24.796  1.00  0.00     0.004 A 
ATOM     17  C   UNL A   1      36.484  22.696  23.716  1.00  0.00     0.004 A 
ATOM     18  C   UNL A   1      33.973  21.837  24.479  1.00  0.00     0.006 A 
ATOM     19  C   UNL A   1      35.344  23.448  23.376  1.00  0.00     0.006 A 
ENDBRANCH  12  13
ENDBRANCH   6  12
BRANCH  10  20
ATOM     20  C   UNL A   1      32.758  29.012  23.317  1.00  0.00     0.300 C 
BRANCH  20  21
ATOM     21  N   UNL A   1      31.510  29.173  22.551  1.00  0.00    -0.340 N 
ATOM     22  H   UNL A   1      31.528  28.521  21.767  1.00  0.00     0.346 HD
ATOM     23  H   UNL A   1      31.473  30.148  22.250  1.00  0.00     0.346 HD
BRANCH  21  24
ATOM     24  C   UNL A   1      30.273  28.919  23.345  1.00  0.00     0.293 C 
BRANCH  24  25
ATOM     25  C   UNL A   1      29.084  29.865  23.036  1.00  0.00     0.173 C 
ATOM     26  C   UNL A   1      28.865  30.359  21.610  1.00  0.00     0.040 C 
ATOM     27  O   UNL A   1      29.207  31.047  23.830  1.00  0.00    -0.372 OA
ATOM     28  C   UNL A   1      28.169  31.689  21.829  1.00  0.00     0.031 C 
ATOM     29  C   UNL A   1      28.872  32.201  23.054  1.00  0.00     0.161 C 
ENDBRANCH  24  25
ENDBRANCH  21  24
ENDBRANCH  20  21
ENDBRANCH  10  20
ENDBRANCH   3   5
ENDBRANCH   2   3
ENDBRANCH   1   2
BRANCH   1  30
ATOM     30  C   UNL A   1      34.139  30.294  27.141  1.00  0.00     0.275 C 
BRANCH  30  31
ATOM     31  O   UNL A   1      35.090  29.988  28.175  1.00  0.00    -0.458 OA
BRANCH  31  32
ATOM     32  C   UNL A   1      36.288  30.598  28.030  1.00  0.00     0.338 C 
ATOM     33  O   UNL A   1      36.451  31.790  28.275  1.00  0.00    -0.246 OA
BRANCH  32  34
ATOM     34  C   UNL A   1      37.338  29.547  28.006  1.00  0.00     0.060 A 
ATOM     35  C   UNL A   1      38.451  29.719  27.174  1.00  0.00     0.016 A 
ATOM     36  C   UNL A   1      37.397  28.667  29.084  1.00  0.00     0.016 A 
ATOM     37  C   UNL A   1      39.675  29.140  27.484  1.00  0.00     0.010 A 
ATOM     38  C   UNL A   1      38.622  28.209  29.479  1.00  0.00     0.010 A 
ATOM     39  C   UNL A   1      39.751  28.435  28.673  1.00  0.00    -0.014 A 
BRANCH  39  40
ATOM     40  C   UNL A   1      40.876  27.609  29.042  1.00  0.00     0.031 A 
ATOM     41  C   UNL A   1      41.006  26.209  28.606  1.00  0.00     0.074 A 
ATOM     42  C   UNL A   1      41.839  28.416  29.533  1.00  0.00     0.049 A 
ATOM     43  N   UNL A   1      41.871  25.398  29.102  1.00  0.00    -0.248 NA
ATOM     44  C   UNL A   1      40.149  25.545  27.619  1.00  0.00     0.031 C 
ATOM     45  C   UNL A   1      43.281  28.325  29.536  1.00  0.00     0.029 A 
ATOM     46  N   UNL A   1      41.605  29.605  30.214  1.00  0.00    -0.354 N 
ATOM     47  C   UNL A   1      41.965  24.331  28.228  1.00  0.00     0.074 A 
ATOM     48  C   UNL A   1      40.748  24.356  27.466  1.00  0.00     0.031 C 
ATOM     49  C   UNL A   1      43.768  29.236  30.408  1.00  0.00     0.029 A 
ATOM     50  C   UNL A   1      42.639  29.844  31.105  1.00  0.00     0.049 A 
ATOM     51  H   UNL A   1      40.823  30.189  30.084  1.00  0.00     0.167 HD
ATOM     52  C   UNL A   1      43.171  23.714  28.090  1.00  0.00     0.034 A 
ATOM     53  C   UNL A   1      42.329  29.696  32.434  1.00  0.00     0.034 A 
ATOM     54  C   UNL A   1      44.145  24.363  28.964  1.00  0.00     0.049 A 
ATOM     55  C   UNL A   1      42.848  28.371  32.964  1.00  0.00     0.074 A 
ATOM     56  C   UNL A   1      45.094  25.352  28.772  1.00  0.00     0.029 A 
ATOM     57  N   UNL A   1      43.938  24.286  30.320  1.00  0.00    -0.354 N 
ATOM     58  N   UNL A   1      43.295  27.407  32.203  1.00  0.00    -0.248 NA
ATOM     59  C   UNL A   1      42.904  28.023  34.379  1.00  0.00     0.031 C 
ATOM     60  C   UNL A   1      45.406  25.904  30.054  1.00  0.00     0.029 A 
ATOM     61  C   UNL A   1      44.642  25.247  31.004  1.00  0.00     0.049 A 
ATOM     62  H   UNL A   1      43.352  23.622  30.750  1.00  0.00     0.167 HD
ATOM     63  C   UNL A   1      43.778  26.390  32.967  1.00  0.00     0.074 A 
ATOM     64  C   UNL A   1      43.441  26.790  34.327  1.00  0.00     0.031 C 
ATOM     65  C   UNL A   1      44.443  25.318  32.439  1.00  0.00     0.034 A 
BRANCH  52  66
ATOM     66  C   UNL A   1      43.594  22.745  27.017  1.00  0.00     0.023 A 
ATOM     67  C   UNL A   1      42.980  21.474  27.015  1.00  0.00     0.031 A 
ATOM     68  C   UNL A   1      44.525  22.969  25.989  1.00  0.00     0.131 A 
ATOM     69  C   UNL A   1      43.314  20.484  26.082  1.00  0.00     0.055 A 
ATOM     70  C   UNL A   1      44.875  21.972  25.059  1.00  0.00     0.041 A 
ATOM     71  F   UNL A   1      45.105  24.164  25.808  1.00  0.00    -0.206 F 
ATOM     72  C   UNL A   1      44.272  20.719  25.105  1.00  0.00     0.022 A 
BRANCH  69  73
ATOM     73  S   UNL A   1      42.457  18.891  26.183  1.00  0.00     0.124 S 
ATOM     74  O   UNL A   1      41.114  19.234  25.721  1.00  0.00    -0.237 OA
ATOM     75  O   UNL A   1      43.250  18.053  25.290  1.00  0.00    -0.237 OA
ATOM     76  O   UNL A   1      42.551  18.545  27.600  1.00  0.00    -0.744 OA
ENDBRANCH  69  73
ENDBRANCH  52  66
BRANCH  53  77
ATOM     77  C   UNL A   1      40.987  30.315  32.752  1.00  0.00     0.023 A 
ATOM     78  C   UNL A   1      40.929  31.734  32.676  1.00  0.00     0.031 A 
ATOM     79  C   UNL A   1      39.790  29.599  32.590  1.00  0.00     0.131 A 
ATOM     80  C   UNL A   1      39.790  32.356  32.156  1.00  0.00     0.055 A 
ATOM     81  C   UNL A   1      38.622  30.243  32.169  1.00  0.00     0.041 A 
ATOM     82  F   UNL A   1      39.763  28.263  32.687  1.00  0.00    -0.206 F 
ATOM     83  C   UNL A   1      38.656  31.606  31.873  1.00  0.00     0.022 A 
BRANCH  80  84
ATOM     84  S   UNL A   1      39.873  34.063  31.520  1.00  0.00     0.124 S 
ATOM     85  O   UNL A   1      41.031  34.596  32.232  1.00  0.00    -0.237 OA
ATOM     86  O   UNL A   1      40.039  33.877  30.082  1.00  0.00    -0.237 OA
ATOM     87  O   UNL A   1      38.585  34.630  31.912  1.00  0.00    -0.744 OA
ENDBRANCH  80  84
ENDBRANCH  53  77
BRANCH  65  88
ATOM     88  C   UNL A   1      44.986  24.211  33.284  1.00  0.00     0.023 A 
ATOM     89  C   UNL A   1      46.321  24.223  33.678  1.00  0.00     0.031 A 
ATOM     90  C   UNL A   1      44.216  23.091  33.675  1.00  0.00     0.131 A 
ATOM     91  C   UNL A   1      46.804  23.246  34.551  1.00  0.00     0.055 A 
ATOM     92  C   UNL A   1      44.744  22.042  34.424  1.00  0.00     0.041 A 
ATOM     93  F   UNL A   1      42.907  22.984  33.406  1.00  0.00    -0.206 F 
ATOM     94  C   UNL A   1      46.041  22.133  34.898  1.00  0.00     0.022 A 
BRANCH  91  95
ATOM     95  S   UNL A   1      48.389  23.565  35.347  1.00  0.00     0.124 S 
ATOM     96  O   UNL A   1      48.682  22.295  36.000  1.00  0.00    -0.237 OA
ATOM     97  O   UNL A   1      49.229  23.894  34.198  1.00  0.00    -0.237 OA
ATOM     98  O   UNL A   1      48.101  24.681  36.245  1.00  0.00    -0.744 OA
ENDBRANCH  91  95
ENDBRANCH  65  88
ENDBRANCH  39  40
ENDBRANCH  32  34
ENDBRANCH  31  32
ENDBRANCH  30  31
ENDBRANCH   1  30
TORSDOF 20
ENDMDL
MODEL 3
REMARK VINA RESULT:     -12.7      3.675     10.039
REMARK SMILES Cc1ccc(Cn2c(C)c(C[NH2+]C[C@@H]3CCCO3)c(C(=O)OCCOC(=O)c3ccc(-c4c5nc(c(-c6cc(S(=O)(=O)[O-])ccc6F)c6ccc([nH]6)c(-c6cc(S(=O)(=O)[O-])ccc6F)c6nc(c(-c7cc(S(=O)(=O)[O-])ccc7F)c7ccc4[nH]7)C=C6)C=C5)cc3)c2C)cc1
REMARK SMILES IDX 23 1 22 2 20 3 21 4 19 5 7 6 8 7 91 8 9 9 10 10 92 11 6 12
REMARK SMILES IDX 5 13 1 14 2 15 3 16 94 17 4 18 93 19 11 20 12 21 13 24 14 25
REMARK SMILES IDX 15 26 18 27 16 28 17 29 24 30 25 31 26 32 27 33 28 34 29 35
REMARK SMILES IDX 90 36 30 37 89 38 31 39 32 40 33 41 83 42 34 43 88 44 82 45
REMARK SMILES IDX 84 46 35 47 87 48 81 49 80 50 36 52 68 53 48 54 67 55 49 56
REMARK SMILES IDX 52 57 66 58 85 59 50 60 51 61 65 63 86 64 53 65 37 66 38 67
REMARK SMILES IDX 46 68 39 69 45 70 47 71 44 72 40 73 41 74 42 75 43 76 69 77
REMARK SMILES IDX 70 78 78 79 71 80 77 81 79 82 76 83 72 84 73 85 74 86 75 87
REMARK SMILES IDX 54 88 55 89 63 90 56 91 62 92 64 93 61 94 57 95 58 96 59 97
REMARK SMILES IDX 60 98
REMARK H PARENT 12 22 12 23 84 51 52 62
REMARK Flexibility Score: inf
ROOT
ATOM      1  C   UNL A   1      36.182  22.091  25.199  1.00  0.00     0.275 C 
ENDROOT
BRANCH   1   2
ATOM      2  O   UNL A   1      35.930  22.874  24.005  1.00  0.00    -0.458 OA
BRANCH   2   3
ATOM      3  C   UNL A   1      34.600  23.057  23.700  1.00  0.00     0.340 C 
ATOM      4  O   UNL A   1      34.236  23.506  22.624  1.00  0.00    -0.246 OA
BRANCH   3   5
ATOM      5  C   UNL A   1      33.681  23.120  24.836  1.00  0.00     0.089 A 
ATOM      6  N   UNL A   1      32.350  24.509  25.945  1.00  0.00    -0.343 N 
ATOM      7  C   UNL A   1      31.764  23.252  26.029  1.00  0.00     0.025 A 
ATOM      8  C   UNL A   1      33.644  24.336  25.507  1.00  0.00     0.030 A 
ATOM      9  C   UNL A   1      30.458  22.960  26.693  1.00  0.00     0.065 C 
ATOM     10  C   UNL A   1      32.554  22.337  25.308  1.00  0.00     0.042 A 
ATOM     11  C   UNL A   1      34.725  25.363  25.488  1.00  0.00     0.065 C 
BRANCH   6  12
ATOM     12  C   UNL A   1      31.763  25.799  26.344  1.00  0.00     0.157 C 
BRANCH  12  13
ATOM     13  C   UNL A   1      31.358  26.748  25.218  1.00  0.00    -0.028 A 
ATOM     14  C   UNL A   1      29.905  29.469  22.142  1.00  0.00     0.044 C 
ATOM     15  C   UNL A   1      30.377  28.516  23.201  1.00  0.00    -0.051 A 
ATOM     16  C   UNL A   1      31.021  29.012  24.328  1.00  0.00     0.004 A 
ATOM     17  C   UNL A   1      30.238  27.131  23.072  1.00  0.00     0.004 A 
ATOM     18  C   UNL A   1      31.476  28.141  25.323  1.00  0.00     0.006 A 
ATOM     19  C   UNL A   1      30.725  26.260  24.065  1.00  0.00     0.006 A 
ENDBRANCH  12  13
ENDBRANCH   6  12
BRANCH  10  20
ATOM     20  C   UNL A   1      32.119  20.889  25.043  1.00  0.00     0.300 C 
BRANCH  20  21
ATOM     21  N   UNL A   1      33.064  19.930  25.641  1.00  0.00    -0.340 N 
ATOM     22  H   UNL A   1      32.527  19.210  26.126  1.00  0.00     0.346 HD
ATOM     23  H   UNL A   1      33.665  20.462  26.270  1.00  0.00     0.346 HD
BRANCH  21  24
ATOM     24  C   UNL A   1      33.957  19.261  24.651  1.00  0.00     0.293 C 
BRANCH  24  25
ATOM     25  C   UNL A   1      33.706  17.744  24.454  1.00  0.00     0.173 C 
ATOM     26  C   UNL A   1      32.713  17.022  25.357  1.00  0.00     0.040 C 
ATOM     27  O   UNL A   1      34.940  17.040  24.610  1.00  0.00    -0.372 OA
ATOM     28  C   UNL A   1      33.248  15.602  25.362  1.00  0.00     0.031 C 
ATOM     29  C   UNL A   1      34.732  15.838  25.357  1.00  0.00     0.161 C 
ENDBRANCH  24  25
ENDBRANCH  21  24
ENDBRANCH  20  21
ENDBRANCH  10  20
ENDBRANCH   3   5
ENDBRANCH   2   3
ENDBRANCH   1   2
BRANCH   1  30
ATOM     30  C   UNL A   1      37.275  21.014  25.004  1.00  0.00     0.275 C 
BRANCH  30  31
ATOM     31  O   UNL A   1      38.649  21.441  25.031  1.00  0.00    -0.458 OA
BRANCH  31  32
ATOM     32  C   UNL A   1      39.383  20.893  26.026  1.00  0.00     0.338 C 
ATOM     33  O   UNL A   1      39.803  19.741  25.974  1.00  0.00    -0.246 OA
BRANCH  32  34
ATOM     34  C   UNL A   1      39.932  22.000  26.852  1.00  0.00     0.060 A 
ATOM     35  C   UNL A   1      40.806  21.693  27.903  1.00  0.00     0.016 A 
ATOM     36  C   UNL A   1      39.907  23.283  26.312  1.00  0.00     0.016 A 
ATOM     37  C   UNL A   1      41.764  22.604  28.328  1.00  0.00     0.010 A 
ATOM     38  C   UNL A   1      40.931  24.135  26.620  1.00  0.00     0.010 A 
ATOM     39  C   UNL A   1      41.844  23.799  27.634  1.00  0.00    -0.014 A 
BRANCH  39  40
ATOM     40  C   UNL A   1      42.635  24.925  28.070  1.00  0.00     0.031 A 
ATOM     41  C   UNL A   1      42.030  26.163  28.587  1.00  0.00     0.074 A 
ATOM     42  C   UNL A   1      43.912  24.508  28.203  1.00  0.00     0.049 A 
ATOM     43  N   UNL A   1      42.697  27.248  28.765  1.00  0.00    -0.248 NA
ATOM     44  C   UNL A   1      40.610  26.345  28.903  1.00  0.00     0.031 C 
ATOM     45  C   UNL A   1      44.988  24.924  29.072  1.00  0.00     0.029 A 
ATOM     46  N   UNL A   1      44.501  23.506  27.441  1.00  0.00    -0.354 N 
ATOM     47  C   UNL A   1      41.934  28.054  29.589  1.00  0.00     0.074 A 
ATOM     48  C   UNL A   1      40.591  27.563  29.464  1.00  0.00     0.031 C 
ATOM     49  C   UNL A   1      46.143  24.396  28.609  1.00  0.00     0.029 A 
ATOM     50  C   UNL A   1      45.863  23.740  27.336  1.00  0.00     0.049 A 
ATOM     51  H   UNL A   1      44.024  22.746  27.037  1.00  0.00     0.167 HD
ATOM     52  C   UNL A   1      42.578  28.876  30.463  1.00  0.00     0.034 A 
ATOM     53  C   UNL A   1      46.308  24.142  26.101  1.00  0.00     0.034 A 
ATOM     54  C   UNL A   1      44.020  28.706  30.308  1.00  0.00     0.049 A 
ATOM     55  C   UNL A   1      46.556  25.639  26.077  1.00  0.00     0.074 A 
ATOM     56  C   UNL A   1      44.970  27.945  30.965  1.00  0.00     0.029 A 
ATOM     57  N   UNL A   1      44.581  29.070  29.108  1.00  0.00    -0.354 N 
ATOM     58  N   UNL A   1      46.161  26.457  27.016  1.00  0.00    -0.248 NA
ATOM     59  C   UNL A   1      47.262  26.333  25.006  1.00  0.00     0.031 C 
ATOM     60  C   UNL A   1      46.097  27.817  30.094  1.00  0.00     0.029 A 
ATOM     61  C   UNL A   1      45.817  28.498  28.922  1.00  0.00     0.049 A 
ATOM     62  H   UNL A   1      44.148  29.669  28.458  1.00  0.00     0.167 HD
ATOM     63  C   UNL A   1      46.613  27.716  26.764  1.00  0.00     0.074 A 
ATOM     64  C   UNL A   1      47.236  27.602  25.452  1.00  0.00     0.031 C 
ATOM     65  C   UNL A   1      46.476  28.744  27.655  1.00  0.00     0.034 A 
BRANCH  52  66
ATOM     66  C   UNL A   1      41.990  29.616  31.636  1.00  0.00     0.023 A 
ATOM     67  C   UNL A   1      42.020  28.969  32.890  1.00  0.00     0.031 A 
ATOM     68  C   UNL A   1      41.428  30.904  31.633  1.00  0.00     0.131 A 
ATOM     69  C   UNL A   1      41.479  29.550  34.045  1.00  0.00     0.055 A 
ATOM     70  C   UNL A   1      40.869  31.485  32.786  1.00  0.00     0.041 A 
ATOM     71  F   UNL A   1      41.429  31.673  30.535  1.00  0.00    -0.206 F 
ATOM     72  C   UNL A   1      40.888  30.806  34.001  1.00  0.00     0.022 A 
BRANCH  69  73
ATOM     73  S   UNL A   1      41.577  28.620  35.596  1.00  0.00     0.124 S 
ATOM     74  O   UNL A   1      40.478  29.193  36.369  1.00  0.00    -0.237 OA
ATOM     75  O   UNL A   1      41.400  27.244  35.146  1.00  0.00    -0.237 OA
ATOM     76  O   UNL A   1      42.913  28.938  36.098  1.00  0.00    -0.744 OA
ENDBRANCH  69  73
ENDBRANCH  52  66
BRANCH  53  77
ATOM     77  C   UNL A   1      45.659  23.332  25.001  1.00  0.00     0.023 A 
ATOM     78  C   UNL A   1      46.168  22.015  24.822  1.00  0.00     0.031 A 
ATOM     79  C   UNL A   1      44.349  23.593  24.570  1.00  0.00     0.131 A 
ATOM     80  C   UNL A   1      45.294  20.968  24.518  1.00  0.00     0.055 A 
ATOM     81  C   UNL A   1      43.506  22.551  24.167  1.00  0.00     0.041 A 
ATOM     82  F   UNL A   1      43.816  24.819  24.672  1.00  0.00    -0.206 F 
ATOM     83  C   UNL A   1      43.963  21.234  24.227  1.00  0.00     0.022 A 
BRANCH  80  84
ATOM     84  S   UNL A   1      45.775  19.237  24.833  1.00  0.00     0.124 S 
ATOM     85  O   UNL A   1      47.035  19.399  25.552  1.00  0.00    -0.237 OA
ATOM     86  O   UNL A   1      44.659  18.716  25.615  1.00  0.00    -0.237 OA
ATOM     87  O   UNL A   1      45.891  18.672  23.491  1.00  0.00    -0.744 OA
ENDBRANCH  80  84
ENDBRANCH  53  77
BRANCH  65  88
ATOM     88  C   UNL A   1      46.990  30.122  27.380  1.00  0.00     0.023 A 
ATOM     89  C   UNL A   1      46.220  31.020  26.647  1.00  0.00     0.031 A 
ATOM     90  C   UNL A   1      48.270  30.563  27.787  1.00  0.00     0.131 A 
ATOM     91  C   UNL A   1      46.651  32.338  26.478  1.00  0.00     0.055 A 
ATOM     92  C   UNL A   1      48.757  31.832  27.488  1.00  0.00     0.041 A 
ATOM     93  F   UNL A   1      49.086  29.814  28.544  1.00  0.00    -0.206 F 
ATOM     94  C   UNL A   1      47.929  32.744  26.857  1.00  0.00     0.022 A 
BRANCH  91  95
ATOM     95  S   UNL A   1      45.431  33.535  25.908  1.00  0.00     0.124 S 
ATOM     96  O   UNL A   1      44.552  32.726  25.072  1.00  0.00    -0.237 OA
ATOM     97  O   UNL A   1      44.857  33.989  27.173  1.00  0.00    -0.237 OA
ATOM     98  O   UNL A   1      46.233  34.528  25.198  1.00  0.00    -0.744 OA
ENDBRANCH  91  95
ENDBRANCH  65  88
ENDBRANCH  39  40
ENDBRANCH  32  34
ENDBRANCH  31  32
ENDBRANCH  30  31
ENDBRANCH   1  30
TORSDOF 20
ENDMDL
