MODEL 1
REMARK VINA RESULT:     -11.4      0.000      0.000
REMARK SMILES O=C(OCCOC(=O)[C@@H]1[C@H](C(=O)Nc2ccccc2OC(F)F)[C@@H]2C=C[C@H]1C2)c1ccc(-c2c3nc(c(-c4cc(S(=O)(=O)[O-])ccc4F)c4ccc([nH]4)c(-c4cc(S(=O)(=O)[O-])ccc4F)c4nc(c(-c5cc(S(=O)(=O)[O-])ccc5F)c5ccc2[nH]5)C=C4)C=C3)cc1
REMARK SMILES IDX 5 1 4 2 3 3 2 4 1 5 29 6 30 7 91 8 31 9 90 10 32 11 33 12
REMARK SMILES IDX 34 13 84 14 35 15 89 16 83 17 85 18 36 19 88 20 82 21 81 22
REMARK SMILES IDX 37 24 69 25 49 26 68 27 50 28 53 29 67 30 86 31 51 32 52 33
REMARK SMILES IDX 66 35 87 36 54 37 38 38 39 39 47 40 40 41 46 42 48 43 45 44
REMARK SMILES IDX 41 45 42 46 43 47 44 48 70 49 71 50 79 51 72 52 78 53 80 54
REMARK SMILES IDX 77 55 73 56 74 57 75 58 76 59 55 60 56 61 64 62 57 63 63 64
REMARK SMILES IDX 65 65 62 66 58 67 59 68 60 69 61 70 6 71 7 72 8 73 9 74
REMARK SMILES IDX 10 75 27 76 24 77 26 78 28 79 25 80 11 81 12 82 13 83 14 85
REMARK SMILES IDX 15 86 19 87 16 88 18 89 17 90 20 91 21 92 22 93 23 94
REMARK H PARENT 85 23 53 34 13 84
REMARK Flexibility Score: inf
ROOT
ATOM      1  C   UNL A   1      46.781  23.705  25.054  1.00  0.00     0.274 C 
ENDROOT
BRANCH   1   2
ATOM      2  C   UNL A   1      46.027  22.532  24.335  1.00  0.00     0.275 C 
BRANCH   2   3
ATOM      3  O   UNL A   1      45.274  21.690  25.204  1.00  0.00    -0.458 OA
BRANCH   3   4
ATOM      4  C   UNL A   1      44.020  21.993  25.603  1.00  0.00     0.338 C 
ATOM      5  O   UNL A   1      43.146  21.134  25.503  1.00  0.00    -0.246 OA
BRANCH   4   6
ATOM      6  C   UNL A   1      43.622  23.376  26.021  1.00  0.00     0.060 A 
ATOM      7  C   UNL A   1      43.109  24.761  25.031  1.00  0.00     0.016 A 
ATOM      8  C   UNL A   1      43.319  23.339  27.754  1.00  0.00     0.016 A 
ATOM      9  C   UNL A   1      42.016  26.041  25.827  1.00  0.00     0.010 A 
ATOM     10  C   UNL A   1      42.484  24.567  28.602  1.00  0.00     0.010 A 
ATOM     11  C   UNL A   1      41.741  25.927  27.788  1.00  0.00    -0.014 A 
BRANCH  11  12
ATOM     12  C   UNL A   1      41.429  27.257  29.037  1.00  0.00     0.031 A 
ATOM     13  C   UNL A   1      40.093  28.102  28.952  1.00  0.00     0.074 A 
ATOM     14  C   UNL A   1      42.070  27.485  30.269  1.00  0.00     0.049 A 
ATOM     15  N   UNL A   1      39.466  28.759  29.916  1.00  0.00    -0.248 NA
ATOM     16  C   UNL A   1      39.400  28.235  27.665  1.00  0.00     0.031 C 
ATOM     17  C   UNL A   1      43.363  26.974  30.722  1.00  0.00     0.029 A 
ATOM     18  N   UNL A   1      41.654  28.064  31.480  1.00  0.00    -0.354 N 
ATOM     19  C   UNL A   1      38.321  29.337  29.354  1.00  0.00     0.074 A 
ATOM     20  C   UNL A   1      38.339  28.975  27.959  1.00  0.00     0.031 C 
ATOM     21  C   UNL A   1      43.490  26.923  32.030  1.00  0.00     0.029 A 
ATOM     22  C   UNL A   1      42.504  27.794  32.562  1.00  0.00     0.049 A 
ATOM     23  H   UNL A   1      40.838  28.610  31.563  1.00  0.00     0.167 HD
ATOM     24  C   UNL A   1      37.346  30.108  29.912  1.00  0.00     0.034 A 
ATOM     25  C   UNL A   1      42.679  28.193  33.837  1.00  0.00     0.034 A 
ATOM     26  C   UNL A   1      37.334  30.574  31.283  1.00  0.00     0.049 A 
ATOM     27  C   UNL A   1      41.683  29.121  34.386  1.00  0.00     0.074 A 
ATOM     28  C   UNL A   1      36.361  31.332  31.921  1.00  0.00     0.029 A 
ATOM     29  N   UNL A   1      38.352  30.397  32.208  1.00  0.00    -0.354 N 
ATOM     30  N   UNL A   1      40.598  29.548  33.799  1.00  0.00    -0.248 NA
ATOM     31  C   UNL A   1      41.919  29.622  35.737  1.00  0.00     0.031 C 
ATOM     32  C   UNL A   1      36.839  31.706  33.180  1.00  0.00     0.029 A 
ATOM     33  C   UNL A   1      38.057  31.087  33.379  1.00  0.00     0.049 A 
ATOM     34  H   UNL A   1      39.165  29.862  32.058  1.00  0.00     0.167 HD
ATOM     35  C   UNL A   1      40.012  30.390  34.716  1.00  0.00     0.074 A 
ATOM     36  C   UNL A   1      40.838  30.363  35.910  1.00  0.00     0.031 C 
ATOM     37  C   UNL A   1      38.886  31.120  34.555  1.00  0.00     0.034 A 
BRANCH  24  38
ATOM     38  C   UNL A   1      36.205  30.591  29.024  1.00  0.00     0.023 A 
ATOM     39  C   UNL A   1      35.278  29.708  28.439  1.00  0.00     0.031 A 
ATOM     40  C   UNL A   1      35.999  31.972  28.833  1.00  0.00     0.131 A 
ATOM     41  C   UNL A   1      34.208  30.214  27.678  1.00  0.00     0.055 A 
ATOM     42  C   UNL A   1      34.900  32.470  28.130  1.00  0.00     0.041 A 
ATOM     43  F   UNL A   1      36.856  32.866  29.352  1.00  0.00    -0.206 F 
ATOM     44  C   UNL A   1      33.997  31.589  27.542  1.00  0.00     0.022 A 
BRANCH  41  45
ATOM     45  S   UNL A   1      33.132  29.051  26.789  1.00  0.00     0.124 S 
ATOM     46  O   UNL A   1      34.108  28.227  26.079  1.00  0.00    -0.237 OA
ATOM     47  O   UNL A   1      32.413  28.393  27.874  1.00  0.00    -0.237 OA
ATOM     48  O   UNL A   1      32.318  29.916  25.937  1.00  0.00    -0.744 OA
ENDBRANCH  41  45
ENDBRANCH  24  38
BRANCH  25  49
ATOM     49  C   UNL A   1      43.943  27.843  34.591  1.00  0.00     0.023 A 
ATOM     50  C   UNL A   1      45.045  28.706  34.661  1.00  0.00     0.031 A 
ATOM     51  C   UNL A   1      44.036  26.616  35.295  1.00  0.00     0.131 A 
ATOM     52  C   UNL A   1      46.182  28.329  35.403  1.00  0.00     0.055 A 
ATOM     53  C   UNL A   1      45.122  26.297  36.111  1.00  0.00     0.041 A 
ATOM     54  F   UNL A   1      43.020  25.736  35.265  1.00  0.00    -0.206 F 
ATOM     55  C   UNL A   1      46.213  27.152  36.156  1.00  0.00     0.022 A 
BRANCH  52  56
ATOM     56  S   UNL A   1      47.685  29.336  35.271  1.00  0.00     0.124 S 
ATOM     57  O   UNL A   1      47.616  30.133  36.491  1.00  0.00    -0.237 OA
ATOM     58  O   UNL A   1      48.730  28.320  35.227  1.00  0.00    -0.237 OA
ATOM     59  O   UNL A   1      47.488  30.082  34.029  1.00  0.00    -0.744 OA
ENDBRANCH  52  56
ENDBRANCH  25  49
BRANCH  37  60
ATOM     60  C   UNL A   1      38.480  31.922  35.749  1.00  0.00     0.023 A 
ATOM     61  C   UNL A   1      38.034  31.293  36.921  1.00  0.00     0.031 A 
ATOM     62  C   UNL A   1      38.396  33.320  35.656  1.00  0.00     0.131 A 
ATOM     63  C   UNL A   1      37.417  32.056  37.917  1.00  0.00     0.055 A 
ATOM     64  C   UNL A   1      37.868  34.082  36.694  1.00  0.00     0.041 A 
ATOM     65  F   UNL A   1      38.783  33.957  34.540  1.00  0.00    -0.206 F 
ATOM     66  C   UNL A   1      37.352  33.449  37.823  1.00  0.00     0.022 A 
BRANCH  63  67
ATOM     67  S   UNL A   1      36.538  31.183  39.239  1.00  0.00     0.124 S 
ATOM     68  O   UNL A   1      35.430  32.093  39.511  1.00  0.00    -0.237 OA
ATOM     69  O   UNL A   1      36.183  29.920  38.599  1.00  0.00    -0.237 OA
ATOM     70  O   UNL A   1      37.537  31.082  40.301  1.00  0.00    -0.744 OA
ENDBRANCH  63  67
ENDBRANCH  37  60
ENDBRANCH  11  12
ENDBRANCH   4   6
ENDBRANCH   3   4
ENDBRANCH   2   3
ENDBRANCH   1   2
BRANCH   1  71
ATOM     71  O   UNL A   1      46.701  25.022  24.240  1.00  0.00    -0.462 OA
BRANCH  71  72
ATOM     72  C   UNL A   1      46.642  26.326  24.676  1.00  0.00     0.310 C 
ATOM     73  O   UNL A   1      46.925  27.210  23.863  1.00  0.00    -0.252 OA
BRANCH  72  74
ATOM     74  C   UNL A   1      46.156  26.780  26.262  1.00  0.00     0.119 C 
ATOM     75  C   UNL A   1      45.111  27.778  27.399  1.00  0.00     0.100 C 
ATOM     76  C   UNL A   1      47.262  26.214  27.258  1.00  0.00     0.027 C 
ATOM     77  C   UNL A   1      45.951  27.290  28.779  1.00  0.00     0.025 C 
ATOM     78  C   UNL A   1      48.110  27.221  27.991  1.00  0.00    -0.027 C 
ATOM     79  C   UNL A   1      46.408  25.845  28.464  1.00  0.00     0.017 C 
ATOM     80  C   UNL A   1      47.346  27.832  28.906  1.00  0.00    -0.027 C 
BRANCH  75  81
ATOM     81  C   UNL A   1      43.792  29.241  27.273  1.00  0.00     0.229 C 
ATOM     82  O   UNL A   1      43.470  29.610  26.121  1.00  0.00    -0.274 OA
ATOM     83  N   UNL A   1      42.919  30.080  28.501  1.00  0.00    -0.323 N 
ATOM     84  H   UNL A   1      41.965  30.234  28.308  1.00  0.00     0.170 HD
BRANCH  83  85
ATOM     85  C   UNL A   1      43.495  30.707  30.071  1.00  0.00     0.084 A 
ATOM     86  C   UNL A   1      44.701  30.343  30.604  1.00  0.00     0.030 A 
ATOM     87  C   UNL A   1      42.506  31.813  30.998  1.00  0.00     0.149 A 
ATOM     88  C   UNL A   1      45.052  30.983  31.823  1.00  0.00     0.002 A 
ATOM     89  C   UNL A   1      42.977  32.375  32.194  1.00  0.00     0.049 A 
ATOM     90  C   UNL A   1      44.253  31.937  32.562  1.00  0.00     0.004 A 
BRANCH  87  91
ATOM     91  O   UNL A   1      40.730  32.191  30.199  1.00  0.00    -0.433 OA
BRANCH  91  92
ATOM     92  C   UNL A   1      39.643  33.683  30.378  1.00  0.00     0.542 C 
ATOM     93  F   UNL A   1      38.764  33.746  31.388  1.00  0.00    -0.167 F 
ATOM     94  F   UNL A   1      40.164  34.946  30.209  1.00  0.00    -0.167 F 
ENDBRANCH  91  92
ENDBRANCH  87  91
ENDBRANCH  83  85
ENDBRANCH  75  81
ENDBRANCH  72  74
ENDBRANCH  71  72
ENDBRANCH   1  71
TORSDOF 18
ENDMDL
MODEL 2
REMARK VINA RESULT:     -11.0      6.783     11.532
REMARK SMILES O=C(OCCOC(=O)[C@@H]1[C@H](C(=O)Nc2ccccc2OC(F)F)[C@@H]2C=C[C@H]1C2)c1ccc(-c2c3nc(c(-c4cc(S(=O)(=O)[O-])ccc4F)c4ccc([nH]4)c(-c4cc(S(=O)(=O)[O-])ccc4F)c4nc(c(-c5cc(S(=O)(=O)[O-])ccc5F)c5ccc2[nH]5)C=C4)C=C3)cc1
REMARK SMILES IDX 5 1 4 2 3 3 2 4 1 5 29 6 30 7 91 8 31 9 90 10 32 11 33 12
REMARK SMILES IDX 34 13 84 14 35 15 89 16 83 17 85 18 36 19 88 20 82 21 81 22
REMARK SMILES IDX 37 24 69 25 49 26 68 27 50 28 53 29 67 30 86 31 51 32 52 33
REMARK SMILES IDX 66 35 87 36 54 37 38 38 39 39 47 40 40 41 46 42 48 43 45 44
REMARK SMILES IDX 41 45 42 46 43 47 44 48 70 49 71 50 79 51 72 52 78 53 80 54
REMARK SMILES IDX 77 55 73 56 74 57 75 58 76 59 55 60 56 61 64 62 57 63 63 64
REMARK SMILES IDX 65 65 62 66 58 67 59 68 60 69 61 70 6 71 7 72 8 73 9 74
REMARK SMILES IDX 10 75 27 76 24 77 26 78 28 79 25 80 11 81 12 82 13 83 14 85
REMARK SMILES IDX 15 86 19 87 16 88 18 89 17 90 20 91 21 92 22 93 23 94
REMARK H PARENT 85 23 53 34 13 84
REMARK Flexibility Score: inf
ROOT
ATOM      1  C   UNL A   1      47.057  41.214  26.255  1.00  0.00     0.274 C 
ENDROOT
BRANCH   1   2
ATOM      2  C   UNL A   1      47.742  40.250  27.285  1.00  0.00     0.275 C 
BRANCH   2   3
ATOM      3  O   UNL A   1      46.995  39.073  27.584  1.00  0.00    -0.458 OA
BRANCH   3   4
ATOM      4  C   UNL A   1      47.256  37.880  27.009  1.00  0.00     0.338 C 
ATOM      5  O   UNL A   1      47.644  37.860  25.842  1.00  0.00    -0.246 OA
BRANCH   4   6
ATOM      6  C   UNL A   1      46.951  36.579  27.685  1.00  0.00     0.060 A 
ATOM      7  C   UNL A   1      47.028  36.146  29.409  1.00  0.00     0.016 A 
ATOM      8  C   UNL A   1      46.062  35.581  26.541  1.00  0.00     0.016 A 
ATOM      9  C   UNL A   1      45.933  34.765  30.009  1.00  0.00     0.010 A 
ATOM     10  C   UNL A   1      45.180  34.183  26.977  1.00  0.00     0.010 A 
ATOM     11  C   UNL A   1      44.980  33.686  28.643  1.00  0.00    -0.014 A 
BRANCH  11  12
ATOM     12  C   UNL A   1      44.458  31.910  28.665  1.00  0.00     0.031 A 
ATOM     13  C   UNL A   1      43.036  31.528  29.249  1.00  0.00     0.074 A 
ATOM     14  C   UNL A   1      45.010  30.815  27.977  1.00  0.00     0.049 A 
ATOM     15  N   UNL A   1      42.293  30.463  28.988  1.00  0.00    -0.248 NA
ATOM     16  C   UNL A   1      42.392  32.413  30.225  1.00  0.00     0.031 C 
ATOM     17  C   UNL A   1      46.333  30.709  27.362  1.00  0.00     0.029 A 
ATOM     18  N   UNL A   1      44.475  29.607  27.496  1.00  0.00    -0.354 N 
ATOM     19  C   UNL A   1      41.115  30.580  29.735  1.00  0.00     0.074 A 
ATOM     20  C   UNL A   1      41.238  31.808  30.479  1.00  0.00     0.031 C 
ATOM     21  C   UNL A   1      46.406  29.817  26.399  1.00  0.00     0.029 A 
ATOM     22  C   UNL A   1      45.301  28.944  26.578  1.00  0.00     0.049 A 
ATOM     23  H   UNL A   1      43.598  29.259  27.777  1.00  0.00     0.167 HD
ATOM     24  C   UNL A   1      40.031  29.758  29.826  1.00  0.00     0.034 A 
ATOM     25  C   UNL A   1      45.370  27.751  25.956  1.00  0.00     0.034 A 
ATOM     26  C   UNL A   1      39.903  28.473  29.172  1.00  0.00     0.049 A 
ATOM     27  C   UNL A   1      44.248  26.827  26.162  1.00  0.00     0.074 A 
ATOM     28  C   UNL A   1      38.820  27.605  29.197  1.00  0.00     0.029 A 
ATOM     29  N   UNL A   1      40.892  27.834  28.440  1.00  0.00    -0.354 N 
ATOM     30  N   UNL A   1      43.148  27.062  26.824  1.00  0.00    -0.248 NA
ATOM     31  C   UNL A   1      44.362  25.503  25.559  1.00  0.00     0.031 C 
ATOM     32  C   UNL A   1      39.193  26.405  28.584  1.00  0.00     0.029 A 
ATOM     33  C   UNL A   1      40.465  26.563  28.071  1.00  0.00     0.049 A 
ATOM     34  H   UNL A   1      41.768  28.223  28.214  1.00  0.00     0.167 HD
ATOM     35  C   UNL A   1      42.426  25.895  26.728  1.00  0.00     0.074 A 
ATOM     36  C   UNL A   1      43.194  24.983  25.899  1.00  0.00     0.031 C 
ATOM     37  C   UNL A   1      41.230  25.622  27.296  1.00  0.00     0.034 A 
BRANCH  24  38
ATOM     38  C   UNL A   1      38.883  30.170  30.740  1.00  0.00     0.023 A 
ATOM     39  C   UNL A   1      37.799  30.946  30.287  1.00  0.00     0.031 A 
ATOM     40  C   UNL A   1      38.839  29.701  32.068  1.00  0.00     0.131 A 
ATOM     41  C   UNL A   1      36.736  31.245  31.160  1.00  0.00     0.055 A 
ATOM     42  C   UNL A   1      37.751  29.948  32.908  1.00  0.00     0.041 A 
ATOM     43  F   UNL A   1      39.849  28.969  32.565  1.00  0.00    -0.206 F 
ATOM     44  C   UNL A   1      36.691  30.729  32.458  1.00  0.00     0.022 A 
BRANCH  41  45
ATOM     45  S   UNL A   1      35.440  32.393  30.607  1.00  0.00     0.124 S 
ATOM     46  O   UNL A   1      34.495  32.331  31.720  1.00  0.00    -0.237 OA
ATOM     47  O   UNL A   1      36.170  33.647  30.461  1.00  0.00    -0.237 OA
ATOM     48  O   UNL A   1      34.964  31.800  29.359  1.00  0.00    -0.744 OA
ENDBRANCH  41  45
ENDBRANCH  24  38
BRANCH  25  49
ATOM     49  C   UNL A   1      46.632  27.325  25.236  1.00  0.00     0.023 A 
ATOM     50  C   UNL A   1      46.935  27.742  23.933  1.00  0.00     0.031 A 
ATOM     51  C   UNL A   1      47.582  26.503  25.891  1.00  0.00     0.131 A 
ATOM     52  C   UNL A   1      48.141  27.331  23.331  1.00  0.00     0.055 A 
ATOM     53  C   UNL A   1      48.818  26.186  25.327  1.00  0.00     0.041 A 
ATOM     54  F   UNL A   1      47.353  26.058  27.138  1.00  0.00    -0.206 F 
ATOM     55  C   UNL A   1      49.098  26.590  24.030  1.00  0.00     0.022 A 
BRANCH  52  56
ATOM     56  S   UNL A   1      48.395  27.666  21.566  1.00  0.00     0.124 S 
ATOM     57  O   UNL A   1      47.096  28.203  21.176  1.00  0.00    -0.237 OA
ATOM     58  O   UNL A   1      49.500  28.617  21.593  1.00  0.00    -0.237 OA
ATOM     59  O   UNL A   1      48.716  26.352  21.013  1.00  0.00    -0.744 OA
ENDBRANCH  52  56
ENDBRANCH  25  49
BRANCH  37  60
ATOM     60  C   UNL A   1      40.679  24.268  26.984  1.00  0.00     0.023 A 
ATOM     61  C   UNL A   1      39.533  24.124  26.188  1.00  0.00     0.031 A 
ATOM     62  C   UNL A   1      41.216  23.133  27.610  1.00  0.00     0.131 A 
ATOM     63  C   UNL A   1      38.890  22.884  26.128  1.00  0.00     0.055 A 
ATOM     64  C   UNL A   1      40.624  21.881  27.468  1.00  0.00     0.041 A 
ATOM     65  F   UNL A   1      42.293  23.234  28.405  1.00  0.00    -0.206 F 
ATOM     66  C   UNL A   1      39.440  21.756  26.743  1.00  0.00     0.022 A 
BRANCH  63  67
ATOM     67  S   UNL A   1      37.234  22.815  25.396  1.00  0.00     0.124 S 
ATOM     68  O   UNL A   1      37.014  21.376  25.293  1.00  0.00    -0.237 OA
ATOM     69  O   UNL A   1      36.424  23.515  26.387  1.00  0.00    -0.237 OA
ATOM     70  O   UNL A   1      37.398  23.514  24.122  1.00  0.00    -0.744 OA
ENDBRANCH  63  67
ENDBRANCH  37  60
ENDBRANCH  11  12
ENDBRANCH   4   6
ENDBRANCH   3   4
ENDBRANCH   2   3
ENDBRANCH   1   2
BRANCH   1  71
ATOM     71  O   UNL A   1      47.432  42.695  26.521  1.00  0.00    -0.462 OA
BRANCH  71  72
ATOM     72  C   UNL A   1      46.836  43.850  26.070  1.00  0.00     0.310 C 
ATOM     73  O   UNL A   1      47.342  44.922  26.412  1.00  0.00    -0.252 OA
BRANCH  72  74
ATOM     74  C   UNL A   1      45.465  43.873  25.030  1.00  0.00     0.119 C 
ATOM     75  C   UNL A   1      43.827  43.216  24.516  1.00  0.00     0.100 C 
ATOM     76  C   UNL A   1      45.861  44.765  23.772  1.00  0.00     0.027 C 
ATOM     77  C   UNL A   1      43.777  44.138  23.103  1.00  0.00     0.025 C 
ATOM     78  C   UNL A   1      45.978  44.068  22.442  1.00  0.00    -0.027 C 
ATOM     79  C   UNL A   1      44.531  45.440  23.462  1.00  0.00     0.017 C 
ATOM     80  C   UNL A   1      44.748  43.726  22.034  1.00  0.00    -0.027 C 
BRANCH  75  81
ATOM     81  C   UNL A   1      42.630  41.722  24.997  1.00  0.00     0.229 C 
ATOM     82  O   UNL A   1      41.515  41.690  24.428  1.00  0.00    -0.274 OA
ATOM     83  N   UNL A   1      42.878  40.368  26.036  1.00  0.00    -0.323 N 
ATOM     84  H   UNL A   1      42.556  39.506  25.687  1.00  0.00     0.170 HD
BRANCH  83  85
ATOM     85  C   UNL A   1      43.638  40.307  27.651  1.00  0.00     0.084 A 
ATOM     86  C   UNL A   1      44.126  41.425  28.270  1.00  0.00     0.030 A 
ATOM     87  C   UNL A   1      43.799  38.783  28.495  1.00  0.00     0.149 A 
ATOM     88  C   UNL A   1      44.634  41.226  29.583  1.00  0.00     0.002 A 
ATOM     89  C   UNL A   1      44.321  38.729  29.796  1.00  0.00     0.049 A 
ATOM     90  C   UNL A   1      44.718  39.972  30.299  1.00  0.00     0.004 A 
BRANCH  87  91
ATOM     91  O   UNL A   1      43.167  37.207  27.469  1.00  0.00    -0.433 OA
BRANCH  91  92
ATOM     92  C   UNL A   1      41.985  35.866  27.965  1.00  0.00     0.542 C 
ATOM     93  F   UNL A   1      41.710  35.670  29.262  1.00  0.00    -0.167 F 
ATOM     94  F   UNL A   1      40.815  35.679  27.265  1.00  0.00    -0.167 F 
ENDBRANCH  91  92
ENDBRANCH  87  91
ENDBRANCH  83  85
ENDBRANCH  75  81
ENDBRANCH  72  74
ENDBRANCH  71  72
ENDBRANCH   1  71
TORSDOF 18
ENDMDL
MODEL 3
REMARK VINA RESULT:     -10.9      9.757     14.235
REMARK SMILES O=C(OCCOC(=O)[C@@H]1[C@H](C(=O)Nc2ccccc2OC(F)F)[C@@H]2C=C[C@H]1C2)c1ccc(-c2c3nc(c(-c4cc(S(=O)(=O)[O-])ccc4F)c4ccc([nH]4)c(-c4cc(S(=O)(=O)[O-])ccc4F)c4nc(c(-c5cc(S(=O)(=O)[O-])ccc5F)c5ccc2[nH]5)C=C4)C=C3)cc1
REMARK SMILES IDX 5 1 4 2 3 3 2 4 1 5 29 6 30 7 91 8 31 9 90 10 32 11 33 12
REMARK SMILES IDX 34 13 84 14 35 15 89 16 83 17 85 18 36 19 88 20 82 21 81 22
REMARK SMILES IDX 37 24 69 25 49 26 68 27 50 28 53 29 67 30 86 31 51 32 52 33
REMARK SMILES IDX 66 35 87 36 54 37 38 38 39 39 47 40 40 41 46 42 48 43 45 44
REMARK SMILES IDX 41 45 42 46 43 47 44 48 70 49 71 50 79 51 72 52 78 53 80 54
REMARK SMILES IDX 77 55 73 56 74 57 75 58 76 59 55 60 56 61 64 62 57 63 63 64
REMARK SMILES IDX 65 65 62 66 58 67 59 68 60 69 61 70 6 71 7 72 8 73 9 74
REMARK SMILES IDX 10 75 27 76 24 77 26 78 28 79 25 80 11 81 12 82 13 83 14 85
REMARK SMILES IDX 15 86 19 87 16 88 18 89 17 90 20 91 21 92 22 93 23 94
REMARK H PARENT 85 23 53 34 13 84
REMARK Flexibility Score: inf
ROOT
ATOM      1  C   UNL A   1      45.715  41.505  25.621  1.00  0.00     0.274 C 
ENDROOT
BRANCH   1   2
ATOM      2  C   UNL A   1      44.779  40.917  26.733  1.00  0.00     0.275 C 
BRANCH   2   3
ATOM      3  O   UNL A   1      44.289  39.606  26.463  1.00  0.00    -0.458 OA
BRANCH   3   4
ATOM      4  C   UNL A   1      44.838  38.499  27.007  1.00  0.00     0.338 C 
ATOM      5  O   UNL A   1      46.042  38.301  26.855  1.00  0.00    -0.246 OA
BRANCH   4   6
ATOM      6  C   UNL A   1      44.013  37.431  27.659  1.00  0.00     0.060 A 
ATOM      7  C   UNL A   1      43.436  35.881  27.005  1.00  0.00     0.016 A 
ATOM      8  C   UNL A   1      44.024  37.734  29.391  1.00  0.00     0.016 A 
ATOM      9  C   UNL A   1      43.095  34.502  28.209  1.00  0.00     0.010 A 
ATOM     10  C   UNL A   1      43.546  36.586  30.565  1.00  0.00     0.010 A 
ATOM     11  C   UNL A   1      43.117  34.942  30.144  1.00  0.00    -0.014 A 
BRANCH  11  12
ATOM     12  C   UNL A   1      42.172  34.205  31.554  1.00  0.00     0.031 A 
ATOM     13  C   UNL A   1      42.930  33.873  32.904  1.00  0.00     0.074 A 
ATOM     14  C   UNL A   1      40.781  34.132  31.748  1.00  0.00     0.049 A 
ATOM     15  N   UNL A   1      42.433  33.766  34.128  1.00  0.00    -0.248 NA
ATOM     16  C   UNL A   1      44.375  33.623  32.882  1.00  0.00     0.031 C 
ATOM     17  C   UNL A   1      39.721  34.283  30.751  1.00  0.00     0.029 A 
ATOM     18  N   UNL A   1      39.966  34.094  32.894  1.00  0.00    -0.354 N 
ATOM     19  C   UNL A   1      43.498  33.474  34.989  1.00  0.00     0.074 A 
ATOM     20  C   UNL A   1      44.672  33.399  34.155  1.00  0.00     0.031 C 
ATOM     21  C   UNL A   1      38.564  34.656  31.253  1.00  0.00     0.029 A 
ATOM     22  C   UNL A   1      38.613  34.355  32.639  1.00  0.00     0.049 A 
ATOM     23  H   UNL A   1      40.315  33.902  33.795  1.00  0.00     0.167 HD
ATOM     24  C   UNL A   1      43.525  33.267  36.336  1.00  0.00     0.034 A 
ATOM     25  C   UNL A   1      37.431  34.298  33.284  1.00  0.00     0.034 A 
ATOM     26  C   UNL A   1      42.363  33.240  37.198  1.00  0.00     0.049 A 
ATOM     27  C   UNL A   1      37.468  33.955  34.711  1.00  0.00     0.074 A 
ATOM     28  C   UNL A   1      42.323  33.067  38.575  1.00  0.00     0.029 A 
ATOM     29  N   UNL A   1      41.042  33.317  36.781  1.00  0.00    -0.354 N 
ATOM     30  N   UNL A   1      38.530  33.772  35.448  1.00  0.00    -0.248 NA
ATOM     31  C   UNL A   1      36.184  33.807  35.390  1.00  0.00     0.031 C 
ATOM     32  C   UNL A   1      40.989  32.925  38.970  1.00  0.00     0.029 A 
ATOM     33  C   UNL A   1      40.190  33.127  37.863  1.00  0.00     0.049 A 
ATOM     34  H   UNL A   1      40.751  33.481  35.854  1.00  0.00     0.167 HD
ATOM     35  C   UNL A   1      38.040  33.472  36.698  1.00  0.00     0.074 A 
ATOM     36  C   UNL A   1      36.593  33.554  36.622  1.00  0.00     0.031 C 
ATOM     37  C   UNL A   1      38.752  33.150  37.801  1.00  0.00     0.034 A 
BRANCH  24  38
ATOM     38  C   UNL A   1      44.865  32.968  36.997  1.00  0.00     0.023 A 
ATOM     39  C   UNL A   1      45.714  33.983  37.478  1.00  0.00     0.031 A 
ATOM     40  C   UNL A   1      45.255  31.632  37.222  1.00  0.00     0.131 A 
ATOM     41  C   UNL A   1      46.912  33.645  38.135  1.00  0.00     0.055 A 
ATOM     42  C   UNL A   1      46.413  31.304  37.931  1.00  0.00     0.041 A 
ATOM     43  F   UNL A   1      44.497  30.618  36.775  1.00  0.00    -0.206 F 
ATOM     44  C   UNL A   1      47.253  32.313  38.389  1.00  0.00     0.022 A 
BRANCH  41  45
ATOM     45  S   UNL A   1      48.072  34.969  38.587  1.00  0.00     0.124 S 
ATOM     46  O   UNL A   1      49.148  34.215  39.225  1.00  0.00    -0.237 OA
ATOM     47  O   UNL A   1      48.391  35.563  37.294  1.00  0.00    -0.237 OA
ATOM     48  O   UNL A   1      47.293  35.817  39.487  1.00  0.00    -0.744 OA
ENDBRANCH  41  45
ENDBRANCH  24  38
BRANCH  25  49
ATOM     49  C   UNL A   1      36.128  34.399  32.522  1.00  0.00     0.023 A 
ATOM     50  C   UNL A   1      35.344  35.561  32.517  1.00  0.00     0.031 A 
ATOM     51  C   UNL A   1      35.671  33.307  31.743  1.00  0.00     0.131 A 
ATOM     52  C   UNL A   1      34.154  35.599  31.763  1.00  0.00     0.055 A 
ATOM     53  C   UNL A   1      34.548  33.388  30.919  1.00  0.00     0.041 A 
ATOM     54  F   UNL A   1      36.367  32.158  31.708  1.00  0.00    -0.206 F 
ATOM     55  C   UNL A   1      33.772  34.537  30.938  1.00  0.00     0.022 A 
BRANCH  52  56
ATOM     56  S   UNL A   1      33.031  37.008  31.972  1.00  0.00     0.124 S 
ATOM     57  O   UNL A   1      32.983  37.552  30.619  1.00  0.00    -0.237 OA
ATOM     58  O   UNL A   1      31.814  36.360  32.446  1.00  0.00    -0.237 OA
ATOM     59  O   UNL A   1      33.715  37.846  32.955  1.00  0.00    -0.744 OA
ENDBRANCH  52  56
ENDBRANCH  25  49
BRANCH  37  60
ATOM     60  C   UNL A   1      37.935  32.904  39.028  1.00  0.00     0.023 A 
ATOM     61  C   UNL A   1      37.890  33.848  40.065  1.00  0.00     0.031 A 
ATOM     62  C   UNL A   1      37.324  31.655  39.222  1.00  0.00     0.131 A 
ATOM     63  C   UNL A   1      37.341  33.486  41.299  1.00  0.00     0.055 A 
ATOM     64  C   UNL A   1      36.694  31.338  40.422  1.00  0.00     0.041 A 
ATOM     65  F   UNL A   1      37.372  30.713  38.266  1.00  0.00    -0.206 F 
ATOM     66  C   UNL A   1      36.721  32.246  41.477  1.00  0.00     0.022 A 
BRANCH  63  67
ATOM     67  S   UNL A   1      37.618  34.586  42.711  1.00  0.00     0.124 S 
ATOM     68  O   UNL A   1      36.274  34.701  43.267  1.00  0.00    -0.237 OA
ATOM     69  O   UNL A   1      38.577  33.833  43.512  1.00  0.00    -0.237 OA
ATOM     70  O   UNL A   1      38.144  35.803  42.095  1.00  0.00    -0.744 OA
ENDBRANCH  63  67
ENDBRANCH  37  60
ENDBRANCH  11  12
ENDBRANCH   4   6
ENDBRANCH   3   4
ENDBRANCH   2   3
ENDBRANCH   1   2
BRANCH   1  71
ATOM     71  O   UNL A   1      44.934  41.805  24.315  1.00  0.00    -0.462 OA
BRANCH  71  72
ATOM     72  C   UNL A   1      44.400  42.987  23.858  1.00  0.00     0.310 C 
ATOM     73  O   UNL A   1      44.187  43.874  24.688  1.00  0.00    -0.252 OA
BRANCH  72  74
ATOM     74  C   UNL A   1      44.061  43.303  22.200  1.00  0.00     0.119 C 
ATOM     75  C   UNL A   1      44.305  44.290  20.669  1.00  0.00     0.100 C 
ATOM     76  C   UNL A   1      42.762  42.458  21.832  1.00  0.00     0.027 C 
ATOM     77  C   UNL A   1      43.062  43.512  19.835  1.00  0.00     0.025 C 
ATOM     78  C   UNL A   1      41.509  43.227  21.506  1.00  0.00    -0.027 C 
ATOM     79  C   UNL A   1      43.067  42.068  20.391  1.00  0.00     0.017 C 
ATOM     80  C   UNL A   1      41.674  43.822  20.317  1.00  0.00    -0.027 C 
BRANCH  75  81
ATOM     81  C   UNL A   1      45.248  45.936  20.122  1.00  0.00     0.229 C 
ATOM     82  O   UNL A   1      46.058  46.420  20.945  1.00  0.00    -0.274 OA
ATOM     83  N   UNL A   1      45.214  46.814  18.638  1.00  0.00    -0.323 N 
ATOM     84  H   UNL A   1      46.091  47.117  18.308  1.00  0.00     0.170 HD
BRANCH  83  85
ATOM     85  C   UNL A   1      43.818  47.249  17.614  1.00  0.00     0.084 A 
ATOM     86  C   UNL A   1      42.764  46.398  17.417  1.00  0.00     0.030 A 
ATOM     87  C   UNL A   1      43.764  48.797  16.802  1.00  0.00     0.149 A 
ATOM     88  C   UNL A   1      41.694  46.916  16.637  1.00  0.00     0.002 A 
ATOM     89  C   UNL A   1      42.640  49.185  16.058  1.00  0.00     0.049 A 
ATOM     90  C   UNL A   1      41.631  48.218  16.009  1.00  0.00     0.004 A 
BRANCH  87  91
ATOM     91  O   UNL A   1      45.386  49.911  17.055  1.00  0.00    -0.433 OA
BRANCH  91  92
ATOM     92  C   UNL A   1      47.158  49.397  17.251  1.00  0.00     0.542 C 
ATOM     93  F   UNL A   1      47.782  49.600  18.420  1.00  0.00    -0.167 F 
ATOM     94  F   UNL A   1      47.586  48.184  16.762  1.00  0.00    -0.167 F 
ENDBRANCH  91  92
ENDBRANCH  87  91
ENDBRANCH  83  85
ENDBRANCH  75  81
ENDBRANCH  72  74
ENDBRANCH  71  72
ENDBRANCH   1  71
TORSDOF 18
ENDMDL
