MODEL 1
REMARK VINA RESULT:     -12.0      0.000      0.000
REMARK SMILES CC(C)(C)OC(=O)N1CCC[C@@]1(Cc1ccc(C(C)(C)C)cc1)C(=O)OCCOC(=O)c1ccc(-c2c3nc(c(-c4cc(S(=O)(=O)[O-])ccc4F)c4ccc([nH]4)c(-c4cc(S(=O)(=O)[O-])ccc4F)c4nc(c(-c5cc(S(=O)(=O)[O-])ccc5F)c5ccc2[nH]5)C=C4)C=C3)cc1
REMARK SMILES IDX 27 1 26 2 24 3 25 4 12 5 8 6 9 7 10 8 11 9 6 10 7 11 5 12
REMARK SMILES IDX 2 13 1 14 3 15 4 16 13 17 14 18 15 19 23 20 16 21 22 22
REMARK SMILES IDX 17 23 18 24 19 25 20 26 21 27 28 28 29 29 30 30 31 31 32 32
REMARK SMILES IDX 33 33 94 34 34 35 93 36 35 37 36 38 37 39 87 40 38 41 92 42
REMARK SMILES IDX 86 43 88 44 39 45 91 46 85 47 84 48 40 50 72 51 52 52 71 53
REMARK SMILES IDX 53 54 56 55 70 56 89 57 54 58 55 59 69 61 90 62 57 63 41 64
REMARK SMILES IDX 42 65 50 66 43 67 49 68 51 69 48 70 44 71 45 72 46 73 47 74
REMARK SMILES IDX 73 75 74 76 82 77 75 78 81 79 83 80 80 81 76 82 77 83 78 84
REMARK SMILES IDX 79 85 58 86 59 87 67 88 60 89 66 90 68 91 65 92 61 93 62 94
REMARK SMILES IDX 63 95 64 96
REMARK H PARENT 88 49 56 60
REMARK Flexibility Score: inf
ROOT
ATOM      1  C   UNL A   1      37.482  20.018  24.746  1.00  0.00     0.274 C 
ENDROOT
BRANCH   1   2
ATOM      2  O   UNL A   1      36.671  20.982  25.445  1.00  0.00    -0.460 OA
BRANCH   2   3
ATOM      3  C   UNL A   1      35.926  21.824  24.661  1.00  0.00     0.332 C 
ATOM      4  O   UNL A   1      36.303  22.197  23.558  1.00  0.00    -0.249 OA
BRANCH   3   5
ATOM      5  C   UNL A   1      34.628  22.316  25.380  1.00  0.00     0.147 C 
ATOM      6  N   UNL A   1      33.824  21.180  25.932  1.00  0.00    -0.291 N 
ATOM      7  C   UNL A   1      33.726  21.222  27.381  1.00  0.00     0.124 C 
ATOM      8  C   UNL A   1      33.976  22.675  27.722  1.00  0.00     0.025 C 
ATOM      9  C   UNL A   1      34.988  23.114  26.669  1.00  0.00     0.043 C 
BRANCH   6  10
ATOM     10  C   UNL A   1      33.167  20.269  25.128  1.00  0.00     0.411 C 
ATOM     11  O   UNL A   1      31.976  20.345  24.865  1.00  0.00    -0.224 OA
BRANCH  10  12
ATOM     12  O   UNL A   1      33.972  19.258  24.715  1.00  0.00    -0.444 OA
BRANCH  12  13
ATOM     13  C   UNL A   1      33.418  17.957  24.364  1.00  0.00     0.106 C 
ATOM     14  C   UNL A   1      34.635  17.065  24.081  1.00  0.00     0.056 C 
ATOM     15  C   UNL A   1      32.586  18.090  23.089  1.00  0.00     0.056 C 
ATOM     16  C   UNL A   1      32.603  17.297  25.489  1.00  0.00     0.056 C 
ENDBRANCH  12  13
ENDBRANCH  10  12
ENDBRANCH   6  10
BRANCH   5  17
ATOM     17  C   UNL A   1      33.744  23.145  24.399  1.00  0.00     0.076 C 
BRANCH  17  18
ATOM     18  C   UNL A   1      33.347  24.523  24.863  1.00  0.00    -0.045 A 
ATOM     19  C   UNL A   1      32.109  24.749  25.459  1.00  0.00     0.004 A 
ATOM     20  C   UNL A   1      34.219  25.603  24.698  1.00  0.00     0.004 A 
ATOM     21  C   UNL A   1      31.792  26.012  25.963  1.00  0.00     0.004 A 
ATOM     22  C   UNL A   1      33.918  26.852  25.236  1.00  0.00     0.004 A 
ATOM     23  C   UNL A   1      32.713  27.076  25.917  1.00  0.00    -0.043 A 
BRANCH  23  24
ATOM     24  C   UNL A   1      32.389  28.439  26.542  1.00  0.00    -0.013 C 
ATOM     25  C   UNL A   1      31.513  28.199  27.784  1.00  0.00     0.016 C 
ATOM     26  C   UNL A   1      33.670  29.196  26.959  1.00  0.00     0.016 C 
ATOM     27  C   UNL A   1      31.628  29.376  25.573  1.00  0.00     0.016 C 
ENDBRANCH  23  24
ENDBRANCH  17  18
ENDBRANCH   5  17
ENDBRANCH   3   5
ENDBRANCH   2   3
ENDBRANCH   1   2
BRANCH   1  28
ATOM     28  C   UNL A   1      38.695  19.571  25.562  1.00  0.00     0.275 C 
BRANCH  28  29
ATOM     29  O   UNL A   1      39.680  20.614  25.652  1.00  0.00    -0.458 OA
BRANCH  29  30
ATOM     30  C   UNL A   1      40.408  20.598  26.790  1.00  0.00     0.338 C 
ATOM     31  O   UNL A   1      40.923  19.632  27.328  1.00  0.00    -0.246 OA
BRANCH  30  32
ATOM     32  C   UNL A   1      40.611  21.969  27.270  1.00  0.00     0.060 A 
ATOM     33  C   UNL A   1      39.878  22.981  26.660  1.00  0.00     0.016 A 
ATOM     34  C   UNL A   1      41.628  22.279  28.167  1.00  0.00     0.016 A 
ATOM     35  C   UNL A   1      40.205  24.311  26.865  1.00  0.00     0.010 A 
ATOM     36  C   UNL A   1      41.908  23.623  28.436  1.00  0.00     0.010 A 
ATOM     37  C   UNL A   1      41.220  24.649  27.761  1.00  0.00    -0.014 A 
BRANCH  37  38
ATOM     38  C   UNL A   1      41.622  26.069  27.916  1.00  0.00     0.031 A 
ATOM     39  C   UNL A   1      42.950  26.513  27.372  1.00  0.00     0.074 A 
ATOM     40  C   UNL A   1      40.798  26.957  28.504  1.00  0.00     0.049 A 
ATOM     41  N   UNL A   1      43.614  27.614  27.600  1.00  0.00    -0.248 NA
ATOM     42  C   UNL A   1      43.625  25.575  26.461  1.00  0.00     0.031 C 
ATOM     43  C   UNL A   1      39.442  26.667  28.974  1.00  0.00     0.029 A 
ATOM     44  N   UNL A   1      40.975  28.284  28.803  1.00  0.00    -0.354 N 
ATOM     45  C   UNL A   1      44.820  27.473  26.922  1.00  0.00     0.074 A 
ATOM     46  C   UNL A   1      44.786  26.183  26.265  1.00  0.00     0.031 C 
ATOM     47  C   UNL A   1      38.900  27.789  29.472  1.00  0.00     0.029 A 
ATOM     48  C   UNL A   1      39.907  28.844  29.468  1.00  0.00     0.049 A 
ATOM     49  H   UNL A   1      41.787  28.787  28.565  1.00  0.00     0.167 HD
ATOM     50  C   UNL A   1      45.861  28.340  26.879  1.00  0.00     0.034 A 
ATOM     51  C   UNL A   1      39.783  30.046  30.065  1.00  0.00     0.034 A 
ATOM     52  C   UNL A   1      45.842  29.629  27.529  1.00  0.00     0.049 A 
ATOM     53  C   UNL A   1      40.976  30.970  30.063  1.00  0.00     0.074 A 
ATOM     54  C   UNL A   1      46.841  30.584  27.587  1.00  0.00     0.029 A 
ATOM     55  N   UNL A   1      44.757  30.148  28.228  1.00  0.00    -0.354 N 
ATOM     56  N   UNL A   1      42.158  30.790  29.516  1.00  0.00    -0.248 NA
ATOM     57  C   UNL A   1      40.830  32.245  30.774  1.00  0.00     0.031 C 
ATOM     58  C   UNL A   1      46.385  31.648  28.373  1.00  0.00     0.029 A 
ATOM     59  C   UNL A   1      45.070  31.398  28.736  1.00  0.00     0.049 A 
ATOM     60  H   UNL A   1      43.892  29.693  28.344  1.00  0.00     0.167 HD
ATOM     61  C   UNL A   1      42.888  31.939  29.803  1.00  0.00     0.074 A 
ATOM     62  C   UNL A   1      42.007  32.812  30.554  1.00  0.00     0.031 C 
ATOM     63  C   UNL A   1      44.170  32.249  29.481  1.00  0.00     0.034 A 
BRANCH  50  64
ATOM     64  C   UNL A   1      47.125  27.874  26.195  1.00  0.00     0.023 A 
ATOM     65  C   UNL A   1      47.373  28.106  24.833  1.00  0.00     0.031 A 
ATOM     66  C   UNL A   1      48.078  27.132  26.919  1.00  0.00     0.131 A 
ATOM     67  C   UNL A   1      48.500  27.534  24.219  1.00  0.00     0.055 A 
ATOM     68  C   UNL A   1      49.240  26.640  26.322  1.00  0.00     0.041 A 
ATOM     69  F   UNL A   1      47.885  26.853  28.218  1.00  0.00    -0.206 F 
ATOM     70  C   UNL A   1      49.448  26.826  24.960  1.00  0.00     0.022 A 
BRANCH  67  71
ATOM     71  S   UNL A   1      48.629  27.597  22.411  1.00  0.00     0.124 S 
ATOM     72  O   UNL A   1      49.982  28.119  22.230  1.00  0.00    -0.237 OA
ATOM     73  O   UNL A   1      48.427  26.203  22.030  1.00  0.00    -0.237 OA
ATOM     74  O   UNL A   1      47.560  28.513  22.021  1.00  0.00    -0.744 OA
ENDBRANCH  67  71
ENDBRANCH  50  64
BRANCH  51  75
ATOM     75  C   UNL A   1      38.530  30.410  30.790  1.00  0.00     0.023 A 
ATOM     76  C   UNL A   1      37.519  31.156  30.164  1.00  0.00     0.031 A 
ATOM     77  C   UNL A   1      38.341  30.055  32.140  1.00  0.00     0.131 A 
ATOM     78  C   UNL A   1      36.387  31.554  30.894  1.00  0.00     0.055 A 
ATOM     79  C   UNL A   1      37.183  30.396  32.842  1.00  0.00     0.041 A 
ATOM     80  F   UNL A   1      39.279  29.355  32.797  1.00  0.00    -0.206 F 
ATOM     81  C   UNL A   1      36.203  31.163  32.222  1.00  0.00     0.022 A 
BRANCH  78  82
ATOM     82  S   UNL A   1      35.198  32.678  30.109  1.00  0.00     0.124 S 
ATOM     83  O   UNL A   1      36.050  33.805  29.749  1.00  0.00    -0.237 OA
ATOM     84  O   UNL A   1      34.701  31.869  29.002  1.00  0.00    -0.237 OA
ATOM     85  O   UNL A   1      34.228  32.942  31.170  1.00  0.00    -0.744 OA
ENDBRANCH  78  82
ENDBRANCH  51  75
BRANCH  63  86
ATOM     86  C   UNL A   1      44.666  33.615  29.884  1.00  0.00     0.023 A 
ATOM     87  C   UNL A   1      44.500  34.741  29.060  1.00  0.00     0.031 A 
ATOM     88  C   UNL A   1      45.314  33.785  31.121  1.00  0.00     0.131 A 
ATOM     89  C   UNL A   1      45.019  35.980  29.463  1.00  0.00     0.055 A 
ATOM     90  C   UNL A   1      45.776  35.032  31.542  1.00  0.00     0.041 A 
ATOM     91  F   UNL A   1      45.501  32.740  31.944  1.00  0.00    -0.206 F 
ATOM     92  C   UNL A   1      45.640  36.137  30.707  1.00  0.00     0.022 A 
BRANCH  89  93
ATOM     93  S   UNL A   1      44.947  37.375  28.305  1.00  0.00     0.124 S 
ATOM     94  O   UNL A   1      46.323  37.857  28.325  1.00  0.00    -0.237 OA
ATOM     95  O   UNL A   1      44.513  36.733  27.068  1.00  0.00    -0.237 OA
ATOM     96  O   UNL A   1      43.966  38.273  28.913  1.00  0.00    -0.744 OA
ENDBRANCH  89  93
ENDBRANCH  63  86
ENDBRANCH  37  38
ENDBRANCH  30  32
ENDBRANCH  29  30
ENDBRANCH  28  29
ENDBRANCH   1  28
TORSDOF 20
ENDMDL
MODEL 2
REMARK VINA RESULT:     -11.7      1.989      8.584
REMARK SMILES CC(C)(C)OC(=O)N1CCC[C@@]1(Cc1ccc(C(C)(C)C)cc1)C(=O)OCCOC(=O)c1ccc(-c2c3nc(c(-c4cc(S(=O)(=O)[O-])ccc4F)c4ccc([nH]4)c(-c4cc(S(=O)(=O)[O-])ccc4F)c4nc(c(-c5cc(S(=O)(=O)[O-])ccc5F)c5ccc2[nH]5)C=C4)C=C3)cc1
REMARK SMILES IDX 27 1 26 2 24 3 25 4 12 5 8 6 9 7 10 8 11 9 6 10 7 11 5 12
REMARK SMILES IDX 2 13 1 14 3 15 4 16 13 17 14 18 15 19 23 20 16 21 22 22
REMARK SMILES IDX 17 23 18 24 19 25 20 26 21 27 28 28 29 29 30 30 31 31 32 32
REMARK SMILES IDX 33 33 94 34 34 35 93 36 35 37 36 38 37 39 87 40 38 41 92 42
REMARK SMILES IDX 86 43 88 44 39 45 91 46 85 47 84 48 40 50 72 51 52 52 71 53
REMARK SMILES IDX 53 54 56 55 70 56 89 57 54 58 55 59 69 61 90 62 57 63 41 64
REMARK SMILES IDX 42 65 50 66 43 67 49 68 51 69 48 70 44 71 45 72 46 73 47 74
REMARK SMILES IDX 73 75 74 76 82 77 75 78 81 79 83 80 80 81 76 82 77 83 78 84
REMARK SMILES IDX 79 85 58 86 59 87 67 88 60 89 66 90 68 91 65 92 61 93 62 94
REMARK SMILES IDX 63 95 64 96
REMARK H PARENT 88 49 56 60
REMARK Flexibility Score: inf
ROOT
ATOM      1  C   UNL A   1      35.650  23.188  26.041  1.00  0.00     0.274 C 
ENDROOT
BRANCH   1   2
ATOM      2  O   UNL A   1      34.856  23.854  25.039  1.00  0.00    -0.460 OA
BRANCH   2   3
ATOM      3  C   UNL A   1      33.521  23.987  25.319  1.00  0.00     0.332 C 
ATOM      4  O   UNL A   1      33.088  23.975  26.464  1.00  0.00    -0.249 OA
BRANCH   3   5
ATOM      5  C   UNL A   1      32.643  24.042  24.027  1.00  0.00     0.147 C 
ATOM      6  N   UNL A   1      32.016  25.387  23.829  1.00  0.00    -0.291 N 
ATOM      7  C   UNL A   1      32.482  26.043  22.620  1.00  0.00     0.124 C 
ATOM      8  C   UNL A   1      32.966  24.904  21.749  1.00  0.00     0.025 C 
ATOM      9  C   UNL A   1      33.533  23.909  22.756  1.00  0.00     0.043 C 
BRANCH   6  10
ATOM     10  C   UNL A   1      31.027  25.881  24.657  1.00  0.00     0.411 C 
ATOM     11  O   UNL A   1      29.853  25.956  24.327  1.00  0.00    -0.224 OA
BRANCH  10  12
ATOM     12  O   UNL A   1      31.510  26.321  25.846  1.00  0.00    -0.444 OA
BRANCH  12  13
ATOM     13  C   UNL A   1      32.072  27.660  25.975  1.00  0.00     0.106 C 
ATOM     14  C   UNL A   1      31.759  28.089  27.416  1.00  0.00     0.056 C 
ATOM     15  C   UNL A   1      31.359  28.601  25.006  1.00  0.00     0.056 C 
ATOM     16  C   UNL A   1      33.596  27.722  25.786  1.00  0.00     0.056 C 
ENDBRANCH  12  13
ENDBRANCH  10  12
ENDBRANCH   6  10
BRANCH   5  17
ATOM     17  C   UNL A   1      31.526  22.955  24.083  1.00  0.00     0.076 C 
BRANCH  17  18
ATOM     18  C   UNL A   1      31.993  21.522  24.109  1.00  0.00    -0.045 A 
ATOM     19  C   UNL A   1      32.131  20.791  22.932  1.00  0.00     0.004 A 
ATOM     20  C   UNL A   1      32.292  20.899  25.324  1.00  0.00     0.004 A 
ATOM     21  C   UNL A   1      32.649  19.494  22.967  1.00  0.00     0.004 A 
ATOM     22  C   UNL A   1      32.846  19.620  25.354  1.00  0.00     0.004 A 
ATOM     23  C   UNL A   1      33.074  18.903  24.172  1.00  0.00    -0.043 A 
BRANCH  23  24
ATOM     24  C   UNL A   1      33.713  17.508  24.193  1.00  0.00    -0.013 C 
ATOM     25  C   UNL A   1      33.686  16.948  22.761  1.00  0.00     0.016 C 
ATOM     26  C   UNL A   1      35.174  17.557  24.695  1.00  0.00     0.016 C 
ATOM     27  C   UNL A   1      32.968  16.523  25.125  1.00  0.00     0.016 C 
ENDBRANCH  23  24
ENDBRANCH  17  18
ENDBRANCH   5  17
ENDBRANCH   3   5
ENDBRANCH   2   3
ENDBRANCH   1   2
BRANCH   1  28
ATOM     28  C   UNL A   1      36.151  21.820  25.577  1.00  0.00     0.275 C 
BRANCH  28  29
ATOM     29  O   UNL A   1      37.436  21.919  24.941  1.00  0.00    -0.458 OA
BRANCH  29  30
ATOM     30  C   UNL A   1      38.466  21.462  25.687  1.00  0.00     0.338 C 
ATOM     31  O   UNL A   1      38.913  20.328  25.719  1.00  0.00    -0.246 OA
BRANCH  30  32
ATOM     32  C   UNL A   1      39.088  22.575  26.411  1.00  0.00     0.060 A 
ATOM     33  C   UNL A   1      38.693  23.865  26.073  1.00  0.00     0.016 A 
ATOM     34  C   UNL A   1      40.164  22.369  27.269  1.00  0.00     0.016 A 
ATOM     35  C   UNL A   1      39.418  24.962  26.511  1.00  0.00     0.010 A 
ATOM     36  C   UNL A   1      40.849  23.479  27.776  1.00  0.00     0.010 A 
ATOM     37  C   UNL A   1      40.501  24.783  27.374  1.00  0.00    -0.014 A 
BRANCH  37  38
ATOM     38  C   UNL A   1      41.323  25.951  27.774  1.00  0.00     0.031 A 
ATOM     39  C   UNL A   1      40.711  27.006  28.650  1.00  0.00     0.074 A 
ATOM     40  C   UNL A   1      42.610  26.052  27.387  1.00  0.00     0.049 A 
ATOM     41  N   UNL A   1      41.136  28.210  28.920  1.00  0.00    -0.248 NA
ATOM     42  C   UNL A   1      39.435  26.655  29.295  1.00  0.00     0.031 C 
ATOM     43  C   UNL A   1      43.343  25.040  26.626  1.00  0.00     0.029 A 
ATOM     44  N   UNL A   1      43.530  27.050  27.585  1.00  0.00    -0.354 N 
ATOM     45  C   UNL A   1      40.146  28.792  29.704  1.00  0.00     0.074 A 
ATOM     46  C   UNL A   1      39.107  27.799  29.875  1.00  0.00     0.031 C 
ATOM     47  C   UNL A   1      44.607  25.454  26.449  1.00  0.00     0.029 A 
ATOM     48  C   UNL A   1      44.741  26.807  26.976  1.00  0.00     0.049 A 
ATOM     49  H   UNL A   1      43.343  27.861  28.111  1.00  0.00     0.167 HD
ATOM     50  C   UNL A   1      40.112  30.049  30.210  1.00  0.00     0.034 A 
ATOM     51  C   UNL A   1      45.809  27.611  26.805  1.00  0.00     0.034 A 
ATOM     52  C   UNL A   1      41.184  31.000  30.037  1.00  0.00     0.049 A 
ATOM     53  C   UNL A   1      45.724  29.028  27.317  1.00  0.00     0.074 A 
ATOM     54  C   UNL A   1      41.258  32.311  30.472  1.00  0.00     0.029 A 
ATOM     55  N   UNL A   1      42.382  30.733  29.380  1.00  0.00    -0.354 N 
ATOM     56  N   UNL A   1      44.740  29.614  27.963  1.00  0.00    -0.248 NA
ATOM     57  C   UNL A   1      46.878  29.897  27.061  1.00  0.00     0.031 C 
ATOM     58  C   UNL A   1      42.467  32.854  30.023  1.00  0.00     0.029 A 
ATOM     59  C   UNL A   1      43.188  31.859  29.381  1.00  0.00     0.049 A 
ATOM     60  H   UNL A   1      42.620  29.868  28.974  1.00  0.00     0.167 HD
ATOM     61  C   UNL A   1      45.168  30.916  28.205  1.00  0.00     0.074 A 
ATOM     62  C   UNL A   1      46.505  31.021  27.653  1.00  0.00     0.031 C 
ATOM     63  C   UNL A   1      44.519  31.936  28.824  1.00  0.00     0.034 A 
BRANCH  50  64
ATOM     64  C   UNL A   1      38.841  30.485  30.901  1.00  0.00     0.023 A 
ATOM     65  C   UNL A   1      37.747  31.018  30.201  1.00  0.00     0.031 A 
ATOM     66  C   UNL A   1      38.749  30.414  32.304  1.00  0.00     0.131 A 
ATOM     67  C   UNL A   1      36.646  31.531  30.906  1.00  0.00     0.055 A 
ATOM     68  C   UNL A   1      37.616  30.846  32.994  1.00  0.00     0.041 A 
ATOM     69  F   UNL A   1      39.773  29.941  33.033  1.00  0.00    -0.206 F 
ATOM     70  C   UNL A   1      36.561  31.424  32.296  1.00  0.00     0.022 A 
BRANCH  67  71
ATOM     71  S   UNL A   1      35.397  32.479  29.995  1.00  0.00     0.124 S 
ATOM     72  O   UNL A   1      35.020  31.538  28.943  1.00  0.00    -0.237 OA
ATOM     73  O   UNL A   1      34.385  32.733  31.015  1.00  0.00    -0.237 OA
ATOM     74  O   UNL A   1      36.128  33.657  29.534  1.00  0.00    -0.744 OA
ENDBRANCH  67  71
ENDBRANCH  50  64
BRANCH  51  75
ATOM     75  C   UNL A   1      47.003  27.139  26.043  1.00  0.00     0.023 A 
ATOM     76  C   UNL A   1      48.085  26.527  26.696  1.00  0.00     0.031 A 
ATOM     77  C   UNL A   1      47.102  27.332  24.651  1.00  0.00     0.131 A 
ATOM     78  C   UNL A   1      49.230  26.166  25.967  1.00  0.00     0.055 A 
ATOM     79  C   UNL A   1      48.215  26.911  23.921  1.00  0.00     0.041 A 
ATOM     80  F   UNL A   1      46.106  27.925  23.974  1.00  0.00    -0.206 F 
ATOM     81  C   UNL A   1      49.295  26.336  24.582  1.00  0.00     0.022 A 
BRANCH  78  82
ATOM     82  S   UNL A   1      50.681  25.559  26.871  1.00  0.00     0.124 S 
ATOM     83  O   UNL A   1      50.108  24.468  27.651  1.00  0.00    -0.237 OA
ATOM     84  O   UNL A   1      51.575  25.171  25.786  1.00  0.00    -0.237 OA
ATOM     85  O   UNL A   1      51.110  26.721  27.645  1.00  0.00    -0.744 OA
ENDBRANCH  78  82
ENDBRANCH  51  75
BRANCH  63  86
ATOM     86  C   UNL A   1      45.278  33.228  28.991  1.00  0.00     0.023 A 
ATOM     87  C   UNL A   1      45.130  34.300  28.094  1.00  0.00     0.031 A 
ATOM     88  C   UNL A   1      46.161  33.385  30.075  1.00  0.00     0.131 A 
ATOM     89  C   UNL A   1      45.892  35.464  28.270  1.00  0.00     0.055 A 
ATOM     90  C   UNL A   1      46.872  34.567  30.276  1.00  0.00     0.041 A 
ATOM     91  F   UNL A   1      46.341  32.389  30.958  1.00  0.00    -0.206 F 
ATOM     92  C   UNL A   1      46.748  35.612  29.366  1.00  0.00     0.022 A 
BRANCH  89  93
ATOM     93  S   UNL A   1      45.813  36.759  27.002  1.00  0.00     0.124 S 
ATOM     94  O   UNL A   1      46.483  36.121  25.874  1.00  0.00    -0.237 OA
ATOM     95  O   UNL A   1      44.376  36.967  26.856  1.00  0.00    -0.237 OA
ATOM     96  O   UNL A   1      46.540  37.874  27.605  1.00  0.00    -0.744 OA
ENDBRANCH  89  93
ENDBRANCH  63  86
ENDBRANCH  37  38
ENDBRANCH  30  32
ENDBRANCH  29  30
ENDBRANCH  28  29
ENDBRANCH   1  28
TORSDOF 20
ENDMDL
MODEL 3
REMARK VINA RESULT:     -11.6      4.875      7.444
REMARK SMILES CC(C)(C)OC(=O)N1CCC[C@@]1(Cc1ccc(C(C)(C)C)cc1)C(=O)OCCOC(=O)c1ccc(-c2c3nc(c(-c4cc(S(=O)(=O)[O-])ccc4F)c4ccc([nH]4)c(-c4cc(S(=O)(=O)[O-])ccc4F)c4nc(c(-c5cc(S(=O)(=O)[O-])ccc5F)c5ccc2[nH]5)C=C4)C=C3)cc1
REMARK SMILES IDX 27 1 26 2 24 3 25 4 12 5 8 6 9 7 10 8 11 9 6 10 7 11 5 12
REMARK SMILES IDX 2 13 1 14 3 15 4 16 13 17 14 18 15 19 23 20 16 21 22 22
REMARK SMILES IDX 17 23 18 24 19 25 20 26 21 27 28 28 29 29 30 30 31 31 32 32
REMARK SMILES IDX 33 33 94 34 34 35 93 36 35 37 36 38 37 39 87 40 38 41 92 42
REMARK SMILES IDX 86 43 88 44 39 45 91 46 85 47 84 48 40 50 72 51 52 52 71 53
REMARK SMILES IDX 53 54 56 55 70 56 89 57 54 58 55 59 69 61 90 62 57 63 41 64
REMARK SMILES IDX 42 65 50 66 43 67 49 68 51 69 48 70 44 71 45 72 46 73 47 74
REMARK SMILES IDX 73 75 74 76 82 77 75 78 81 79 83 80 80 81 76 82 77 83 78 84
REMARK SMILES IDX 79 85 58 86 59 87 67 88 60 89 66 90 68 91 65 92 61 93 62 94
REMARK SMILES IDX 63 95 64 96
REMARK H PARENT 88 49 56 60
REMARK Flexibility Score: inf
ROOT
ATOM      1  C   UNL A   1      33.639  28.535  25.226  1.00  0.00     0.274 C 
ENDROOT
BRANCH   1   2
ATOM      2  O   UNL A   1      33.036  27.250  25.476  1.00  0.00    -0.460 OA
BRANCH   2   3
ATOM      3  C   UNL A   1      33.072  26.356  24.439  1.00  0.00     0.332 C 
ATOM      4  O   UNL A   1      33.922  26.406  23.560  1.00  0.00    -0.249 OA
BRANCH   3   5
ATOM      5  C   UNL A   1      31.862  25.366  24.462  1.00  0.00     0.147 C 
ATOM      6  N   UNL A   1      32.304  23.937  24.516  1.00  0.00    -0.291 N 
ATOM      7  C   UNL A   1      31.888  23.273  25.739  1.00  0.00     0.124 C 
ATOM      8  C   UNL A   1      30.705  24.088  26.213  1.00  0.00     0.025 C 
ATOM      9  C   UNL A   1      31.066  25.509  25.794  1.00  0.00     0.043 C 
BRANCH   6  10
ATOM     10  C   UNL A   1      32.940  23.310  23.462  1.00  0.00     0.411 C 
ATOM     11  O   UNL A   1      32.391  22.492  22.740  1.00  0.00    -0.224 OA
BRANCH  10  12
ATOM     12  O   UNL A   1      34.246  23.661  23.355  1.00  0.00    -0.444 OA
BRANCH  12  13
ATOM     13  C   UNL A   1      35.262  23.022  24.184  1.00  0.00     0.106 C 
ATOM     14  C   UNL A   1      36.520  22.967  23.305  1.00  0.00     0.056 C 
ATOM     15  C   UNL A   1      34.819  21.598  24.517  1.00  0.00     0.056 C 
ATOM     16  C   UNL A   1      35.613  23.805  25.460  1.00  0.00     0.056 C 
ENDBRANCH  12  13
ENDBRANCH  10  12
ENDBRANCH   6  10
BRANCH   5  17
ATOM     17  C   UNL A   1      30.960  25.581  23.209  1.00  0.00     0.076 C 
BRANCH  17  18
ATOM     18  C   UNL A   1      30.310  26.935  23.080  1.00  0.00    -0.045 A 
ATOM     19  C   UNL A   1      29.005  27.148  23.517  1.00  0.00     0.004 A 
ATOM     20  C   UNL A   1      31.010  28.003  22.513  1.00  0.00     0.004 A 
ATOM     21  C   UNL A   1      28.449  28.428  23.472  1.00  0.00     0.004 A 
ATOM     22  C   UNL A   1      30.469  29.287  22.505  1.00  0.00     0.004 A 
ATOM     23  C   UNL A   1      29.190  29.537  23.021  1.00  0.00    -0.043 A 
BRANCH  23  24
ATOM     24  C   UNL A   1      28.601  30.954  23.047  1.00  0.00    -0.013 C 
ATOM     25  C   UNL A   1      27.155  30.861  23.563  1.00  0.00     0.016 C 
ATOM     26  C   UNL A   1      29.413  31.894  23.966  1.00  0.00     0.016 C 
ATOM     27  C   UNL A   1      28.587  31.620  21.651  1.00  0.00     0.016 C 
ENDBRANCH  23  24
ENDBRANCH  17  18
ENDBRANCH   5  17
ENDBRANCH   3   5
ENDBRANCH   2   3
ENDBRANCH   1   2
BRANCH   1  28
ATOM     28  C   UNL A   1      32.742  29.697  25.654  1.00  0.00     0.275 C 
BRANCH  28  29
ATOM     29  O   UNL A   1      32.863  29.963  27.061  1.00  0.00    -0.458 OA
BRANCH  29  30
ATOM     30  C   UNL A   1      33.472  31.132  27.359  1.00  0.00     0.338 C 
ATOM     31  O   UNL A   1      32.966  32.240  27.411  1.00  0.00    -0.246 OA
BRANCH  30  32
ATOM     32  C   UNL A   1      34.866  30.883  27.740  1.00  0.00     0.060 A 
ATOM     33  C   UNL A   1      35.207  29.592  28.130  1.00  0.00     0.016 A 
ATOM     34  C   UNL A   1      35.773  31.927  27.890  1.00  0.00     0.016 A 
ATOM     35  C   UNL A   1      36.418  29.341  28.754  1.00  0.00     0.010 A 
ATOM     36  C   UNL A   1      37.028  31.660  28.449  1.00  0.00     0.010 A 
ATOM     37  C   UNL A   1      37.347  30.371  28.915  1.00  0.00    -0.014 A 
BRANCH  37  38
ATOM     38  C   UNL A   1      38.606  30.116  29.657  1.00  0.00     0.031 A 
ATOM     39  C   UNL A   1      39.643  29.220  29.043  1.00  0.00     0.074 A 
ATOM     40  C   UNL A   1      38.835  30.704  30.847  1.00  0.00     0.049 A 
ATOM     41  N   UNL A   1      40.687  28.661  29.593  1.00  0.00    -0.248 NA
ATOM     42  C   UNL A   1      39.464  28.899  27.618  1.00  0.00     0.031 C 
ATOM     43  C   UNL A   1      37.950  31.676  31.491  1.00  0.00     0.029 A 
ATOM     44  N   UNL A   1      39.881  30.577  31.724  1.00  0.00    -0.354 N 
ATOM     45  C   UNL A   1      41.250  27.861  28.605  1.00  0.00     0.074 A 
ATOM     46  C   UNL A   1      40.436  28.021  27.419  1.00  0.00     0.031 C 
ATOM     47  C   UNL A   1      38.506  32.079  32.644  1.00  0.00     0.029 A 
ATOM     48  C   UNL A   1      39.722  31.309  32.879  1.00  0.00     0.049 A 
ATOM     49  H   UNL A   1      40.670  30.015  31.546  1.00  0.00     0.167 HD
ATOM     50  C   UNL A   1      42.336  27.055  28.700  1.00  0.00     0.034 A 
ATOM     51  C   UNL A   1      40.437  31.306  34.021  1.00  0.00     0.034 A 
ATOM     52  C   UNL A   1      43.136  26.945  29.896  1.00  0.00     0.049 A 
ATOM     53  C   UNL A   1      41.602  30.353  34.130  1.00  0.00     0.074 A 
ATOM     54  C   UNL A   1      44.238  26.143  30.130  1.00  0.00     0.029 A 
ATOM     55  N   UNL A   1      42.921  27.674  31.062  1.00  0.00    -0.354 N 
ATOM     56  N   UNL A   1      42.068  29.513  33.233  1.00  0.00    -0.248 NA
ATOM     57  C   UNL A   1      42.322  30.329  35.408  1.00  0.00     0.031 C 
ATOM     58  C   UNL A   1      44.649  26.338  31.454  1.00  0.00     0.029 A 
ATOM     59  C   UNL A   1      43.857  27.325  32.022  1.00  0.00     0.049 A 
ATOM     60  H   UNL A   1      42.208  28.341  31.186  1.00  0.00     0.167 HD
ATOM     61  C   UNL A   1      43.148  28.875  33.835  1.00  0.00     0.074 A 
ATOM     62  C   UNL A   1      43.276  29.442  35.163  1.00  0.00     0.031 C 
ATOM     63  C   UNL A   1      43.963  27.908  33.340  1.00  0.00     0.034 A 
BRANCH  50  64
ATOM     64  C   UNL A   1      42.646  26.167  27.518  1.00  0.00     0.023 A 
ATOM     65  C   UNL A   1      42.248  24.821  27.461  1.00  0.00     0.031 A 
ATOM     66  C   UNL A   1      43.409  26.670  26.447  1.00  0.00     0.131 A 
ATOM     67  C   UNL A   1      42.680  24.007  26.401  1.00  0.00     0.055 A 
ATOM     68  C   UNL A   1      43.762  25.878  25.353  1.00  0.00     0.041 A 
ATOM     69  F   UNL A   1      43.844  27.940  26.456  1.00  0.00    -0.206 F 
ATOM     70  C   UNL A   1      43.411  24.533  25.334  1.00  0.00     0.022 A 
BRANCH  67  71
ATOM     71  S   UNL A   1      42.405  22.217  26.513  1.00  0.00     0.124 S 
ATOM     72  O   UNL A   1      43.513  21.698  25.715  1.00  0.00    -0.237 OA
ATOM     73  O   UNL A   1      42.485  21.974  27.950  1.00  0.00    -0.237 OA
ATOM     74  O   UNL A   1      41.082  22.035  25.921  1.00  0.00    -0.744 OA
ENDBRANCH  67  71
ENDBRANCH  50  64
BRANCH  51  75
ATOM     75  C   UNL A   1      40.027  32.155  35.179  1.00  0.00     0.023 A 
ATOM     76  C   UNL A   1      39.165  31.661  36.172  1.00  0.00     0.031 A 
ATOM     77  C   UNL A   1      40.454  33.492  35.290  1.00  0.00     0.131 A 
ATOM     78  C   UNL A   1      38.731  32.505  37.206  1.00  0.00     0.055 A 
ATOM     79  C   UNL A   1      40.072  34.308  36.356  1.00  0.00     0.041 A 
ATOM     80  F   UNL A   1      41.267  34.026  34.363  1.00  0.00    -0.206 F 
ATOM     81  C   UNL A   1      39.193  33.819  37.316  1.00  0.00     0.022 A 
BRANCH  78  82
ATOM     82  S   UNL A   1      37.469  31.892  38.357  1.00  0.00     0.124 S 
ATOM     83  O   UNL A   1      36.395  32.858  38.161  1.00  0.00    -0.237 OA
ATOM     84  O   UNL A   1      37.225  30.546  37.850  1.00  0.00    -0.237 OA
ATOM     85  O   UNL A   1      38.136  31.954  39.657  1.00  0.00    -0.744 OA
ENDBRANCH  78  82
ENDBRANCH  51  75
BRANCH  63  86
ATOM     86  C   UNL A   1      45.100  27.455  34.220  1.00  0.00     0.023 A 
ATOM     87  C   UNL A   1      44.963  26.384  35.120  1.00  0.00     0.031 A 
ATOM     88  C   UNL A   1      46.342  28.110  34.150  1.00  0.00     0.131 A 
ATOM     89  C   UNL A   1      46.039  26.030  35.949  1.00  0.00     0.055 A 
ATOM     90  C   UNL A   1      47.425  27.716  34.934  1.00  0.00     0.041 A 
ATOM     91  F   UNL A   1      46.523  29.142  33.309  1.00  0.00    -0.206 F 
ATOM     92  C   UNL A   1      47.275  26.677  35.848  1.00  0.00     0.022 A 
BRANCH  89  93
ATOM     93  S   UNL A   1      45.781  24.763  37.221  1.00  0.00     0.124 S 
ATOM     94  O   UNL A   1      46.637  25.240  38.301  1.00  0.00    -0.237 OA
ATOM     95  O   UNL A   1      44.344  24.847  37.461  1.00  0.00    -0.237 OA
ATOM     96  O   UNL A   1      46.228  23.531  36.573  1.00  0.00    -0.744 OA
ENDBRANCH  89  93
ENDBRANCH  63  86
ENDBRANCH  37  38
ENDBRANCH  30  32
ENDBRANCH  29  30
ENDBRANCH  28  29
ENDBRANCH   1  28
TORSDOF 20
ENDMDL
