MODEL 1
REMARK VINA RESULT:     -12.2      0.000      0.000
REMARK SMILES CC(=O)Nc1ccc(/C=N/c2ccccc2C(=O)OCCOC(=O)c2ccc(-c3c4nc(c(-c5cc(S(=O)(=O)[O-])ccc5F)c5ccc([nH]5)c(-c5cc(S(=O)(=O)[O-])ccc5F)c5nc(c(-c6cc(S(=O)(=O)[O-])ccc6F)c6ccc3[nH]6)C=C5)C=C4)cc2)cc1
REMARK SMILES IDX 20 1 19 2 17 3 18 4 16 5 11 6 12 7 13 8 15 9 14 10 10 11
REMARK SMILES IDX 9 12 8 13 5 14 6 15 89 16 7 17 88 18 4 19 1 20 2 21 3 22
REMARK SMILES IDX 21 24 22 25 23 26 24 27 25 28 26 29 87 30 27 31 86 32 28 33
REMARK SMILES IDX 29 34 30 35 80 36 31 37 85 38 79 39 81 40 32 41 84 42 78 43
REMARK SMILES IDX 77 44 33 46 65 47 45 48 64 49 46 50 49 51 63 52 82 53 47 54
REMARK SMILES IDX 48 55 62 57 83 58 50 59 34 60 35 61 43 62 36 63 42 64 44 65
REMARK SMILES IDX 41 66 37 67 38 68 39 69 40 70 66 71 67 72 75 73 68 74 74 75
REMARK SMILES IDX 76 76 73 77 69 78 70 79 71 80 72 81 51 82 52 83 60 84 53 85
REMARK SMILES IDX 59 86 61 87 58 88 54 89 55 90 56 91 57 92
REMARK H PARENT 4 23 81 45 49 56
REMARK Flexibility Score: inf
ROOT
ATOM      1  C   UNL A   1      31.380  30.357  25.431  1.00  0.00     0.275 C 
ENDROOT
BRANCH   1   2
ATOM      2  O   UNL A   1      31.769  29.148  24.748  1.00  0.00    -0.458 OA
BRANCH   2   3
ATOM      3  C   UNL A   1      31.395  29.034  23.451  1.00  0.00     0.340 C 
ATOM      4  O   UNL A   1      32.139  28.847  22.500  1.00  0.00    -0.246 OA
BRANCH   3   5
ATOM      5  C   UNL A   1      29.926  29.156  23.286  1.00  0.00     0.085 A 
ATOM      6  C   UNL A   1      29.054  28.051  23.349  1.00  0.00     0.077 A 
ATOM      7  C   UNL A   1      27.679  28.283  23.207  1.00  0.00     0.029 A 
ATOM      8  C   UNL A   1      27.171  29.572  23.028  1.00  0.00     0.002 A 
ATOM      9  C   UNL A   1      29.407  30.455  23.147  1.00  0.00     0.018 A 
ATOM     10  C   UNL A   1      28.037  30.659  22.998  1.00  0.00     0.001 A 
BRANCH   6  11
ATOM     11  N   UNL A   1      29.454  26.709  23.500  1.00  0.00    -0.255 NA
ATOM     12  C   UNL A   1      29.814  26.311  24.676  1.00  0.00     0.119 C 
BRANCH  12  13
ATOM     13  C   UNL A   1      30.381  24.970  24.879  1.00  0.00    -0.007 A 
ATOM     14  C   UNL A   1      31.462  22.413  25.210  1.00  0.00     0.041 A 
ATOM     15  C   UNL A   1      31.008  23.140  26.319  1.00  0.00     0.027 A 
ATOM     16  C   UNL A   1      31.294  22.950  23.931  1.00  0.00     0.027 A 
ATOM     17  C   UNL A   1      30.476  24.420  26.157  1.00  0.00     0.012 A 
ATOM     18  C   UNL A   1      30.768  24.232  23.762  1.00  0.00     0.012 A 
BRANCH  14  19
ATOM     19  N   UNL A   1      32.036  21.159  25.464  1.00  0.00    -0.326 N 
ATOM     20  C   UNL A   1      34.409  21.606  24.839  1.00  0.00     0.114 C 
ATOM     21  C   UNL A   1      33.295  20.680  25.243  1.00  0.00     0.221 C 
ATOM     22  O   UNL A   1      33.519  19.482  25.440  1.00  0.00    -0.275 OA
ATOM     23  H   UNL A   1      31.421  20.508  25.874  1.00  0.00     0.169 HD
ENDBRANCH  14  19
ENDBRANCH  12  13
ENDBRANCH   6  11
ENDBRANCH   3   5
ENDBRANCH   2   3
ENDBRANCH   1   2
BRANCH   1  24
ATOM     24  C   UNL A   1      31.915  30.365  26.858  1.00  0.00     0.275 C 
BRANCH  24  25
ATOM     25  O   UNL A   1      33.346  30.439  26.809  1.00  0.00    -0.458 OA
BRANCH  25  26
ATOM     26  C   UNL A   1      33.891  31.497  27.449  1.00  0.00     0.338 C 
ATOM     27  O   UNL A   1      33.376  32.579  27.684  1.00  0.00    -0.246 OA
BRANCH  26  28
ATOM     28  C   UNL A   1      35.237  31.125  27.891  1.00  0.00     0.060 A 
ATOM     29  C   UNL A   1      35.507  29.782  28.151  1.00  0.00     0.016 A 
ATOM     30  C   UNL A   1      36.192  32.104  28.148  1.00  0.00     0.016 A 
ATOM     31  C   UNL A   1      36.708  29.414  28.745  1.00  0.00     0.010 A 
ATOM     32  C   UNL A   1      37.431  31.723  28.672  1.00  0.00     0.010 A 
ATOM     33  C   UNL A   1      37.688  30.380  29.010  1.00  0.00    -0.014 A 
BRANCH  33  34
ATOM     34  C   UNL A   1      38.943  30.010  29.719  1.00  0.00     0.031 A 
ATOM     35  C   UNL A   1      39.890  29.027  29.081  1.00  0.00     0.074 A 
ATOM     36  C   UNL A   1      39.245  30.547  30.917  1.00  0.00     0.049 A 
ATOM     37  N   UNL A   1      40.907  28.391  29.602  1.00  0.00    -0.248 NA
ATOM     38  C   UNL A   1      39.632  28.701  27.672  1.00  0.00     0.031 C 
ATOM     39  C   UNL A   1      38.448  31.554  31.619  1.00  0.00     0.029 A 
ATOM     40  N   UNL A   1      40.304  30.316  31.760  1.00  0.00    -0.354 N 
ATOM     41  C   UNL A   1      41.373  27.541  28.603  1.00  0.00     0.074 A 
ATOM     42  C   UNL A   1      40.513  27.736  27.454  1.00  0.00     0.031 C 
ATOM     43  C   UNL A   1      39.055  31.868  32.774  1.00  0.00     0.029 A 
ATOM     44  C   UNL A   1      40.230  31.021  32.939  1.00  0.00     0.049 A 
ATOM     45  H   UNL A   1      41.045  29.705  31.541  1.00  0.00     0.167 HD
ATOM     46  C   UNL A   1      42.420  26.678  28.647  1.00  0.00     0.034 A 
ATOM     47  C   UNL A   1      40.988  30.954  34.051  1.00  0.00     0.034 A 
ATOM     48  C   UNL A   1      43.287  26.533  29.793  1.00  0.00     0.049 A 
ATOM     49  C   UNL A   1      42.125  29.968  34.096  1.00  0.00     0.074 A 
ATOM     50  C   UNL A   1      44.379  25.698  29.953  1.00  0.00     0.029 A 
ATOM     51  N   UNL A   1      43.164  27.252  30.977  1.00  0.00    -0.354 N 
ATOM     52  N   UNL A   1      42.508  29.108  33.180  1.00  0.00    -0.248 NA
ATOM     53  C   UNL A   1      42.920  29.935  35.329  1.00  0.00     0.031 C 
ATOM     54  C   UNL A   1      44.882  25.872  31.249  1.00  0.00     0.029 A 
ATOM     55  C   UNL A   1      44.147  26.866  31.877  1.00  0.00     0.049 A 
ATOM     56  H   UNL A   1      42.478  27.936  31.152  1.00  0.00     0.167 HD
ATOM     57  C   UNL A   1      43.594  28.432  33.727  1.00  0.00     0.074 A 
ATOM     58  C   UNL A   1      43.817  29.002  35.041  1.00  0.00     0.031 C 
ATOM     59  C   UNL A   1      44.338  27.429  33.194  1.00  0.00     0.034 A 
BRANCH  46  60
ATOM     60  C   UNL A   1      42.629  25.786  27.444  1.00  0.00     0.023 A 
ATOM     61  C   UNL A   1      42.068  24.499  27.360  1.00  0.00     0.031 A 
ATOM     62  C   UNL A   1      43.466  26.205  26.393  1.00  0.00     0.131 A 
ATOM     63  C   UNL A   1      42.423  23.647  26.302  1.00  0.00     0.055 A 
ATOM     64  C   UNL A   1      43.744  25.384  25.297  1.00  0.00     0.041 A 
ATOM     65  F   UNL A   1      44.050  27.414  26.424  1.00  0.00    -0.206 F 
ATOM     66  C   UNL A   1      43.239  24.089  25.258  1.00  0.00     0.022 A 
BRANCH  63  67
ATOM     67  S   UNL A   1      41.948  21.899  26.402  1.00  0.00     0.124 S 
ATOM     68  O   UNL A   1      40.516  21.965  26.125  1.00  0.00    -0.237 OA
ATOM     69  O   UNL A   1      42.773  21.289  25.365  1.00  0.00    -0.237 OA
ATOM     70  O   UNL A   1      42.294  21.527  27.773  1.00  0.00    -0.744 OA
ENDBRANCH  63  67
ENDBRANCH  46  60
BRANCH  47  71
ATOM     71  C   UNL A   1      40.641  31.787  35.236  1.00  0.00     0.023 A 
ATOM     72  C   UNL A   1      39.521  31.497  36.030  1.00  0.00     0.031 A 
ATOM     73  C   UNL A   1      41.436  32.892  35.593  1.00  0.00     0.131 A 
ATOM     74  C   UNL A   1      39.218  32.312  37.132  1.00  0.00     0.055 A 
ATOM     75  C   UNL A   1      41.158  33.670  36.716  1.00  0.00     0.041 A 
ATOM     76  F   UNL A   1      42.519  33.210  34.866  1.00  0.00    -0.206 F 
ATOM     77  C   UNL A   1      40.037  33.386  37.490  1.00  0.00     0.022 A 
BRANCH  74  78
ATOM     78  S   UNL A   1      37.707  31.975  38.077  1.00  0.00     0.124 S 
ATOM     79  O   UNL A   1      36.823  33.038  37.616  1.00  0.00    -0.237 OA
ATOM     80  O   UNL A   1      37.370  30.624  37.640  1.00  0.00    -0.237 OA
ATOM     81  O   UNL A   1      38.144  32.084  39.469  1.00  0.00    -0.744 OA
ENDBRANCH  74  78
ENDBRANCH  47  71
BRANCH  59  82
ATOM     82  C   UNL A   1      45.478  26.913  34.034  1.00  0.00     0.023 A 
ATOM     83  C   UNL A   1      45.305  25.849  34.938  1.00  0.00     0.031 A 
ATOM     84  C   UNL A   1      46.747  27.510  33.946  1.00  0.00     0.131 A 
ATOM     85  C   UNL A   1      46.371  25.451  35.758  1.00  0.00     0.055 A 
ATOM     86  C   UNL A   1      47.819  27.074  34.726  1.00  0.00     0.041 A 
ATOM     87  F   UNL A   1      46.965  28.530  33.102  1.00  0.00    -0.206 F 
ATOM     88  C   UNL A   1      47.630  26.047  35.648  1.00  0.00     0.022 A 
BRANCH  85  89
ATOM     89  S   UNL A   1      46.068  24.201  37.037  1.00  0.00     0.124 S 
ATOM     90  O   UNL A   1      45.439  23.130  36.271  1.00  0.00    -0.237 OA
ATOM     91  O   UNL A   1      47.414  23.927  37.531  1.00  0.00    -0.237 OA
ATOM     92  O   UNL A   1      45.189  24.884  37.984  1.00  0.00    -0.744 OA
ENDBRANCH  85  89
ENDBRANCH  59  82
ENDBRANCH  33  34
ENDBRANCH  26  28
ENDBRANCH  25  26
ENDBRANCH  24  25
ENDBRANCH   1  24
TORSDOF 17
ENDMDL
MODEL 2
REMARK VINA RESULT:     -11.9      2.578      8.781
REMARK SMILES CC(=O)Nc1ccc(/C=N/c2ccccc2C(=O)OCCOC(=O)c2ccc(-c3c4nc(c(-c5cc(S(=O)(=O)[O-])ccc5F)c5ccc([nH]5)c(-c5cc(S(=O)(=O)[O-])ccc5F)c5nc(c(-c6cc(S(=O)(=O)[O-])ccc6F)c6ccc3[nH]6)C=C5)C=C4)cc2)cc1
REMARK SMILES IDX 20 1 19 2 17 3 18 4 16 5 11 6 12 7 13 8 15 9 14 10 10 11
REMARK SMILES IDX 9 12 8 13 5 14 6 15 89 16 7 17 88 18 4 19 1 20 2 21 3 22
REMARK SMILES IDX 21 24 22 25 23 26 24 27 25 28 26 29 87 30 27 31 86 32 28 33
REMARK SMILES IDX 29 34 30 35 80 36 31 37 85 38 79 39 81 40 32 41 84 42 78 43
REMARK SMILES IDX 77 44 33 46 65 47 45 48 64 49 46 50 49 51 63 52 82 53 47 54
REMARK SMILES IDX 48 55 62 57 83 58 50 59 34 60 35 61 43 62 36 63 42 64 44 65
REMARK SMILES IDX 41 66 37 67 38 68 39 69 40 70 66 71 67 72 75 73 68 74 74 75
REMARK SMILES IDX 76 76 73 77 69 78 70 79 71 80 72 81 51 82 52 83 60 84 53 85
REMARK SMILES IDX 59 86 61 87 58 88 54 89 55 90 56 91 57 92
REMARK H PARENT 4 23 81 45 49 56
REMARK Flexibility Score: inf
ROOT
ATOM      1  C   UNL A   1      33.637  27.629  25.328  1.00  0.00     0.275 C 
ENDROOT
BRANCH   1   2
ATOM      2  O   UNL A   1      33.354  26.700  26.393  1.00  0.00    -0.458 OA
BRANCH   2   3
ATOM      3  C   UNL A   1      32.069  26.288  26.517  1.00  0.00     0.340 C 
ATOM      4  O   UNL A   1      31.222  26.782  27.246  1.00  0.00    -0.246 OA
BRANCH   3   5
ATOM      5  C   UNL A   1      31.773  25.129  25.641  1.00  0.00     0.085 A 
ATOM      6  C   UNL A   1      30.884  25.201  24.552  1.00  0.00     0.077 A 
ATOM      7  C   UNL A   1      30.696  24.051  23.771  1.00  0.00     0.029 A 
ATOM      8  C   UNL A   1      31.383  22.866  24.043  1.00  0.00     0.002 A 
ATOM      9  C   UNL A   1      32.492  23.945  25.885  1.00  0.00     0.018 A 
ATOM     10  C   UNL A   1      32.282  22.813  25.102  1.00  0.00     0.001 A 
BRANCH   6  11
ATOM     11  N   UNL A   1      30.120  26.331  24.200  1.00  0.00    -0.255 NA
ATOM     12  C   UNL A   1      30.535  27.063  23.218  1.00  0.00     0.119 C 
BRANCH  12  13
ATOM     13  C   UNL A   1      29.873  28.334  22.890  1.00  0.00    -0.007 A 
ATOM     14  C   UNL A   1      28.566  30.727  22.277  1.00  0.00     0.041 A 
ATOM     15  C   UNL A   1      29.945  30.600  22.069  1.00  0.00     0.027 A 
ATOM     16  C   UNL A   1      27.839  29.617  22.718  1.00  0.00     0.027 A 
ATOM     17  C   UNL A   1      30.602  29.408  22.383  1.00  0.00     0.012 A 
ATOM     18  C   UNL A   1      28.491  28.425  23.039  1.00  0.00     0.012 A 
BRANCH  14  19
ATOM     19  N   UNL A   1      27.991  31.974  21.991  1.00  0.00    -0.326 N 
ATOM     20  C   UNL A   1      27.809  31.837  19.507  1.00  0.00     0.114 C 
ATOM     21  C   UNL A   1      27.711  32.590  20.805  1.00  0.00     0.221 C 
ATOM     22  O   UNL A   1      27.316  33.759  20.821  1.00  0.00    -0.275 OA
ATOM     23  H   UNL A   1      27.747  32.499  22.787  1.00  0.00     0.169 HD
ENDBRANCH  14  19
ENDBRANCH  12  13
ENDBRANCH   6  11
ENDBRANCH   3   5
ENDBRANCH   2   3
ENDBRANCH   1   2
BRANCH   1  24
ATOM     24  C   UNL A   1      33.764  29.047  25.868  1.00  0.00     0.275 C 
BRANCH  24  25
ATOM     25  O   UNL A   1      34.237  28.981  27.221  1.00  0.00    -0.458 OA
BRANCH  25  26
ATOM     26  C   UNL A   1      34.738  30.134  27.713  1.00  0.00     0.338 C 
ATOM     27  O   UNL A   1      34.192  31.225  27.773  1.00  0.00    -0.246 OA
BRANCH  26  28
ATOM     28  C   UNL A   1      36.077  29.866  28.244  1.00  0.00     0.060 A 
ATOM     29  C   UNL A   1      37.178  30.085  27.419  1.00  0.00     0.016 A 
ATOM     30  C   UNL A   1      36.236  29.303  29.507  1.00  0.00     0.016 A 
ATOM     31  C   UNL A   1      38.443  29.671  27.819  1.00  0.00     0.010 A 
ATOM     32  C   UNL A   1      37.520  28.961  29.940  1.00  0.00     0.010 A 
ATOM     33  C   UNL A   1      38.632  29.106  29.087  1.00  0.00    -0.014 A 
BRANCH  33  34
ATOM     34  C   UNL A   1      39.965  28.586  29.493  1.00  0.00     0.031 A 
ATOM     35  C   UNL A   1      40.713  29.263  30.611  1.00  0.00     0.074 A 
ATOM     36  C   UNL A   1      40.506  27.516  28.879  1.00  0.00     0.049 A 
ATOM     37  N   UNL A   1      41.963  29.135  30.975  1.00  0.00    -0.248 NA
ATOM     38  C   UNL A   1      39.951  30.236  31.405  1.00  0.00     0.031 C 
ATOM     39  C   UNL A   1      39.865  26.729  27.824  1.00  0.00     0.029 A 
ATOM     40  N   UNL A   1      41.725  26.906  29.052  1.00  0.00    -0.354 N 
ATOM     41  C   UNL A   1      42.155  30.058  32.001  1.00  0.00     0.074 A 
ATOM     42  C   UNL A   1      40.893  30.745  32.183  1.00  0.00     0.031 C 
ATOM     43  C   UNL A   1      40.685  25.733  27.459  1.00  0.00     0.029 A 
ATOM     44  C   UNL A   1      41.944  25.863  28.183  1.00  0.00     0.049 A 
ATOM     45  H   UNL A   1      42.378  27.189  29.733  1.00  0.00     0.167 HD
ATOM     46  C   UNL A   1      43.280  30.305  32.718  1.00  0.00     0.034 A 
ATOM     47  C   UNL A   1      43.051  25.129  27.953  1.00  0.00     0.034 A 
ATOM     48  C   UNL A   1      44.514  29.574  32.542  1.00  0.00     0.049 A 
ATOM     49  C   UNL A   1      44.301  25.438  28.733  1.00  0.00     0.074 A 
ATOM     50  C   UNL A   1      45.716  29.731  33.210  1.00  0.00     0.029 A 
ATOM     51  N   UNL A   1      44.700  28.538  31.634  1.00  0.00    -0.354 N 
ATOM     52  N   UNL A   1      44.499  26.366  29.641  1.00  0.00    -0.248 NA
ATOM     53  C   UNL A   1      45.478  24.610  28.446  1.00  0.00     0.031 C 
ATOM     54  C   UNL A   1      46.642  28.829  32.670  1.00  0.00     0.029 A 
ATOM     55  C   UNL A   1      46.001  28.060  31.711  1.00  0.00     0.049 A 
ATOM     56  H   UNL A   1      44.010  28.193  31.023  1.00  0.00     0.167 HD
ATOM     57  C   UNL A   1      45.826  26.231  30.036  1.00  0.00     0.074 A 
ATOM     58  C   UNL A   1      46.370  25.117  29.285  1.00  0.00     0.031 C 
ATOM     59  C   UNL A   1      46.532  26.964  30.935  1.00  0.00     0.034 A 
BRANCH  46  60
ATOM     60  C   UNL A   1      43.235  31.454  33.699  1.00  0.00     0.023 A 
ATOM     61  C   UNL A   1      42.813  31.286  35.030  1.00  0.00     0.031 A 
ATOM     62  C   UNL A   1      43.554  32.756  33.274  1.00  0.00     0.131 A 
ATOM     63  C   UNL A   1      42.631  32.407  35.855  1.00  0.00     0.055 A 
ATOM     64  C   UNL A   1      43.457  33.858  34.128  1.00  0.00     0.041 A 
ATOM     65  F   UNL A   1      43.943  32.987  32.009  1.00  0.00    -0.206 F 
ATOM     66  C   UNL A   1      42.972  33.690  35.420  1.00  0.00     0.022 A 
BRANCH  63  67
ATOM     67  S   UNL A   1      41.776  32.186  37.440  1.00  0.00     0.124 S 
ATOM     68  O   UNL A   1      41.880  33.522  38.021  1.00  0.00    -0.237 OA
ATOM     69  O   UNL A   1      40.441  31.772  37.023  1.00  0.00    -0.237 OA
ATOM     70  O   UNL A   1      42.565  31.158  38.115  1.00  0.00    -0.744 OA
ENDBRANCH  63  67
ENDBRANCH  46  60
BRANCH  47  71
ATOM     71  C   UNL A   1      43.044  24.092  26.884  1.00  0.00     0.023 A 
ATOM     72  C   UNL A   1      42.411  22.854  27.072  1.00  0.00     0.031 A 
ATOM     73  C   UNL A   1      43.674  24.332  25.649  1.00  0.00     0.131 A 
ATOM     74  C   UNL A   1      42.436  21.896  26.045  1.00  0.00     0.055 A 
ATOM     75  C   UNL A   1      43.655  23.396  24.615  1.00  0.00     0.041 A 
ATOM     76  F   UNL A   1      44.292  25.502  25.420  1.00  0.00    -0.206 F 
ATOM     77  C   UNL A   1      43.039  22.164  24.814  1.00  0.00     0.022 A 
BRANCH  74  78
ATOM     78  S   UNL A   1      41.699  20.267  26.355  1.00  0.00     0.124 S 
ATOM     79  O   UNL A   1      42.345  19.449  25.335  1.00  0.00    -0.237 OA
ATOM     80  O   UNL A   1      42.100  20.009  27.734  1.00  0.00    -0.237 OA
ATOM     81  O   UNL A   1      40.268  20.497  26.158  1.00  0.00    -0.744 OA
ENDBRANCH  74  78
ENDBRANCH  47  71
BRANCH  59  82
ATOM     82  C   UNL A   1      47.964  26.551  31.167  1.00  0.00     0.023 A 
ATOM     83  C   UNL A   1      48.297  25.512  32.054  1.00  0.00     0.031 A 
ATOM     84  C   UNL A   1      49.008  27.223  30.509  1.00  0.00     0.131 A 
ATOM     85  C   UNL A   1      49.645  25.211  32.301  1.00  0.00     0.055 A 
ATOM     86  C   UNL A   1      50.345  26.883  30.718  1.00  0.00     0.041 A 
ATOM     87  F   UNL A   1      48.745  28.224  29.654  1.00  0.00    -0.206 F 
ATOM     88  C   UNL A   1      50.670  25.880  31.628  1.00  0.00     0.022 A 
BRANCH  85  89
ATOM     89  S   UNL A   1      50.046  23.992  33.581  1.00  0.00     0.124 S 
ATOM     90  O   UNL A   1      50.988  24.729  34.418  1.00  0.00    -0.237 OA
ATOM     91  O   UNL A   1      48.741  23.723  34.177  1.00  0.00    -0.237 OA
ATOM     92  O   UNL A   1      50.624  22.880  32.829  1.00  0.00    -0.744 OA
ENDBRANCH  85  89
ENDBRANCH  59  82
ENDBRANCH  33  34
ENDBRANCH  26  28
ENDBRANCH  25  26
ENDBRANCH  24  25
ENDBRANCH   1  24
TORSDOF 17
ENDMDL
MODEL 3
REMARK VINA RESULT:     -11.8      1.798      2.448
REMARK SMILES CC(=O)Nc1ccc(/C=N/c2ccccc2C(=O)OCCOC(=O)c2ccc(-c3c4nc(c(-c5cc(S(=O)(=O)[O-])ccc5F)c5ccc([nH]5)c(-c5cc(S(=O)(=O)[O-])ccc5F)c5nc(c(-c6cc(S(=O)(=O)[O-])ccc6F)c6ccc3[nH]6)C=C5)C=C4)cc2)cc1
REMARK SMILES IDX 20 1 19 2 17 3 18 4 16 5 11 6 12 7 13 8 15 9 14 10 10 11
REMARK SMILES IDX 9 12 8 13 5 14 6 15 89 16 7 17 88 18 4 19 1 20 2 21 3 22
REMARK SMILES IDX 21 24 22 25 23 26 24 27 25 28 26 29 87 30 27 31 86 32 28 33
REMARK SMILES IDX 29 34 30 35 80 36 31 37 85 38 79 39 81 40 32 41 84 42 78 43
REMARK SMILES IDX 77 44 33 46 65 47 45 48 64 49 46 50 49 51 63 52 82 53 47 54
REMARK SMILES IDX 48 55 62 57 83 58 50 59 34 60 35 61 43 62 36 63 42 64 44 65
REMARK SMILES IDX 41 66 37 67 38 68 39 69 40 70 66 71 67 72 75 73 68 74 74 75
REMARK SMILES IDX 76 76 73 77 69 78 70 79 71 80 72 81 51 82 52 83 60 84 53 85
REMARK SMILES IDX 59 86 61 87 58 88 54 89 55 90 56 91 57 92
REMARK H PARENT 4 23 81 45 49 56
REMARK Flexibility Score: inf
ROOT
ATOM      1  C   UNL A   1      31.612  30.106  25.268  1.00  0.00     0.275 C 
ENDROOT
BRANCH   1   2
ATOM      2  O   UNL A   1      32.753  29.480  24.647  1.00  0.00    -0.458 OA
BRANCH   2   3
ATOM      3  C   UNL A   1      32.530  28.825  23.482  1.00  0.00     0.340 C 
ATOM      4  O   UNL A   1      33.108  29.022  22.424  1.00  0.00    -0.246 OA
BRANCH   3   5
ATOM      5  C   UNL A   1      31.473  27.795  23.620  1.00  0.00     0.085 A 
ATOM      6  C   UNL A   1      31.729  26.495  24.100  1.00  0.00     0.077 A 
ATOM      7  C   UNL A   1      30.650  25.607  24.216  1.00  0.00     0.029 A 
ATOM      8  C   UNL A   1      29.349  25.993  23.888  1.00  0.00     0.002 A 
ATOM      9  C   UNL A   1      30.155  28.191  23.330  1.00  0.00     0.018 A 
ATOM     10  C   UNL A   1      29.101  27.287  23.445  1.00  0.00     0.001 A 
BRANCH   6  11
ATOM     11  N   UNL A   1      33.000  25.989  24.435  1.00  0.00    -0.255 NA
ATOM     12  C   UNL A   1      33.411  24.927  23.822  1.00  0.00     0.119 C 
BRANCH  12  13
ATOM     13  C   UNL A   1      34.658  24.258  24.221  1.00  0.00    -0.007 A 
ATOM     14  C   UNL A   1      37.031  22.964  24.930  1.00  0.00     0.041 A 
ATOM     15  C   UNL A   1      36.288  23.658  25.893  1.00  0.00     0.027 A 
ATOM     16  C   UNL A   1      36.531  22.859  23.629  1.00  0.00     0.027 A 
ATOM     17  C   UNL A   1      35.107  24.312  25.540  1.00  0.00     0.012 A 
ATOM     18  C   UNL A   1      35.352  23.517  23.268  1.00  0.00     0.012 A 
BRANCH  14  19
ATOM     19  N   UNL A   1      38.236  22.382  25.353  1.00  0.00    -0.326 N 
ATOM     20  C   UNL A   1      37.734  19.967  24.980  1.00  0.00     0.114 C 
ATOM     21  C   UNL A   1      38.606  21.077  25.502  1.00  0.00     0.221 C 
ATOM     22  O   UNL A   1      39.697  20.823  26.019  1.00  0.00    -0.275 OA
ATOM     23  H   UNL A   1      38.939  23.031  25.583  1.00  0.00     0.169 HD
ENDBRANCH  14  19
ENDBRANCH  12  13
ENDBRANCH   6  11
ENDBRANCH   3   5
ENDBRANCH   2   3
ENDBRANCH   1   2
BRANCH   1  24
ATOM     24  C   UNL A   1      31.756  30.106  26.785  1.00  0.00     0.275 C 
BRANCH  24  25
ATOM     25  O   UNL A   1      33.153  30.103  27.111  1.00  0.00    -0.458 OA
BRANCH  25  26
ATOM     26  C   UNL A   1      33.673  31.308  27.431  1.00  0.00     0.338 C 
ATOM     27  O   UNL A   1      33.146  32.404  27.327  1.00  0.00    -0.246 OA
BRANCH  26  28
ATOM     28  C   UNL A   1      35.005  31.098  28.003  1.00  0.00     0.060 A 
ATOM     29  C   UNL A   1      35.371  29.809  28.388  1.00  0.00     0.016 A 
ATOM     30  C   UNL A   1      35.845  32.179  28.252  1.00  0.00     0.016 A 
ATOM     31  C   UNL A   1      36.547  29.601  29.098  1.00  0.00     0.010 A 
ATOM     32  C   UNL A   1      37.065  31.956  28.896  1.00  0.00     0.010 A 
ATOM     33  C   UNL A   1      37.412  30.672  29.359  1.00  0.00    -0.014 A 
BRANCH  33  34
ATOM     34  C   UNL A   1      38.632  30.475  30.188  1.00  0.00     0.031 A 
ATOM     35  C   UNL A   1      39.777  29.667  29.636  1.00  0.00     0.074 A 
ATOM     36  C   UNL A   1      38.727  31.014  31.418  1.00  0.00     0.049 A 
ATOM     37  N   UNL A   1      40.823  29.177  30.250  1.00  0.00    -0.248 NA
ATOM     38  C   UNL A   1      39.715  29.350  28.203  1.00  0.00     0.031 C 
ATOM     39  C   UNL A   1      37.718  31.867  32.050  1.00  0.00     0.029 A 
ATOM     40  N   UNL A   1      39.720  30.921  32.363  1.00  0.00    -0.354 N 
ATOM     41  C   UNL A   1      41.513  28.438  29.291  1.00  0.00     0.074 A 
ATOM     42  C   UNL A   1      40.751  28.537  28.063  1.00  0.00     0.031 C 
ATOM     43  C   UNL A   1      38.152  32.233  33.266  1.00  0.00     0.029 A 
ATOM     44  C   UNL A   1      39.421  31.569  33.538  1.00  0.00     0.049 A 
ATOM     45  H   UNL A   1      40.563  30.436  32.212  1.00  0.00     0.167 HD
ATOM     46  C   UNL A   1      42.670  27.744  29.429  1.00  0.00     0.034 A 
ATOM     47  C   UNL A   1      40.066  31.584  34.722  1.00  0.00     0.034 A 
ATOM     48  C   UNL A   1      43.431  27.697  30.657  1.00  0.00     0.049 A 
ATOM     49  C   UNL A   1      41.331  30.781  34.869  1.00  0.00     0.074 A 
ATOM     50  C   UNL A   1      44.617  27.032  30.916  1.00  0.00     0.029 A 
ATOM     51  N   UNL A   1      43.081  28.351  31.832  1.00  0.00    -0.354 N 
ATOM     52  N   UNL A   1      41.931  30.018  33.984  1.00  0.00    -0.248 NA
ATOM     53  C   UNL A   1      41.994  30.830  36.177  1.00  0.00     0.031 C 
ATOM     54  C   UNL A   1      44.955  27.240  32.260  1.00  0.00     0.029 A 
ATOM     55  C   UNL A   1      44.017  28.092  32.823  1.00  0.00     0.049 A 
ATOM     56  H   UNL A   1      42.284  28.918  31.946  1.00  0.00     0.167 HD
ATOM     57  C   UNL A   1      43.048  29.498  34.630  1.00  0.00     0.074 A 
ATOM     58  C   UNL A   1      43.049  30.054  35.969  1.00  0.00     0.031 C 
ATOM     59  C   UNL A   1      43.987  28.636  34.161  1.00  0.00     0.034 A 
BRANCH  46  60
ATOM     60  C   UNL A   1      43.133  26.931  28.241  1.00  0.00     0.023 A 
ATOM     61  C   UNL A   1      42.715  25.605  28.032  1.00  0.00     0.031 A 
ATOM     62  C   UNL A   1      44.067  27.472  27.339  1.00  0.00     0.131 A 
ATOM     63  C   UNL A   1      43.297  24.839  27.011  1.00  0.00     0.055 A 
ATOM     64  C   UNL A   1      44.576  26.732  26.269  1.00  0.00     0.041 A 
ATOM     65  F   UNL A   1      44.523  28.726  27.495  1.00  0.00    -0.206 F 
ATOM     66  C   UNL A   1      44.208  25.400  26.112  1.00  0.00     0.022 A 
BRANCH  63  67
ATOM     67  S   UNL A   1      42.981  23.052  26.981  1.00  0.00     0.124 S 
ATOM     68  O   UNL A   1      42.416  22.830  28.310  1.00  0.00    -0.237 OA
ATOM     69  O   UNL A   1      42.058  22.914  25.861  1.00  0.00    -0.237 OA
ATOM     70  O   UNL A   1      44.307  22.472  26.772  1.00  0.00    -0.744 OA
ENDBRANCH  63  67
ENDBRANCH  46  60
BRANCH  47  71
ATOM     71  C   UNL A   1      39.478  32.317  35.877  1.00  0.00     0.023 A 
ATOM     72  C   UNL A   1      38.679  31.664  36.827  1.00  0.00     0.031 A 
ATOM     73  C   UNL A   1      39.715  33.694  36.047  1.00  0.00     0.131 A 
ATOM     74  C   UNL A   1      38.131  32.392  37.896  1.00  0.00     0.055 A 
ATOM     75  C   UNL A   1      39.209  34.403  37.136  1.00  0.00     0.041 A 
ATOM     76  F   UNL A   1      40.475  34.364  35.166  1.00  0.00    -0.206 F 
ATOM     77  C   UNL A   1      38.404  33.751  38.066  1.00  0.00     0.022 A 
BRANCH  74  78
ATOM     78  S   UNL A   1      37.018  31.542  39.049  1.00  0.00     0.124 S 
ATOM     79  O   UNL A   1      35.854  32.421  39.041  1.00  0.00    -0.237 OA
ATOM     80  O   UNL A   1      36.847  30.243  38.406  1.00  0.00    -0.237 OA
ATOM     81  O   UNL A   1      37.775  31.519  40.300  1.00  0.00    -0.744 OA
ENDBRANCH  74  78
ENDBRANCH  47  71
BRANCH  59  82
ATOM     82  C   UNL A   1      45.104  28.273  35.107  1.00  0.00     0.023 A 
ATOM     83  C   UNL A   1      45.019  27.152  35.952  1.00  0.00     0.031 A 
ATOM     84  C   UNL A   1      46.256  29.074  35.179  1.00  0.00     0.131 A 
ATOM     85  C   UNL A   1      46.045  26.895  36.873  1.00  0.00     0.055 A 
ATOM     86  C   UNL A   1      47.298  28.781  36.059  1.00  0.00     0.041 A 
ATOM     87  F   UNL A   1      46.386  30.157  34.396  1.00  0.00    -0.206 F 
ATOM     88  C   UNL A   1      47.190  27.693  36.922  1.00  0.00     0.022 A 
BRANCH  85  89
ATOM     89  S   UNL A   1      45.825  25.551  38.070  1.00  0.00     0.124 S 
ATOM     90  O   UNL A   1      46.867  24.611  37.667  1.00  0.00    -0.237 OA
ATOM     91  O   UNL A   1      46.037  26.229  39.345  1.00  0.00    -0.237 OA
ATOM     92  O   UNL A   1      44.457  25.097  37.830  1.00  0.00    -0.744 OA
ENDBRANCH  85  89
ENDBRANCH  59  82
ENDBRANCH  33  34
ENDBRANCH  26  28
ENDBRANCH  25  26
ENDBRANCH  24  25
ENDBRANCH   1  24
TORSDOF 17
ENDMDL
