MODEL 1
REMARK VINA RESULT:     -12.1      0.000      0.000
REMARK SMILES CCCc1cc2c(cc1Cl)C=C(C(=O)OCCOC(=O)c1ccc(-c3c4nc(c(-c5cc(S(=O)(=O)[O-])ccc5F)c5ccc([nH]5)c(-c5cc(S(=O)(=O)[O-])ccc5F)c5nc(c(-c6cc(S(=O)(=O)[O-])ccc6F)c6ccc3[nH]6)C=C5)C=C4)cc1)[C@@H](C(F)(F)F)O2
REMARK SMILES IDX 17 1 16 2 15 3 13 4 14 5 12 6 4 7 5 8 9 9 6 10 8 11 10 12
REMARK SMILES IDX 7 13 89 14 11 15 84 16 3 17 2 18 1 19 85 20 86 21 87 22
REMARK SMILES IDX 88 23 18 24 19 25 20 26 21 27 22 28 83 29 23 30 82 31 24 32
REMARK SMILES IDX 25 33 26 34 76 35 27 36 81 37 75 38 77 39 28 40 80 41 74 42
REMARK SMILES IDX 73 43 29 45 61 46 41 47 60 48 42 49 45 50 59 51 78 52 43 53
REMARK SMILES IDX 44 54 58 56 79 57 46 58 30 59 31 60 39 61 32 62 38 63 40 64
REMARK SMILES IDX 37 65 33 66 34 67 35 68 36 69 62 70 63 71 71 72 64 73 70 74
REMARK SMILES IDX 72 75 69 76 65 77 66 78 67 79 68 80 47 81 48 82 56 83 49 84
REMARK SMILES IDX 55 85 57 86 54 87 50 88 51 89 52 90 53 91
REMARK H PARENT 77 44 45 55
REMARK Flexibility Score: inf
ROOT
ATOM      1  C   UNL A   1      32.882  29.925  25.461  1.00  0.00     0.275 C 
ENDROOT
BRANCH   1   2
ATOM      2  C   UNL A   1      32.840  28.464  24.997  1.00  0.00     0.275 C 
BRANCH   2   3
ATOM      3  O   UNL A   1      33.086  27.542  26.081  1.00  0.00    -0.459 OA
BRANCH   3   4
ATOM      4  C   UNL A   1      32.004  26.871  26.544  1.00  0.00     0.338 C 
ATOM      5  O   UNL A   1      31.059  27.358  27.151  1.00  0.00    -0.246 OA
BRANCH   4   6
ATOM      6  C   UNL A   1      32.065  25.447  26.150  1.00  0.00     0.087 C 
ATOM      7  C   UNL A   1      33.554  20.790  24.936  1.00  0.00    -0.026 A 
ATOM      8  C   UNL A   1      32.303  21.426  25.052  1.00  0.00     0.052 A 
ATOM      9  C   UNL A   1      34.686  21.479  25.410  1.00  0.00     0.045 A 
ATOM     10  C   UNL A   1      32.203  22.755  25.467  1.00  0.00     0.128 A 
ATOM     11  C   UNL A   1      34.585  22.799  25.849  1.00  0.00     0.032 A 
ATOM     12  Cl  UNL A   1      36.254  20.751  25.445  1.00  0.00    -0.084 Cl
ATOM     13  C   UNL A   1      33.353  23.452  25.812  1.00  0.00     0.019 A 
ATOM     14  O   UNL A   1      30.950  23.299  25.506  1.00  0.00    -0.475 OA
ATOM     15  C   UNL A   1      33.267  24.861  26.128  1.00  0.00     0.027 C 
ATOM     16  C   UNL A   1      30.821  24.739  25.692  1.00  0.00     0.316 C 
BRANCH   7  17
ATOM     17  C   UNL A   1      33.720  19.427  24.295  1.00  0.00     0.037 C 
BRANCH  17  18
ATOM     18  C   UNL A   1      32.536  18.455  24.319  1.00  0.00     0.001 C 
ATOM     19  C   UNL A   1      32.606  17.423  25.439  1.00  0.00     0.004 C 
ENDBRANCH  17  18
ENDBRANCH   7  17
BRANCH  16  20
ATOM     20  C   UNL A   1      30.340  25.361  24.369  1.00  0.00     0.430 C 
ATOM     21  F   UNL A   1      29.868  24.419  23.516  1.00  0.00    -0.167 F 
ATOM     22  F   UNL A   1      29.328  26.241  24.569  1.00  0.00    -0.167 F 
ATOM     23  F   UNL A   1      31.328  26.027  23.727  1.00  0.00    -0.167 F 
ENDBRANCH  16  20
ENDBRANCH   4   6
ENDBRANCH   3   4
ENDBRANCH   2   3
ENDBRANCH   1   2
BRANCH   1  24
ATOM     24  O   UNL A   1      33.017  30.033  26.890  1.00  0.00    -0.458 OA
BRANCH  24  25
ATOM     25  C   UNL A   1      33.561  31.195  27.322  1.00  0.00     0.338 C 
ATOM     26  O   UNL A   1      32.986  32.259  27.478  1.00  0.00    -0.246 OA
BRANCH  25  27
ATOM     27  C   UNL A   1      34.936  30.959  27.788  1.00  0.00     0.060 A 
ATOM     28  C   UNL A   1      35.876  31.963  27.961  1.00  0.00     0.016 A 
ATOM     29  C   UNL A   1      35.231  29.663  28.189  1.00  0.00     0.016 A 
ATOM     30  C   UNL A   1      37.126  31.629  28.507  1.00  0.00     0.010 A 
ATOM     31  C   UNL A   1      36.423  29.348  28.825  1.00  0.00     0.010 A 
ATOM     32  C   UNL A   1      37.412  30.319  28.962  1.00  0.00    -0.014 A 
BRANCH  32  33
ATOM     33  C   UNL A   1      38.724  29.980  29.589  1.00  0.00     0.031 A 
ATOM     34  C   UNL A   1      39.112  30.509  30.952  1.00  0.00     0.074 A 
ATOM     35  C   UNL A   1      39.589  29.196  28.912  1.00  0.00     0.049 A 
ATOM     36  N   UNL A   1      40.148  30.193  31.690  1.00  0.00    -0.248 NA
ATOM     37  C   UNL A   1      38.263  31.552  31.554  1.00  0.00     0.031 C 
ATOM     38  C   UNL A   1      39.400  28.744  27.534  1.00  0.00     0.029 A 
ATOM     39  N   UNL A   1      40.776  28.616  29.290  1.00  0.00    -0.354 N 
ATOM     40  C   UNL A   1      40.067  30.989  32.830  1.00  0.00     0.074 A 
ATOM     41  C   UNL A   1      38.945  31.875  32.643  1.00  0.00     0.031 C 
ATOM     42  C   UNL A   1      40.373  27.878  27.217  1.00  0.00     0.029 A 
ATOM     43  C   UNL A   1      41.284  27.744  28.351  1.00  0.00     0.049 A 
ATOM     44  H   UNL A   1      41.219  28.804  30.148  1.00  0.00     0.167 HD
ATOM     45  C   UNL A   1      40.823  30.946  33.953  1.00  0.00     0.034 A 
ATOM     46  C   UNL A   1      42.340  26.905  28.406  1.00  0.00     0.034 A 
ATOM     47  C   UNL A   1      41.915  30.025  34.136  1.00  0.00     0.049 A 
ATOM     48  C   UNL A   1      43.124  26.813  29.691  1.00  0.00     0.074 A 
ATOM     49  C   UNL A   1      42.697  29.839  35.260  1.00  0.00     0.029 A 
ATOM     50  N   UNL A   1      42.370  29.130  33.179  1.00  0.00    -0.354 N 
ATOM     51  N   UNL A   1      42.947  27.472  30.812  1.00  0.00    -0.248 NA
ATOM     52  C   UNL A   1      44.234  25.851  29.735  1.00  0.00     0.031 C 
ATOM     53  C   UNL A   1      43.668  28.884  34.960  1.00  0.00     0.029 A 
ATOM     54  C   UNL A   1      43.433  28.402  33.683  1.00  0.00     0.049 A 
ATOM     55  H   UNL A   1      41.992  29.028  32.274  1.00  0.00     0.167 HD
ATOM     56  C   UNL A   1      43.896  26.979  31.703  1.00  0.00     0.074 A 
ATOM     57  C   UNL A   1      44.631  25.951  30.997  1.00  0.00     0.031 C 
ATOM     58  C   UNL A   1      44.136  27.350  32.986  1.00  0.00     0.034 A 
BRANCH  45  59
ATOM     59  C   UNL A   1      40.477  31.861  35.108  1.00  0.00     0.023 A 
ATOM     60  C   UNL A   1      39.489  31.487  36.040  1.00  0.00     0.031 A 
ATOM     61  C   UNL A   1      41.011  33.160  35.200  1.00  0.00     0.131 A 
ATOM     62  C   UNL A   1      39.039  32.412  36.991  1.00  0.00     0.055 A 
ATOM     63  C   UNL A   1      40.600  34.059  36.185  1.00  0.00     0.041 A 
ATOM     64  F   UNL A   1      41.946  33.577  34.331  1.00  0.00    -0.206 F 
ATOM     65  C   UNL A   1      39.598  33.691  37.077  1.00  0.00     0.022 A 
BRANCH  62  66
ATOM     66  S   UNL A   1      37.656  32.028  38.099  1.00  0.00     0.124 S 
ATOM     67  O   UNL A   1      38.256  32.238  39.414  1.00  0.00    -0.237 OA
ATOM     68  O   UNL A   1      36.662  33.021  37.702  1.00  0.00    -0.237 OA
ATOM     69  O   UNL A   1      37.326  30.643  37.782  1.00  0.00    -0.744 OA
ENDBRANCH  62  66
ENDBRANCH  45  59
BRANCH  46  70
ATOM     70  C   UNL A   1      42.615  26.009  27.242  1.00  0.00     0.023 A 
ATOM     71  C   UNL A   1      42.083  24.708  27.187  1.00  0.00     0.031 A 
ATOM     72  C   UNL A   1      43.515  26.393  26.230  1.00  0.00     0.131 A 
ATOM     73  C   UNL A   1      42.512  23.817  26.194  1.00  0.00     0.055 A 
ATOM     74  C   UNL A   1      43.877  25.528  25.195  1.00  0.00     0.041 A 
ATOM     75  F   UNL A   1      44.070  27.614  26.246  1.00  0.00    -0.206 F 
ATOM     76  C   UNL A   1      43.390  24.225  25.185  1.00  0.00     0.022 A 
BRANCH  73  77
ATOM     77  S   UNL A   1      42.068  22.059  26.269  1.00  0.00     0.124 S 
ATOM     78  O   UNL A   1      42.921  21.485  25.234  1.00  0.00    -0.237 OA
ATOM     79  O   UNL A   1      42.428  21.720  27.644  1.00  0.00    -0.237 OA
ATOM     80  O   UNL A   1      40.636  22.054  25.985  1.00  0.00    -0.744 OA
ENDBRANCH  73  77
ENDBRANCH  46  70
BRANCH  58  81
ATOM     81  C   UNL A   1      45.214  26.635  33.767  1.00  0.00     0.023 A 
ATOM     82  C   UNL A   1      44.873  25.514  34.550  1.00  0.00     0.031 A 
ATOM     83  C   UNL A   1      46.509  27.163  33.891  1.00  0.00     0.131 A 
ATOM     84  C   UNL A   1      45.796  24.992  35.461  1.00  0.00     0.055 A 
ATOM     85  C   UNL A   1      47.447  26.600  34.759  1.00  0.00     0.041 A 
ATOM     86  F   UNL A   1      46.878  28.242  33.183  1.00  0.00    -0.206 F 
ATOM     87  C   UNL A   1      47.086  25.523  35.562  1.00  0.00     0.022 A 
BRANCH  84  88
ATOM     88  S   UNL A   1      45.321  23.689  36.631  1.00  0.00     0.124 S 
ATOM     89  O   UNL A   1      46.621  23.213  37.096  1.00  0.00    -0.237 OA
ATOM     90  O   UNL A   1      44.539  24.431  37.617  1.00  0.00    -0.237 OA
ATOM     91  O   UNL A   1      44.567  22.741  35.817  1.00  0.00    -0.744 OA
ENDBRANCH  84  88
ENDBRANCH  58  81
ENDBRANCH  32  33
ENDBRANCH  25  27
ENDBRANCH  24  25
ENDBRANCH   1  24
TORSDOF 17
ENDMDL
MODEL 2
REMARK VINA RESULT:     -12.1      1.608      1.890
REMARK SMILES CCCc1cc2c(cc1Cl)C=C(C(=O)OCCOC(=O)c1ccc(-c3c4nc(c(-c5cc(S(=O)(=O)[O-])ccc5F)c5ccc([nH]5)c(-c5cc(S(=O)(=O)[O-])ccc5F)c5nc(c(-c6cc(S(=O)(=O)[O-])ccc6F)c6ccc3[nH]6)C=C5)C=C4)cc1)[C@@H](C(F)(F)F)O2
REMARK SMILES IDX 17 1 16 2 15 3 13 4 14 5 12 6 4 7 5 8 9 9 6 10 8 11 10 12
REMARK SMILES IDX 7 13 89 14 11 15 84 16 3 17 2 18 1 19 85 20 86 21 87 22
REMARK SMILES IDX 88 23 18 24 19 25 20 26 21 27 22 28 83 29 23 30 82 31 24 32
REMARK SMILES IDX 25 33 26 34 76 35 27 36 81 37 75 38 77 39 28 40 80 41 74 42
REMARK SMILES IDX 73 43 29 45 61 46 41 47 60 48 42 49 45 50 59 51 78 52 43 53
REMARK SMILES IDX 44 54 58 56 79 57 46 58 30 59 31 60 39 61 32 62 38 63 40 64
REMARK SMILES IDX 37 65 33 66 34 67 35 68 36 69 62 70 63 71 71 72 64 73 70 74
REMARK SMILES IDX 72 75 69 76 65 77 66 78 67 79 68 80 47 81 48 82 56 83 49 84
REMARK SMILES IDX 55 85 57 86 54 87 50 88 51 89 52 90 53 91
REMARK H PARENT 77 44 45 55
REMARK Flexibility Score: inf
ROOT
ATOM      1  C   UNL A   1      31.780  30.023  25.382  1.00  0.00     0.275 C 
ENDROOT
BRANCH   1   2
ATOM      2  C   UNL A   1      31.343  28.599  25.018  1.00  0.00     0.275 C 
BRANCH   2   3
ATOM      3  O   UNL A   1      32.293  27.607  25.467  1.00  0.00    -0.459 OA
BRANCH   3   4
ATOM      4  C   UNL A   1      33.065  27.047  24.505  1.00  0.00     0.338 C 
ATOM      5  O   UNL A   1      33.760  27.650  23.698  1.00  0.00    -0.246 OA
BRANCH   4   6
ATOM      6  C   UNL A   1      33.026  25.572  24.598  1.00  0.00     0.087 C 
ATOM      7  C   UNL A   1      34.185  20.673  24.777  1.00  0.00    -0.026 A 
ATOM      8  C   UNL A   1      32.985  21.406  24.863  1.00  0.00     0.052 A 
ATOM      9  C   UNL A   1      35.395  21.389  24.821  1.00  0.00     0.045 A 
ATOM     10  C   UNL A   1      32.987  22.801  24.827  1.00  0.00     0.128 A 
ATOM     11  C   UNL A   1      35.399  22.783  24.810  1.00  0.00     0.032 A 
ATOM     12  Cl  UNL A   1      36.930  20.593  24.858  1.00  0.00    -0.084 Cl
ATOM     13  C   UNL A   1      34.194  23.482  24.746  1.00  0.00     0.019 A 
ATOM     14  O   UNL A   1      31.771  23.423  24.873  1.00  0.00    -0.475 OA
ATOM     15  C   UNL A   1      34.194  24.920  24.589  1.00  0.00     0.027 C 
ATOM     16  C   UNL A   1      31.708  24.851  24.590  1.00  0.00     0.316 C 
BRANCH   7  17
ATOM     17  C   UNL A   1      34.210  19.168  24.603  1.00  0.00     0.037 C 
BRANCH  17  18
ATOM     18  C   UNL A   1      32.892  18.438  24.323  1.00  0.00     0.001 C 
ATOM     19  C   UNL A   1      32.871  17.686  22.997  1.00  0.00     0.004 C 
ENDBRANCH  17  18
ENDBRANCH   7  17
BRANCH  16  20
ATOM     20  C   UNL A   1      31.027  25.050  23.225  1.00  0.00     0.430 C 
ATOM     21  F   UNL A   1      30.040  24.144  23.021  1.00  0.00    -0.167 F 
ATOM     22  F   UNL A   1      30.452  26.274  23.125  1.00  0.00    -0.167 F 
ATOM     23  F   UNL A   1      31.899  24.933  22.196  1.00  0.00    -0.167 F 
ENDBRANCH  16  20
ENDBRANCH   4   6
ENDBRANCH   3   4
ENDBRANCH   2   3
ENDBRANCH   1   2
BRANCH   1  24
ATOM     24  O   UNL A   1      32.381  30.086  26.688  1.00  0.00    -0.458 OA
BRANCH  24  25
ATOM     25  C   UNL A   1      32.848  31.307  27.039  1.00  0.00     0.338 C 
ATOM     26  O   UNL A   1      32.215  32.350  27.075  1.00  0.00    -0.246 OA
BRANCH  25  27
ATOM     27  C   UNL A   1      34.207  31.185  27.584  1.00  0.00     0.060 A 
ATOM     28  C   UNL A   1      35.011  32.267  27.906  1.00  0.00     0.016 A 
ATOM     29  C   UNL A   1      34.625  29.899  27.901  1.00  0.00     0.016 A 
ATOM     30  C   UNL A   1      36.254  32.026  28.515  1.00  0.00     0.010 A 
ATOM     31  C   UNL A   1      35.803  29.663  28.596  1.00  0.00     0.010 A 
ATOM     32  C   UNL A   1      36.661  30.722  28.882  1.00  0.00    -0.014 A 
BRANCH  32  33
ATOM     33  C   UNL A   1      37.961  30.475  29.576  1.00  0.00     0.031 A 
ATOM     34  C   UNL A   1      38.223  30.987  30.974  1.00  0.00     0.074 A 
ATOM     35  C   UNL A   1      38.929  29.794  28.927  1.00  0.00     0.049 A 
ATOM     36  N   UNL A   1      39.239  30.735  31.763  1.00  0.00    -0.248 NA
ATOM     37  C   UNL A   1      37.252  31.929  31.557  1.00  0.00     0.031 C 
ATOM     38  C   UNL A   1      38.858  29.377  27.527  1.00  0.00     0.029 A 
ATOM     39  N   UNL A   1      40.139  29.307  29.356  1.00  0.00    -0.354 N 
ATOM     40  C   UNL A   1      39.025  31.480  32.920  1.00  0.00     0.074 A 
ATOM     41  C   UNL A   1      37.840  32.272  32.695  1.00  0.00     0.031 C 
ATOM     42  C   UNL A   1      39.921  28.611  27.241  1.00  0.00     0.029 A 
ATOM     43  C   UNL A   1      40.775  28.517  28.423  1.00  0.00     0.049 A 
ATOM     44  H   UNL A   1      40.515  29.501  30.245  1.00  0.00     0.167 HD
ATOM     45  C   UNL A   1      39.717  31.463  34.084  1.00  0.00     0.034 A 
ATOM     46  C   UNL A   1      41.897  27.771  28.514  1.00  0.00     0.034 A 
ATOM     47  C   UNL A   1      40.875  30.634  34.302  1.00  0.00     0.049 A 
ATOM     48  C   UNL A   1      42.612  27.702  29.840  1.00  0.00     0.074 A 
ATOM     49  C   UNL A   1      41.606  30.477  35.465  1.00  0.00     0.029 A 
ATOM     50  N   UNL A   1      41.460  29.817  33.347  1.00  0.00    -0.354 N 
ATOM     51  N   UNL A   1      42.314  28.302  30.969  1.00  0.00    -0.248 NA
ATOM     52  C   UNL A   1      43.799  26.839  29.919  1.00  0.00     0.031 C 
ATOM     53  C   UNL A   1      42.673  29.621  35.194  1.00  0.00     0.029 A 
ATOM     54  C   UNL A   1      42.553  29.166  33.890  1.00  0.00     0.049 A 
ATOM     55  H   UNL A   1      41.144  29.715  32.419  1.00  0.00     0.167 HD
ATOM     56  C   UNL A   1      43.252  27.862  31.898  1.00  0.00     0.074 A 
ATOM     57  C   UNL A   1      44.113  26.928  31.206  1.00  0.00     0.031 C 
ATOM     58  C   UNL A   1      43.385  28.206  33.204  1.00  0.00     0.034 A 
BRANCH  45  59
ATOM     59  C   UNL A   1      39.226  32.302  35.244  1.00  0.00     0.023 A 
ATOM     60  C   UNL A   1      39.704  33.614  35.425  1.00  0.00     0.031 A 
ATOM     61  C   UNL A   1      38.408  31.754  36.251  1.00  0.00     0.131 A 
ATOM     62  C   UNL A   1      39.396  34.314  36.599  1.00  0.00     0.055 A 
ATOM     63  C   UNL A   1      38.057  32.476  37.391  1.00  0.00     0.041 A 
ATOM     64  F   UNL A   1      37.934  30.502  36.138  1.00  0.00    -0.206 F 
ATOM     65  C   UNL A   1      38.565  33.758  37.576  1.00  0.00     0.022 A 
BRANCH  62  66
ATOM     66  S   UNL A   1      40.124  35.939  36.946  1.00  0.00     0.124 S 
ATOM     67  O   UNL A   1      39.776  36.689  35.742  1.00  0.00    -0.237 OA
ATOM     68  O   UNL A   1      39.413  36.339  38.156  1.00  0.00    -0.237 OA
ATOM     69  O   UNL A   1      41.546  35.658  37.112  1.00  0.00    -0.744 OA
ENDBRANCH  62  66
ENDBRANCH  45  59
BRANCH  46  70
ATOM     70  C   UNL A   1      42.315  26.945  27.341  1.00  0.00     0.023 A 
ATOM     71  C   UNL A   1      41.925  25.598  27.227  1.00  0.00     0.031 A 
ATOM     72  C   UNL A   1      43.213  27.451  26.384  1.00  0.00     0.131 A 
ATOM     73  C   UNL A   1      42.489  24.788  26.232  1.00  0.00     0.055 A 
ATOM     74  C   UNL A   1      43.710  26.661  25.344  1.00  0.00     0.041 A 
ATOM     75  F   UNL A   1      43.636  28.722  26.458  1.00  0.00    -0.206 F 
ATOM     76  C   UNL A   1      43.363  25.315  25.278  1.00  0.00     0.022 A 
BRANCH  73  77
ATOM     77  S   UNL A   1      42.228  22.992  26.240  1.00  0.00     0.124 S 
ATOM     78  O   UNL A   1      42.724  22.606  24.923  1.00  0.00    -0.237 OA
ATOM     79  O   UNL A   1      43.054  22.577  27.372  1.00  0.00    -0.237 OA
ATOM     80  O   UNL A   1      40.789  22.854  26.440  1.00  0.00    -0.744 OA
ENDBRANCH  73  77
ENDBRANCH  46  70
BRANCH  58  81
ATOM     81  C   UNL A   1      44.477  27.560  34.025  1.00  0.00     0.023 A 
ATOM     82  C   UNL A   1      44.145  26.534  34.932  1.00  0.00     0.031 A 
ATOM     83  C   UNL A   1      45.783  28.075  34.054  1.00  0.00     0.131 A 
ATOM     84  C   UNL A   1      45.089  26.096  35.867  1.00  0.00     0.055 A 
ATOM     85  C   UNL A   1      46.740  27.592  34.949  1.00  0.00     0.041 A 
ATOM     86  F   UNL A   1      46.145  29.066  33.224  1.00  0.00    -0.206 F 
ATOM     87  C   UNL A   1      46.388  26.612  35.873  1.00  0.00     0.022 A 
BRANCH  84  88
ATOM     88  S   UNL A   1      44.631  24.934  37.183  1.00  0.00     0.124 S 
ATOM     89  O   UNL A   1      45.102  25.630  38.378  1.00  0.00    -0.237 OA
ATOM     90  O   UNL A   1      43.181  24.859  37.036  1.00  0.00    -0.237 OA
ATOM     91  O   UNL A   1      45.361  23.715  36.848  1.00  0.00    -0.744 OA
ENDBRANCH  84  88
ENDBRANCH  58  81
ENDBRANCH  32  33
ENDBRANCH  25  27
ENDBRANCH  24  25
ENDBRANCH   1  24
TORSDOF 17
ENDMDL
MODEL 3
REMARK VINA RESULT:     -12.0      5.111      9.979
REMARK SMILES CCCc1cc2c(cc1Cl)C=C(C(=O)OCCOC(=O)c1ccc(-c3c4nc(c(-c5cc(S(=O)(=O)[O-])ccc5F)c5ccc([nH]5)c(-c5cc(S(=O)(=O)[O-])ccc5F)c5nc(c(-c6cc(S(=O)(=O)[O-])ccc6F)c6ccc3[nH]6)C=C5)C=C4)cc1)[C@@H](C(F)(F)F)O2
REMARK SMILES IDX 17 1 16 2 15 3 13 4 14 5 12 6 4 7 5 8 9 9 6 10 8 11 10 12
REMARK SMILES IDX 7 13 89 14 11 15 84 16 3 17 2 18 1 19 85 20 86 21 87 22
REMARK SMILES IDX 88 23 18 24 19 25 20 26 21 27 22 28 83 29 23 30 82 31 24 32
REMARK SMILES IDX 25 33 26 34 76 35 27 36 81 37 75 38 77 39 28 40 80 41 74 42
REMARK SMILES IDX 73 43 29 45 61 46 41 47 60 48 42 49 45 50 59 51 78 52 43 53
REMARK SMILES IDX 44 54 58 56 79 57 46 58 30 59 31 60 39 61 32 62 38 63 40 64
REMARK SMILES IDX 37 65 33 66 34 67 35 68 36 69 62 70 63 71 71 72 64 73 70 74
REMARK SMILES IDX 72 75 69 76 65 77 66 78 67 79 68 80 47 81 48 82 56 83 49 84
REMARK SMILES IDX 55 85 57 86 54 87 50 88 51 89 52 90 53 91
REMARK H PARENT 77 44 45 55
REMARK Flexibility Score: inf
ROOT
ATOM      1  C   UNL A   1      35.871  21.176  24.687  1.00  0.00     0.275 C 
ENDROOT
BRANCH   1   2
ATOM      2  C   UNL A   1      34.483  21.825  24.624  1.00  0.00     0.275 C 
BRANCH   2   3
ATOM      3  O   UNL A   1      34.552  23.266  24.700  1.00  0.00    -0.459 OA
BRANCH   3   4
ATOM      4  C   UNL A   1      33.627  23.863  25.489  1.00  0.00     0.338 C 
ATOM      5  O   UNL A   1      33.469  23.670  26.687  1.00  0.00    -0.246 OA
BRANCH   4   6
ATOM      6  C   UNL A   1      32.856  24.866  24.723  1.00  0.00     0.087 C 
ATOM      7  C   UNL A   1      30.389  28.984  23.197  1.00  0.00    -0.026 A 
ATOM      8  C   UNL A   1      30.693  27.742  22.607  1.00  0.00     0.052 A 
ATOM      9  C   UNL A   1      31.015  29.301  24.417  1.00  0.00     0.045 A 
ATOM     10  C   UNL A   1      31.458  26.790  23.281  1.00  0.00     0.128 A 
ATOM     11  C   UNL A   1      31.801  28.361  25.080  1.00  0.00     0.032 A 
ATOM     12  Cl  UNL A   1      30.825  30.846  25.170  1.00  0.00    -0.084 Cl
ATOM     13  C   UNL A   1      31.964  27.085  24.541  1.00  0.00     0.019 A 
ATOM     14  O   UNL A   1      31.665  25.598  22.645  1.00  0.00    -0.475 OA
ATOM     15  C   UNL A   1      32.656  26.060  25.291  1.00  0.00     0.027 C 
ATOM     16  C   UNL A   1      32.240  24.494  23.404  1.00  0.00     0.316 C 
BRANCH   7  17
ATOM     17  C   UNL A   1      29.395  29.954  22.590  1.00  0.00     0.037 C 
BRANCH  17  18
ATOM     18  C   UNL A   1      27.982  30.022  23.179  1.00  0.00     0.001 C 
ATOM     19  C   UNL A   1      27.566  31.417  23.630  1.00  0.00     0.004 C 
ENDBRANCH  17  18
ENDBRANCH   7  17
BRANCH  16  20
ATOM     20  C   UNL A   1      31.147  23.436  23.633  1.00  0.00     0.430 C 
ATOM     21  F   UNL A   1      30.035  23.701  22.905  1.00  0.00    -0.167 F 
ATOM     22  F   UNL A   1      31.563  22.199  23.265  1.00  0.00    -0.167 F 
ATOM     23  F   UNL A   1      30.770  23.362  24.931  1.00  0.00    -0.167 F 
ENDBRANCH  16  20
ENDBRANCH   4   6
ENDBRANCH   3   4
ENDBRANCH   2   3
ENDBRANCH   1   2
BRANCH   1  24
ATOM     24  O   UNL A   1      36.670  21.714  25.757  1.00  0.00    -0.458 OA
BRANCH  24  25
ATOM     25  C   UNL A   1      37.985  21.400  25.696  1.00  0.00     0.338 C 
ATOM     26  O   UNL A   1      38.493  20.502  25.044  1.00  0.00    -0.246 OA
BRANCH  25  27
ATOM     27  C   UNL A   1      38.777  22.433  26.377  1.00  0.00     0.060 A 
ATOM     28  C   UNL A   1      39.942  22.174  27.082  1.00  0.00     0.016 A 
ATOM     29  C   UNL A   1      38.375  23.746  26.172  1.00  0.00     0.016 A 
ATOM     30  C   UNL A   1      40.668  23.257  27.606  1.00  0.00     0.010 A 
ATOM     31  C   UNL A   1      39.142  24.821  26.597  1.00  0.00     0.010 A 
ATOM     32  C   UNL A   1      40.287  24.597  27.358  1.00  0.00    -0.014 A 
BRANCH  32  33
ATOM     33  C   UNL A   1      41.090  25.745  27.873  1.00  0.00     0.031 A 
ATOM     34  C   UNL A   1      42.530  25.954  27.463  1.00  0.00     0.074 A 
ATOM     35  C   UNL A   1      40.517  26.606  28.741  1.00  0.00     0.049 A 
ATOM     36  N   UNL A   1      43.314  26.976  27.708  1.00  0.00    -0.248 NA
ATOM     37  C   UNL A   1      43.199  24.873  26.717  1.00  0.00     0.031 C 
ATOM     38  C   UNL A   1      39.189  26.435  29.329  1.00  0.00     0.029 A 
ATOM     39  N   UNL A   1      40.954  27.802  29.255  1.00  0.00    -0.354 N 
ATOM     40  C   UNL A   1      44.549  26.658  27.149  1.00  0.00     0.074 A 
ATOM     41  C   UNL A   1      44.447  25.312  26.643  1.00  0.00     0.031 C 
ATOM     42  C   UNL A   1      38.877  27.529  30.037  1.00  0.00     0.029 A 
ATOM     43  C   UNL A   1      39.998  28.465  29.993  1.00  0.00     0.049 A 
ATOM     44  H   UNL A   1      41.863  28.153  29.110  1.00  0.00     0.167 HD
ATOM     45  C   UNL A   1      45.650  27.437  27.019  1.00  0.00     0.034 A 
ATOM     46  C   UNL A   1      40.004  29.698  30.543  1.00  0.00     0.034 A 
ATOM     47  C   UNL A   1      45.717  28.795  27.496  1.00  0.00     0.049 A 
ATOM     48  C   UNL A   1      41.206  30.582  30.322  1.00  0.00     0.074 A 
ATOM     49  C   UNL A   1      46.750  29.702  27.348  1.00  0.00     0.029 A 
ATOM     50  N   UNL A   1      44.713  29.442  28.199  1.00  0.00    -0.354 N 
ATOM     51  N   UNL A   1      42.313  30.317  29.666  1.00  0.00    -0.248 NA
ATOM     52  C   UNL A   1      41.158  31.937  30.887  1.00  0.00     0.031 C 
ATOM     53  C   UNL A   1      46.400  30.871  28.021  1.00  0.00     0.029 A 
ATOM     54  C   UNL A   1      45.109  30.732  28.507  1.00  0.00     0.049 A 
ATOM     55  H   UNL A   1      43.845  29.043  28.444  1.00  0.00     0.167 HD
ATOM     56  C   UNL A   1      43.073  31.482  29.710  1.00  0.00     0.074 A 
ATOM     57  C   UNL A   1      42.292  32.460  30.437  1.00  0.00     0.031 C 
ATOM     58  C   UNL A   1      44.308  31.714  29.198  1.00  0.00     0.034 A 
BRANCH  45  59
ATOM     59  C   UNL A   1      46.853  26.893  26.280  1.00  0.00     0.023 A 
ATOM     60  C   UNL A   1      47.914  26.300  26.990  1.00  0.00     0.031 A 
ATOM     61  C   UNL A   1      47.018  27.096  24.897  1.00  0.00     0.131 A 
ATOM     62  C   UNL A   1      49.104  25.972  26.325  1.00  0.00     0.055 A 
ATOM     63  C   UNL A   1      48.182  26.716  24.229  1.00  0.00     0.041 A 
ATOM     64  F   UNL A   1      46.045  27.670  24.170  1.00  0.00    -0.206 F 
ATOM     65  C   UNL A   1      49.238  26.164  24.947  1.00  0.00     0.022 A 
BRANCH  62  66
ATOM     66  S   UNL A   1      50.552  25.361  27.230  1.00  0.00     0.124 S 
ATOM     67  O   UNL A   1      49.988  24.243  27.983  1.00  0.00    -0.237 OA
ATOM     68  O   UNL A   1      51.455  24.989  26.145  1.00  0.00    -0.237 OA
ATOM     69  O   UNL A   1      50.970  26.503  28.036  1.00  0.00    -0.744 OA
ENDBRANCH  62  66
ENDBRANCH  45  59
BRANCH  46  70
ATOM     70  C   UNL A   1      38.775  30.188  31.238  1.00  0.00     0.023 A 
ATOM     71  C   UNL A   1      37.729  30.795  30.518  1.00  0.00     0.031 A 
ATOM     72  C   UNL A   1      38.683  30.172  32.641  1.00  0.00     0.131 A 
ATOM     73  C   UNL A   1      36.682  31.426  31.204  1.00  0.00     0.055 A 
ATOM     74  C   UNL A   1      37.596  30.731  33.318  1.00  0.00     0.041 A 
ATOM     75  F   UNL A   1      39.663  29.627  33.377  1.00  0.00    -0.206 F 
ATOM     76  C   UNL A   1      36.598  31.380  32.599  1.00  0.00     0.022 A 
BRANCH  73  77
ATOM     77  S   UNL A   1      35.481  32.458  30.318  1.00  0.00     0.124 S 
ATOM     78  O   UNL A   1      36.269  33.647  30.011  1.00  0.00    -0.237 OA
ATOM     79  O   UNL A   1      35.146  31.610  29.176  1.00  0.00    -0.237 OA
ATOM     80  O   UNL A   1      34.406  32.644  31.287  1.00  0.00    -0.744 OA
ENDBRANCH  73  77
ENDBRANCH  46  70
BRANCH  58  81
ATOM     81  C   UNL A   1      44.919  33.088  29.350  1.00  0.00     0.023 A 
ATOM     82  C   UNL A   1      44.855  33.997  28.275  1.00  0.00     0.031 A 
ATOM     83  C   UNL A   1      45.715  33.424  30.457  1.00  0.00     0.131 A 
ATOM     84  C   UNL A   1      45.617  35.169  28.305  1.00  0.00     0.055 A 
ATOM     85  C   UNL A   1      46.427  34.624  30.508  1.00  0.00     0.041 A 
ATOM     86  F   UNL A   1      45.827  32.584  31.498  1.00  0.00    -0.206 F 
ATOM     87  C   UNL A   1      46.395  35.493  29.421  1.00  0.00     0.022 A 
BRANCH  84  88
ATOM     88  S   UNL A   1      45.722  36.253  26.854  1.00  0.00     0.124 S 
ATOM     89  O   UNL A   1      44.433  36.938  26.896  1.00  0.00    -0.237 OA
ATOM     90  O   UNL A   1      46.880  37.083  27.174  1.00  0.00    -0.237 OA
ATOM     91  O   UNL A   1      45.900  35.332  25.736  1.00  0.00    -0.744 OA
ENDBRANCH  84  88
ENDBRANCH  58  81
ENDBRANCH  32  33
ENDBRANCH  25  27
ENDBRANCH  24  25
ENDBRANCH   1  24
TORSDOF 17
ENDMDL
