MODEL 1
REMARK VINA RESULT:     -11.1      0.000      0.000
REMARK SMILES COCC[C@@H](C)NC(=O)N1Cc2nc[nH]c2C[C@@H]1C(=O)OCCOC(=O)c1ccc(-c2c3nc(c(-c4cc(S(=O)(=O)[O-])ccc4F)c4ccc([nH]4)c(-c4cc(S(=O)(=O)[O-])ccc4F)c4nc(c(-c5cc(S(=O)(=O)[O-])ccc5F)c5ccc2[nH]5)C=C4)C=C3)cc1
REMARK SMILES IDX 22 1 21 2 19 3 20 4 18 5 10 6 11 7 12 8 17 9 13 10 16 11
REMARK SMILES IDX 14 12 15 13 8 15 7 16 9 18 5 19 6 20 4 21 3 22 2 23 1 24
REMARK SMILES IDX 23 25 24 26 25 27 26 28 27 29 28 30 89 31 29 32 88 33 30 34
REMARK SMILES IDX 31 35 32 36 82 37 33 38 87 39 81 40 83 41 34 42 86 43 80 44
REMARK SMILES IDX 79 45 35 47 67 48 47 49 66 50 48 51 51 52 65 53 84 54 49 55
REMARK SMILES IDX 50 56 64 58 85 59 52 60 36 61 37 62 45 63 38 64 44 65 46 66
REMARK SMILES IDX 43 67 39 68 40 69 41 70 42 71 68 72 69 73 77 74 70 75 76 76
REMARK SMILES IDX 78 77 75 78 71 79 72 80 73 81 74 82 53 83 54 84 62 85 55 86
REMARK SMILES IDX 61 87 63 88 60 89 56 90 57 91 58 92 59 93
REMARK H PARENT 15 14 7 17 83 46 51 57
REMARK Flexibility Score: inf
ROOT
ATOM      1  C   UNL A   1      34.737  29.537  27.345  1.00  0.00     0.274 C 
ENDROOT
BRANCH   1   2
ATOM      2  O   UNL A   1      33.796  30.208  26.471  1.00  0.00    -0.461 OA
BRANCH   2   3
ATOM      3  C   UNL A   1      32.584  29.603  26.334  1.00  0.00     0.329 C 
ATOM      4  O   UNL A   1      31.514  30.191  26.485  1.00  0.00    -0.250 OA
BRANCH   3   5
ATOM      5  C   UNL A   1      32.647  28.116  25.952  1.00  0.00     0.203 C 
ATOM      6  N   UNL A   1      32.902  27.741  24.521  1.00  0.00    -0.305 N 
ATOM      7  C   UNL A   1      32.959  26.300  24.169  1.00  0.00     0.180 C 
ATOM      8  C   UNL A   1      32.228  25.445  25.145  1.00  0.00     0.081 A 
ATOM      9  C   UNL A   1      31.460  27.349  26.601  1.00  0.00     0.093 C 
ATOM     10  N   UNL A   1      32.181  24.075  25.124  1.00  0.00    -0.240 NA
ATOM     11  C   UNL A   1      31.565  25.923  26.242  1.00  0.00     0.042 A 
ATOM     12  C   UNL A   1      31.513  23.738  26.211  1.00  0.00     0.197 A 
ATOM     13  N   UNL A   1      31.126  24.835  26.937  1.00  0.00    -0.348 N 
ATOM     14  H   UNL A   1      30.632  24.837  27.788  1.00  0.00     0.167 HD
BRANCH   6  15
ATOM     15  C   UNL A   1      32.917  28.612  23.472  1.00  0.00     0.318 C 
ATOM     16  N   UNL A   1      31.751  29.038  22.927  1.00  0.00    -0.335 N 
ATOM     17  H   UNL A   1      31.853  29.490  22.058  1.00  0.00     0.165 HD
ATOM     18  O   UNL A   1      33.952  29.133  23.055  1.00  0.00    -0.249 OA
BRANCH  16  19
ATOM     19  C   UNL A   1      30.369  28.946  23.400  1.00  0.00     0.083 C 
ATOM     20  C   UNL A   1      29.786  27.603  22.952  1.00  0.00     0.031 C 
BRANCH  19  21
ATOM     21  C   UNL A   1      29.497  30.122  22.943  1.00  0.00     0.053 C 
BRANCH  21  22
ATOM     22  C   UNL A   1      27.995  29.876  23.158  1.00  0.00     0.162 C 
BRANCH  22  23
ATOM     23  O   UNL A   1      27.237  31.070  23.345  1.00  0.00    -0.385 OA
ATOM     24  C   UNL A   1      27.889  32.271  22.952  1.00  0.00     0.194 C 
ENDBRANCH  22  23
ENDBRANCH  21  22
ENDBRANCH  19  21
ENDBRANCH  16  19
ENDBRANCH   6  15
ENDBRANCH   3   5
ENDBRANCH   2   3
ENDBRANCH   1   2
BRANCH   1  25
ATOM     25  C   UNL A   1      35.302  30.409  28.472  1.00  0.00     0.275 C 
BRANCH  25  26
ATOM     26  O   UNL A   1      36.518  31.034  28.072  1.00  0.00    -0.458 OA
BRANCH  26  27
ATOM     27  C   UNL A   1      37.578  30.678  28.838  1.00  0.00     0.338 C 
ATOM     28  O   UNL A   1      38.037  31.319  29.764  1.00  0.00    -0.246 OA
BRANCH  27  29
ATOM     29  C   UNL A   1      38.124  29.381  28.403  1.00  0.00     0.060 A 
ATOM     30  C   UNL A   1      38.344  28.426  29.405  1.00  0.00     0.016 A 
ATOM     31  C   UNL A   1      38.856  29.394  27.226  1.00  0.00     0.016 A 
ATOM     32  C   UNL A   1      39.567  27.803  29.444  1.00  0.00     0.010 A 
ATOM     33  C   UNL A   1      40.083  28.803  27.281  1.00  0.00     0.010 A 
ATOM     34  C   UNL A   1      40.474  28.139  28.450  1.00  0.00    -0.014 A 
BRANCH  34  35
ATOM     35  C   UNL A   1      41.879  27.823  28.622  1.00  0.00     0.031 A 
ATOM     36  C   UNL A   1      42.230  26.552  27.950  1.00  0.00     0.074 A 
ATOM     37  C   UNL A   1      42.741  28.732  29.121  1.00  0.00     0.049 A 
ATOM     38  N   UNL A   1      42.288  25.371  28.480  1.00  0.00    -0.248 NA
ATOM     39  C   UNL A   1      42.134  26.537  26.474  1.00  0.00     0.031 C 
ATOM     40  C   UNL A   1      42.487  30.117  29.534  1.00  0.00     0.029 A 
ATOM     41  N   UNL A   1      44.088  28.633  29.250  1.00  0.00    -0.354 N 
ATOM     42  C   UNL A   1      42.485  24.538  27.385  1.00  0.00     0.074 A 
ATOM     43  C   UNL A   1      41.910  25.239  26.283  1.00  0.00     0.031 C 
ATOM     44  C   UNL A   1      43.667  30.779  29.629  1.00  0.00     0.029 A 
ATOM     45  C   UNL A   1      44.756  29.849  29.386  1.00  0.00     0.049 A 
ATOM     46  H   UNL A   1      44.557  27.768  29.247  1.00  0.00     0.167 HD
ATOM     47  C   UNL A   1      43.489  23.615  27.347  1.00  0.00     0.034 A 
ATOM     48  C   UNL A   1      46.093  30.047  29.180  1.00  0.00     0.034 A 
ATOM     49  C   UNL A   1      44.014  23.400  28.679  1.00  0.00     0.049 A 
ATOM     50  C   UNL A   1      46.717  28.688  29.223  1.00  0.00     0.074 A 
ATOM     51  C   UNL A   1      43.458  22.997  29.878  1.00  0.00     0.029 A 
ATOM     52  N   UNL A   1      45.203  24.022  29.007  1.00  0.00    -0.354 N 
ATOM     53  N   UNL A   1      46.733  27.947  30.303  1.00  0.00    -0.248 NA
ATOM     54  C   UNL A   1      46.798  27.944  27.970  1.00  0.00     0.031 C 
ATOM     55  C   UNL A   1      44.079  23.817  30.864  1.00  0.00     0.029 A 
ATOM     56  C   UNL A   1      45.056  24.598  30.245  1.00  0.00     0.049 A 
ATOM     57  H   UNL A   1      46.014  24.049  28.450  1.00  0.00     0.167 HD
ATOM     58  C   UNL A   1      46.416  26.663  29.874  1.00  0.00     0.074 A 
ATOM     59  C   UNL A   1      46.524  26.713  28.416  1.00  0.00     0.031 C 
ATOM     60  C   UNL A   1      45.787  25.771  30.698  1.00  0.00     0.034 A 
BRANCH  47  61
ATOM     61  C   UNL A   1      44.273  23.241  26.093  1.00  0.00     0.023 A 
ATOM     62  C   UNL A   1      44.161  21.904  25.674  1.00  0.00     0.031 A 
ATOM     63  C   UNL A   1      45.279  23.990  25.428  1.00  0.00     0.131 A 
ATOM     64  C   UNL A   1      45.082  21.342  24.774  1.00  0.00     0.055 A 
ATOM     65  C   UNL A   1      46.162  23.439  24.497  1.00  0.00     0.041 A 
ATOM     66  F   UNL A   1      45.532  25.280  25.655  1.00  0.00    -0.206 F 
ATOM     67  C   UNL A   1      46.092  22.098  24.190  1.00  0.00     0.022 A 
BRANCH  64  68
ATOM     68  S   UNL A   1      45.032  19.557  24.514  1.00  0.00     0.124 S 
ATOM     69  O   UNL A   1      46.414  19.185  24.797  1.00  0.00    -0.237 OA
ATOM     70  O   UNL A   1      44.035  19.143  25.495  1.00  0.00    -0.237 OA
ATOM     71  O   UNL A   1      44.624  19.433  23.117  1.00  0.00    -0.744 OA
ENDBRANCH  64  68
ENDBRANCH  47  61
BRANCH  48  72
ATOM     72  C   UNL A   1      46.728  31.240  28.529  1.00  0.00     0.023 A 
ATOM     73  C   UNL A   1      46.092  32.066  27.570  1.00  0.00     0.031 A 
ATOM     74  C   UNL A   1      47.965  31.713  29.029  1.00  0.00     0.131 A 
ATOM     75  C   UNL A   1      46.704  33.276  27.142  1.00  0.00     0.055 A 
ATOM     76  C   UNL A   1      48.565  32.900  28.602  1.00  0.00     0.041 A 
ATOM     77  F   UNL A   1      48.606  31.067  30.017  1.00  0.00    -0.206 F 
ATOM     78  C   UNL A   1      47.935  33.690  27.658  1.00  0.00     0.022 A 
BRANCH  75  79
ATOM     79  S   UNL A   1      45.892  34.379  25.930  1.00  0.00     0.124 S 
ATOM     80  O   UNL A   1      47.025  35.066  25.322  1.00  0.00    -0.237 OA
ATOM     81  O   UNL A   1      45.173  33.436  25.083  1.00  0.00    -0.237 OA
ATOM     82  O   UNL A   1      45.035  35.230  26.758  1.00  0.00    -0.744 OA
ENDBRANCH  75  79
ENDBRANCH  48  72
BRANCH  60  83
ATOM     83  C   UNL A   1      45.671  26.091  32.177  1.00  0.00     0.023 A 
ATOM     84  C   UNL A   1      44.525  26.626  32.814  1.00  0.00     0.031 A 
ATOM     85  C   UNL A   1      46.723  25.641  32.994  1.00  0.00     0.131 A 
ATOM     86  C   UNL A   1      44.466  26.674  34.224  1.00  0.00     0.055 A 
ATOM     87  C   UNL A   1      46.649  25.671  34.384  1.00  0.00     0.041 A 
ATOM     88  F   UNL A   1      47.822  25.099  32.445  1.00  0.00    -0.206 F 
ATOM     89  C   UNL A   1      45.519  26.187  35.006  1.00  0.00     0.022 A 
BRANCH  86  90
ATOM     90  S   UNL A   1      43.008  27.364  35.078  1.00  0.00     0.124 S 
ATOM     91  O   UNL A   1      42.776  26.419  36.163  1.00  0.00    -0.237 OA
ATOM     92  O   UNL A   1      43.470  28.693  35.474  1.00  0.00    -0.237 OA
ATOM     93  O   UNL A   1      41.974  27.369  34.042  1.00  0.00    -0.744 OA
ENDBRANCH  86  90
ENDBRANCH  60  83
ENDBRANCH  34  35
ENDBRANCH  27  29
ENDBRANCH  26  27
ENDBRANCH  25  26
ENDBRANCH   1  25
TORSDOF 19
ENDMDL
MODEL 2
REMARK VINA RESULT:     -11.0      3.668      8.504
REMARK SMILES COCC[C@@H](C)NC(=O)N1Cc2nc[nH]c2C[C@@H]1C(=O)OCCOC(=O)c1ccc(-c2c3nc(c(-c4cc(S(=O)(=O)[O-])ccc4F)c4ccc([nH]4)c(-c4cc(S(=O)(=O)[O-])ccc4F)c4nc(c(-c5cc(S(=O)(=O)[O-])ccc5F)c5ccc2[nH]5)C=C4)C=C3)cc1
REMARK SMILES IDX 22 1 21 2 19 3 20 4 18 5 10 6 11 7 12 8 17 9 13 10 16 11
REMARK SMILES IDX 14 12 15 13 8 15 7 16 9 18 5 19 6 20 4 21 3 22 2 23 1 24
REMARK SMILES IDX 23 25 24 26 25 27 26 28 27 29 28 30 89 31 29 32 88 33 30 34
REMARK SMILES IDX 31 35 32 36 82 37 33 38 87 39 81 40 83 41 34 42 86 43 80 44
REMARK SMILES IDX 79 45 35 47 67 48 47 49 66 50 48 51 51 52 65 53 84 54 49 55
REMARK SMILES IDX 50 56 64 58 85 59 52 60 36 61 37 62 45 63 38 64 44 65 46 66
REMARK SMILES IDX 43 67 39 68 40 69 41 70 42 71 68 72 69 73 77 74 70 75 76 76
REMARK SMILES IDX 78 77 75 78 71 79 72 80 73 81 74 82 53 83 54 84 62 85 55 86
REMARK SMILES IDX 61 87 63 88 60 89 56 90 57 91 58 92 59 93
REMARK H PARENT 15 14 7 17 83 46 51 57
REMARK Flexibility Score: inf
ROOT
ATOM      1  C   UNL A   1      36.761  23.552  25.058  1.00  0.00     0.274 C 
ENDROOT
BRANCH   1   2
ATOM      2  O   UNL A   1      35.317  23.569  24.952  1.00  0.00    -0.461 OA
BRANCH   2   3
ATOM      3  C   UNL A   1      34.644  23.857  26.100  1.00  0.00     0.329 C 
ATOM      4  O   UNL A   1      34.725  23.173  27.120  1.00  0.00    -0.250 OA
BRANCH   3   5
ATOM      5  C   UNL A   1      33.780  25.126  26.039  1.00  0.00     0.203 C 
ATOM      6  N   UNL A   1      32.309  25.019  26.318  1.00  0.00    -0.305 N 
ATOM      7  C   UNL A   1      31.487  26.254  26.255  1.00  0.00     0.180 C 
ATOM      8  C   UNL A   1      32.107  27.307  25.405  1.00  0.00     0.081 A 
ATOM      9  C   UNL A   1      34.118  25.940  24.757  1.00  0.00     0.093 C 
ATOM     10  N   UNL A   1      31.620  28.577  25.229  1.00  0.00    -0.240 NA
ATOM     11  C   UNL A   1      33.296  27.163  24.743  1.00  0.00     0.042 A 
ATOM     12  C   UNL A   1      32.521  29.191  24.486  1.00  0.00     0.197 A 
ATOM     13  N   UNL A   1      33.575  28.371  24.174  1.00  0.00    -0.348 N 
ATOM     14  H   UNL A   1      34.372  28.605  23.646  1.00  0.00     0.167 HD
BRANCH   6  15
ATOM     15  C   UNL A   1      31.619  23.851  26.461  1.00  0.00     0.318 C 
ATOM     16  N   UNL A   1      31.250  23.142  25.366  1.00  0.00    -0.335 N 
ATOM     17  H   UNL A   1      30.588  22.436  25.545  1.00  0.00     0.165 HD
ATOM     18  O   UNL A   1      31.405  23.334  27.558  1.00  0.00    -0.249 OA
BRANCH  16  19
ATOM     19  C   UNL A   1      31.663  23.239  23.964  1.00  0.00     0.083 C 
ATOM     20  C   UNL A   1      30.526  23.879  23.162  1.00  0.00     0.031 C 
BRANCH  19  21
ATOM     21  C   UNL A   1      32.088  21.893  23.367  1.00  0.00     0.053 C 
BRANCH  21  22
ATOM     22  C   UNL A   1      32.865  21.013  24.361  1.00  0.00     0.162 C 
BRANCH  22  23
ATOM     23  O   UNL A   1      32.053  20.055  25.038  1.00  0.00    -0.385 OA
ATOM     24  C   UNL A   1      32.699  18.828  25.356  1.00  0.00     0.194 C 
ENDBRANCH  22  23
ENDBRANCH  21  22
ENDBRANCH  19  21
ENDBRANCH  16  19
ENDBRANCH   6  15
ENDBRANCH   3   5
ENDBRANCH   2   3
ENDBRANCH   1   2
BRANCH   1  25
ATOM     25  C   UNL A   1      37.373  22.165  25.287  1.00  0.00     0.275 C 
BRANCH  25  26
ATOM     26  O   UNL A   1      38.654  22.269  25.903  1.00  0.00    -0.458 OA
BRANCH  26  27
ATOM     27  C   UNL A   1      39.371  21.120  25.838  1.00  0.00     0.338 C 
ATOM     28  O   UNL A   1      38.975  20.055  25.403  1.00  0.00    -0.246 OA
BRANCH  27  29
ATOM     29  C   UNL A   1      40.728  21.321  26.373  1.00  0.00     0.060 A 
ATOM     30  C   UNL A   1      40.891  21.134  27.752  1.00  0.00     0.016 A 
ATOM     31  C   UNL A   1      41.550  22.164  25.643  1.00  0.00     0.016 A 
ATOM     32  C   UNL A   1      41.540  22.113  28.463  1.00  0.00     0.010 A 
ATOM     33  C   UNL A   1      42.165  23.155  26.350  1.00  0.00     0.010 A 
ATOM     34  C   UNL A   1      42.027  23.194  27.742  1.00  0.00    -0.014 A 
BRANCH  34  35
ATOM     35  C   UNL A   1      42.385  24.416  28.433  1.00  0.00     0.031 A 
ATOM     36  C   UNL A   1      41.383  25.479  28.201  1.00  0.00     0.074 A 
ATOM     37  C   UNL A   1      43.377  24.434  29.347  1.00  0.00     0.049 A 
ATOM     38  N   UNL A   1      41.422  26.418  27.308  1.00  0.00    -0.248 NA
ATOM     39  C   UNL A   1      40.032  25.247  28.759  1.00  0.00     0.031 C 
ATOM     40  C   UNL A   1      44.214  23.327  29.824  1.00  0.00     0.029 A 
ATOM     41  N   UNL A   1      43.767  25.458  30.147  1.00  0.00    -0.354 N 
ATOM     42  C   UNL A   1      40.171  27.014  27.414  1.00  0.00     0.074 A 
ATOM     43  C   UNL A   1      39.317  25.986  27.914  1.00  0.00     0.031 C 
ATOM     44  C   UNL A   1      44.824  23.693  30.979  1.00  0.00     0.029 A 
ATOM     45  C   UNL A   1      44.506  25.081  31.267  1.00  0.00     0.049 A 
ATOM     46  H   UNL A   1      43.545  26.397  29.950  1.00  0.00     0.167 HD
ATOM     47  C   UNL A   1      40.019  28.362  27.561  1.00  0.00     0.034 A 
ATOM     48  C   UNL A   1      44.705  25.848  32.381  1.00  0.00     0.034 A 
ATOM     49  C   UNL A   1      41.253  29.039  27.218  1.00  0.00     0.049 A 
ATOM     50  C   UNL A   1      44.373  27.250  31.975  1.00  0.00     0.074 A 
ATOM     51  C   UNL A   1      42.045  29.079  26.088  1.00  0.00     0.029 A 
ATOM     52  N   UNL A   1      42.057  29.467  28.256  1.00  0.00    -0.354 N 
ATOM     53  N   UNL A   1      45.063  27.913  31.081  1.00  0.00    -0.248 NA
ATOM     54  C   UNL A   1      42.987  27.682  32.123  1.00  0.00     0.031 C 
ATOM     55  C   UNL A   1      43.383  29.050  26.575  1.00  0.00     0.029 A 
ATOM     56  C   UNL A   1      43.351  29.105  27.970  1.00  0.00     0.049 A 
ATOM     57  H   UNL A   1      41.756  29.947  29.061  1.00  0.00     0.167 HD
ATOM     58  C   UNL A   1      44.117  28.548  30.283  1.00  0.00     0.074 A 
ATOM     59  C   UNL A   1      42.855  28.415  31.011  1.00  0.00     0.031 C 
ATOM     60  C   UNL A   1      44.371  28.840  28.972  1.00  0.00     0.034 A 
BRANCH  47  61
ATOM     61  C   UNL A   1      38.935  29.023  28.407  1.00  0.00     0.023 A 
ATOM     62  C   UNL A   1      39.078  28.892  29.800  1.00  0.00     0.031 A 
ATOM     63  C   UNL A   1      37.686  29.547  27.984  1.00  0.00     0.131 A 
ATOM     64  C   UNL A   1      38.000  29.130  30.669  1.00  0.00     0.055 A 
ATOM     65  C   UNL A   1      36.633  29.829  28.857  1.00  0.00     0.041 A 
ATOM     66  F   UNL A   1      37.357  29.776  26.712  1.00  0.00    -0.206 F 
ATOM     67  C   UNL A   1      36.772  29.588  30.207  1.00  0.00     0.022 A 
BRANCH  64  68
ATOM     68  S   UNL A   1      38.191  28.667  32.403  1.00  0.00     0.124 S 
ATOM     69  O   UNL A   1      36.931  29.138  32.967  1.00  0.00    -0.237 OA
ATOM     70  O   UNL A   1      38.357  27.221  32.306  1.00  0.00    -0.237 OA
ATOM     71  O   UNL A   1      39.379  29.407  32.819  1.00  0.00    -0.744 OA
ENDBRANCH  64  68
ENDBRANCH  47  61
BRANCH  48  72
ATOM     72  C   UNL A   1      44.722  25.369  33.802  1.00  0.00     0.023 A 
ATOM     73  C   UNL A   1      45.432  25.998  34.854  1.00  0.00     0.031 A 
ATOM     74  C   UNL A   1      43.825  24.344  34.189  1.00  0.00     0.131 A 
ATOM     75  C   UNL A   1      45.246  25.579  36.200  1.00  0.00     0.055 A 
ATOM     76  C   UNL A   1      43.649  23.933  35.512  1.00  0.00     0.041 A 
ATOM     77  F   UNL A   1      43.022  23.751  33.290  1.00  0.00    -0.206 F 
ATOM     78  C   UNL A   1      44.357  24.552  36.526  1.00  0.00     0.022 A 
BRANCH  75  79
ATOM     79  S   UNL A   1      46.123  26.394  37.583  1.00  0.00     0.124 S 
ATOM     80  O   UNL A   1      45.062  27.167  38.216  1.00  0.00    -0.237 OA
ATOM     81  O   UNL A   1      46.640  25.259  38.337  1.00  0.00    -0.237 OA
ATOM     82  O   UNL A   1      47.148  27.199  36.914  1.00  0.00    -0.744 OA
ENDBRANCH  75  79
ENDBRANCH  48  72
BRANCH  60  83
ATOM     83  C   UNL A   1      45.791  28.709  28.450  1.00  0.00     0.023 A 
ATOM     84  C   UNL A   1      46.375  27.521  27.948  1.00  0.00     0.031 A 
ATOM     85  C   UNL A   1      46.504  29.909  28.284  1.00  0.00     0.131 A 
ATOM     86  C   UNL A   1      47.624  27.578  27.293  1.00  0.00     0.055 A 
ATOM     87  C   UNL A   1      47.725  29.961  27.617  1.00  0.00     0.041 A 
ATOM     88  F   UNL A   1      45.985  31.070  28.716  1.00  0.00    -0.206 F 
ATOM     89  C   UNL A   1      48.291  28.796  27.118  1.00  0.00     0.022 A 
BRANCH  86  90
ATOM     90  S   UNL A   1      48.411  26.065  26.641  1.00  0.00     0.124 S 
ATOM     91  O   UNL A   1      47.756  24.997  27.388  1.00  0.00    -0.237 OA
ATOM     92  O   UNL A   1      48.099  26.132  25.215  1.00  0.00    -0.237 OA
ATOM     93  O   UNL A   1      49.828  26.251  26.959  1.00  0.00    -0.744 OA
ENDBRANCH  86  90
ENDBRANCH  60  83
ENDBRANCH  34  35
ENDBRANCH  27  29
ENDBRANCH  26  27
ENDBRANCH  25  26
ENDBRANCH   1  25
TORSDOF 19
ENDMDL
MODEL 3
REMARK VINA RESULT:     -10.9      1.277      2.963
REMARK SMILES COCC[C@@H](C)NC(=O)N1Cc2nc[nH]c2C[C@@H]1C(=O)OCCOC(=O)c1ccc(-c2c3nc(c(-c4cc(S(=O)(=O)[O-])ccc4F)c4ccc([nH]4)c(-c4cc(S(=O)(=O)[O-])ccc4F)c4nc(c(-c5cc(S(=O)(=O)[O-])ccc5F)c5ccc2[nH]5)C=C4)C=C3)cc1
REMARK SMILES IDX 22 1 21 2 19 3 20 4 18 5 10 6 11 7 12 8 17 9 13 10 16 11
REMARK SMILES IDX 14 12 15 13 8 15 7 16 9 18 5 19 6 20 4 21 3 22 2 23 1 24
REMARK SMILES IDX 23 25 24 26 25 27 26 28 27 29 28 30 89 31 29 32 88 33 30 34
REMARK SMILES IDX 31 35 32 36 82 37 33 38 87 39 81 40 83 41 34 42 86 43 80 44
REMARK SMILES IDX 79 45 35 47 67 48 47 49 66 50 48 51 51 52 65 53 84 54 49 55
REMARK SMILES IDX 50 56 64 58 85 59 52 60 36 61 37 62 45 63 38 64 44 65 46 66
REMARK SMILES IDX 43 67 39 68 40 69 41 70 42 71 68 72 69 73 77 74 70 75 76 76
REMARK SMILES IDX 78 77 75 78 71 79 72 80 73 81 74 82 53 83 54 84 62 85 55 86
REMARK SMILES IDX 61 87 63 88 60 89 56 90 57 91 58 92 59 93
REMARK H PARENT 15 14 7 17 83 46 51 57
REMARK Flexibility Score: inf
ROOT
ATOM      1  C   UNL A   1      34.770  30.051  26.920  1.00  0.00     0.274 C 
ENDROOT
BRANCH   1   2
ATOM      2  O   UNL A   1      33.605  29.205  27.084  1.00  0.00    -0.461 OA
BRANCH   2   3
ATOM      3  C   UNL A   1      33.482  28.191  26.184  1.00  0.00     0.329 C 
ATOM      4  O   UNL A   1      34.289  27.265  26.094  1.00  0.00    -0.250 OA
BRANCH   3   5
ATOM      5  C   UNL A   1      32.238  28.274  25.286  1.00  0.00     0.203 C 
ATOM      6  N   UNL A   1      31.341  27.076  25.171  1.00  0.00    -0.305 N 
ATOM      7  C   UNL A   1      30.143  27.173  24.299  1.00  0.00     0.180 C 
ATOM      8  C   UNL A   1      30.285  28.221  23.252  1.00  0.00     0.081 A 
ATOM      9  C   UNL A   1      32.611  28.913  23.918  1.00  0.00     0.093 C 
ATOM     10  N   UNL A   1      29.311  28.592  22.360  1.00  0.00    -0.240 NA
ATOM     11  C   UNL A   1      31.394  29.007  23.093  1.00  0.00     0.042 A 
ATOM     12  C   UNL A   1      29.826  29.604  21.690  1.00  0.00     0.197 A 
ATOM     13  N   UNL A   1      31.096  29.907  22.111  1.00  0.00    -0.348 N 
ATOM     14  H   UNL A   1      31.676  30.627  21.775  1.00  0.00     0.167 HD
BRANCH   6  15
ATOM     15  C   UNL A   1      31.619  25.836  25.666  1.00  0.00     0.318 C 
ATOM     16  N   UNL A   1      32.317  24.947  24.918  1.00  0.00    -0.335 N 
ATOM     17  H   UNL A   1      32.293  24.024  25.260  1.00  0.00     0.165 HD
ATOM     18  O   UNL A   1      31.363  25.510  26.826  1.00  0.00    -0.249 OA
BRANCH  16  19
ATOM     19  C   UNL A   1      33.102  25.116  23.693  1.00  0.00     0.083 C 
ATOM     20  C   UNL A   1      32.147  25.109  22.496  1.00  0.00     0.031 C 
BRANCH  19  21
ATOM     21  C   UNL A   1      34.210  24.068  23.540  1.00  0.00     0.053 C 
BRANCH  21  22
ATOM     22  C   UNL A   1      34.539  23.343  24.855  1.00  0.00     0.162 C 
BRANCH  22  23
ATOM     23  O   UNL A   1      35.243  24.150  25.798  1.00  0.00    -0.385 OA
ATOM     24  C   UNL A   1      36.630  23.863  25.926  1.00  0.00     0.194 C 
ENDBRANCH  22  23
ENDBRANCH  21  22
ENDBRANCH  19  21
ENDBRANCH  16  19
ENDBRANCH   6  15
ENDBRANCH   3   5
ENDBRANCH   2   3
ENDBRANCH   1   2
BRANCH   1  25
ATOM     25  C   UNL A   1      35.147  30.872  28.159  1.00  0.00     0.275 C 
BRANCH  25  26
ATOM     26  O   UNL A   1      35.937  30.102  29.059  1.00  0.00    -0.458 OA
BRANCH  26  27
ATOM     27  C   UNL A   1      37.269  30.303  28.906  1.00  0.00     0.338 C 
ATOM     28  O   UNL A   1      37.883  31.301  29.233  1.00  0.00    -0.246 OA
BRANCH  27  29
ATOM     29  C   UNL A   1      37.904  29.132  28.275  1.00  0.00     0.060 A 
ATOM     30  C   UNL A   1      38.104  28.013  29.094  1.00  0.00     0.016 A 
ATOM     31  C   UNL A   1      38.709  29.395  27.179  1.00  0.00     0.016 A 
ATOM     32  C   UNL A   1      39.351  27.437  29.105  1.00  0.00     0.010 A 
ATOM     33  C   UNL A   1      39.958  28.848  27.212  1.00  0.00     0.010 A 
ATOM     34  C   UNL A   1      40.303  27.988  28.261  1.00  0.00    -0.014 A 
BRANCH  34  35
ATOM     35  C   UNL A   1      41.707  27.694  28.472  1.00  0.00     0.031 A 
ATOM     36  C   UNL A   1      42.096  26.426  27.816  1.00  0.00     0.074 A 
ATOM     37  C   UNL A   1      42.541  28.618  28.990  1.00  0.00     0.049 A 
ATOM     38  N   UNL A   1      42.157  25.247  28.352  1.00  0.00    -0.248 NA
ATOM     39  C   UNL A   1      42.040  26.403  26.337  1.00  0.00     0.031 C 
ATOM     40  C   UNL A   1      42.255  30.001  29.390  1.00  0.00     0.029 A 
ATOM     41  N   UNL A   1      43.886  28.540  29.156  1.00  0.00    -0.354 N 
ATOM     42  C   UNL A   1      42.397  24.413  27.267  1.00  0.00     0.074 A 
ATOM     43  C   UNL A   1      41.842  25.101  26.146  1.00  0.00     0.031 C 
ATOM     44  C   UNL A   1      43.422  30.681  29.515  1.00  0.00     0.029 A 
ATOM     45  C   UNL A   1      44.531  29.767  29.306  1.00  0.00     0.049 A 
ATOM     46  H   UNL A   1      44.368  27.682  29.170  1.00  0.00     0.167 HD
ATOM     47  C   UNL A   1      43.416  23.506  27.260  1.00  0.00     0.034 A 
ATOM     48  C   UNL A   1      45.870  29.984  29.134  1.00  0.00     0.034 A 
ATOM     49  C   UNL A   1      43.908  23.305  28.607  1.00  0.00     0.049 A 
ATOM     50  C   UNL A   1      46.514  28.636  29.201  1.00  0.00     0.074 A 
ATOM     51  C   UNL A   1      43.326  22.898  29.792  1.00  0.00     0.029 A 
ATOM     52  N   UNL A   1      45.078  23.946  28.964  1.00  0.00    -0.354 N 
ATOM     53  N   UNL A   1      46.511  27.900  30.284  1.00  0.00    -0.248 NA
ATOM     54  C   UNL A   1      46.640  27.888  27.953  1.00  0.00     0.031 C 
ATOM     55  C   UNL A   1      43.906  23.731  30.791  1.00  0.00     0.029 A 
ATOM     56  C   UNL A   1      44.888  24.525  30.195  1.00  0.00     0.049 A 
ATOM     57  H   UNL A   1      45.903  23.983  28.429  1.00  0.00     0.167 HD
ATOM     58  C   UNL A   1      46.225  26.609  29.852  1.00  0.00     0.074 A 
ATOM     59  C   UNL A   1      46.373  26.655  28.397  1.00  0.00     0.031 C 
ATOM     60  C   UNL A   1      45.589  25.710  30.663  1.00  0.00     0.034 A 
BRANCH  47  61
ATOM     61  C   UNL A   1      44.240  23.140  26.029  1.00  0.00     0.023 A 
ATOM     62  C   UNL A   1      44.156  21.800  25.611  1.00  0.00     0.031 A 
ATOM     63  C   UNL A   1      45.255  23.900  25.391  1.00  0.00     0.131 A 
ATOM     64  C   UNL A   1      45.109  21.248  24.738  1.00  0.00     0.055 A 
ATOM     65  C   UNL A   1      46.170  23.357  24.486  1.00  0.00     0.041 A 
ATOM     66  F   UNL A   1      45.485  25.193  25.622  1.00  0.00    -0.206 F 
ATOM     67  C   UNL A   1      46.125  22.015  24.181  1.00  0.00     0.022 A 
BRANCH  64  68
ATOM     68  S   UNL A   1      45.088  19.462  24.481  1.00  0.00     0.124 S 
ATOM     69  O   UNL A   1      44.008  19.054  25.372  1.00  0.00    -0.237 OA
ATOM     70  O   UNL A   1      44.817  19.373  23.050  1.00  0.00    -0.237 OA
ATOM     71  O   UNL A   1      46.428  19.049  24.890  1.00  0.00    -0.744 OA
ENDBRANCH  64  68
ENDBRANCH  47  61
BRANCH  48  72
ATOM     72  C   UNL A   1      46.504  31.185  28.496  1.00  0.00     0.023 A 
ATOM     73  C   UNL A   1      45.907  31.961  27.472  1.00  0.00     0.031 A 
ATOM     74  C   UNL A   1      47.684  31.719  29.067  1.00  0.00     0.131 A 
ATOM     75  C   UNL A   1      46.502  33.183  27.054  1.00  0.00     0.055 A 
ATOM     76  C   UNL A   1      48.267  32.917  28.650  1.00  0.00     0.041 A 
ATOM     77  F   UNL A   1      48.277  31.125  30.115  1.00  0.00    -0.206 F 
ATOM     78  C   UNL A   1      47.676  33.658  27.642  1.00  0.00     0.022 A 
BRANCH  75  79
ATOM     79  S   UNL A   1      45.737  34.221  25.758  1.00  0.00     0.124 S 
ATOM     80  O   UNL A   1      46.896  34.730  25.037  1.00  0.00    -0.237 OA
ATOM     81  O   UNL A   1      44.897  33.265  25.046  1.00  0.00    -0.237 OA
ATOM     82  O   UNL A   1      44.999  35.233  26.517  1.00  0.00    -0.744 OA
ENDBRANCH  75  79
ENDBRANCH  48  72
BRANCH  60  83
ATOM     83  C   UNL A   1      45.427  26.035  32.137  1.00  0.00     0.023 A 
ATOM     84  C   UNL A   1      44.242  26.510  32.748  1.00  0.00     0.031 A 
ATOM     85  C   UNL A   1      46.487  25.650  32.976  1.00  0.00     0.131 A 
ATOM     86  C   UNL A   1      44.154  26.565  34.156  1.00  0.00     0.055 A 
ATOM     87  C   UNL A   1      46.385  25.686  34.365  1.00  0.00     0.041 A 
ATOM     88  F   UNL A   1      47.625  25.166  32.452  1.00  0.00    -0.206 F 
ATOM     89  C   UNL A   1      45.218  26.143  34.962  1.00  0.00     0.022 A 
BRANCH  86  90
ATOM     90  S   UNL A   1      42.644  27.180  34.978  1.00  0.00     0.124 S 
ATOM     91  O   UNL A   1      43.119  27.580  36.297  1.00  0.00    -0.237 OA
ATOM     92  O   UNL A   1      42.218  28.264  34.094  1.00  0.00    -0.237 OA
ATOM     93  O   UNL A   1      41.755  26.016  34.977  1.00  0.00    -0.744 OA
ENDBRANCH  86  90
ENDBRANCH  60  83
ENDBRANCH  34  35
ENDBRANCH  27  29
ENDBRANCH  26  27
ENDBRANCH  25  26
ENDBRANCH   1  25
TORSDOF 19
ENDMDL
