MODEL 1
REMARK VINA RESULT:     -11.7      0.000      0.000
REMARK SMILES Cc1ccsc1C(=O)NNC(=O)[C@@H]1[C@@H](C(=O)OCCOC(=O)c2ccc(-c3c4nc(c(-c5cc(S(=O)(=O)[O-])ccc5F)c5ccc([nH]5)c(-c5cc(S(=O)(=O)[O-])ccc5F)c5nc(c(-c6cc(S(=O)(=O)[O-])ccc6F)c6ccc3[nH]6)C=C5)C=C4)cc2)[C@H]2C=C[C@@H]1C2
REMARK SMILES IDX 18 1 17 2 15 3 16 4 14 5 13 6 89 7 86 8 88 9 90 10 87 11
REMARK SMILES IDX 11 12 10 13 12 15 9 16 7 17 8 18 6 20 1 21 2 22 3 23 4 24
REMARK SMILES IDX 5 25 19 26 20 27 21 28 22 29 23 30 24 31 85 32 25 33 84 34
REMARK SMILES IDX 26 35 27 36 28 37 78 38 29 39 83 40 77 41 79 42 30 43 82 44
REMARK SMILES IDX 76 45 75 46 31 48 63 49 43 50 62 51 44 52 47 53 61 54 80 55
REMARK SMILES IDX 45 56 46 57 60 59 81 60 48 61 32 62 33 63 41 64 34 65 40 66
REMARK SMILES IDX 42 67 39 68 35 69 36 70 37 71 38 72 64 73 65 74 73 75 66 76
REMARK SMILES IDX 72 77 74 78 71 79 67 80 68 81 69 82 70 83 49 84 50 85 58 86
REMARK SMILES IDX 51 87 57 88 59 89 56 90 52 91 53 92 54 93 55 94
REMARK H PARENT 10 14 9 19 79 47 47 58
REMARK Flexibility Score: inf
ROOT
ATOM      1  C   UNL A   1      34.924  21.513  24.977  1.00  0.00     0.274 C 
ENDROOT
BRANCH   1   2
ATOM      2  O   UNL A   1      34.212  22.505  25.738  1.00  0.00    -0.462 OA
BRANCH   2   3
ATOM      3  C   UNL A   1      34.340  23.781  25.312  1.00  0.00     0.310 C 
ATOM      4  O   UNL A   1      35.332  24.480  25.486  1.00  0.00    -0.252 OA
BRANCH   3   5
ATOM      5  C   UNL A   1      33.127  24.323  24.598  1.00  0.00     0.119 C 
ATOM      6  C   UNL A   1      31.843  23.576  25.021  1.00  0.00     0.102 C 
ATOM      7  C   UNL A   1      31.061  23.491  23.685  1.00  0.00     0.025 C 
ATOM      8  C   UNL A   1      33.069  24.279  23.051  1.00  0.00     0.027 C 
ATOM      9  C   UNL A   1      31.758  22.392  22.889  1.00  0.00    -0.027 C 
ATOM     10  C   UNL A   1      31.595  24.656  22.838  1.00  0.00     0.017 C 
ATOM     11  C   UNL A   1      32.966  22.864  22.533  1.00  0.00    -0.027 C 
BRANCH   6  12
ATOM     12  C   UNL A   1      31.196  24.121  26.295  1.00  0.00     0.242 C 
ATOM     13  N   UNL A   1      30.789  25.415  26.453  1.00  0.00    -0.267 N 
ATOM     14  H   UNL A   1      30.802  25.790  27.364  1.00  0.00     0.191 HD
ATOM     15  O   UNL A   1      31.080  23.366  27.269  1.00  0.00    -0.273 OA
BRANCH  13  16
ATOM     16  N   UNL A   1      30.365  26.234  25.436  1.00  0.00    -0.263 N 
ATOM     17  C   UNL A   1      30.888  27.470  25.088  1.00  0.00     0.280 C 
ATOM     18  O   UNL A   1      30.262  28.069  24.209  1.00  0.00    -0.266 OA
ATOM     19  H   UNL A   1      29.608  25.910  24.897  1.00  0.00     0.191 HD
BRANCH  17  20
ATOM     20  C   UNL A   1      32.147  27.960  25.648  1.00  0.00     0.096 A 
ATOM     21  C   UNL A   1      33.980  27.786  23.813  1.00  0.00     0.046 C 
ATOM     22  C   UNL A   1      33.441  28.138  25.160  1.00  0.00    -0.027 A 
ATOM     23  C   UNL A   1      34.299  28.722  26.162  1.00  0.00     0.016 A 
ATOM     24  C   UNL A   1      33.674  28.909  27.369  1.00  0.00     0.066 A 
ATOM     25  S   UNL A   1      32.055  28.408  27.321  1.00  0.00    -0.138 S 
ENDBRANCH  17  20
ENDBRANCH  13  16
ENDBRANCH   6  12
ENDBRANCH   3   5
ENDBRANCH   2   3
ENDBRANCH   1   2
BRANCH   1  26
ATOM     26  C   UNL A   1      36.197  21.080  25.706  1.00  0.00     0.275 C 
BRANCH  26  27
ATOM     27  O   UNL A   1      37.336  21.863  25.301  1.00  0.00    -0.458 OA
BRANCH  27  28
ATOM     28  C   UNL A   1      38.521  21.462  25.819  1.00  0.00     0.338 C 
ATOM     29  O   UNL A   1      39.032  20.360  25.726  1.00  0.00    -0.246 OA
BRANCH  28  30
ATOM     30  C   UNL A   1      39.203  22.610  26.431  1.00  0.00     0.060 A 
ATOM     31  C   UNL A   1      38.781  23.894  26.082  1.00  0.00     0.016 A 
ATOM     32  C   UNL A   1      40.307  22.430  27.263  1.00  0.00     0.016 A 
ATOM     33  C   UNL A   1      39.458  25.012  26.553  1.00  0.00     0.010 A 
ATOM     34  C   UNL A   1      40.980  23.554  27.749  1.00  0.00     0.010 A 
ATOM     35  C   UNL A   1      40.565  24.850  27.390  1.00  0.00    -0.014 A 
BRANCH  35  36
ATOM     36  C   UNL A   1      41.316  26.041  27.854  1.00  0.00     0.031 A 
ATOM     37  C   UNL A   1      40.611  27.096  28.654  1.00  0.00     0.074 A 
ATOM     38  C   UNL A   1      42.622  26.165  27.555  1.00  0.00     0.049 A 
ATOM     39  N   UNL A   1      41.036  28.273  29.029  1.00  0.00    -0.248 NA
ATOM     40  C   UNL A   1      39.239  26.784  29.079  1.00  0.00     0.031 C 
ATOM     41  C   UNL A   1      43.419  25.175  26.830  1.00  0.00     0.029 A 
ATOM     42  N   UNL A   1      43.504  27.185  27.808  1.00  0.00    -0.354 N 
ATOM     43  C   UNL A   1      39.975  28.860  29.710  1.00  0.00     0.074 A 
ATOM     44  C   UNL A   1      38.883  27.909  29.681  1.00  0.00     0.031 C 
ATOM     45  C   UNL A   1      44.668  25.642  26.681  1.00  0.00     0.029 A 
ATOM     46  C   UNL A   1      44.743  26.986  27.247  1.00  0.00     0.049 A 
ATOM     47  H   UNL A   1      43.272  27.980  28.340  1.00  0.00     0.167 HD
ATOM     48  C   UNL A   1      39.923  30.082  30.298  1.00  0.00     0.034 A 
ATOM     49  C   UNL A   1      45.801  27.815  27.152  1.00  0.00     0.034 A 
ATOM     50  C   UNL A   1      41.031  31.007  30.319  1.00  0.00     0.049 A 
ATOM     51  C   UNL A   1      45.699  29.192  27.753  1.00  0.00     0.074 A 
ATOM     52  C   UNL A   1      41.102  32.257  30.908  1.00  0.00     0.029 A 
ATOM     53  N   UNL A   1      42.262  30.785  29.713  1.00  0.00    -0.354 N 
ATOM     54  N   UNL A   1      44.685  29.747  28.377  1.00  0.00    -0.248 NA
ATOM     55  C   UNL A   1      46.880  30.055  27.634  1.00  0.00     0.031 C 
ATOM     56  C   UNL A   1      42.349  32.816  30.605  1.00  0.00     0.029 A 
ATOM     57  C   UNL A   1      43.085  31.888  29.883  1.00  0.00     0.049 A 
ATOM     58  H   UNL A   1      42.514  29.964  29.232  1.00  0.00     0.167 HD
ATOM     59  C   UNL A   1      45.112  31.021  28.736  1.00  0.00     0.074 A 
ATOM     60  C   UNL A   1      46.480  31.146  28.273  1.00  0.00     0.031 C 
ATOM     61  C   UNL A   1      44.438  32.001  29.391  1.00  0.00     0.034 A 
BRANCH  48  62
ATOM     62  C   UNL A   1      38.603  30.503  30.896  1.00  0.00     0.023 A 
ATOM     63  C   UNL A   1      37.627  31.186  30.150  1.00  0.00     0.031 A 
ATOM     64  C   UNL A   1      38.338  30.255  32.256  1.00  0.00     0.131 A 
ATOM     65  C   UNL A   1      36.467  31.660  30.783  1.00  0.00     0.055 A 
ATOM     66  C   UNL A   1      37.149  30.664  32.862  1.00  0.00     0.041 A 
ATOM     67  F   UNL A   1      39.242  29.629  33.025  1.00  0.00    -0.206 F 
ATOM     68  C   UNL A   1      36.212  31.385  32.128  1.00  0.00     0.022 A 
BRANCH  65  69
ATOM     69  S   UNL A   1      35.366  32.769  29.861  1.00  0.00     0.124 S 
ATOM     70  O   UNL A   1      34.943  31.913  28.755  1.00  0.00    -0.237 OA
ATOM     71  O   UNL A   1      34.343  33.090  30.849  1.00  0.00    -0.237 OA
ATOM     72  O   UNL A   1      36.237  33.879  29.481  1.00  0.00    -0.744 OA
ENDBRANCH  65  69
ENDBRANCH  48  62
BRANCH  49  73
ATOM     73  C   UNL A   1      47.012  27.394  26.396  1.00  0.00     0.023 A 
ATOM     74  C   UNL A   1      47.185  27.733  25.046  1.00  0.00     0.031 A 
ATOM     75  C   UNL A   1      48.011  26.622  27.018  1.00  0.00     0.131 A 
ATOM     76  C   UNL A   1      48.318  27.278  24.352  1.00  0.00     0.055 A 
ATOM     77  C   UNL A   1      49.156  26.210  26.336  1.00  0.00     0.041 A 
ATOM     78  F   UNL A   1      47.893  26.273  28.308  1.00  0.00    -0.206 F 
ATOM     79  C   UNL A   1      49.310  26.530  24.992  1.00  0.00     0.022 A 
BRANCH  76  80
ATOM     80  S   UNL A   1      48.453  27.632  22.579  1.00  0.00     0.124 S 
ATOM     81  O   UNL A   1      47.187  28.306  22.312  1.00  0.00    -0.237 OA
ATOM     82  O   UNL A   1      49.648  28.466  22.526  1.00  0.00    -0.237 OA
ATOM     83  O   UNL A   1      48.593  26.307  21.977  1.00  0.00    -0.744 OA
ENDBRANCH  76  80
ENDBRANCH  49  73
BRANCH  61  84
ATOM     84  C   UNL A   1      45.193  33.277  29.663  1.00  0.00     0.023 A 
ATOM     85  C   UNL A   1      45.952  33.447  30.833  1.00  0.00     0.031 A 
ATOM     86  C   UNL A   1      45.137  34.340  28.745  1.00  0.00     0.131 A 
ATOM     87  C   UNL A   1      46.587  34.674  31.078  1.00  0.00     0.055 A 
ATOM     88  C   UNL A   1      45.812  35.539  28.971  1.00  0.00     0.041 A 
ATOM     89  F   UNL A   1      44.423  34.229  27.613  1.00  0.00    -0.206 F 
ATOM     90  C   UNL A   1      46.534  35.716  30.148  1.00  0.00     0.022 A 
BRANCH  87  91
ATOM     91  S   UNL A   1      47.423  34.920  32.669  1.00  0.00     0.124 S 
ATOM     92  O   UNL A   1      46.443  34.392  33.612  1.00  0.00    -0.237 OA
ATOM     93  O   UNL A   1      48.642  34.135  32.508  1.00  0.00    -0.237 OA
ATOM     94  O   UNL A   1      47.625  36.368  32.731  1.00  0.00    -0.744 OA
ENDBRANCH  87  91
ENDBRANCH  61  84
ENDBRANCH  35  36
ENDBRANCH  28  30
ENDBRANCH  27  28
ENDBRANCH  26  27
ENDBRANCH   1  26
TORSDOF 17
ENDMDL
MODEL 2
REMARK VINA RESULT:     -11.7      1.852      2.157
REMARK SMILES Cc1ccsc1C(=O)NNC(=O)[C@@H]1[C@@H](C(=O)OCCOC(=O)c2ccc(-c3c4nc(c(-c5cc(S(=O)(=O)[O-])ccc5F)c5ccc([nH]5)c(-c5cc(S(=O)(=O)[O-])ccc5F)c5nc(c(-c6cc(S(=O)(=O)[O-])ccc6F)c6ccc3[nH]6)C=C5)C=C4)cc2)[C@H]2C=C[C@@H]1C2
REMARK SMILES IDX 18 1 17 2 15 3 16 4 14 5 13 6 89 7 86 8 88 9 90 10 87 11
REMARK SMILES IDX 11 12 10 13 12 15 9 16 7 17 8 18 6 20 1 21 2 22 3 23 4 24
REMARK SMILES IDX 5 25 19 26 20 27 21 28 22 29 23 30 24 31 85 32 25 33 84 34
REMARK SMILES IDX 26 35 27 36 28 37 78 38 29 39 83 40 77 41 79 42 30 43 82 44
REMARK SMILES IDX 76 45 75 46 31 48 63 49 43 50 62 51 44 52 47 53 61 54 80 55
REMARK SMILES IDX 45 56 46 57 60 59 81 60 48 61 32 62 33 63 41 64 34 65 40 66
REMARK SMILES IDX 42 67 39 68 35 69 36 70 37 71 38 72 64 73 65 74 73 75 66 76
REMARK SMILES IDX 72 77 74 78 71 79 67 80 68 81 69 82 70 83 49 84 50 85 58 86
REMARK SMILES IDX 51 87 57 88 59 89 56 90 52 91 53 92 54 93 55 94
REMARK H PARENT 10 14 9 19 79 47 47 58
REMARK Flexibility Score: inf
ROOT
ATOM      1  C   UNL A   1      35.137  21.462  24.874  1.00  0.00     0.274 C 
ENDROOT
BRANCH   1   2
ATOM      2  O   UNL A   1      34.270  22.356  25.595  1.00  0.00    -0.462 OA
BRANCH   2   3
ATOM      3  C   UNL A   1      34.366  23.664  25.269  1.00  0.00     0.310 C 
ATOM      4  O   UNL A   1      35.325  24.382  25.531  1.00  0.00    -0.252 OA
BRANCH   3   5
ATOM      5  C   UNL A   1      33.159  24.215  24.552  1.00  0.00     0.119 C 
ATOM      6  C   UNL A   1      31.874  23.451  24.941  1.00  0.00     0.102 C 
ATOM      7  C   UNL A   1      31.110  23.392  23.593  1.00  0.00     0.025 C 
ATOM      8  C   UNL A   1      33.121  24.207  23.004  1.00  0.00     0.027 C 
ATOM      9  C   UNL A   1      31.824  22.317  22.781  1.00  0.00    -0.027 C 
ATOM     10  C   UNL A   1      31.648  24.580  22.780  1.00  0.00     0.017 C 
ATOM     11  C   UNL A   1      33.033  22.803  22.452  1.00  0.00    -0.027 C 
BRANCH   6  12
ATOM     12  C   UNL A   1      31.208  23.963  26.219  1.00  0.00     0.242 C 
ATOM     13  N   UNL A   1      30.753  25.241  26.386  1.00  0.00    -0.267 N 
ATOM     14  H   UNL A   1      30.752  25.609  27.299  1.00  0.00     0.191 HD
ATOM     15  O   UNL A   1      31.120  23.197  27.188  1.00  0.00    -0.273 OA
BRANCH  13  16
ATOM     16  N   UNL A   1      30.300  26.050  25.374  1.00  0.00    -0.263 N 
ATOM     17  C   UNL A   1      30.772  27.310  25.040  1.00  0.00     0.280 C 
ATOM     18  O   UNL A   1      30.125  27.891  24.163  1.00  0.00    -0.266 OA
ATOM     19  H   UNL A   1      29.559  25.700  24.829  1.00  0.00     0.191 HD
BRANCH  17  20
ATOM     20  C   UNL A   1      32.006  27.848  25.610  1.00  0.00     0.096 A 
ATOM     21  C   UNL A   1      33.857  27.753  23.787  1.00  0.00     0.046 C 
ATOM     22  C   UNL A   1      33.296  28.078  25.132  1.00  0.00    -0.027 A 
ATOM     23  C   UNL A   1      34.123  28.692  26.142  1.00  0.00     0.016 A 
ATOM     24  C   UNL A   1      33.484  28.849  27.345  1.00  0.00     0.066 A 
ATOM     25  S   UNL A   1      31.885  28.285  27.285  1.00  0.00    -0.138 S 
ENDBRANCH  17  20
ENDBRANCH  13  16
ENDBRANCH   6  12
ENDBRANCH   3   5
ENDBRANCH   2   3
ENDBRANCH   1   2
BRANCH   1  26
ATOM     26  C   UNL A   1      36.346  21.071  25.727  1.00  0.00     0.275 C 
BRANCH  26  27
ATOM     27  O   UNL A   1      37.571  21.607  25.193  1.00  0.00    -0.458 OA
BRANCH  27  28
ATOM     28  C   UNL A   1      38.697  21.205  25.829  1.00  0.00     0.338 C 
ATOM     29  O   UNL A   1      39.186  20.089  25.831  1.00  0.00    -0.246 OA
BRANCH  28  30
ATOM     30  C   UNL A   1      39.354  22.366  26.444  1.00  0.00     0.060 A 
ATOM     31  C   UNL A   1      38.953  23.642  26.046  1.00  0.00     0.016 A 
ATOM     32  C   UNL A   1      40.418  22.203  27.330  1.00  0.00     0.016 A 
ATOM     33  C   UNL A   1      39.611  24.769  26.522  1.00  0.00     0.010 A 
ATOM     34  C   UNL A   1      41.072  23.337  27.821  1.00  0.00     0.010 A 
ATOM     35  C   UNL A   1      40.679  24.625  27.412  1.00  0.00    -0.014 A 
BRANCH  35  36
ATOM     36  C   UNL A   1      41.411  25.824  27.882  1.00  0.00     0.031 A 
ATOM     37  C   UNL A   1      40.687  26.871  28.678  1.00  0.00     0.074 A 
ATOM     38  C   UNL A   1      42.717  25.966  27.592  1.00  0.00     0.049 A 
ATOM     39  N   UNL A   1      41.095  28.053  29.057  1.00  0.00    -0.248 NA
ATOM     40  C   UNL A   1      39.316  26.541  29.094  1.00  0.00     0.031 C 
ATOM     41  C   UNL A   1      43.531  24.985  26.872  1.00  0.00     0.029 A 
ATOM     42  N   UNL A   1      43.584  26.996  27.853  1.00  0.00    -0.354 N 
ATOM     43  C   UNL A   1      40.022  28.626  29.730  1.00  0.00     0.074 A 
ATOM     44  C   UNL A   1      38.942  27.661  29.694  1.00  0.00     0.031 C 
ATOM     45  C   UNL A   1      44.776  25.469  26.733  1.00  0.00     0.029 A 
ATOM     46  C   UNL A   1      44.830  26.813  27.299  1.00  0.00     0.049 A 
ATOM     47  H   UNL A   1      43.339  27.788  28.383  1.00  0.00     0.167 HD
ATOM     48  C   UNL A   1      39.950  29.846  30.319  1.00  0.00     0.034 A 
ATOM     49  C   UNL A   1      45.878  27.656  27.213  1.00  0.00     0.034 A 
ATOM     50  C   UNL A   1      41.047  30.785  30.348  1.00  0.00     0.049 A 
ATOM     51  C   UNL A   1      45.755  29.031  27.814  1.00  0.00     0.074 A 
ATOM     52  C   UNL A   1      41.097  32.035  30.939  1.00  0.00     0.029 A 
ATOM     53  N   UNL A   1      42.284  30.579  29.751  1.00  0.00    -0.354 N 
ATOM     54  N   UNL A   1      44.729  29.573  28.431  1.00  0.00    -0.248 NA
ATOM     55  C   UNL A   1      46.926  29.908  27.703  1.00  0.00     0.031 C 
ATOM     56  C   UNL A   1      42.340  32.610  30.644  1.00  0.00     0.029 A 
ATOM     57  C   UNL A   1      43.092  31.692  29.927  1.00  0.00     0.049 A 
ATOM     58  H   UNL A   1      42.550  29.761  29.271  1.00  0.00     0.167 HD
ATOM     59  C   UNL A   1      45.138  30.852  28.793  1.00  0.00     0.074 A 
ATOM     60  C   UNL A   1      46.508  30.994  28.340  1.00  0.00     0.031 C 
ATOM     61  C   UNL A   1      44.447  31.822  29.444  1.00  0.00     0.034 A 
BRANCH  48  62
ATOM     62  C   UNL A   1      38.621  30.250  30.909  1.00  0.00     0.023 A 
ATOM     63  C   UNL A   1      37.646  30.930  30.158  1.00  0.00     0.031 A 
ATOM     64  C   UNL A   1      38.346  29.989  32.264  1.00  0.00     0.131 A 
ATOM     65  C   UNL A   1      36.476  31.388  30.784  1.00  0.00     0.055 A 
ATOM     66  C   UNL A   1      37.148  30.382  32.861  1.00  0.00     0.041 A 
ATOM     67  F   UNL A   1      39.249  29.366  33.036  1.00  0.00    -0.206 F 
ATOM     68  C   UNL A   1      36.211  31.100  32.125  1.00  0.00     0.022 A 
BRANCH  65  69
ATOM     69  S   UNL A   1      35.373  32.494  29.861  1.00  0.00     0.124 S 
ATOM     70  O   UNL A   1      36.301  33.527  29.408  1.00  0.00    -0.237 OA
ATOM     71  O   UNL A   1      34.839  31.615  28.827  1.00  0.00    -0.237 OA
ATOM     72  O   UNL A   1      34.408  32.933  30.866  1.00  0.00    -0.744 OA
ENDBRANCH  65  69
ENDBRANCH  48  62
BRANCH  49  73
ATOM     73  C   UNL A   1      47.100  27.250  26.464  1.00  0.00     0.023 A 
ATOM     74  C   UNL A   1      48.125  26.517  27.080  1.00  0.00     0.031 A 
ATOM     75  C   UNL A   1      47.264  27.614  25.115  1.00  0.00     0.131 A 
ATOM     76  C   UNL A   1      49.283  26.194  26.355  1.00  0.00     0.055 A 
ATOM     77  C   UNL A   1      48.397  27.251  24.386  1.00  0.00     0.041 A 
ATOM     78  F   UNL A   1      46.311  28.314  24.480  1.00  0.00    -0.206 F 
ATOM     79  C   UNL A   1      49.419  26.545  25.009  1.00  0.00     0.022 A 
BRANCH  76  80
ATOM     80  S   UNL A   1      50.639  25.351  27.213  1.00  0.00     0.124 S 
ATOM     81  O   UNL A   1      49.934  24.281  27.908  1.00  0.00    -0.237 OA
ATOM     82  O   UNL A   1      51.494  24.942  26.103  1.00  0.00    -0.237 OA
ATOM     83  O   UNL A   1      51.197  26.393  28.074  1.00  0.00    -0.744 OA
ENDBRANCH  76  80
ENDBRANCH  49  73
BRANCH  61  84
ATOM     84  C   UNL A   1      45.184  33.108  29.722  1.00  0.00     0.023 A 
ATOM     85  C   UNL A   1      45.142  34.189  28.825  1.00  0.00     0.031 A 
ATOM     86  C   UNL A   1      45.951  33.244  30.893  1.00  0.00     0.131 A 
ATOM     87  C   UNL A   1      45.893  35.343  29.091  1.00  0.00     0.055 A 
ATOM     88  C   UNL A   1      46.655  34.413  31.175  1.00  0.00     0.041 A 
ATOM     89  F   UNL A   1      46.026  32.239  31.780  1.00  0.00    -0.206 F 
ATOM     90  C   UNL A   1      46.639  35.468  30.266  1.00  0.00     0.022 A 
BRANCH  87  91
ATOM     91  S   UNL A   1      45.949  36.655  27.839  1.00  0.00     0.124 S 
ATOM     92  O   UNL A   1      45.039  36.141  26.820  1.00  0.00    -0.237 OA
ATOM     93  O   UNL A   1      45.480  37.819  28.583  1.00  0.00    -0.237 OA
ATOM     94  O   UNL A   1      47.357  36.697  27.447  1.00  0.00    -0.744 OA
ENDBRANCH  87  91
ENDBRANCH  61  84
ENDBRANCH  35  36
ENDBRANCH  28  30
ENDBRANCH  27  28
ENDBRANCH  26  27
ENDBRANCH   1  26
TORSDOF 17
ENDMDL
MODEL 3
REMARK VINA RESULT:     -11.6      4.819      9.611
REMARK SMILES Cc1ccsc1C(=O)NNC(=O)[C@@H]1[C@@H](C(=O)OCCOC(=O)c2ccc(-c3c4nc(c(-c5cc(S(=O)(=O)[O-])ccc5F)c5ccc([nH]5)c(-c5cc(S(=O)(=O)[O-])ccc5F)c5nc(c(-c6cc(S(=O)(=O)[O-])ccc6F)c6ccc3[nH]6)C=C5)C=C4)cc2)[C@H]2C=C[C@@H]1C2
REMARK SMILES IDX 18 1 17 2 15 3 16 4 14 5 13 6 89 7 86 8 88 9 90 10 87 11
REMARK SMILES IDX 11 12 10 13 12 15 9 16 7 17 8 18 6 20 1 21 2 22 3 23 4 24
REMARK SMILES IDX 5 25 19 26 20 27 21 28 22 29 23 30 24 31 85 32 25 33 84 34
REMARK SMILES IDX 26 35 27 36 28 37 78 38 29 39 83 40 77 41 79 42 30 43 82 44
REMARK SMILES IDX 76 45 75 46 31 48 63 49 43 50 62 51 44 52 47 53 61 54 80 55
REMARK SMILES IDX 45 56 46 57 60 59 81 60 48 61 32 62 33 63 41 64 34 65 40 66
REMARK SMILES IDX 42 67 39 68 35 69 36 70 37 71 38 72 64 73 65 74 73 75 66 76
REMARK SMILES IDX 72 77 74 78 71 79 67 80 68 81 69 82 70 83 49 84 50 85 58 86
REMARK SMILES IDX 51 87 57 88 59 89 56 90 52 91 53 92 54 93 55 94
REMARK H PARENT 10 14 9 19 79 47 47 58
REMARK Flexibility Score: inf
ROOT
ATOM      1  C   UNL A   1      32.054  29.551  24.653  1.00  0.00     0.274 C 
ENDROOT
BRANCH   1   2
ATOM      2  O   UNL A   1      30.821  29.139  24.035  1.00  0.00    -0.462 OA
BRANCH   2   3
ATOM      3  C   UNL A   1      30.646  27.806  23.896  1.00  0.00     0.310 C 
ATOM      4  O   UNL A   1      29.819  27.284  23.156  1.00  0.00    -0.252 OA
BRANCH   3   5
ATOM      5  C   UNL A   1      31.553  26.966  24.760  1.00  0.00     0.119 C 
ATOM      6  C   UNL A   1      31.847  25.598  24.105  1.00  0.00     0.102 C 
ATOM      7  C   UNL A   1      31.846  24.645  25.328  1.00  0.00     0.025 C 
ATOM      8  C   UNL A   1      31.105  26.584  26.192  1.00  0.00     0.027 C 
ATOM      9  C   UNL A   1      30.374  24.460  25.683  1.00  0.00    -0.027 C 
ATOM     10  C   UNL A   1      32.182  25.542  26.529  1.00  0.00     0.017 C 
ATOM     11  C   UNL A   1      29.934  25.630  26.178  1.00  0.00    -0.027 C 
BRANCH   6  12
ATOM     12  C   UNL A   1      33.005  25.621  23.107  1.00  0.00     0.242 C 
ATOM     13  N   UNL A   1      33.450  24.523  22.426  1.00  0.00    -0.267 N 
ATOM     14  H   UNL A   1      34.401  24.499  22.170  1.00  0.00     0.191 HD
ATOM     15  O   UNL A   1      33.622  26.682  22.939  1.00  0.00    -0.273 OA
BRANCH  13  16
ATOM     16  N   UNL A   1      32.670  23.450  22.074  1.00  0.00    -0.263 N 
ATOM     17  C   UNL A   1      32.694  22.182  22.635  1.00  0.00     0.280 C 
ATOM     18  O   UNL A   1      31.978  21.351  22.070  1.00  0.00    -0.266 OA
ATOM     19  H   UNL A   1      32.026  23.595  21.344  1.00  0.00     0.191 HD
BRANCH  17  20
ATOM     20  C   UNL A   1      33.429  21.898  23.867  1.00  0.00     0.096 A 
ATOM     21  C   UNL A   1      35.891  22.666  23.545  1.00  0.00     0.046 C 
ATOM     22  C   UNL A   1      34.737  22.101  24.305  1.00  0.00    -0.027 A 
ATOM     23  C   UNL A   1      34.904  21.660  25.668  1.00  0.00     0.016 A 
ATOM     24  C   UNL A   1      33.773  21.092  26.196  1.00  0.00     0.066 A 
ATOM     25  S   UNL A   1      32.493  21.090  25.083  1.00  0.00    -0.138 S 
ENDBRANCH  17  20
ENDBRANCH  13  16
ENDBRANCH   6  12
ENDBRANCH   3   5
ENDBRANCH   2   3
ENDBRANCH   1   2
BRANCH   1  26
ATOM     26  C   UNL A   1      31.785  30.496  25.826  1.00  0.00     0.275 C 
BRANCH  26  27
ATOM     27  O   UNL A   1      32.763  30.339  26.872  1.00  0.00    -0.458 OA
BRANCH  27  28
ATOM     28  C   UNL A   1      33.339  31.489  27.294  1.00  0.00     0.338 C 
ATOM     29  O   UNL A   1      32.838  32.599  27.323  1.00  0.00    -0.246 OA
BRANCH  28  30
ATOM     30  C   UNL A   1      34.665  31.196  27.857  1.00  0.00     0.060 A 
ATOM     31  C   UNL A   1      34.919  29.902  28.315  1.00  0.00     0.016 A 
ATOM     32  C   UNL A   1      35.614  32.203  28.020  1.00  0.00     0.016 A 
ATOM     33  C   UNL A   1      36.119  29.600  28.946  1.00  0.00     0.010 A 
ATOM     34  C   UNL A   1      36.828  31.898  28.643  1.00  0.00     0.010 A 
ATOM     35  C   UNL A   1      37.083  30.598  29.118  1.00  0.00    -0.014 A 
BRANCH  35  36
ATOM     36  C   UNL A   1      38.342  30.287  29.834  1.00  0.00     0.031 A 
ATOM     37  C   UNL A   1      39.312  29.309  29.238  1.00  0.00     0.074 A 
ATOM     38  C   UNL A   1      38.606  30.883  31.011  1.00  0.00     0.049 A 
ATOM     39  N   UNL A   1      40.391  28.790  29.761  1.00  0.00    -0.248 NA
ATOM     40  C   UNL A   1      39.019  28.851  27.872  1.00  0.00     0.031 C 
ATOM     41  C   UNL A   1      37.759  31.889  31.654  1.00  0.00     0.029 A 
ATOM     42  N   UNL A   1      39.652  30.718  31.882  1.00  0.00    -0.354 N 
ATOM     43  C   UNL A   1      40.893  27.916  28.803  1.00  0.00     0.074 A 
ATOM     44  C   UNL A   1      39.989  27.971  27.672  1.00  0.00     0.031 C 
ATOM     45  C   UNL A   1      38.311  32.239  32.828  1.00  0.00     0.029 A 
ATOM     46  C   UNL A   1      39.514  31.441  33.044  1.00  0.00     0.049 A 
ATOM     47  H   UNL A   1      40.425  30.139  31.695  1.00  0.00     0.167 HD
ATOM     48  C   UNL A   1      42.005  27.141  28.868  1.00  0.00     0.034 A 
ATOM     49  C   UNL A   1      40.245  31.421  34.176  1.00  0.00     0.034 A 
ATOM     50  C   UNL A   1      42.894  27.114  30.005  1.00  0.00     0.049 A 
ATOM     51  C   UNL A   1      41.436  30.504  34.254  1.00  0.00     0.074 A 
ATOM     52  C   UNL A   1      44.062  26.390  30.171  1.00  0.00     0.029 A 
ATOM     53  N   UNL A   1      42.706  27.835  31.178  1.00  0.00    -0.354 N 
ATOM     54  N   UNL A   1      41.893  29.666  33.350  1.00  0.00    -0.248 NA
ATOM     55  C   UNL A   1      42.207  30.525  35.502  1.00  0.00     0.031 C 
ATOM     56  C   UNL A   1      44.544  26.625  31.464  1.00  0.00     0.029 A 
ATOM     57  C   UNL A   1      43.715  27.548  32.084  1.00  0.00     0.049 A 
ATOM     58  H   UNL A   1      41.964  28.461  31.342  1.00  0.00     0.167 HD
ATOM     59  C   UNL A   1      43.013  29.070  33.920  1.00  0.00     0.074 A 
ATOM     60  C   UNL A   1      43.172  29.656  35.236  1.00  0.00     0.031 C 
ATOM     61  C   UNL A   1      43.840  28.125  33.402  1.00  0.00     0.034 A 
BRANCH  48  62
ATOM     62  C   UNL A   1      42.269  26.215  27.707  1.00  0.00     0.023 A 
ATOM     63  C   UNL A   1      41.788  24.893  27.679  1.00  0.00     0.031 A 
ATOM     64  C   UNL A   1      43.057  26.651  26.626  1.00  0.00     0.131 A 
ATOM     65  C   UNL A   1      42.161  24.036  26.633  1.00  0.00     0.055 A 
ATOM     66  C   UNL A   1      43.362  25.815  25.551  1.00  0.00     0.041 A 
ATOM     67  F   UNL A   1      43.563  27.893  26.609  1.00  0.00    -0.206 F 
ATOM     68  C   UNL A   1      42.926  24.493  25.558  1.00  0.00     0.022 A 
BRANCH  65  69
ATOM     69  S   UNL A   1      41.755  22.272  26.769  1.00  0.00     0.124 S 
ATOM     70  O   UNL A   1      41.948  21.817  25.394  1.00  0.00    -0.237 OA
ATOM     71  O   UNL A   1      42.732  21.799  27.743  1.00  0.00    -0.237 OA
ATOM     72  O   UNL A   1      40.368  22.273  27.228  1.00  0.00    -0.744 OA
ENDBRANCH  65  69
ENDBRANCH  48  62
BRANCH  49  73
ATOM     73  C   UNL A   1      39.824  32.237  35.348  1.00  0.00     0.023 A 
ATOM     74  C   UNL A   1      38.968  31.719  36.330  1.00  0.00     0.031 A 
ATOM     75  C   UNL A   1      40.265  33.566  35.488  1.00  0.00     0.131 A 
ATOM     76  C   UNL A   1      38.555  32.534  37.396  1.00  0.00     0.055 A 
ATOM     77  C   UNL A   1      39.887  34.358  36.573  1.00  0.00     0.041 A 
ATOM     78  F   UNL A   1      41.087  34.109  34.576  1.00  0.00    -0.206 F 
ATOM     79  C   UNL A   1      39.020  33.845  37.531  1.00  0.00     0.022 A 
BRANCH  76  80
ATOM     80  S   UNL A   1      37.354  31.872  38.582  1.00  0.00     0.124 S 
ATOM     81  O   UNL A   1      38.059  32.044  39.848  1.00  0.00    -0.237 OA
ATOM     82  O   UNL A   1      36.203  32.742  38.366  1.00  0.00    -0.237 OA
ATOM     83  O   UNL A   1      37.175  30.487  38.150  1.00  0.00    -0.744 OA
ENDBRANCH  76  80
ENDBRANCH  49  73
BRANCH  61  84
ATOM     84  C   UNL A   1      45.001  27.697  34.262  1.00  0.00     0.023 A 
ATOM     85  C   UNL A   1      44.904  26.602  35.138  1.00  0.00     0.031 A 
ATOM     86  C   UNL A   1      46.214  28.405  34.215  1.00  0.00     0.131 A 
ATOM     87  C   UNL A   1      45.987  26.276  35.968  1.00  0.00     0.055 A 
ATOM     88  C   UNL A   1      47.305  28.045  35.006  1.00  0.00     0.041 A 
ATOM     89  F   UNL A   1      46.358  29.460  33.397  1.00  0.00    -0.206 F 
ATOM     90  C   UNL A   1      47.191  26.982  35.898  1.00  0.00     0.022 A 
BRANCH  87  91
ATOM     91  S   UNL A   1      45.776  24.963  37.202  1.00  0.00     0.124 S 
ATOM     92  O   UNL A   1      45.042  25.654  38.258  1.00  0.00    -0.237 OA
ATOM     93  O   UNL A   1      45.028  23.954  36.461  1.00  0.00    -0.237 OA
ATOM     94  O   UNL A   1      47.148  24.589  37.544  1.00  0.00    -0.744 OA
ENDBRANCH  87  91
ENDBRANCH  61  84
ENDBRANCH  35  36
ENDBRANCH  28  30
ENDBRANCH  27  28
ENDBRANCH  26  27
ENDBRANCH   1  26
TORSDOF 17
ENDMDL
